data_PCOD8226372
_publ_section_title
;
Structure prediction by ZEFSAII (Michael W. Deem and Ramdas Pophale) SiO2 
 PCOD8226372
Probable space group: P B A M
;
_chemical_formula_sum "Si O2"
_cell_formula_units_Z 56
_cell_length_a 19.423899
_cell_length_b 9.029806
_cell_length_c 15.207020
_cell_angle_alpha 90.000000
_cell_angle_beta 90.000000
_cell_angle_gamma 90.000000
_cell_volume 2667.220670
_symmetry_space_group_name_H-M "P B A M"
_symmetry_group_IT_number 55
_symmetry_cell_setting 'orthorhombic'
loop_
_space_group_symop_operation_xyz
x,y,z
-x,-y,z
1/2+x,1/2-y,-z
1/2-x,1/2+y,-z
-x,-y,-z
x,y,-z
1/2-x,1/2+y,z
1/2+x,1/2-y,z
loop_
_atom_site_type_symbol
_atom_site_label
_atom_site_fract_x
_atom_site_fract_y
_atom_site_fract_z
Si Si1 0.248949 0.277982 0.707777
Si Si2 0.184511 0.524178 0.188285
Si Si3 0.494070 0.323688 0.290706
Si Si4 0.618967 0.308395 0.403578
Si Si5 0.369552 0.352568 0.403964
Si Si6 0.448004 0.879123 0.854361
Si Si7 0.235064 0.528685 0.000000
Si Si8 0.650413 0.250712 0.000000
O O1 0.233774 0.384085 0.790435
O O2 0.178761 0.223045 0.665272
O O3 0.291523 0.355813 0.630451
O O4 0.296883 0.146278 0.740740
O O5 0.105152 0.477331 0.203230
O O6 0.198331 0.585560 0.089428
O O7 0.500000 0.500000 0.272212
O O8 0.548360 0.255403 0.359670
O O9 0.420109 0.280361 0.331463
O O10 0.505860 0.236902 0.199587
O O11 0.630482 0.233196 0.500000
O O12 0.607885 0.480712 0.418244
O O13 0.373349 0.272192 0.500000
O O14 0.500000 0.000000 0.899529
O O15 0.399284 0.781951 0.918110
O O16 0.316110 0.582351 0.000000
O O17 0.219988 0.351026 0.000000
#
# Coordination Sequence:
#
# PCOD8226372 Si02
#       8
#     8   8   8   8   8   8   4   4
#     4  12  21  38  60  91 121 161 208 262 319 374
#     4  11  23  38  64  90 124 162 206 259 320 378
#     4  10  21  38  62  87 119 167 213 256 306 376
#     4  10  20  36  58  85 119 161 209 259 310 366
#     4  10  21  37  59  88 122 163 212 262 313 372
#     4  11  22  41  62  91 128 165 209 255 324 380
#     4  10  22  40  62  95 125 159 205 254 314 374
#     4  10  23  42  67  95 126 169 206 264 312 381
#
# _framework density 20.995639000000001
#
# number of rings (size 3 to 8) (size 9 to 14) (size 15 to 20)
#    0.000    1.429    2.857    3.643    0.000    1.714 
#    0.000    3.214    0.000    2.571    0.000    0.000 
#    0.000    0.000    0.000    0.000    0.000    0.000 
#
# Total GULP energy -693804.134236 kJ/mol
# GULP energy per Si atom -12389.359540 kJ/mol
# Density = 2.094785 g / cm^3
# Si number density = 20.995639 Si / 1000 Ang^3
#
#
#
# Elastic Constant Matrix: (Units=GPa)
#
#
# Indices 1 2 3 4 5 6 
#
# 1 114.8089 32.7428 37.3194 0.0000 0.0000 0.0000
# 2 32.7428 50.7292 32.3059 0.0000 0.0000 0.0000
# 3 37.3194 32.3059 111.5266 0.0000 0.0000 0.0000
# 4 0.0000 0.0000 0.0000 9.2099 0.0000 0.0000
# 5 0.0000 0.0000 0.0000 0.0000 -2.9335 0.0000
# 6 0.0000 0.0000 0.0000 0.0000 0.0000 39.9427
#
#
#
# Elastic Compliance Matrix: (Units=1/GPa)
#
#
# Indices 1 2 3 4 5 6 
#
# 1 0.011026 -0.005845 -0.001996 0.000000 0.000000 0.000000
# 2 -0.005845 0.027270 -0.005943 0.000000 0.000000 0.000000
# 3 -0.001996 -0.005943 0.011356 0.000000 0.000000 0.000000
# 4 0.000000 0.000000 0.000000 0.108579 0.000000 0.000000
# 5 0.000000 0.000000 0.000000 0.000000 -0.340892 0.000000
# 6 0.000000 0.000000 0.000000 0.000000 0.000000 0.025036
#
#
# Mechanical properties :
#
#
# Convention : Reuss Voigt Hill
#
# Bulk Modulus (GPa) = 45.28517 53.53343 49.40930
# Shear Modulus (GPa) = -40.75189 20.89026 -9.93082
#
# Velocity S-wave (km/s) = -4.41042 3.15775 -2.17720
# Velocity P-wave (km/s) = 2.07849 6.23281 4.15499
#
# Compressibility (1/GPa) = 0.02208229
#
# Stress axis : x y z
#
# Youngs Moduli (GPa) = 90.69372 36.66986 88.05816
#
# Poissons Ratio (x) = 0.21435 0.17580
# Poissons Ratio (y) = 0.53014 0.52337
# Poissons Ratio (z) = 0.18106 0.21794
#
# Static dielectric constant tensor:
#      x y z
#    x 3.860030 0.000000 0.000000 
#    y 0.000000 3.584180 0.000000 
#    z 0.000000 0.000000 3.964660 
# 
# 
# High freq. dielectric constant tensor:
#      x y z
#    x 1.828690 0.000000 0.000000 
#    y 0.000000 1.795460 0.000000 
#    z 0.000000 0.000000 1.827570 
# 
# From -- ./inp_files/19787.got.cif
#   From: 2010.03.12/outbox.cif.g09.slc.cpg/sg55_10_cif.got.tgz:19787.got - 2010.04.16 15:19:21.
