data_PCOD8226146
_publ_section_title
;
Structure prediction by ZEFSAII (Michael W. Deem and Ramdas Pophale) SiO2 
 PCOD8226146
Probable space group: P B A M
;
_chemical_formula_sum "Si O2"
_cell_formula_units_Z 64
_cell_length_a 12.271236
_cell_length_b 28.995309
_cell_length_c 9.446833
_cell_angle_alpha 90.000000
_cell_angle_beta 90.000000
_cell_angle_gamma 90.000000
_cell_volume 3361.261398
_symmetry_space_group_name_H-M "P B A M"
_symmetry_group_IT_number 55
_symmetry_cell_setting 'orthorhombic'
loop_
_space_group_symop_operation_xyz
x,y,z
-x,-y,z
1/2+x,1/2-y,-z
1/2-x,1/2+y,-z
-x,-y,-z
x,y,-z
1/2-x,1/2+y,z
1/2+x,1/2-y,z
loop_
_atom_site_type_symbol
_atom_site_label
_atom_site_fract_x
_atom_site_fract_y
_atom_site_fract_z
Si Si1 0.996166 0.554415 0.161138
Si Si2 0.373067 0.505174 0.333968
Si Si3 0.589881 0.246117 0.658572
Si Si4 0.401455 0.249020 0.157712
Si Si5 0.237084 0.579843 0.833032
Si Si6 0.801747 0.817719 0.842296
Si Si7 0.716421 0.079063 0.665736
Si Si8 0.207307 0.820931 0.340869
O O1 0.112305 0.573064 0.217953
O O2 0.000000 0.500000 0.172474
O O3 0.897678 0.573058 0.254978
O O4 0.976299 0.570708 0.000000
O O5 0.500000 0.500000 0.290203
O O6 0.363316 0.516060 0.500000
O O7 0.320401 0.546880 0.247919
O O8 0.305875 0.459249 0.293306
O O9 0.550037 0.256155 0.500000
O O10 0.494024 0.223454 0.751015
O O11 0.616324 0.295613 0.729662
O O12 0.685055 0.209575 0.660691
O O13 0.303270 0.214130 0.154487
O O14 0.376931 0.298033 0.232656
O O15 0.443190 0.259776 0.000000
O O16 0.270712 0.631416 0.792046
O O17 0.245602 0.569580 0.000000
O O18 0.853434 0.818982 0.000000
O O19 0.689536 0.078224 0.500000
O O20 0.767098 0.127775 0.712431
O O21 0.158528 0.821959 0.500000
#
# Coordination Sequence:
#
# PCOD8226146 Si02
#       8
#     8   8   8   8   8   8   8   8
#     4  10  20  35  57  84 116 148 182 228 281 334
#     4  10  22  39  57  80 112 148 187 231 278 330
#     4  10  20  35  55  78 108 144 183 229 277 326
#     4  10  20  35  56  81 110 145 183 226 276 329
#     4  10  21  38  58  84 114 146 185 230 278 331
#     4   9  20  37  55  79 111 144 183 227 272 326
#     4  10  21  37  57  82 112 147 188 232 277 330
#     4   9  20  37  54  78 110 145 186 230 274 325
#
# _framework density 19.040472000000001
#
# number of rings (size 3 to 8) (size 9 to 14) (size 15 to 20)
#    0.000    2.250    1.250    0.750    1.750    4.000 
#    0.000    1.250    0.000    0.000    0.000    0.000 
#    0.000    0.000    0.000    0.000    0.000    0.000 
#
# Total GULP energy -793503.505863 kJ/mol
# GULP energy per Si atom -12398.492279 kJ/mol
# Density = 1.899714 g / cm^3
# Si number density = 19.040472 Si / 1000 Ang^3
#
#
#
# Elastic Constant Matrix: (Units=GPa)
#
#
# Indices 1 2 3 4 5 6 
#
# 1 82.1408 24.3564 36.5083 0.0000 0.0000 0.0000
# 2 24.3564 113.0485 32.4348 0.0000 0.0000 0.0000
# 3 36.5083 32.4348 93.4088 0.0000 0.0000 0.0000
# 4 0.0000 0.0000 0.0000 4.8921 0.0000 0.0000
# 5 0.0000 0.0000 0.0000 0.0000 34.7727 0.0000
# 6 0.0000 0.0000 0.0000 0.0000 0.0000 -15.2426
#
#
#
# Elastic Compliance Matrix: (Units=1/GPa)
#
#
# Indices 1 2 3 4 5 6 
#
# 1 0.015030 -0.001725 -0.005276 0.000000 0.000000 0.000000
# 2 -0.001725 0.010022 -0.002806 0.000000 0.000000 0.000000
# 3 -0.005276 -0.002806 0.013742 0.000000 0.000000 0.000000
# 4 0.000000 0.000000 0.000000 0.204413 0.000000 0.000000
# 5 0.000000 0.000000 0.000000 0.000000 0.028758 0.000000
# 6 0.000000 0.000000 0.000000 0.000000 0.000000 -0.065606
#
#
# Mechanical properties :
#
#
# Convention : Reuss Voigt Hill
#
# Bulk Modulus (GPa) = 52.13223 52.79968 52.46595
# Shear Modulus (GPa) = 21.51766 17.90435 19.71101
#
# Velocity S-wave (km/s) = 3.36534 3.06981 3.22097
# Velocity P-wave (km/s) = 6.52226 6.35259 6.43798
#
# Compressibility (1/GPa) = 0.01918199
#
# Stress axis : x y z
#
# Youngs Moduli (GPa) = 66.53167 99.77619 72.76982
#
# Poissons Ratio (x) = 0.17208 0.38391
# Poissons Ratio (y) = 0.11474 0.20420
# Poissons Ratio (z) = 0.35100 0.27998
#
# Static dielectric constant tensor:
#      x y z
#    x 2.759890 0.000000 0.000000 
#    y 0.000000 3.505720 0.000000 
#    z 0.000000 0.000000 3.680330 
# 
# 
# High freq. dielectric constant tensor:
#      x y z
#    x 1.744470 0.000000 0.000000 
#    y 0.000000 1.739910 0.000000 
#    z 0.000000 0.000000 1.741220 
# 
# From -- ./inp_files/4586.got.cif
#   From: 2010.03.12/outbox.cif.g09.slc.cpg/sg55_3_cif.got.tgz:4586.got - 2010.04.16 15:19:21.
