data_PCOD8226216
_publ_section_title
;
Structure prediction by ZEFSAII (Michael W. Deem and Ramdas Pophale) SiO2 
 PCOD8226216
Probable space group: P B A M
;
_chemical_formula_sum "Si O2"
_cell_formula_units_Z 64
_cell_length_a 12.814732
_cell_length_b 26.778830
_cell_length_c 9.349117
_cell_angle_alpha 90.000000
_cell_angle_beta 90.000000
_cell_angle_gamma 90.000000
_cell_volume 3208.275990
_symmetry_space_group_name_H-M "P B A M"
_symmetry_group_IT_number 55
_symmetry_cell_setting 'orthorhombic'
loop_
_space_group_symop_operation_xyz
x,y,z
-x,-y,z
1/2+x,1/2-y,-z
1/2-x,1/2+y,-z
-x,-y,-z
x,y,-z
1/2-x,1/2+y,z
1/2+x,1/2-y,z
loop_
_atom_site_type_symbol
_atom_site_label
_atom_site_fract_x
_atom_site_fract_y
_atom_site_fract_z
Si Si1 0.634411 0.738355 0.832481
Si Si2 0.692732 0.048112 0.830646
Si Si3 0.079582 0.120333 0.334311
Si Si4 0.477909 0.796124 0.341794
Si Si5 0.726409 0.949924 0.333672
Si Si6 0.374081 0.375454 0.167285
Si Si7 0.811261 0.779867 0.657613
Si Si8 0.998062 0.590833 0.666900
O O1 0.526791 0.758197 0.770926
O O2 0.651616 0.681161 0.785321
O O3 0.719075 0.776620 0.770290
O O4 0.635023 0.744128 0.000000
O O5 0.773308 0.092077 0.790987
O O6 0.580101 0.056994 0.758808
O O7 0.740490 0.997767 0.766271
O O8 0.677493 0.042908 0.000000
O O9 0.050808 0.114685 0.500000
O O10 0.178723 0.086512 0.293340
O O11 0.107454 0.177434 0.294064
O O12 0.977127 0.104022 0.246699
O O13 0.531073 0.793689 0.500000
O O14 0.360961 0.775262 0.351834
O O15 0.479174 0.852311 0.284378
O O16 0.730264 0.965581 0.500000
O O17 0.617041 0.923014 0.298074
O O18 0.398207 0.378822 0.000000
O O19 0.767512 0.794953 0.500000
O O20 0.972001 0.582809 0.500000
#
# Coordination Sequence:
#
# PCOD8226216 Si02
#       8
#     8   8   8   8   8   8   8   8
#     4  11  22  35  55  83 118 157 192 233 287 348
#     4  11  24  41  61  86 118 157 203 251 300 358
#     4  10  21  39  63  89 118 155 200 251 297 352
#     4  10  20  36  59  86 115 150 191 234 284 343
#     4  10  22  40  61  87 119 153 196 252 311 360
#     4  10  23  41  58  83 122 161 197 245 298 352
#     4  10  20  35  57  85 116 151 193 238 283 340
#     4  10  21  39  63  90 121 154 192 247 307 359
#
# _framework density 19.948409000000002
#
# number of rings (size 3 to 8) (size 9 to 14) (size 15 to 20)
#    0.000    1.750    1.250    2.625    0.000    8.000 
#    0.000    3.750    0.000    0.000    0.000    0.000 
#    0.000    0.000    0.000    0.000    0.000    0.000 
#
# Total GULP energy -793638.211170 kJ/mol
# GULP energy per Si atom -12400.597050 kJ/mol
# Density = 1.990301 g / cm^3
# Si number density = 19.948409 Si / 1000 Ang^3
#
#
#
# Elastic Constant Matrix: (Units=GPa)
#
#
# Indices 1 2 3 4 5 6 
#
# 1 89.0468 9.1336 40.8734 0.0000 0.0000 0.0000
# 2 9.1336 79.8565 33.4610 0.0000 0.0000 0.0000
# 3 40.8734 33.4610 70.2710 0.0000 0.0000 0.0000
# 4 0.0000 0.0000 0.0000 31.4708 0.0000 0.0000
# 5 0.0000 0.0000 0.0000 0.0000 25.9799 0.0000
# 6 0.0000 0.0000 0.0000 0.0000 0.0000 31.8902
#
#
#
# Elastic Compliance Matrix: (Units=1/GPa)
#
#
# Indices 1 2 3 4 5 6 
#
# 1 0.015722 0.002541 -0.010355 0.000000 0.000000 0.000000
# 2 0.002541 0.016054 -0.009122 0.000000 0.000000 0.000000
# 3 -0.010355 -0.009122 0.024597 0.000000 0.000000 0.000000
# 4 0.000000 0.000000 0.000000 0.031775 0.000000 0.000000
# 5 0.000000 0.000000 0.000000 0.000000 0.038491 0.000000
# 6 0.000000 0.000000 0.000000 0.000000 0.000000 0.031358
#
#
# Mechanical properties :
#
#
# Convention : Reuss Voigt Hill
#
# Bulk Modulus (GPa) = 44.44258 45.12339 44.78298
# Shear Modulus (GPa) = 25.07880 28.24860 26.66370
#
# Velocity S-wave (km/s) = 3.54952 3.76717 3.65997
# Velocity P-wave (km/s) = 6.25507 6.44913 6.35284
#
# Compressibility (1/GPa) = 0.02250095
#
# Stress axis : x y z
#
# Youngs Moduli (GPa) = 63.60352 62.28879 40.65493
#
# Poissons Ratio (x) = -0.15825 0.42097
# Poissons Ratio (y) = -0.16159 0.37087
# Poissons Ratio (z) = 0.65860 0.56822
#
# Static dielectric constant tensor:
#      x y z
#    x 3.512910 0.000000 0.000000 
#    y 0.000000 3.704460 0.000000 
#    z 0.000000 0.000000 3.516640 
# 
# 
# High freq. dielectric constant tensor:
#      x y z
#    x 1.780810 0.000000 0.000000 
#    y 0.000000 1.782660 0.000000 
#    z 0.000000 0.000000 1.769970 
# 
# From -- ./inp_files/4671.got.cif
#   From: 2010.03.12/outbox.cif.g09.slc.cpg/sg55_3_cif.got.tgz:4671.got - 2010.04.16 15:19:21.
