data_PCOD8226927
_publ_section_title
;
Structure prediction by ZEFSAII (Michael W. Deem and Ramdas Pophale) SiO2 
 PCOD8226927
Probable space group: P B A M
;
_chemical_formula_sum "Si O2"
_cell_formula_units_Z 64
_cell_length_a 12.749520
_cell_length_b 28.103438
_cell_length_c 9.007802
_cell_angle_alpha 90.000000
_cell_angle_beta 90.000000
_cell_angle_gamma 90.000000
_cell_volume 3227.543602
_symmetry_space_group_name_H-M "P B A M"
_symmetry_group_IT_number 55
_symmetry_cell_setting 'orthorhombic'
loop_
_space_group_symop_operation_xyz
x,y,z
-x,-y,z
1/2+x,1/2-y,-z
1/2-x,1/2+y,-z
-x,-y,-z
x,y,-z
1/2-x,1/2+y,z
1/2+x,1/2-y,z
loop_
_atom_site_type_symbol
_atom_site_label
_atom_site_fract_x
_atom_site_fract_y
_atom_site_fract_z
Si Si1 0.086936 0.929910 0.834500
Si Si2 0.666840 0.942592 0.326985
Si Si3 0.958843 0.614426 0.326075
Si Si4 0.309144 0.961092 0.823381
Si Si5 0.551313 0.296658 0.673906
Si Si6 0.645634 0.679212 0.165594
Si Si7 0.379619 0.796505 0.825591
Si Si8 0.611191 0.402185 0.325753
O O1 0.186106 0.960312 0.773948
O O2 0.126011 0.876348 0.831636
O O3 0.981022 0.935895 0.739090
O O4 0.057843 0.946406 0.000000
O O5 0.672487 0.956148 0.500000
O O6 0.574735 0.905465 0.294895
O O7 0.775785 0.919889 0.270176
O O8 0.641238 0.989971 0.234700
O O9 0.933875 0.616251 0.500000
O O10 0.871198 0.582587 0.247466
O O11 0.958098 0.667474 0.258170
O O12 0.319394 0.956793 0.000000
O O13 0.564889 0.287695 0.500000
O O14 0.428882 0.294169 0.717335
O O15 0.611134 0.256696 0.765396
O O16 0.598297 0.347480 0.725261
O O17 0.763355 0.687537 0.216037
O O18 0.625296 0.699713 0.000000
O O19 0.403074 0.798165 0.000000
O O20 0.600621 0.405771 0.500000
#
# Coordination Sequence:
#
# PCOD8226927 Si02
#       8
#     8   8   8   8   8   8   8   8
#     4   9  18  35  58  83 113 146 189 240 288 340
#     4  10  23  41  58  83 121 159 194 240 294 350
#     4  11  23  39  60  85 117 156 199 246 296 349
#     4  11  22  38  60  88 118 153 196 245 296 351
#     4  10  21  36  57  87 116 150 195 240 294 354
#     4   9  18  36  57  78 110 150 188 237 291 341
#     4  11  22  38  60  87 117 151 195 242 295 354
#     4   9  20  39  59  81 115 155 195 241 293 348
#
# _framework density 19.829322000000001
#
# number of rings (size 3 to 8) (size 9 to 14) (size 15 to 20)
#    0.000    2.000    1.250    1.875    0.000    7.000 
#    0.000    3.750    0.000    0.000    0.000    0.000 
#    0.000    0.000    0.000    0.000    0.000    0.000 
#
# Total GULP energy -793708.501312 kJ/mol
# GULP energy per Si atom -12401.695333 kJ/mol
# Density = 1.978419 g / cm^3
# Si number density = 19.829322 Si / 1000 Ang^3
#
#
#
# Elastic Constant Matrix: (Units=GPa)
#
#
# Indices 1 2 3 4 5 6 
#
# 1 86.7690 10.8854 31.8546 0.0000 0.0000 0.0000
# 2 10.8854 47.8705 23.6023 0.0000 0.0000 0.0000
# 3 31.8546 23.6023 67.3776 0.0000 0.0000 0.0000
# 4 0.0000 0.0000 0.0000 27.3465 0.0000 0.0000
# 5 0.0000 0.0000 0.0000 0.0000 30.9375 0.0000
# 6 0.0000 0.0000 0.0000 0.0000 0.0000 22.7478
#
#
#
# Elastic Compliance Matrix: (Units=1/GPa)
#
#
# Indices 1 2 3 4 5 6 
#
# 1 0.013946 0.000096 -0.006627 0.000000 0.000000 0.000000
# 2 0.000096 0.025252 -0.008891 0.000000 0.000000 0.000000
# 3 -0.006627 -0.008891 0.021089 0.000000 0.000000 0.000000
# 4 0.000000 0.000000 0.000000 0.036568 0.000000 0.000000
# 5 0.000000 0.000000 0.000000 0.000000 0.032323 0.000000
# 6 0.000000 0.000000 0.000000 0.000000 0.000000 0.043960
#
#
# Mechanical properties :
#
#
# Convention : Reuss Voigt Hill
#
# Bulk Modulus (GPa) = 33.96396 37.18908 35.57652
# Shear Modulus (GPa) = 23.38683 25.25134 24.31909
#
# Velocity S-wave (km/s) = 3.43797 3.57239 3.50583
# Velocity P-wave (km/s) = 5.73802 5.98425 5.86243
#
# Compressibility (1/GPa) = 0.02944298
#
# Stress axis : x y z
#
# Youngs Moduli (GPa) = 71.70698 39.60157 47.41739
#
# Poissons Ratio (x) = -0.00381 0.31423
# Poissons Ratio (y) = -0.00690 0.42159
# Poissons Ratio (z) = 0.47519 0.35210
#
# Static dielectric constant tensor:
#      x y z
#    x 3.782420 0.000000 0.000000 
#    y 0.000000 3.612280 0.000000 
#    z 0.000000 0.000000 3.622580 
# 
# 
# High freq. dielectric constant tensor:
#      x y z
#    x 1.779480 0.000000 0.000000 
#    y 0.000000 1.770520 0.000000 
#    z 0.000000 0.000000 1.772120 
# 
# From -- ./inp_files/4567.got.cif
#   From: 2010.03.12/outbox.cif.g09.slc.cpg/sg55_3_cif.got.tgz:4567.got - 2010.04.16 15:19:21.
