data_PCOD8226339
_publ_section_title
;
Structure prediction by ZEFSAII (Michael W. Deem and Ramdas Pophale) SiO2 
 PCOD8226339
Probable space group: P B A M
;
_chemical_formula_sum "Si O2"
_cell_formula_units_Z 64
_cell_length_a 18.433836
_cell_length_b 19.579779
_cell_length_c 9.252261
_cell_angle_alpha 90.000000
_cell_angle_beta 90.000000
_cell_angle_gamma 90.000000
_cell_volume 3339.422587
_symmetry_space_group_name_H-M "P B A M"
_symmetry_group_IT_number 55
_symmetry_cell_setting 'orthorhombic'
loop_
_space_group_symop_operation_xyz
x,y,z
-x,-y,z
1/2+x,1/2-y,-z
1/2-x,1/2+y,-z
-x,-y,-z
x,y,-z
1/2-x,1/2+y,z
1/2+x,1/2-y,z
loop_
_atom_site_type_symbol
_atom_site_label
_atom_site_fract_x
_atom_site_fract_y
_atom_site_fract_z
Si Si1 0.255535 0.626426 0.168651
Si Si2 0.403302 0.168610 0.164361
Si Si3 0.943032 0.054600 0.828217
Si Si4 0.828600 0.623948 0.667668
Si Si5 0.014796 0.423379 0.670390
Si Si6 0.493331 0.298447 0.166178
Si Si7 0.362058 0.723439 0.331550
Si Si8 0.281384 0.471293 0.830166
O O1 0.179753 0.660679 0.213726
O O2 0.318756 0.662056 0.258402
O O3 0.252629 0.546549 0.209178
O O4 0.273368 0.636348 0.000000
O O5 0.453045 0.123128 0.264107
O O6 0.425228 0.247569 0.180344
O O7 0.412215 0.142958 0.000000
O O8 0.863192 0.036187 0.770801
O O9 0.966644 0.129028 0.773003
O O10 0.943253 0.052101 0.000000
O O11 0.000000 0.000000 0.764498
O O12 0.820656 0.604765 0.500000
O O13 0.906502 0.599281 0.727387
O O14 0.820634 0.705007 0.693190
O O15 0.766486 0.586052 0.754867
O O16 0.010116 0.414619 0.500000
O O17 0.000000 0.500000 0.721363
O O18 0.558712 0.270443 0.262145
O O19 0.519532 0.304016 0.000000
O O20 0.371191 0.707580 0.500000
O O21 0.277611 0.457500 0.000000
#
# Coordination Sequence:
#
# PCOD8226339 Si02
#       8
#     8   8   8   8   8   8   8   8
#     4  10  22  39  59  87 119 149 191 242 291 349
#     4  10  21  35  55  85 116 147 187 239 288 336
#     4   9  18  34  58  85 113 146 188 235 287 345
#     4  10  22  38  54  81 118 152 191 237 283 344
#     4  10  20  36  58  80 110 153 191 227 280 340
#     4  10  20  36  58  83 111 148 190 239 293 339
#     4  11  23  39  59  84 115 156 197 236 289 349
#     4  10  21  37  61  89 115 151 194 239 293 351
#
# _framework density 19.164991000000001
#
# number of rings (size 3 to 8) (size 9 to 14) (size 15 to 20)
#    0.000    2.000    1.250    1.875    1.750    4.750 
#    0.000    0.625    0.000    1.500    0.000    0.000 
#    0.000    0.000    0.000    0.000    0.000    0.000 
#
# Total GULP energy -793852.011859 kJ/mol
# GULP energy per Si atom -12403.937685 kJ/mol
# Density = 1.912137 g / cm^3
# Si number density = 19.164991 Si / 1000 Ang^3
#
#
#
# Elastic Constant Matrix: (Units=GPa)
#
#
# Indices 1 2 3 4 5 6 
#
# 1 114.9597 44.1370 37.3143 0.0000 0.0000 0.0000
# 2 44.1370 115.3157 38.8661 0.0000 0.0000 0.0000
# 3 37.3143 38.8661 48.4201 0.0000 0.0000 0.0000
# 4 0.0000 0.0000 0.0000 16.3741 0.0000 0.0000
# 5 0.0000 0.0000 0.0000 0.0000 42.7266 0.0000
# 6 0.0000 0.0000 0.0000 0.0000 0.0000 41.2624
#
#
#
# Elastic Compliance Matrix: (Units=1/GPa)
#
#
# Indices 1 2 3 4 5 6 
#
# 1 0.011931 -0.002012 -0.007580 0.000000 0.000000 0.000000
# 2 -0.002012 0.012227 -0.008264 0.000000 0.000000 0.000000
# 3 -0.007580 -0.008264 0.033127 0.000000 0.000000 0.000000
# 4 0.000000 0.000000 0.000000 0.061072 0.000000 0.000000
# 5 0.000000 0.000000 0.000000 0.000000 0.023405 0.000000
# 6 0.000000 0.000000 0.000000 0.000000 0.000000 0.024235
#
#
# Mechanical properties :
#
#
# Convention : Reuss Voigt Hill
#
# Bulk Modulus (GPa) = 46.35166 57.70335 52.02751
# Shear Modulus (GPa) = 23.93475 30.63117 27.28296
#
# Velocity S-wave (km/s) = 3.53778 4.00220 3.77713
# Velocity P-wave (km/s) = 6.39734 7.17850 6.79915
#
# Compressibility (1/GPa) = 0.02157420
#
# Stress axis : x y z
#
# Youngs Moduli (GPa) = 83.81188 81.78412 30.18656
#
# Poissons Ratio (x) = 0.16456 0.22881
# Poissons Ratio (y) = 0.16864 0.24947
# Poissons Ratio (z) = 0.63528 0.67587
#
# Static dielectric constant tensor:
#      x y z
#    x 3.660380 0.000000 0.000000 
#    y 0.000000 3.712080 0.000000 
#    z 0.000000 0.000000 3.275850 
# 
# 
# High freq. dielectric constant tensor:
#      x y z
#    x 1.753450 0.000000 0.000000 
#    y 0.000000 1.760020 0.000000 
#    z 0.000000 0.000000 1.722290 
# 
# From -- ./inp_files/8043.got.cif
#   From: 2010.03.12/outbox.cif.g09.slc.cpg/sg55_5_cif.got.tgz:8043.got - 2010.04.16 15:19:21.
