data_PCOD8226576
_publ_section_title
;
Structure prediction by ZEFSAII (Michael W. Deem and Ramdas Pophale) SiO2 
 PCOD8226576
Probable space group: P B A M
;
_chemical_formula_sum "Si O2"
_cell_formula_units_Z 40
_cell_length_a 15.063809
_cell_length_b 15.225769
_cell_length_c 8.807557
_cell_angle_alpha 90.000000
_cell_angle_beta 90.000000
_cell_angle_gamma 90.000000
_cell_volume 2020.084329
_symmetry_space_group_name_H-M "P B A M"
_symmetry_group_IT_number 55
_symmetry_cell_setting 'orthorhombic'
loop_
_space_group_symop_operation_xyz
x,y,z
-x,-y,z
1/2+x,1/2-y,-z
1/2-x,1/2+y,-z
-x,-y,-z
x,y,-z
1/2-x,1/2+y,z
1/2+x,1/2-y,z
loop_
_atom_site_type_symbol
_atom_site_label
_atom_site_fract_x
_atom_site_fract_y
_atom_site_fract_z
Si Si1 0.180866 0.226390 0.321193
Si Si2 0.523090 0.747823 0.679183
Si Si3 0.174580 0.855492 0.821442
Si Si4 0.571654 0.936248 0.324007
Si Si5 0.228689 0.031665 0.675875
O O1 0.197535 0.233275 0.500000
O O2 0.246934 0.296158 0.246875
O O3 0.200236 0.127591 0.264792
O O4 0.080133 0.247650 0.275505
O O5 0.535559 0.734239 0.500000
O O6 0.577296 0.671947 0.763348
O O7 0.565288 0.838340 0.742526
O O8 0.182611 0.956998 0.774483
O O9 0.179496 0.846944 0.000000
O O10 0.546948 0.926402 0.500000
O O11 0.666648 0.979171 0.299135
O O12 0.500000 0.000000 0.244130
O O13 0.202370 0.019481 0.500000
#
# Coordination Sequence:
#
# PCOD8226576 Si02
#       5
#     8   8   8   8   8
#     4  10  21  40  67  92 116 155 207 266 308 349
#     4  10  20  38  64  90 118 154 205 258 305 354
#     4  12  25  39  58  87 129 169 198 242 306 374
#     4   9  16  30  57  90 116 143 189 254 309 348
#     4  10  20  37  61  87 117 155 206 256 303 356
#
# _framework density 19.801155000000001
#
# number of rings (size 3 to 8) (size 9 to 14) (size 15 to 20)
#    0.000    1.800    2.000    3.000    0.000    5.600 
#    0.000    4.000    0.000    2.400    0.000    0.000 
#    0.000    0.000    0.000    0.000    0.000    0.000 
#
# Total GULP energy -496029.904338 kJ/mol
# GULP energy per Si atom -12400.747608 kJ/mol
# Density = 1.975609 g / cm^3
# Si number density = 19.801155 Si / 1000 Ang^3
#
#
#
# Elastic Constant Matrix: (Units=GPa)
#
#
# Indices 1 2 3 4 5 6 
#
# 1 56.3352 6.0792 26.7671 0.0000 0.0000 0.0000
# 2 6.0792 89.5338 24.5770 0.0000 0.0000 0.0000
# 3 26.7671 24.5770 58.2171 0.0000 0.0000 0.0000
# 4 0.0000 0.0000 0.0000 11.2513 0.0000 0.0000
# 5 0.0000 0.0000 0.0000 0.0000 12.1036 0.0000
# 6 0.0000 0.0000 0.0000 0.0000 0.0000 40.0586
#
#
#
# Elastic Compliance Matrix: (Units=1/GPa)
#
#
# Indices 1 2 3 4 5 6 
#
# 1 0.022892 0.001510 -0.011163 0.000000 0.000000 0.000000
# 2 0.001510 0.012732 -0.006069 0.000000 0.000000 0.000000
# 3 -0.011163 -0.006069 0.024872 0.000000 0.000000 0.000000
# 4 0.000000 0.000000 0.000000 0.088878 0.000000 0.000000
# 5 0.000000 0.000000 0.000000 0.000000 0.082620 0.000000
# 6 0.000000 0.000000 0.000000 0.000000 0.000000 0.024963
#
#
# Mechanical properties :
#
#
# Convention : Reuss Voigt Hill
#
# Bulk Modulus (GPa) = 34.42141 35.43697 34.92919
# Shear Modulus (GPa) = 16.77368 22.46023 19.61695
#
# Velocity S-wave (km/s) = 2.91367 3.37157 3.15095
# Velocity P-wave (km/s) = 5.36102 5.75256 5.56024
#
# Compressibility (1/GPa) = 0.02905169
#
# Stress axis : x y z
#
# Youngs Moduli (GPa) = 43.68380 78.53922 40.20640
#
# Poissons Ratio (x) = -0.11858 0.44881
# Poissons Ratio (y) = -0.06595 0.24403
# Poissons Ratio (z) = 0.48762 0.47668
#
# Static dielectric constant tensor:
#      x y z
#    x 3.666450 0.000000 0.000000 
#    y 0.000000 3.807190 0.000000 
#    z 0.000000 0.000000 3.223080 
# 
# 
# High freq. dielectric constant tensor:
#      x y z
#    x 1.782520 0.000000 0.000000 
#    y 0.000000 1.788120 0.000000 
#    z 0.000000 0.000000 1.727990 
# 
# From -- ./inp_files/5180.got.cif
#   From: 2010.03.12/outbox.cif.g09.slc.cpg/sg55_3_cif.got.tgz:5180.got - 2010.04.16 15:19:21.
