data_PCOD8226391
_publ_section_title
;
Structure prediction by ZEFSAII (Michael W. Deem and Ramdas Pophale) SiO2 
 PCOD8226391
Probable space group: P B A M
;
_chemical_formula_sum "Si O2"
_cell_formula_units_Z 64
_cell_length_a 12.695089
_cell_length_b 27.790113
_cell_length_c 9.357742
_cell_angle_alpha 90.000000
_cell_angle_beta 90.000000
_cell_angle_gamma 90.000000
_cell_volume 3301.392268
_symmetry_space_group_name_H-M "P B A M"
_symmetry_group_IT_number 55
_symmetry_cell_setting 'orthorhombic'
loop_
_space_group_symop_operation_xyz
x,y,z
-x,-y,z
1/2+x,1/2-y,-z
1/2-x,1/2+y,-z
-x,-y,-z
x,y,-z
1/2-x,1/2+y,z
1/2+x,1/2-y,z
loop_
_atom_site_type_symbol
_atom_site_label
_atom_site_fract_x
_atom_site_fract_y
_atom_site_fract_z
Si Si1 0.087547 0.930450 0.840182
Si Si2 0.662982 0.938939 0.330506
Si Si3 0.984005 0.612300 0.165197
Si Si4 0.311207 0.966543 0.832452
Si Si5 0.547556 0.297189 0.667368
Si Si6 0.642297 0.680419 0.158400
Si Si7 0.373744 0.790539 0.835739
Si Si8 0.604860 0.405012 0.333633
O O1 0.189877 0.959080 0.782335
O O2 0.119523 0.875446 0.838693
O O3 0.983299 0.938024 0.744359
O O4 0.059424 0.947556 0.000000
O O5 0.648278 0.942284 0.500000
O O6 0.580683 0.900903 0.267375
O O7 0.779978 0.922227 0.287448
O O8 0.639533 0.990341 0.259295
O O9 0.880825 0.580496 0.200046
O O10 0.959430 0.668179 0.196966
O O11 0.016587 0.604854 0.000000
O O12 0.315592 0.979341 0.000000
O O13 0.544135 0.289179 0.500000
O O14 0.429953 0.291682 0.728754
O O15 0.617180 0.255793 0.736591
O O16 0.595642 0.348980 0.709579
O O17 0.761869 0.687039 0.202664
O O18 0.619729 0.701383 0.000000
O O19 0.380984 0.774157 0.000000
O O20 0.584147 0.412036 0.500000
#
# Coordination Sequence:
#
# PCOD8226391 Si02
#       8
#     8   8   8   8   8   8   8   8
#     4   9  17  33  60  86 107 137 184 236 280 329
#     4  11  24  39  55  80 117 157 192 230 275 331
#     4  10  21  39  60  82 112 147 185 232 287 338
#     4  10  20  37  60  86 113 145 184 234 290 338
#     4  10  21  36  55  81 112 148 186 226 280 339
#     4   9  17  34  57  80 107 140 181 232 282 329
#     4  10  20  36  59  85 110 141 184 233 284 337
#     4   9  21  40  55  74 113 156 187 226 282 334
#
# _framework density 19.385760000000001
#
# number of rings (size 3 to 8) (size 9 to 14) (size 15 to 20)
#    0.000    2.250    1.250    1.125    0.000    6.500 
#    0.000    5.000    0.000    0.000    0.000    0.000 
#    0.000    0.000    0.000    0.000    0.000    0.000 
#
# Total GULP energy -793638.654411 kJ/mol
# GULP energy per Si atom -12400.603975 kJ/mol
# Density = 1.934164 g / cm^3
# Si number density = 19.385760 Si / 1000 Ang^3
#
#
#
# Elastic Constant Matrix: (Units=GPa)
#
#
# Indices 1 2 3 4 5 6 
#
# 1 88.0266 5.4233 34.9623 0.0000 0.0000 0.0000
# 2 5.4233 39.7895 21.8261 0.0000 0.0000 0.0000
# 3 34.9623 21.8261 66.3952 0.0000 0.0000 0.0000
# 4 0.0000 0.0000 0.0000 22.1235 0.0000 0.0000
# 5 0.0000 0.0000 0.0000 0.0000 16.3812 0.0000
# 6 0.0000 0.0000 0.0000 0.0000 0.0000 22.7793
#
#
#
# Elastic Compliance Matrix: (Units=1/GPa)
#
#
# Indices 1 2 3 4 5 6 
#
# 1 0.014601 0.002717 -0.008582 0.000000 0.000000 0.000000
# 2 0.002717 0.031167 -0.011676 0.000000 0.000000 0.000000
# 3 -0.008582 -0.011676 0.023419 0.000000 0.000000 0.000000
# 4 0.000000 0.000000 0.000000 0.045201 0.000000 0.000000
# 5 0.000000 0.000000 0.000000 0.000000 0.061046 0.000000
# 6 0.000000 0.000000 0.000000 0.000000 0.000000 0.043900
#
#
# Mechanical properties :
#
#
# Convention : Reuss Voigt Hill
#
# Bulk Modulus (GPa) = 29.32121 35.40383 32.36252
# Shear Modulus (GPa) = 18.81231 21.05678 19.93454
#
# Velocity S-wave (km/s) = 3.11853 3.29933 3.21020
# Velocity P-wave (km/s) = 5.30330 5.72857 5.52003
#
# Compressibility (1/GPa) = 0.03410500
#
# Stress axis : x y z
#
# Youngs Moduli (GPa) = 68.48653 32.08537 42.70060
#
# Poissons Ratio (x) = -0.08719 0.36646
# Poissons Ratio (y) = -0.18611 0.49859
# Poissons Ratio (z) = 0.58776 0.37464
#
# Static dielectric constant tensor:
#      x y z
#    x 3.693750 0.000000 0.000000 
#    y 0.000000 3.505090 0.000000 
#    z 0.000000 0.000000 3.524720 
# 
# 
# High freq. dielectric constant tensor:
#      x y z
#    x 1.761170 0.000000 0.000000 
#    y 0.000000 1.750950 0.000000 
#    z 0.000000 0.000000 1.746400 
# 
# From -- ./inp_files/4568.got.cif
#   From: 2010.03.12/outbox.cif.g09.slc.cpg/sg55_3_cif.got.tgz:4568.got - 2010.04.16 15:19:21.
