data_PCOD8226704
_publ_section_title
;
Structure prediction by ZEFSAII (Michael W. Deem and Ramdas Pophale) SiO2 
 PCOD8226704
Probable space group: P B A M
;
_chemical_formula_sum "Si O2"
_cell_formula_units_Z 64
_cell_length_a 22.797516
_cell_length_b 15.369972
_cell_length_c 8.888206
_cell_angle_alpha 90.000000
_cell_angle_beta 90.000000
_cell_angle_gamma 90.000000
_cell_volume 3114.402341
_symmetry_space_group_name_H-M "P B A M"
_symmetry_group_IT_number 55
_symmetry_cell_setting 'orthorhombic'
loop_
_space_group_symop_operation_xyz
x,y,z
-x,-y,z
1/2+x,1/2-y,-z
1/2-x,1/2+y,-z
-x,-y,-z
x,y,-z
1/2-x,1/2+y,z
1/2+x,1/2-y,z
loop_
_atom_site_type_symbol
_atom_site_label
_atom_site_fract_x
_atom_site_fract_y
_atom_site_fract_z
Si Si1 0.684467 0.314196 0.831102
Si Si2 0.631329 0.130898 0.168635
Si Si3 0.816804 0.320353 0.824863
Si Si4 0.792556 0.496689 0.674023
Si Si5 0.515042 0.100534 0.330097
Si Si6 0.340829 0.516359 0.674366
Si Si7 0.927170 0.246204 0.324695
Si Si8 0.450594 0.430848 0.821922
O O1 0.643176 0.232233 0.820438
O O2 0.751008 0.287624 0.788073
O O3 0.656184 0.382093 0.715668
O O4 0.684375 0.354145 0.000000
O O5 0.672317 0.083237 0.288155
O O6 0.563942 0.120269 0.208419
O O7 0.643201 0.095909 0.000000
O O8 0.821762 0.419446 0.768957
O O9 0.861598 0.256540 0.740047
O O10 0.832126 0.316542 0.000000
O O11 0.799661 0.472194 0.500000
O O12 0.724844 0.515033 0.714746
O O13 0.537095 0.119274 0.500000
O O14 0.460398 0.163090 0.292225
O O15 0.500000 0.000000 0.312111
O O16 0.356256 0.503485 0.500000
O O17 0.386365 0.462303 0.772796
O O18 0.922371 0.225555 0.500000
O O19 0.961174 0.164837 0.248538
O O20 0.500000 0.500000 0.765860
O O21 0.453140 0.421943 0.000000
#
# Coordination Sequence:
#
# PCOD8226704 Si02
#       8
#     8   8   8   8   8   8   8   8
#     4   9  21  39  59  89 125 161 199 247 306 372
#     4  11  23  37  60  91 123 159 204 252 302 370
#     4  10  20  38  63  91 124 163 204 249 306 370
#     4  10  21  38  60  91 127 163 201 251 311 371
#     4  10  23  43  64  89 125 166 205 254 314 372
#     4  10  22  40  64  92 121 159 205 255 311 370
#     4  11  24  41  65  96 129 166 210 262 312 371
#     4  11  26  45  65  88 121 167 213 264 318 373
#
# _framework density 20.549689999999998
#
# number of rings (size 3 to 8) (size 9 to 14) (size 15 to 20)
#    0.000    1.750    0.000    3.000    3.500    6.250 
#    0.000    0.000    0.000    0.000    0.000    0.000 
#    0.000    0.000    0.000    0.000    0.000    0.000 
#
# Total GULP energy -793807.422005 kJ/mol
# GULP energy per Si atom -12403.240969 kJ/mol
# Density = 2.050292 g / cm^3
# Si number density = 20.549690 Si / 1000 Ang^3
#
#
#
# Elastic Constant Matrix: (Units=GPa)
#
#
# Indices 1 2 3 4 5 6 
#
# 1 82.4209 45.2048 36.4867 0.0000 0.0000 0.0000
# 2 45.2048 97.8496 40.4660 0.0000 0.0000 0.0000
# 3 36.4867 40.4660 77.7627 0.0000 0.0000 0.0000
# 4 0.0000 0.0000 0.0000 34.7337 0.0000 0.0000
# 5 0.0000 0.0000 0.0000 0.0000 31.4460 0.0000
# 6 0.0000 0.0000 0.0000 0.0000 0.0000 31.1988
#
#
#
# Elastic Compliance Matrix: (Units=1/GPa)
#
#
# Indices 1 2 3 4 5 6 
#
# 1 0.017746 -0.006059 -0.005174 0.000000 0.000000 0.000000
# 2 -0.006059 0.015091 -0.005010 0.000000 0.000000 0.000000
# 3 -0.005174 -0.005010 0.017894 0.000000 0.000000 0.000000
# 4 0.000000 0.000000 0.000000 0.028790 0.000000 0.000000
# 5 0.000000 0.000000 0.000000 0.000000 0.031801 0.000000
# 6 0.000000 0.000000 0.000000 0.000000 0.000000 0.032052
#
#
# Mechanical properties :
#
#
# Convention : Reuss Voigt Hill
#
# Bulk Modulus (GPa) = 54.80646 55.81648 55.31147
# Shear Modulus (GPa) = 27.48126 28.53408 28.00767
#
# Velocity S-wave (km/s) = 3.66089 3.73036 3.69579
# Velocity P-wave (km/s) = 6.67814 6.76570 6.72207
#
# Compressibility (1/GPa) = 0.01824603
#
# Stress axis : x y z
#
# Youngs Moduli (GPa) = 56.34999 66.26565 55.88363
#
# Poissons Ratio (x) = 0.40149 0.28913
# Poissons Ratio (y) = 0.34142 0.27998
# Poissons Ratio (z) = 0.29154 0.33200
#
# Static dielectric constant tensor:
#      x y z
#    x 3.696020 0.000000 0.000000 
#    y 0.000000 3.484350 0.000000 
#    z 0.000000 0.000000 3.824090 
# 
# 
# High freq. dielectric constant tensor:
#      x y z
#    x 1.805270 0.000000 0.000000 
#    y 0.000000 1.804610 0.000000 
#    z 0.000000 0.000000 1.810820 
# 
# From -- ./inp_files/9747.got.cif
#   From: 2010.03.12/outbox.cif.g09.slc.cpg/sg55_5_cif.got.tgz:9747.got - 2010.04.16 15:19:21.
