data_PCOD8226604
_publ_section_title
;
Structure prediction by ZEFSAII (Michael W. Deem and Ramdas Pophale) SiO2 
 PCOD8226604
Probable space group: P B A M
;
_chemical_formula_sum "Si O2"
_cell_formula_units_Z 48
_cell_length_a 8.895307
_cell_length_b 30.739808
_cell_length_c 8.338972
_cell_angle_alpha 90.000000
_cell_angle_beta 90.000000
_cell_angle_gamma 90.000000
_cell_volume 2280.208748
_symmetry_space_group_name_H-M "P B A M"
_symmetry_group_IT_number 55
_symmetry_cell_setting 'orthorhombic'
loop_
_space_group_symop_operation_xyz
x,y,z
-x,-y,z
1/2+x,1/2-y,-z
1/2-x,1/2+y,-z
-x,-y,-z
x,y,-z
1/2-x,1/2+y,z
1/2+x,1/2-y,z
loop_
_atom_site_type_symbol
_atom_site_label
_atom_site_fract_x
_atom_site_fract_y
_atom_site_fract_z
Si Si1 0.093457 0.543116 0.187476
Si Si2 0.592100 0.790271 0.185207
Si Si3 0.071305 0.871664 0.186172
Si Si4 0.077917 0.044475 0.685359
Si Si5 0.581980 0.288252 0.682650
Si Si6 0.090145 0.373788 0.190007
O O1 0.245100 0.540761 0.287752
O O2 0.000000 0.500000 0.222584
O O3 0.997752 0.583923 0.253058
O O4 0.131791 0.548089 0.000000
O O5 0.740733 0.787360 0.289898
O O6 0.497655 0.746209 0.201484
O O7 0.493682 0.830512 0.250494
O O8 0.635975 0.797183 0.000000
O O9 0.240160 0.873787 0.257151
O O10 0.991333 0.917795 0.206099
O O11 0.978734 0.836213 0.284155
O O12 0.071210 0.858622 0.000000
O O13 0.044427 0.054470 0.500000
O O14 0.000000 0.000000 0.741114
O O15 0.548698 0.275284 0.500000
O O16 0.097568 0.375201 0.000000
#
# Coordination Sequence:
#
# PCOD8226604 Si02
#       6
#     8   8   8   8   8   8
#     4  10  20  37  62  90 118 153 202 253 299 354
#     4  11  22  40  64  89 120 163 211 252 299 366
#     4  11  22  40  65  90 118 157 204 251 302 363
#     4  11  24  40  58  86 124 162 200 246 303 362
#     4  12  25  41  61  91 127 160 200 254 314 367
#     4   9  20  37  60  89 117 149 197 254 301 347
#
# _framework density 21.050705000000001
#
# number of rings (size 3 to 8) (size 9 to 14) (size 15 to 20)
#    0.000    1.333    0.000    6.000    0.000    5.667 
#    0.000    5.000    0.000    0.000    0.000    0.000 
#    0.000    0.000    0.000    0.000    0.000    0.000 
#
# Total GULP energy -595573.001469 kJ/mol
# GULP energy per Si atom -12407.770864 kJ/mol
# Density = 2.100279 g / cm^3
# Si number density = 21.050705 Si / 1000 Ang^3
#
#
#
# Elastic Constant Matrix: (Units=GPa)
#
#
# Indices 1 2 3 4 5 6 
#
# 1 153.2922 59.8926 13.6221 0.0000 0.0000 0.0000
# 2 59.8926 148.4696 12.9981 0.0000 0.0000 0.0000
# 3 13.6221 12.9981 49.9667 0.0000 0.0000 0.0000
# 4 0.0000 0.0000 0.0000 9.7960 0.0000 0.0000
# 5 0.0000 0.0000 0.0000 0.0000 22.8941 0.0000
# 6 0.0000 0.0000 0.0000 0.0000 0.0000 42.4754
#
#
#
# Elastic Compliance Matrix: (Units=1/GPa)
#
#
# Indices 1 2 3 4 5 6 
#
# 1 0.007831 -0.003041 -0.001344 0.000000 0.000000 0.000000
# 2 -0.003041 0.008074 -0.001271 0.000000 0.000000 0.000000
# 3 -0.001344 -0.001271 0.020710 0.000000 0.000000 0.000000
# 4 0.000000 0.000000 0.000000 0.102082 0.000000 0.000000
# 5 0.000000 0.000000 0.000000 0.000000 0.043679 0.000000
# 6 0.000000 0.000000 0.000000 0.000000 0.000000 0.023543
#
#
# Mechanical properties :
#
#
# Convention : Reuss Voigt Hill
#
# Bulk Modulus (GPa) = 39.52172 58.30601 48.91387
# Shear Modulus (GPa) = 22.15659 32.71415 27.43537
#
# Velocity S-wave (km/s) = 3.24780 3.94644 3.61404
# Velocity P-wave (km/s) = 5.73407 6.96591 6.37979
#
# Compressibility (1/GPa) = 0.02530254
#
# Stress axis : x y z
#
# Youngs Moduli (GPa) = 127.69380 123.86061 48.28511
#
# Poissons Ratio (x) = 0.37672 0.06488
# Poissons Ratio (y) = 0.38838 0.06137
# Poissons Ratio (z) = 0.17159 0.15743
#
# Static dielectric constant tensor:
#      x y z
#    x 4.278320 0.000000 0.000000 
#    y 0.000000 4.082340 0.000000 
#    z 0.000000 0.000000 3.483060 
# 
# 
# High freq. dielectric constant tensor:
#      x y z
#    x 1.840950 0.000000 0.000000 
#    y 0.000000 1.840440 0.000000 
#    z 0.000000 0.000000 1.807070 
# 
# From -- ./inp_files/2911.got.cif
#   From: 2010.03.12/outbox.cif.g09.slc.cpg/sg55_2_cif.got.tgz:2911.got - 2010.04.16 15:19:21.
