data_PCOD8226004
_publ_section_title
;
Structure prediction by ZEFSAII (Michael W. Deem and Ramdas Pophale) SiO2 
 PCOD8226004
Probable space group: P B A M
;
_chemical_formula_sum "Si O2"
_cell_formula_units_Z 52
_cell_length_a 26.238918
_cell_length_b 10.346747
_cell_length_c 9.410181
_cell_angle_alpha 90.000000
_cell_angle_beta 90.000000
_cell_angle_gamma 90.000000
_cell_volume 2554.746007
_symmetry_space_group_name_H-M "P B A M"
_symmetry_group_IT_number 55
_symmetry_cell_setting 'orthorhombic'
loop_
_space_group_symop_operation_xyz
x,y,z
-x,-y,z
1/2+x,1/2-y,-z
1/2-x,1/2+y,-z
-x,-y,-z
x,y,-z
1/2-x,1/2+y,z
1/2+x,1/2-y,z
loop_
_atom_site_type_symbol
_atom_site_label
_atom_site_fract_x
_atom_site_fract_y
_atom_site_fract_z
Si Si1 0.120598 0.892571 0.833371
Si Si2 0.774669 0.209451 0.166175
Si Si3 0.108941 0.421852 0.661237
Si Si4 0.500000 0.000000 0.749544
Si Si5 0.801241 0.491927 0.167002
Si Si6 0.090106 0.175853 0.833184
Si Si7 0.519643 0.723124 0.158502
O O1 0.171672 0.834782 0.763676
O O2 0.070690 0.825355 0.760651
O O3 0.120492 0.045173 0.804746
O O4 0.120630 0.860364 0.000000
O O5 0.767246 0.362433 0.196070
O O6 0.729210 0.118372 0.224864
O O7 0.776693 0.179511 0.000000
O O8 0.127714 0.407022 0.500000
O O9 0.050107 0.468300 0.656685
O O10 0.145979 0.521056 0.745129
O O11 0.117037 0.287041 0.743310
O O12 0.514325 0.877909 0.845927
O O13 0.814755 0.500750 0.000000
O O14 0.031753 0.160481 0.776745
O O15 0.090684 0.214809 0.000000
O O16 0.524334 0.669020 0.000000
#
# Coordination Sequence:
#
# PCOD8226004 Si02
#       7
#     8   8   8   4   8   8   8
#     4   9  16  28  50  80 115 147 181 226 278 327
#     4   9  19  33  56  86 113 143 183 229 275 325
#     4  11  23  38  56  79 111 147 186 231 281 333
#     4  10  20  34  54  76 107 150 187 220 277 346
#     4  10  21  38  60  87 114 146 187 232 277 329
#     4   9  18  31  53  82 111 147 184 226 276 330
#     4   9  16  27  48  83 116 140 177 230 278 325
#
# _framework density 20.354274
#
# number of rings (size 3 to 8) (size 9 to 14) (size 15 to 20)
#    0.000    2.462    0.000    2.308    2.154    4.923 
#    0.000    0.769    0.000   11.077    0.000    0.000 
#    0.000    0.000    0.000    0.000    0.000    0.000 
#
# Total GULP energy -644401.306738 kJ/mol
# GULP energy per Si atom -12392.332822 kJ/mol
# Density = 2.030795 g / cm^3
# Si number density = 20.354274 Si / 1000 Ang^3
#
#
#
# Elastic Constant Matrix: (Units=GPa)
#
#
# Indices 1 2 3 4 5 6 
#
# 1 99.0501 45.7913 27.1182 0.0000 0.0000 0.0000
# 2 45.7913 96.7015 26.5900 0.0000 0.0000 0.0000
# 3 27.1182 26.5900 55.6695 0.0000 0.0000 0.0000
# 4 0.0000 0.0000 0.0000 4.7366 0.0000 0.0000
# 5 0.0000 0.0000 0.0000 0.0000 12.5953 0.0000
# 6 0.0000 0.0000 0.0000 0.0000 0.0000 37.4545
#
#
#
# Elastic Compliance Matrix: (Units=1/GPa)
#
#
# Indices 1 2 3 4 5 6 
#
# 1 0.013698 -0.005355 -0.004115 0.000000 0.000000 0.000000
# 2 -0.005355 0.013998 -0.004077 0.000000 0.000000 0.000000
# 3 -0.004115 -0.004077 0.021915 0.000000 0.000000 0.000000
# 4 0.000000 0.000000 0.000000 0.211124 0.000000 0.000000
# 5 0.000000 0.000000 0.000000 0.000000 0.079395 0.000000
# 6 0.000000 0.000000 0.000000 0.000000 0.000000 0.026699
#
#
# Mechanical properties :
#
#
# Convention : Reuss Voigt Hill
#
# Bulk Modulus (GPa) = 44.41181 50.04666 47.22923
# Shear Modulus (GPa) = 12.45548 21.08537 16.77043
#
# Velocity S-wave (km/s) = 2.47641 3.22206 2.87353
# Velocity P-wave (km/s) = 5.48121 6.20350 5.85350
#
# Compressibility (1/GPa) = 0.02251653
#
# Stress axis : x y z
#
# Youngs Moduli (GPa) = 73.00246 71.43848 45.63031
#
# Poissons Ratio (x) = 0.38255 0.18777
# Poissons Ratio (y) = 0.39093 0.18606
# Poissons Ratio (z) = 0.30040 0.29129
#
# Static dielectric constant tensor:
#      x y z
#    x 3.990600 0.000000 0.000000 
#    y 0.000000 3.717610 0.000000 
#    z 0.000000 0.000000 2.976020 
# 
# 
# High freq. dielectric constant tensor:
#      x y z
#    x 1.808550 0.000000 0.000000 
#    y 0.000000 1.804060 0.000000 
#    z 0.000000 0.000000 1.714620 
# 
# From -- ./inp_files/16149.got.cif
#   From: 2010.03.12/outbox.cif.g09.slc.cpg/sg55_9_cif.got.tgz:16149.got - 2010.04.16 15:19:21.
