data_PCOD8226725
_publ_section_title
;
Structure prediction by ZEFSAII (Michael W. Deem and Ramdas Pophale) SiO2 
 PCOD8226725
Probable space group: P B A M
;
_chemical_formula_sum "Si O2"
_cell_formula_units_Z 40
_cell_length_a 15.043241
_cell_length_b 8.662899
_cell_length_c 13.665409
_cell_angle_alpha 90.000000
_cell_angle_beta 90.000000
_cell_angle_gamma 90.000000
_cell_volume 1780.849828
_symmetry_space_group_name_H-M "P B A M"
_symmetry_group_IT_number 55
_symmetry_cell_setting 'orthorhombic'
loop_
_space_group_symop_operation_xyz
x,y,z
-x,-y,z
1/2+x,1/2-y,-z
1/2-x,1/2+y,-z
-x,-y,-z
x,y,-z
1/2-x,1/2+y,z
1/2+x,1/2-y,z
loop_
_atom_site_type_symbol
_atom_site_label
_atom_site_fract_x
_atom_site_fract_y
_atom_site_fract_z
Si Si1 0.472328 0.167859 0.196365
Si Si2 0.352206 0.653751 0.800536
Si Si3 0.804505 0.169017 0.887303
Si Si4 0.875587 0.326617 0.390560
Si Si5 0.798194 0.993981 0.609717
O O1 0.549876 0.288459 0.172607
O O2 0.384932 0.217262 0.138514
O O3 0.454992 0.161410 0.313244
O O4 0.500000 0.000000 0.157947
O O5 0.280642 0.787519 0.821685
O O6 0.329953 0.506981 0.867138
O O7 0.353168 0.608728 0.686215
O O8 0.779331 0.189437 0.000000
O O9 0.916679 0.327147 0.500000
O O10 0.807634 0.469156 0.375701
O O11 0.818090 0.172714 0.371359
O O12 0.826584 0.942947 0.500000
#
# Coordination Sequence:
#
# PCOD8226725 Si02
#       5
#     8   8   8   8   8
#     4  12  27  43  69 102 139 182 227 284 343 414
#     4  12  24  45  72 102 137 181 227 280 355 411
#     4  12  27  48  73 100 134 178 232 293 350 408
#     4  10  22  41  66 103 141 183 230 277 339 411
#     4  10  20  38  69  99 135 180 225 272 333 409
#
# _framework density 22.461188
#
# number of rings (size 3 to 8) (size 9 to 14) (size 15 to 20)
#    0.000    0.800    4.000    2.400    2.800    4.000 
#    0.000    2.000    0.000    0.000    0.000    0.000 
#    0.000    0.000    0.000    0.000    0.000    0.000 
#
# Total GULP energy -496228.347034 kJ/mol
# GULP energy per Si atom -12405.708676 kJ/mol
# Density = 2.241007 g / cm^3
# Si number density = 22.461188 Si / 1000 Ang^3
#
#
#
# Elastic Constant Matrix: (Units=GPa)
#
#
# Indices 1 2 3 4 5 6 
#
# 1 83.4139 17.7188 12.1069 0.0000 0.0000 0.0000
# 2 17.7188 86.3821 14.6405 0.0000 0.0000 0.0000
# 3 12.1069 14.6405 96.4139 0.0000 0.0000 0.0000
# 4 0.0000 0.0000 0.0000 26.0311 0.0000 0.0000
# 5 0.0000 0.0000 0.0000 0.0000 17.1410 0.0000
# 6 0.0000 0.0000 0.0000 0.0000 0.0000 38.6981
#
#
#
# Elastic Compliance Matrix: (Units=1/GPa)
#
#
# Indices 1 2 3 4 5 6 
#
# 1 0.012675 -0.002392 -0.001228 0.000000 0.000000 0.000000
# 2 -0.002392 0.012334 -0.001573 0.000000 0.000000 0.000000
# 3 -0.001228 -0.001573 0.010765 0.000000 0.000000 0.000000
# 4 0.000000 0.000000 0.000000 0.038416 0.000000 0.000000
# 5 0.000000 0.000000 0.000000 0.000000 0.058340 0.000000
# 6 0.000000 0.000000 0.000000 0.000000 0.000000 0.025841
#
#
# Mechanical properties :
#
#
# Convention : Reuss Voigt Hill
#
# Bulk Modulus (GPa) = 39.38855 39.46025 39.42440
# Shear Modulus (GPa) = 28.21391 31.15696 29.68544
#
# Velocity S-wave (km/s) = 3.54802 3.72848 3.63937
# Velocity P-wave (km/s) = 5.86165 6.01180 5.93720
#
# Compressibility (1/GPa) = 0.02538809
#
# Stress axis : x y z
#
# Youngs Moduli (GPa) = 78.89701 81.07948 92.89370
#
# Poissons Ratio (x) = 0.19392 0.11411
# Poissons Ratio (y) = 0.18870 0.14608
# Poissons Ratio (z) = 0.09692 0.12750
#
# Static dielectric constant tensor:
#      x y z
#    x 3.831930 0.000000 0.000000 
#    y 0.000000 4.099940 0.000000 
#    z 0.000000 0.000000 4.175410 
# 
# 
# High freq. dielectric constant tensor:
#      x y z
#    x 1.870550 0.000000 0.000000 
#    y 0.000000 1.894410 0.000000 
#    z 0.000000 0.000000 1.892150 
# 
# From -- ./inp_files/17038.got.cif
#   From: 2010.03.12/outbox.cif.g09.slc.cpg/sg55_9_cif.got.tgz:17038.got - 2010.04.16 15:19:21.
