data_PCOD8226616
_publ_section_title
;
Structure prediction by ZEFSAII (Michael W. Deem and Ramdas Pophale) SiO2 
 PCOD8226616
Probable space group: P B A M
;
_chemical_formula_sum "Si O2"
_cell_formula_units_Z 56
_cell_length_a 21.621120
_cell_length_b 14.483721
_cell_length_c 8.926842
_cell_angle_alpha 90.000000
_cell_angle_beta 90.000000
_cell_angle_gamma 90.000000
_cell_volume 2795.478688
_symmetry_space_group_name_H-M "P B A M"
_symmetry_group_IT_number 55
_symmetry_cell_setting 'orthorhombic'
loop_
_space_group_symop_operation_xyz
x,y,z
-x,-y,z
1/2+x,1/2-y,-z
1/2-x,1/2+y,-z
-x,-y,-z
x,y,-z
1/2-x,1/2+y,z
1/2+x,1/2-y,z
loop_
_atom_site_type_symbol
_atom_site_label
_atom_site_fract_x
_atom_site_fract_y
_atom_site_fract_z
Si Si1 0.892524 0.844002 0.673142
Si Si2 0.383380 0.478040 0.832616
Si Si3 0.125516 0.689897 0.677979
Si Si4 0.927535 0.494203 0.177968
Si Si5 0.217556 0.820653 0.829047
Si Si6 0.342622 0.854638 0.675798
Si Si7 0.468772 0.347850 0.675322
O O1 0.892466 0.868978 0.500000
O O2 0.856160 0.751727 0.707848
O O3 0.962199 0.830794 0.732909
O O4 0.858950 0.927725 0.758068
O O5 0.331252 0.401928 0.824052
O O6 0.443942 0.441804 0.747556
O O7 0.403180 0.500674 0.000000
O O8 0.133748 0.679535 0.500000
O O9 0.107491 0.592065 0.748065
O O10 0.189814 0.729639 0.746610
O O11 0.070677 0.758919 0.724055
O O12 0.893556 0.584999 0.238743
O O13 0.000000 0.500000 0.224488
O O14 0.920487 0.487693 0.000000
O O15 0.274642 0.867053 0.742423
O O16 0.234881 0.794288 0.000000
O O17 0.344332 0.879453 0.500000
O O18 0.464806 0.362057 0.500000
#
# Coordination Sequence:
#
# PCOD8226616 Si02
#       7
#     8   8   8   8   8   8   8
#     4  10  21  36  55  81 112 145 181 226 280 333
#     4  10  21  35  55  83 113 148 186 225 272 332
#     4  10  20  37  63  89 115 153 198 242 291 350
#     4  11  24  41  62  90 123 159 199 247 308 369
#     4  10  22  41  60  83 118 154 193 241 294 351
#     4  11  24  41  61  85 114 151 199 249 293 346
#     4   9  18  34  56  83 115 147 180 223 276 333
#
# _framework density 20.032347000000001
#
# number of rings (size 3 to 8) (size 9 to 14) (size 15 to 20)
#    0.000    1.857    0.000    3.429    0.000    9.143 
#    0.000    2.857    0.000    0.000    0.000    0.000 
#    0.000    0.000    0.000    0.000    0.000    0.000 
#
# Total GULP energy -694473.094399 kJ/mol
# GULP energy per Si atom -12401.305257 kJ/mol
# Density = 1.998675 g / cm^3
# Si number density = 20.032347 Si / 1000 Ang^3
#
#
#
# Elastic Constant Matrix: (Units=GPa)
#
#
# Indices 1 2 3 4 5 6 
#
# 1 71.0962 6.5450 33.0846 0.0000 0.0000 0.0000
# 2 6.5450 48.8331 33.4609 0.0000 0.0000 0.0000
# 3 33.0846 33.4609 76.1179 0.0000 0.0000 0.0000
# 4 0.0000 0.0000 0.0000 34.8335 0.0000 0.0000
# 5 0.0000 0.0000 0.0000 0.0000 21.0670 0.0000
# 6 0.0000 0.0000 0.0000 0.0000 0.0000 26.0305
#
#
#
# Elastic Compliance Matrix: (Units=1/GPa)
#
#
# Indices 1 2 3 4 5 6 
#
# 1 0.018235 0.004274 -0.009805 0.000000 0.000000 0.000000
# 2 0.004274 0.030307 -0.015180 0.000000 0.000000 0.000000
# 3 -0.009805 -0.015180 0.024072 0.000000 0.000000 0.000000
# 4 0.000000 0.000000 0.000000 0.028708 0.000000 0.000000
# 5 0.000000 0.000000 0.000000 0.000000 0.047468 0.000000
# 6 0.000000 0.000000 0.000000 0.000000 0.000000 0.038417
#
#
# Mechanical properties :
#
#
# Convention : Reuss Voigt Hill
#
# Bulk Modulus (GPa) = 32.05942 38.02534 35.04238
# Shear Modulus (GPa) = 20.91834 24.58330 22.75082
#
# Velocity S-wave (km/s) = 3.23496 3.50691 3.37368
# Velocity P-wave (km/s) = 5.47648 5.95156 5.71896
#
# Compressibility (1/GPa) = 0.03119208
#
# Stress axis : x y z
#
# Youngs Moduli (GPa) = 54.84108 32.99586 41.54158
#
# Poissons Ratio (x) = -0.14103 0.40730
# Poissons Ratio (y) = -0.23440 0.63062
# Poissons Ratio (z) = 0.53769 0.50089
#
# Static dielectric constant tensor:
#      x y z
#    x 3.799950 0.000000 0.000000 
#    y 0.000000 3.724740 0.000000 
#    z 0.000000 0.000000 3.795690 
# 
# 
# High freq. dielectric constant tensor:
#      x y z
#    x 1.781210 0.000000 0.000000 
#    y 0.000000 1.788540 0.000000 
#    z 0.000000 0.000000 1.789210 
# 
# From -- ./inp_files/8705.got.cif
#   From: 2010.03.12/outbox.cif.g09.slc.cpg/sg55_5_cif.got.tgz:8705.got - 2010.04.16 15:19:21.
