data_PCOD8226919
_publ_section_title
;
Structure prediction by ZEFSAII (Michael W. Deem and Ramdas Pophale) SiO2 
 PCOD8226919
Probable space group: P B A M
;
_chemical_formula_sum "Si O2"
_cell_formula_units_Z 64
_cell_length_a 30.224698
_cell_length_b 11.887645
_cell_length_c 9.406877
_cell_angle_alpha 90.000000
_cell_angle_beta 90.000000
_cell_angle_gamma 90.000000
_cell_volume 3379.895422
_symmetry_space_group_name_H-M "P B A M"
_symmetry_group_IT_number 55
_symmetry_cell_setting 'orthorhombic'
loop_
_space_group_symop_operation_xyz
x,y,z
-x,-y,z
1/2+x,1/2-y,-z
1/2-x,1/2+y,-z
-x,-y,-z
x,y,-z
1/2-x,1/2+y,z
1/2+x,1/2-y,z
loop_
_atom_site_type_symbol
_atom_site_label
_atom_site_fract_x
_atom_site_fract_y
_atom_site_fract_z
Si Si1 0.791165 0.554087 0.664332
Si Si2 0.448528 0.498498 0.833834
Si Si3 0.076325 0.245155 0.160498
Si Si4 0.046531 0.445991 0.666290
Si Si5 0.382433 0.348652 0.333779
Si Si6 0.177122 0.243948 0.838100
Si Si7 0.372241 0.095639 0.668526
Si Si8 0.307564 0.525318 0.661989
O O1 0.800101 0.584084 0.500000
O O2 0.792797 0.669089 0.752414
O O3 0.827319 0.464720 0.721788
O O4 0.743285 0.502848 0.687891
O O5 0.500000 0.500000 0.794454
O O6 0.427855 0.617336 0.785537
O O7 0.424302 0.400683 0.747111
O O8 0.440739 0.475621 0.000000
O O9 0.047234 0.325238 0.258928
O O10 0.126770 0.285734 0.169429
O O11 0.057981 0.253248 0.000000
O O12 0.052222 0.424711 0.500000
O O13 0.085308 0.526745 0.724975
O O14 0.000000 0.500000 0.705070
O O15 0.394270 0.346853 0.500000
O O16 0.374345 0.222969 0.273317
O O17 0.337537 0.417135 0.303911
O O18 0.179407 0.121694 0.770158
O O19 0.193925 0.237027 0.000000
O O20 0.372372 0.099550 0.500000
O O21 0.315295 0.565837 0.500000
#
# Coordination Sequence:
#
# PCOD8226919 Si02
#       8
#     8   8   8   8   8   8   8   8
#     4  10  21  38  62  86 113 150 194 238 284 341
#     4  10  22  40  59  81 112 151 191 231 282 339
#     4  10  21  38  58  81 112 149 190 236 282 335
#     4  10  21  36  57  85 114 148 189 234 287 341
#     4  10  21  37  57  84 115 145 185 235 285 334
#     4  11  22  38  60  84 117 152 190 240 287 338
#     4   9  19  36  55  80 115 147 179 232 286 330
#     4  10  22  37  60  88 113 149 193 235 282 342
#
# _framework density 18.935496000000001
#
# number of rings (size 3 to 8) (size 9 to 14) (size 15 to 20)
#    0.000    2.000    2.500    0.375    3.500    2.000 
#    0.000    1.250    0.000    0.000    0.000    0.000 
#    0.000    0.000    0.000    0.000    0.000    0.000 
#
# Total GULP energy -793813.754578 kJ/mol
# GULP energy per Si atom -12403.339915 kJ/mol
# Density = 1.889240 g / cm^3
# Si number density = 18.935496 Si / 1000 Ang^3
#
#
#
# Elastic Constant Matrix: (Units=GPa)
#
#
# Indices 1 2 3 4 5 6 
#
# 1 103.8224 32.6119 30.2480 0.0000 0.0000 0.0000
# 2 32.6119 112.3201 40.3541 0.0000 0.0000 0.0000
# 3 30.2480 40.3541 58.9454 0.0000 0.0000 0.0000
# 4 0.0000 0.0000 0.0000 20.8910 0.0000 0.0000
# 5 0.0000 0.0000 0.0000 0.0000 20.4004 0.0000
# 6 0.0000 0.0000 0.0000 0.0000 0.0000 26.8580
#
#
#
# Elastic Compliance Matrix: (Units=1/GPa)
#
#
# Indices 1 2 3 4 5 6 
#
# 1 0.011544 -0.001623 -0.004813 0.000000 0.000000 0.000000
# 2 -0.001623 0.012035 -0.007407 0.000000 0.000000 0.000000
# 3 -0.004813 -0.007407 0.024505 0.000000 0.000000 0.000000
# 4 0.000000 0.000000 0.000000 0.047868 0.000000 0.000000
# 5 0.000000 0.000000 0.000000 0.000000 0.049019 0.000000
# 6 0.000000 0.000000 0.000000 0.000000 0.000000 0.037233
#
#
# Mechanical properties :
#
#
# Convention : Reuss Voigt Hill
#
# Bulk Modulus (GPa) = 49.01989 53.50179 51.26084
# Shear Modulus (GPa) = 23.07468 25.08815 24.08142
#
# Velocity S-wave (km/s) = 3.49462 3.64390 3.57004
# Velocity P-wave (km/s) = 6.49825 6.78381 6.64257
#
# Compressibility (1/GPa) = 0.02039988
#
# Stress axis : x y z
#
# Youngs Moduli (GPa) = 86.62743 83.08881 40.80749
#
# Poissons Ratio (x) = 0.13481 0.19640
# Poissons Ratio (y) = 0.14055 0.30225
# Poissons Ratio (z) = 0.41693 0.61542
#
# Static dielectric constant tensor:
#      x y z
#    x 3.536990 0.000000 0.000000 
#    y 0.000000 3.508940 0.000000 
#    z 0.000000 0.000000 3.297120 
# 
# 
# High freq. dielectric constant tensor:
#      x y z
#    x 1.742070 0.000000 0.000000 
#    y 0.000000 1.743390 0.000000 
#    z 0.000000 0.000000 1.716040 
# 
# From -- ./inp_files/4588.got.cif
#   From: 2010.03.12/outbox.cif.g09.slc.cpg/sg55_3_cif.got.tgz:4588.got - 2010.04.16 15:19:21.
