data_PCOD8226119
_publ_section_title
;
Structure prediction by ZEFSAII (Michael W. Deem and Ramdas Pophale) SiO2 
 PCOD8226119
Probable space group: P B A M
;
_chemical_formula_sum "Si O2"
_cell_formula_units_Z 64
_cell_length_a 18.540263
_cell_length_b 12.588605
_cell_length_c 14.108336
_cell_angle_alpha 90.000000
_cell_angle_beta 90.000000
_cell_angle_gamma 90.000000
_cell_volume 3292.829859
_symmetry_space_group_name_H-M "P B A M"
_symmetry_group_IT_number 55
_symmetry_cell_setting 'orthorhombic'
loop_
_space_group_symop_operation_xyz
x,y,z
-x,-y,z
1/2+x,1/2-y,-z
1/2-x,1/2+y,-z
-x,-y,-z
x,y,-z
1/2-x,1/2+y,z
1/2+x,1/2-y,z
loop_
_atom_site_type_symbol
_atom_site_label
_atom_site_fract_x
_atom_site_fract_y
_atom_site_fract_z
Si Si1 0.565240 0.429546 0.392811
Si Si2 0.579782 0.035808 0.391139
Si Si3 0.282812 0.497701 0.602269
Si Si4 0.380364 0.764790 0.733838
Si Si5 0.777309 0.171505 0.746105
Si Si6 0.176698 0.666255 0.394610
Si Si7 0.951707 0.848876 0.890008
Si Si8 0.389935 0.424867 0.110262
O O1 0.500000 0.500000 0.349073
O O2 0.546048 0.391320 0.500000
O O3 0.631448 0.511154 0.393902
O O4 0.588227 0.330277 0.329976
O O5 0.588600 0.074505 0.500000
O O6 0.601320 0.127208 0.318812
O O7 0.500000 0.000000 0.368521
O O8 0.627403 0.933203 0.369326
O O9 0.254152 0.454641 0.500000
O O10 0.248332 0.427249 0.684352
O O11 0.258811 0.621291 0.611201
O O12 0.295656 0.761535 0.766033
O O13 0.423317 0.753230 0.832738
O O14 0.832542 0.240841 0.681964
O O15 0.821794 0.128488 0.836121
O O16 0.159599 0.711431 0.500000
O O17 0.036661 0.861117 0.869479
O O18 0.905245 0.953299 0.858413
O O19 0.938724 0.827469 0.000000
O O20 0.369728 0.420295 0.000000
#
# Coordination Sequence:
#
# PCOD8226119 Si02
#       8
#     8   8   8   8   8   8   8   8
#     4  10  22  36  54  86 123 154 196 253 304 345
#     4  10  23  40  55  78 119 165 207 241 280 341
#     4  10  20  35  53  81 121 159 194 237 289 351
#     4  12  23  35  61  88 118 157 199 246 300 358
#     4  12  23  34  60  91 118 151 202 240 299 353
#     4  10  21  37  55  81 121 164 200 235 283 349
#     4   9  21  42  66  90 115 150 191 243 310 367
#     4   9  21  42  66  90 119 149 188 246 307 367
#
# _framework density 19.436169
#
# number of rings (size 3 to 8) (size 9 to 14) (size 15 to 20)
#    0.000    1.750    2.500    2.250    5.250    1.500 
#    0.000    3.750    0.000    1.125    0.000    0.000 
#    0.000    0.000    0.000    0.000    0.000    0.000 
#
# Total GULP energy -793072.037657 kJ/mol
# GULP energy per Si atom -12391.750588 kJ/mol
# Density = 1.939193 g / cm^3
# Si number density = 19.436169 Si / 1000 Ang^3
#
#
#
# Elastic Constant Matrix: (Units=GPa)
#
#
# Indices 1 2 3 4 5 6 
#
# 1 107.8587 30.7208 41.5595 0.0000 0.0000 0.0000
# 2 30.7208 64.9286 42.0738 0.0000 0.0000 0.0000
# 3 41.5595 42.0738 93.8258 0.0000 0.0000 0.0000
# 4 0.0000 0.0000 0.0000 31.4213 0.0000 0.0000
# 5 0.0000 0.0000 0.0000 0.0000 21.4143 0.0000
# 6 0.0000 0.0000 0.0000 0.0000 0.0000 29.1960
#
#
#
# Elastic Compliance Matrix: (Units=1/GPa)
#
#
# Indices 1 2 3 4 5 6 
#
# 1 0.011590 -0.003041 -0.003770 0.000000 0.000000 0.000000
# 2 -0.003041 0.022508 -0.008746 0.000000 0.000000 0.000000
# 3 -0.003770 -0.008746 0.016250 0.000000 0.000000 0.000000
# 4 0.000000 0.000000 0.000000 0.031825 0.000000 0.000000
# 5 0.000000 0.000000 0.000000 0.000000 0.046698 0.000000
# 6 0.000000 0.000000 0.000000 0.000000 0.000000 0.034251
#
#
# Mechanical properties :
#
#
# Convention : Reuss Voigt Hill
#
# Bulk Modulus (GPa) = 51.99207 55.03570 53.51388
# Shear Modulus (GPa) = 24.91924 26.55693 25.73808
#
# Velocity S-wave (km/s) = 3.58454 3.70045 3.64295
# Velocity P-wave (km/s) = 6.62873 6.82901 6.72962
#
# Compressibility (1/GPa) = 0.01923370
#
# Stress axis : x y z
#
# Youngs Moduli (GPa) = 86.27981 44.42901 61.53821
#
# Poissons Ratio (x) = 0.13510 0.23201
# Poissons Ratio (y) = 0.26236 0.53822
# Poissons Ratio (z) = 0.32530 0.38858
#
# Static dielectric constant tensor:
#      x y z
#    x 3.480580 0.000000 0.000000 
#    y 0.000000 3.249000 0.000000 
#    z 0.000000 0.000000 3.501180 
# 
# 
# High freq. dielectric constant tensor:
#      x y z
#    x 1.765070 0.000000 0.000000 
#    y 0.000000 1.740430 0.000000 
#    z 0.000000 0.000000 1.746630 
# 
# From -- ./inp_files/19521.got.cif
#   From: 2010.03.12/outbox.cif.g09.slc.cpg/sg55_10_cif.got.tgz:19521.got - 2010.04.16 15:19:21.
