data_PCOD8226151
_publ_section_title
;
Structure prediction by ZEFSAII (Michael W. Deem and Ramdas Pophale) SiO2 
 PCOD8226151
Probable space group: P B A M
;
_chemical_formula_sum "Si O2"
_cell_formula_units_Z 56
_cell_length_a 21.793465
_cell_length_b 14.344409
_cell_length_c 9.093955
_cell_angle_alpha 90.000000
_cell_angle_beta 90.000000
_cell_angle_gamma 90.000000
_cell_volume 2842.901063
_symmetry_space_group_name_H-M "P B A M"
_symmetry_group_IT_number 55
_symmetry_cell_setting 'orthorhombic'
loop_
_space_group_symop_operation_xyz
x,y,z
-x,-y,z
1/2+x,1/2-y,-z
1/2-x,1/2+y,-z
-x,-y,-z
x,y,-z
1/2-x,1/2+y,z
1/2+x,1/2-y,z
loop_
_atom_site_type_symbol
_atom_site_label
_atom_site_fract_x
_atom_site_fract_y
_atom_site_fract_z
Si Si1 0.142719 0.096849 0.673572
Si Si2 0.858620 0.092285 0.827030
Si Si3 0.781600 0.590406 0.169334
Si Si4 0.507890 0.107488 0.669402
Si Si5 0.888632 0.271186 0.670195
Si Si6 0.109712 0.277638 0.828181
Si Si7 0.216343 0.593540 0.328298
O O1 0.132343 0.090665 0.500000
O O2 0.103143 0.181496 0.738950
O O3 0.213655 0.114391 0.716357
O O4 0.118914 0.001925 0.747923
O O5 0.788002 0.113081 0.784197
O O6 0.898528 0.178048 0.765674
O O7 0.869099 0.081729 0.000000
O O8 0.823350 0.679406 0.205505
O O9 0.807303 0.501699 0.256270
O O10 0.785061 0.562695 0.000000
O O11 0.528608 0.117922 0.500000
O O12 0.444326 0.159416 0.699242
O O13 0.558815 0.150360 0.774845
O O14 0.500000 0.000000 0.712597
O O15 0.883794 0.242343 0.500000
O O16 0.826384 0.321765 0.724871
O O17 0.100739 0.257398 0.000000
O O18 0.208534 0.578376 0.500000
#
# Coordination Sequence:
#
# PCOD8226151 Si02
#       7
#     8   8   8   8   8   8   8
#     4  10  20  35  56  82 111 142 179 223 270 320
#     4  10  20  35  55  80 111 144 178 218 268 323
#     4   9  19  33  51  79 113 146 177 216 268 322
#     4  10  22  40  60  81 108 143 181 223 269 316
#     4  10  20  35  55  80 109 141 180 223 268 317
#     4  11  22  36  55  80 111 146 184 224 268 320
#     4   9  18  32  54  83 111 142 180 222 267 320
#
# _framework density 19.698188999999999
#
# number of rings (size 3 to 8) (size 9 to 14) (size 15 to 20)
#    0.000    2.143    0.000    3.000    0.000    4.857 
#    0.000    0.714    0.000    4.286    0.000    0.000 
#    0.000    0.000    0.000    0.000    0.000    0.000 
#
# Total GULP energy -694629.833821 kJ/mol
# GULP energy per Si atom -12404.104175 kJ/mol
# Density = 1.965335 g / cm^3
# Si number density = 19.698189 Si / 1000 Ang^3
#
#
#
# Elastic Constant Matrix: (Units=GPa)
#
#
# Indices 1 2 3 4 5 6 
#
# 1 44.6678 40.1244 28.3515 0.0000 0.0000 0.0000
# 2 40.1244 162.8684 69.7969 0.0000 0.0000 0.0000
# 3 28.3515 69.7969 83.5151 0.0000 0.0000 0.0000
# 4 0.0000 0.0000 0.0000 36.3905 0.0000 0.0000
# 5 0.0000 0.0000 0.0000 0.0000 25.5678 0.0000
# 6 0.0000 0.0000 0.0000 0.0000 0.0000 25.8723
#
#
#
# Elastic Compliance Matrix: (Units=1/GPa)
#
#
# Indices 1 2 3 4 5 6 
#
# 1 0.030806 -0.004842 -0.006412 0.000000 0.000000 0.000000
# 2 -0.004842 0.010327 -0.006987 0.000000 0.000000 0.000000
# 3 -0.006412 -0.006987 0.019990 0.000000 0.000000 0.000000
# 4 0.000000 0.000000 0.000000 0.027480 0.000000 0.000000
# 5 0.000000 0.000000 0.000000 0.000000 0.039112 0.000000
# 6 0.000000 0.000000 0.000000 0.000000 0.000000 0.038651
#
#
# Mechanical properties :
#
#
# Convention : Reuss Voigt Hill
#
# Bulk Modulus (GPa) = 40.58048 63.06632 51.82340
# Shear Modulus (GPa) = 23.68985 27.75136 25.72061
#
# Velocity S-wave (km/s) = 3.47167 3.75751 3.61742
# Velocity P-wave (km/s) = 6.05936 7.13519 6.61917
#
# Compressibility (1/GPa) = 0.02464239
#
# Stress axis : x y z
#
# Youngs Moduli (GPa) = 32.46085 96.83311 50.02555
#
# Poissons Ratio (x) = 0.46885 0.32074
# Poissons Ratio (y) = 0.15717 0.34953
# Poissons Ratio (z) = 0.20812 0.67658
#
# Static dielectric constant tensor:
#      x y z
#    x 3.464880 0.000000 0.000000 
#    y 0.000000 3.608680 0.000000 
#    z 0.000000 0.000000 3.497240 
# 
# 
# High freq. dielectric constant tensor:
#      x y z
#    x 1.747410 0.000000 0.000000 
#    y 0.000000 1.778230 0.000000 
#    z 0.000000 0.000000 1.767260 
# 
# From -- ./inp_files/8724.got.cif
#   From: 2010.03.12/outbox.cif.g09.slc.cpg/sg55_5_cif.got.tgz:8724.got - 2010.04.16 15:19:21.
