data_PCOD8226024
_publ_section_title
;
Structure prediction by ZEFSAII (Michael W. Deem and Ramdas Pophale) SiO2 
 PCOD8226024
Probable space group: P B A M
;
_chemical_formula_sum "Si O2"
_cell_formula_units_Z 56
_cell_length_a 5.035560
_cell_length_b 32.574530
_cell_length_c 16.703198
_cell_angle_alpha 90.000000
_cell_angle_beta 90.000000
_cell_angle_gamma 90.000000
_cell_volume 2739.842276
_symmetry_space_group_name_H-M "P B A M"
_symmetry_group_IT_number 55
_symmetry_cell_setting 'orthorhombic'
loop_
_space_group_symop_operation_xyz
x,y,z
-x,-y,z
1/2+x,1/2-y,-z
1/2-x,1/2+y,-z
-x,-y,-z
x,y,-z
1/2-x,1/2+y,z
1/2+x,1/2-y,z
loop_
_atom_site_type_symbol
_atom_site_label
_atom_site_fract_x
_atom_site_fract_y
_atom_site_fract_z
Si Si1 0.913627 0.897864 0.180856
Si Si2 0.899686 0.632821 0.905139
Si Si3 0.252386 0.027102 0.280233
Si Si4 0.450021 0.363876 0.348765
Si Si5 0.073457 0.775728 0.593161
Si Si6 0.068661 0.591292 0.408369
Si Si7 0.693909 0.225431 0.904717
O O1 0.690116 0.877564 0.126265
O O2 0.828966 0.943543 0.206662
O O3 0.185549 0.899179 0.130124
O O4 0.958451 0.870050 0.258311
O O5 0.824917 0.678577 0.875166
O O6 0.902467 0.629350 0.000000
O O7 0.334939 0.051649 0.359731
O O8 0.500000 0.000000 0.250729
O O9 0.000000 0.000000 0.304523
O O10 0.366422 0.316918 0.358540
O O11 0.699706 0.374399 0.405981
O O12 0.200643 0.392701 0.368185
O O13 0.097086 0.786654 0.500000
O O14 0.287003 0.741429 0.617071
O O15 0.012071 0.579075 0.500000
O O16 0.957316 0.246547 0.870400
O O17 0.687450 0.225941 0.000000
#
# Coordination Sequence:
#
# PCOD8226024 Si02
#       7
#     8   8   8   8   8   8   8
#     4  11  23  41  63  87 117 155 196 240 299 368
#     4  11  22  39  64  90 117 154 202 251 294 347
#     4  11  23  41  64  89 120 157 190 231 294 361
#     4  11  22  39  58  84 123 161 203 245 293 351
#     4  10  20  34  54  80 114 160 209 253 289 323
#     4  11  22  37  62  92 120 155 196 240 288 344
#     4   9  17  31  52  81 116 149 184 230 285 342
#
# _framework density 20.439132000000001
#
# number of rings (size 3 to 8) (size 9 to 14) (size 15 to 20)
#    0.000    1.429    0.000    7.714    0.000    4.000 
#    0.000    4.286    0.000    8.571    0.000    0.000 
#    0.000    0.000    0.000    0.000    0.000    0.000 
#
# Total GULP energy -694633.324807 kJ/mol
# GULP energy per Si atom -12404.166514 kJ/mol
# Density = 2.039261 g / cm^3
# Si number density = 20.439132 Si / 1000 Ang^3
#
#
#
# Elastic Constant Matrix: (Units=GPa)
#
#
# Indices 1 2 3 4 5 6 
#
# 1 77.9664 4.0750 -2.2595 0.0000 0.0000 0.0000
# 2 4.0750 93.1045 23.6559 0.0000 0.0000 0.0000
# 3 -2.2595 23.6559 62.5053 0.0000 0.0000 0.0000
# 4 0.0000 0.0000 0.0000 15.6414 0.0000 0.0000
# 5 0.0000 0.0000 0.0000 0.0000 28.6145 0.0000
# 6 0.0000 0.0000 0.0000 0.0000 0.0000 30.2666
#
#
#
# Elastic Compliance Matrix: (Units=1/GPa)
#
#
# Indices 1 2 3 4 5 6 
#
# 1 0.012887 -0.000755 0.000752 0.000000 0.000000 0.000000
# 2 -0.000755 0.011928 -0.004541 0.000000 0.000000 0.000000
# 3 0.000752 -0.004541 0.017745 0.000000 0.000000 0.000000
# 4 0.000000 0.000000 0.000000 0.063933 0.000000 0.000000
# 5 0.000000 0.000000 0.000000 0.000000 0.034947 0.000000
# 6 0.000000 0.000000 0.000000 0.000000 0.000000 0.033040
#
#
# Mechanical properties :
#
#
# Convention : Reuss Voigt Hill
#
# Bulk Modulus (GPa) = 29.87775 31.61323 30.74549
# Shear Modulus (GPa) = 25.67716 28.77814 27.22765
#
# Velocity S-wave (km/s) = 3.54824 3.75639 3.65380
# Velocity P-wave (km/s) = 5.60681 5.85786 5.73371
#
# Compressibility (1/GPa) = 0.03346973
#
# Stress axis : x y z
#
# Youngs Moduli (GPa) = 77.59584 83.83951 56.35525
#
# Poissons Ratio (x) = 0.06330 -0.04236
# Poissons Ratio (y) = 0.05859 0.25593
# Poissons Ratio (z) = -0.05832 0.38075
#
# Static dielectric constant tensor:
#      x y z
#    x 3.978540 0.000000 0.000000 
#    y 0.000000 3.786070 0.000000 
#    z 0.000000 0.000000 3.480470 
# 
# 
# High freq. dielectric constant tensor:
#      x y z
#    x 1.823550 0.000000 0.000000 
#    y 0.000000 1.796380 0.000000 
#    z 0.000000 0.000000 1.780970 
# 
# From -- ./inp_files/16762.got.cif
#   From: 2010.03.12/outbox.cif.g09.slc.cpg/sg55_9_cif.got.tgz:16762.got - 2010.04.16 15:19:21.
