data_PCOD8226713
_publ_section_title
;
Structure prediction by ZEFSAII (Michael W. Deem and Ramdas Pophale) SiO2 
 PCOD8226713
Probable space group: P B A M
;
_chemical_formula_sum "Si O2"
_cell_formula_units_Z 64
_cell_length_a 28.336635
_cell_length_b 12.705651
_cell_length_c 8.876778
_cell_angle_alpha 90.000000
_cell_angle_beta 90.000000
_cell_angle_gamma 90.000000
_cell_volume 3195.954272
_symmetry_space_group_name_H-M "P B A M"
_symmetry_group_IT_number 55
_symmetry_cell_setting 'orthorhombic'
loop_
_space_group_symop_operation_xyz
x,y,z
-x,-y,z
1/2+x,1/2-y,-z
1/2-x,1/2+y,-z
-x,-y,-z
x,y,-z
1/2-x,1/2+y,z
1/2+x,1/2-y,z
loop_
_atom_site_type_symbol
_atom_site_label
_atom_site_fract_x
_atom_site_fract_y
_atom_site_fract_z
Si Si1 0.176813 0.673224 0.330648
Si Si2 0.204884 0.441371 0.666897
Si Si3 0.969404 0.185004 0.675960
Si Si4 0.204315 0.873639 0.174526
Si Si5 0.385623 0.471707 0.676997
Si Si6 0.077330 0.605887 0.677201
Si Si7 0.934026 0.833636 0.822537
Si Si8 0.098333 0.379891 0.323675
O O1 0.172305 0.721853 0.500000
O O2 0.206332 0.566937 0.336949
O O3 0.203017 0.751882 0.219421
O O4 0.125752 0.652031 0.256179
O O5 0.218422 0.398639 0.500000
O O6 0.242581 0.408238 0.790526
O O7 0.153430 0.397754 0.711240
O O8 0.980513 0.171163 0.500000
O O9 0.963633 0.310030 0.716446
O O10 0.013024 0.139559 0.769076
O O11 0.922796 0.119832 0.721204
O O12 0.166107 0.939450 0.268500
O O13 0.193584 0.889786 0.000000
O O14 0.384609 0.490418 0.500000
O O15 0.398545 0.581766 0.753499
O O16 0.086168 0.598490 0.500000
O O17 0.068988 0.485037 0.730480
O O18 0.920079 0.717195 0.771598
O O19 0.931406 0.841425 0.000000
O O20 0.089442 0.357344 0.500000
#
# Coordination Sequence:
#
# PCOD8226713 Si02
#       8
#     8   8   8   8   8   8   8   8
#     4   9  17  36  61  84 110 146 195 245 290 338
#     4   9  20  38  63  88 113 152 204 252 290 341
#     4  10  20  38  65  91 114 150 201 253 300 350
#     4  12  24  36  57  90 125 156 188 235 304 368
#     4  11  23  42  66  86 112 153 208 256 292 346
#     4   8  15  33  63  91 111 141 195 255 290 331
#     4  12  26  40  56  85 129 165 194 241 306 370
#     4   9  19  39  64  87 115 156 206 251 295 346
#
# _framework density 20.025317000000001
#
# number of rings (size 3 to 8) (size 9 to 14) (size 15 to 20)
#    0.000    2.000    1.250    4.500    0.000    5.000 
#    0.000    6.250    0.000    0.000    0.000    0.000 
#    0.000    0.000    0.000    0.000    0.000    0.000 
#
# Total GULP energy -793496.578942 kJ/mol
# GULP energy per Si atom -12398.384046 kJ/mol
# Density = 1.997974 g / cm^3
# Si number density = 20.025317 Si / 1000 Ang^3
#
#
#
# Elastic Constant Matrix: (Units=GPa)
#
#
# Indices 1 2 3 4 5 6 
#
# 1 45.5447 4.3875 20.8879 0.0000 0.0000 0.0000
# 2 4.3875 83.1305 27.7905 0.0000 0.0000 0.0000
# 3 20.8879 27.7905 85.7544 0.0000 0.0000 0.0000
# 4 0.0000 0.0000 0.0000 4.0504 0.0000 0.0000
# 5 0.0000 0.0000 0.0000 0.0000 12.9377 0.0000
# 6 0.0000 0.0000 0.0000 0.0000 0.0000 26.1557
#
#
#
# Elastic Compliance Matrix: (Units=1/GPa)
#
#
# Indices 1 2 3 4 5 6 
#
# 1 0.024765 0.000796 -0.006290 0.000000 0.000000 0.000000
# 2 0.000796 0.013516 -0.004574 0.000000 0.000000 0.000000
# 3 -0.006290 -0.004574 0.014676 0.000000 0.000000 0.000000
# 4 0.000000 0.000000 0.000000 0.246888 0.000000 0.000000
# 5 0.000000 0.000000 0.000000 0.000000 0.077293 0.000000
# 6 0.000000 0.000000 0.000000 0.000000 0.000000 0.038233
#
#
# Mechanical properties :
#
#
# Convention : Reuss Voigt Hill
#
# Bulk Modulus (GPa) = 30.46935 35.61793 33.04364
# Shear Modulus (GPa) = 11.19952 19.38633 15.29293
#
# Velocity S-wave (km/s) = 2.36745 3.11479 2.76647
# Velocity P-wave (km/s) = 4.76671 5.54626 5.17119
#
# Compressibility (1/GPa) = 0.03281987
#
# Stress axis : x y z
#
# Youngs Moduli (GPa) = 40.38031 73.98416 68.14014
#
# Poissons Ratio (x) = -0.05887 0.42860
# Poissons Ratio (y) = -0.03213 0.31168
# Poissons Ratio (z) = 0.25399 0.33841
#
# Static dielectric constant tensor:
#      x y z
#    x 3.525410 0.000000 0.000000 
#    y 0.000000 3.836240 0.000000 
#    z 0.000000 0.000000 3.381370 
# 
# 
# High freq. dielectric constant tensor:
#      x y z
#    x 1.777520 0.000000 0.000000 
#    y 0.000000 1.793610 0.000000 
#    z 0.000000 0.000000 1.753210 
# 
# From -- ./inp_files/10863.got.cif
#   From: 2010.03.12/outbox.cif.g09.slc.cpg/sg55_6_cif.got.tgz:10863.got - 2010.04.16 15:19:21.
