data_PCOD8226622
_publ_section_title
;
Structure prediction by ZEFSAII (Michael W. Deem and Ramdas Pophale) SiO2 
 PCOD8226622
Probable space group: P B A M
;
_chemical_formula_sum "Si O2"
_cell_formula_units_Z 32
_cell_length_a 8.925115
_cell_length_b 20.505767
_cell_length_c 8.361867
_cell_angle_alpha 90.000000
_cell_angle_beta 90.000000
_cell_angle_gamma 90.000000
_cell_volume 1530.358199
_symmetry_space_group_name_H-M "P B A M"
_symmetry_group_IT_number 55
_symmetry_cell_setting 'orthorhombic'
loop_
_space_group_symop_operation_xyz
x,y,z
-x,-y,z
1/2+x,1/2-y,-z
1/2-x,1/2+y,-z
-x,-y,-z
x,y,-z
1/2-x,1/2+y,z
1/2+x,1/2-y,z
loop_
_atom_site_type_symbol
_atom_site_label
_atom_site_fract_x
_atom_site_fract_y
_atom_site_fract_z
Si Si1 0.422315 0.931693 0.686985
Si Si2 0.099041 0.189049 0.315025
Si Si3 0.917057 0.063724 0.689981
Si Si4 0.076013 0.693505 0.817458
O O1 0.427281 0.914339 0.500000
O O2 0.252889 0.934066 0.753102
O O3 0.512735 0.877781 0.783228
O O4 0.500000 0.000000 0.722859
O O5 0.142607 0.179368 0.500000
O O6 0.247432 0.194226 0.211208
O O7 0.003134 0.127982 0.250507
O O8 0.002323 0.254286 0.297426
O O9 0.915237 0.060198 0.500000
O O10 0.000000 0.000000 0.760600
O O11 0.044059 0.712743 0.000000
#
# Coordination Sequence:
#
# PCOD8226622 Si02
#       4
#     8   8   8   8
#     4  10  20  37  63  91 119 156 204 252 299 359
#     4  11  22  39  63  87 116 158 206 249 297 364
#     4   9  18  34  59  90 117 145 191 250 301 347
#     4  12  25  40  59  87 124 159 197 251 313 365
#
# _framework density 20.910136999999999
#
# number of rings (size 3 to 8) (size 9 to 14) (size 15 to 20)
#    0.000    1.500    0.000    6.000    0.000    6.500 
#    0.000    1.250    0.000    5.250    0.000    0.000 
#    0.000    0.000    0.000    0.000    0.000    0.000 
#
# Total GULP energy -397009.780445 kJ/mol
# GULP energy per Si atom -12406.555639 kJ/mol
# Density = 2.086254 g / cm^3
# Si number density = 20.910137 Si / 1000 Ang^3
#
#
#
# Elastic Constant Matrix: (Units=GPa)
#
#
# Indices 1 2 3 4 5 6 
#
# 1 162.6000 62.2775 12.4241 0.0000 0.0000 0.0000
# 2 62.2775 134.3592 18.9639 0.0000 0.0000 0.0000
# 3 12.4241 18.9639 46.6243 0.0000 0.0000 0.0000
# 4 0.0000 0.0000 0.0000 -0.2934 0.0000 0.0000
# 5 0.0000 0.0000 0.0000 0.0000 20.8002 0.0000
# 6 0.0000 0.0000 0.0000 0.0000 0.0000 46.9713
#
#
#
# Elastic Compliance Matrix: (Units=1/GPa)
#
#
# Indices 1 2 3 4 5 6 
#
# 1 0.007494 -0.003386 -0.000620 0.000000 0.000000 0.000000
# 2 -0.003386 0.009426 -0.002932 0.000000 0.000000 0.000000
# 3 -0.000620 -0.002932 0.022806 0.000000 0.000000 0.000000
# 4 0.000000 0.000000 0.000000 -3.408192 0.000000 0.000000
# 5 0.000000 0.000000 0.000000 0.000000 0.048076 0.000000
# 6 0.000000 0.000000 0.000000 0.000000 0.000000 0.021290
#
#
# Mechanical properties :
#
#
# Convention : Reuss Voigt Hill
#
# Bulk Modulus (GPa) = 38.68345 58.99052 48.83698
# Shear Modulus (GPa) = -1.52597 30.15683 14.31543
#
# Velocity S-wave (km/s) = -0.85520 3.80177 2.61936
# Velocity P-wave (km/s) = 4.19105 6.89521 5.70565
#
# Compressibility (1/GPa) = 0.02585085
#
# Stress axis : x y z
#
# Youngs Moduli (GPa) = 133.43293 106.08821 43.84890
#
# Poissons Ratio (x) = 0.35925 0.02717
# Poissons Ratio (y) = 0.45184 0.12855
# Poissons Ratio (z) = 0.08269 0.31101
#
# Static dielectric constant tensor:
#      x y z
#    x 3.944660 0.000000 0.000000 
#    y 0.000000 3.914980 0.000000 
#    z 0.000000 0.000000 3.362340 
# 
# 
# High freq. dielectric constant tensor:
#      x y z
#    x 1.837140 0.000000 0.000000 
#    y 0.000000 1.834830 0.000000 
#    z 0.000000 0.000000 1.787450 
# 
# From -- ./inp_files/1991.got.cif
#   From: 2010.03.12/outbox.cif.g09.slc.cpg/sg55_1_cif.got.tgz:1991.got - 2010.04.16 15:19:21.
