data_PCOD8226356
_publ_section_title
;
Structure prediction by ZEFSAII (Michael W. Deem and Ramdas Pophale) SiO2 
 PCOD8226356
Probable space group: P B A M
;
_chemical_formula_sum "Si O2"
_cell_formula_units_Z 56
_cell_length_a 14.300559
_cell_length_b 8.407706
_cell_length_c 23.503404
_cell_angle_alpha 90.000000
_cell_angle_beta 90.000000
_cell_angle_gamma 90.000000
_cell_volume 2825.929329
_symmetry_space_group_name_H-M "P B A M"
_symmetry_group_IT_number 55
_symmetry_cell_setting 'orthorhombic'
loop_
_space_group_symop_operation_xyz
x,y,z
-x,-y,z
1/2+x,1/2-y,-z
1/2-x,1/2+y,-z
-x,-y,-z
x,y,-z
1/2-x,1/2+y,z
1/2+x,1/2-y,z
loop_
_atom_site_type_symbol
_atom_site_label
_atom_site_fract_x
_atom_site_fract_y
_atom_site_fract_z
Si Si1 0.006101 0.812979 0.937318
Si Si2 0.377439 0.834463 0.435682
Si Si3 0.846735 0.188887 0.152385
Si Si4 0.010760 0.684914 0.240733
Si Si5 0.814421 0.312659 0.435167
Si Si6 0.530656 0.678346 0.636788
Si Si7 0.138001 0.187170 0.842645
O O1 0.104797 0.766953 0.907889
O O2 0.919653 0.756067 0.898289
O O3 0.000820 0.732317 0.000000
O O4 0.000000 0.000000 0.944196
O O5 0.416069 0.826497 0.500000
O O6 0.296051 0.706423 0.425664
O O7 0.462185 0.802058 0.393822
O O8 0.336841 0.006237 0.421364
O O9 0.739382 0.236841 0.151574
O O10 0.900053 0.288134 0.200531
O O11 0.857323 0.001953 0.163885
O O12 0.914578 0.747594 0.212968
O O13 0.000000 0.500000 0.255093
O O14 0.031607 0.785011 0.296825
O O15 0.840991 0.264897 0.500000
O O16 0.867488 0.199256 0.390820
O O17 0.500000 0.500000 0.625161
#
# Coordination Sequence:
#
# PCOD8226356 Si02
#       7
#     8   8   8   8   8   8   8
#     4   8  16  32  54  82 117 152 186 227 271 319
#     4  10  21  38  59  84 114 147 184 226 274 329
#     4  10  20  36  58  83 113 149 188 228 275 328
#     4  11  23  40  59  80 108 142 186 235 282 330
#     4  10  21  38  59  84 114 147 184 226 274 329
#     4  12  24  38  58  84 113 145 184 228 279 334
#     4  10  20  36  58  83 113 149 188 228 275 328
#
# _framework density 19.816490000000002
#
# number of rings (size 3 to 8) (size 9 to 14) (size 15 to 20)
#    0.000    1.857    0.000    5.571    0.000    5.143 
#    0.000    5.714    0.000   14.571    0.000    0.000 
#    0.000    0.000    0.000    0.000    0.000    0.000 
#
# Total GULP energy -694511.934688 kJ/mol
# GULP energy per Si atom -12401.998834 kJ/mol
# Density = 1.977139 g / cm^3
# Si number density = 19.816490 Si / 1000 Ang^3
#
#
#
# Elastic Constant Matrix: (Units=GPa)
#
#
# Indices 1 2 3 4 5 6 
#
# 1 110.5037 1.7339 32.7516 0.0000 0.0000 0.0000
# 2 1.7339 54.9398 3.0421 0.0000 0.0000 0.0000
# 3 32.7516 3.0421 103.7962 0.0000 0.0000 0.0000
# 4 0.0000 0.0000 0.0000 22.0977 0.0000 0.0000
# 5 0.0000 0.0000 0.0000 0.0000 28.2114 0.0000
# 6 0.0000 0.0000 0.0000 0.0000 0.0000 34.1710
#
#
#
# Elastic Compliance Matrix: (Units=1/GPa)
#
#
# Indices 1 2 3 4 5 6 
#
# 1 0.009984 -0.000141 -0.003146 0.000000 0.000000 0.000000
# 2 -0.000141 0.018233 -0.000490 0.000000 0.000000 0.000000
# 3 -0.003146 -0.000490 0.010641 0.000000 0.000000 0.000000
# 4 0.000000 0.000000 0.000000 0.045254 0.000000 0.000000
# 5 0.000000 0.000000 0.000000 0.000000 0.035447 0.000000
# 6 0.000000 0.000000 0.000000 0.000000 0.000000 0.029265
#
#
# Mechanical properties :
#
#
# Convention : Reuss Voigt Hill
#
# Bulk Modulus (GPa) = 31.94402 38.25496 35.09949
# Shear Modulus (GPa) = 29.97371 32.34349 31.15860
#
# Velocity S-wave (km/s) = 3.89339 4.04437 3.96960
# Velocity P-wave (km/s) = 6.03044 6.41528 6.22583
#
# Compressibility (1/GPa) = 0.03130476
#
# Stress axis : x y z
#
# Youngs Moduli (GPa) = 100.15839 54.84462 93.97274
#
# Poissons Ratio (x) = 0.00773 0.29566
# Poissons Ratio (y) = 0.01411 0.04604
# Poissons Ratio (z) = 0.31512 0.02687
#
# Static dielectric constant tensor:
#      x y z
#    x 3.809110 0.000000 0.000000 
#    y 0.000000 3.554980 0.000000 
#    z 0.000000 0.000000 3.796760 
# 
# 
# High freq. dielectric constant tensor:
#      x y z
#    x 1.777700 0.000000 0.000000 
#    y 0.000000 1.773250 0.000000 
#    z 0.000000 0.000000 1.771380 
# 
# From -- ./inp_files/22965.got.cif
#   From: 2010.03.12/outbox.cif.g09.slc.cpg/sg55_12_cif.got.tgz:22965.got - 2010.04.16 15:19:21.
