data_PCOD8226441
_publ_section_title
;
Structure prediction by ZEFSAII (Michael W. Deem and Ramdas Pophale) SiO2 
 PCOD8226441
Probable space group: P B A M
;
_chemical_formula_sum "Si O2"
_cell_formula_units_Z 64
_cell_length_a 27.098206
_cell_length_b 12.508766
_cell_length_c 9.528927
_cell_angle_alpha 90.000000
_cell_angle_beta 90.000000
_cell_angle_gamma 90.000000
_cell_volume 3229.973864
_symmetry_space_group_name_H-M "P B A M"
_symmetry_group_IT_number 55
_symmetry_cell_setting 'orthorhombic'
loop_
_space_group_symop_operation_xyz
x,y,z
-x,-y,z
1/2+x,1/2-y,-z
1/2-x,1/2+y,-z
-x,-y,-z
x,y,-z
1/2-x,1/2+y,z
1/2+x,1/2-y,z
loop_
_atom_site_type_symbol
_atom_site_label
_atom_site_fract_x
_atom_site_fract_y
_atom_site_fract_z
Si Si1 0.552908 0.947744 0.337582
Si Si2 0.279609 0.864604 0.659375
Si Si3 0.684049 0.364184 0.351730
Si Si4 0.083080 0.189919 0.751256
Si Si5 0.525250 0.711891 0.340988
Si Si6 0.374552 0.908308 0.839347
Si Si7 0.919260 0.047581 0.844687
Si Si8 0.193139 0.948464 0.162381
O O1 0.569645 0.960488 0.500000
O O2 0.550325 0.822933 0.292935
O O3 0.500000 0.000000 0.315632
O O4 0.590614 0.005082 0.234081
O O5 0.280651 0.912573 0.500000
O O6 0.281892 0.738257 0.652082
O O7 0.323676 0.912891 0.752512
O O8 0.227832 0.880442 0.737478
O O9 0.694250 0.425811 0.500000
O O10 0.626504 0.331466 0.359336
O O11 0.698081 0.429252 0.213144
O O12 0.100567 0.290677 0.845080
O O13 0.033558 0.223203 0.671679
O O14 0.074715 0.080804 0.838302
O O15 0.539248 0.688128 0.500000
O O16 0.544075 0.609363 0.256958
O O17 0.364430 0.943114 0.000000
O O18 0.863444 0.085964 0.812942
O O19 0.934352 0.082967 0.000000
O O20 0.208857 0.940118 0.000000
#
# Coordination Sequence:
#
# PCOD8226441 Si02
#       8
#     8   8   8   8   8   8   8   8
#     4  10  21  40  60  81 117 160 197 242 294 342
#     4  10  21  38  62  88 114 147 191 240 292 349
#     4   9  19  35  59  87 113 146 190 242 291 345
#     4  10  20  36  60  89 118 153 193 242 291 347
#     4  11  23  38  59  86 116 158 203 242 287 343
#     4  11  22  37  61  92 119 150 196 244 291 351
#     4  10  23  40  57  83 121 158 192 238 297 351
#     4  10  21  39  60  83 116 155 191 237 295 350
#
# _framework density 19.814402999999999
#
# number of rings (size 3 to 8) (size 9 to 14) (size 15 to 20)
#    0.000    1.875    1.250    2.250    0.000   10.250 
#    2.250    0.000    0.000    0.000    0.000    0.000 
#    0.000    0.000    0.000    0.000    0.000    0.000 
#
# Total GULP energy -793247.340321 kJ/mol
# GULP energy per Si atom -12394.489693 kJ/mol
# Density = 1.976930 g / cm^3
# Si number density = 19.814403 Si / 1000 Ang^3
#
#
#
# Elastic Constant Matrix: (Units=GPa)
#
#
# Indices 1 2 3 4 5 6 
#
# 1 74.7473 30.4532 39.6818 0.0000 0.0000 0.0000
# 2 30.4532 72.3710 32.6245 0.0000 0.0000 0.0000
# 3 39.6818 32.6245 121.6669 0.0000 0.0000 0.0000
# 4 0.0000 0.0000 0.0000 14.4630 0.0000 0.0000
# 5 0.0000 0.0000 0.0000 0.0000 23.6509 0.0000
# 6 0.0000 0.0000 0.0000 0.0000 0.0000 31.6115
#
#
#
# Elastic Compliance Matrix: (Units=1/GPa)
#
#
# Indices 1 2 3 4 5 6 
#
# 1 0.017974 -0.005597 -0.004361 0.000000 0.000000 0.000000
# 2 -0.005597 0.017461 -0.002856 0.000000 0.000000 0.000000
# 3 -0.004361 -0.002856 0.010408 0.000000 0.000000 0.000000
# 4 0.000000 0.000000 0.000000 0.069142 0.000000 0.000000
# 5 0.000000 0.000000 0.000000 0.000000 0.042282 0.000000
# 6 0.000000 0.000000 0.000000 0.000000 0.000000 0.031634
#
#
# Mechanical properties :
#
#
# Convention : Reuss Voigt Hill
#
# Bulk Modulus (GPa) = 49.47522 52.70047 51.08784
# Shear Modulus (GPa) = 22.59702 25.01344 23.80523
#
# Velocity S-wave (km/s) = 3.38069 3.55686 3.46990
# Velocity P-wave (km/s) = 6.34526 6.59721 6.47246
#
# Compressibility (1/GPa) = 0.02021214
#
# Stress axis : x y z
#
# Youngs Moduli (GPa) = 55.63521 57.27157 96.08379
#
# Poissons Ratio (x) = 0.32057 0.41906
# Poissons Ratio (y) = 0.31141 0.27446
# Poissons Ratio (z) = 0.24265 0.16359
#
# Static dielectric constant tensor:
#      x y z
#    x 3.611320 0.000000 0.000000 
#    y 0.000000 3.564050 0.000000 
#    z 0.000000 0.000000 3.646700 
# 
# 
# High freq. dielectric constant tensor:
#      x y z
#    x 1.772310 0.000000 0.000000 
#    y 0.000000 1.764120 0.000000 
#    z 0.000000 0.000000 1.778290 
# 
# From -- ./inp_files/10770.got.cif
#   From: 2010.03.12/outbox.cif.g09.slc.cpg/sg55_6_cif.got.tgz:10770.got - 2010.04.16 15:19:21.
