data_PCOD8226901
_publ_section_title
;
Structure prediction by ZEFSAII (Michael W. Deem and Ramdas Pophale) SiO2 
 PCOD8226901
Probable space group: P B A M
;
_chemical_formula_sum "Si O2"
_cell_formula_units_Z 64
_cell_length_a 32.035093
_cell_length_b 10.096646
_cell_length_c 9.010129
_cell_angle_alpha 90.000000
_cell_angle_beta 90.000000
_cell_angle_gamma 90.000000
_cell_volume 2914.299137
_symmetry_space_group_name_H-M "P B A M"
_symmetry_group_IT_number 55
_symmetry_cell_setting 'orthorhombic'
loop_
_space_group_symop_operation_xyz
x,y,z
-x,-y,z
1/2+x,1/2-y,-z
1/2-x,1/2+y,-z
-x,-y,-z
x,y,-z
1/2-x,1/2+y,z
1/2+x,1/2-y,z
loop_
_atom_site_type_symbol
_atom_site_label
_atom_site_fract_x
_atom_site_fract_y
_atom_site_fract_z
Si Si1 0.566522 0.912738 0.833913
Si Si2 0.637784 0.317308 0.669865
Si Si3 0.221620 0.133004 0.822235
Si Si4 0.995003 0.165555 0.832494
Si Si5 0.870440 0.266074 0.661389
Si Si6 0.428161 0.475525 0.336383
Si Si7 0.282123 0.346605 0.322267
Si Si8 0.058368 0.331355 0.666909
O O1 0.534552 0.792770 0.823408
O O2 0.612866 0.880161 0.770579
O O3 0.545461 0.036442 0.751564
O O4 0.574152 0.959171 0.000000
O O5 0.653050 0.345033 0.500000
O O6 0.676739 0.306009 0.779276
O O7 0.608960 0.436281 0.730172
O O8 0.608663 0.186757 0.675869
O O9 0.254867 0.232475 0.752112
O O10 0.228459 0.988231 0.750645
O O11 0.226286 0.125511 0.000000
O O12 0.968455 0.036997 0.772731
O O13 0.036001 0.198991 0.733633
O O14 0.008828 0.136886 0.000000
O O15 0.860272 0.329371 0.500000
O O16 0.909581 0.169727 0.644602
O O17 0.829688 0.189659 0.720102
O O18 0.441468 0.530672 0.500000
O O19 0.274812 0.353844 0.500000
O O20 0.042683 0.347277 0.500000
#
# Coordination Sequence:
#
# PCOD8226901 Si02
#       8
#     8   8   8   8   8   8   8   8
#     4  10  21  36  56  83 120 160 197 247 309 369
#     4  10  22  42  63  85 117 160 204 250 307 374
#     4  12  26  43  67 101 135 167 211 269 329 384
#     4  10  21  36  55  83 118 156 198 248 312 368
#     4   9  18  35  63  90 111 148 201 245 289 354
#     4   9  17  35  61  85 111 147 199 247 289 353
#     4  11  23  44  71  97 130 174 217 260 316 388
#     4  11  23  37  57  83 115 157 206 255 303 359
#
# _framework density 21.960684000000001
#
# number of rings (size 3 to 8) (size 9 to 14) (size 15 to 20)
#    0.000    1.750    1.250    3.000    0.000    7.000 
#    0.000    3.750    0.000    0.000    0.000    0.000 
#    0.000    0.000    0.000    0.000    0.000    0.000 
#
# Total GULP energy -793527.846038 kJ/mol
# GULP energy per Si atom -12398.872594 kJ/mol
# Density = 2.191070 g / cm^3
# Si number density = 21.960684 Si / 1000 Ang^3
#
#
#
# Elastic Constant Matrix: (Units=GPa)
#
#
# Indices 1 2 3 4 5 6 
#
# 1 103.3616 16.5672 56.6455 0.0000 0.0000 0.0000
# 2 16.5672 70.4705 31.1896 0.0000 0.0000 0.0000
# 3 56.6455 31.1896 147.7814 0.0000 0.0000 0.0000
# 4 0.0000 0.0000 0.0000 32.4409 0.0000 0.0000
# 5 0.0000 0.0000 0.0000 0.0000 26.4414 0.0000
# 6 0.0000 0.0000 0.0000 0.0000 0.0000 32.5004
#
#
#
# Elastic Compliance Matrix: (Units=1/GPa)
#
#
# Indices 1 2 3 4 5 6 
#
# 1 0.012298 -0.000888 -0.004526 0.000000 0.000000 0.000000
# 2 -0.000888 0.015717 -0.002977 0.000000 0.000000 0.000000
# 3 -0.004526 -0.002977 0.009130 0.000000 0.000000 0.000000
# 4 0.000000 0.000000 0.000000 0.030825 0.000000 0.000000
# 5 0.000000 0.000000 0.000000 0.000000 0.037820 0.000000
# 6 0.000000 0.000000 0.000000 0.000000 0.000000 0.030769
#
#
# Mechanical properties :
#
#
# Convention : Reuss Voigt Hill
#
# Bulk Modulus (GPa) = 49.11012 58.93533 54.02273
# Shear Modulus (GPa) = 31.22519 32.75728 31.99124
#
# Velocity S-wave (km/s) = 3.77486 3.86636 3.82088
# Velocity P-wave (km/s) = 6.43511 6.84300 6.64219
#
# Compressibility (1/GPa) = 0.02036240
#
# Stress axis : x y z
#
# Youngs Moduli (GPa) = 81.31615 63.62732 109.52913
#
# Poissons Ratio (x) = 0.05649 0.49577
# Poissons Ratio (y) = 0.07219 0.32604
# Poissons Ratio (z) = 0.36807 0.18940
#
# Static dielectric constant tensor:
#      x y z
#    x 3.986110 0.000000 0.000000 
#    y 0.000000 4.004000 0.000000 
#    z 0.000000 0.000000 4.087450 
# 
# 
# High freq. dielectric constant tensor:
#      x y z
#    x 1.863660 0.000000 0.000000 
#    y 0.000000 1.877880 0.000000 
#    z 0.000000 0.000000 1.860740 
# 
# From -- ./inp_files/10843.got.cif
#   From: 2010.03.12/outbox.cif.g09.slc.cpg/sg55_6_cif.got.tgz:10843.got - 2010.04.16 15:19:21.
