data_PCOD8226257
_publ_section_title
;
Structure prediction by ZEFSAII (Michael W. Deem and Ramdas Pophale) SiO2 
 PCOD8226257
Probable space group: P B A M
;
_chemical_formula_sum "Si O2"
_cell_formula_units_Z 64
_cell_length_a 27.671819
_cell_length_b 12.586206
_cell_length_c 8.745408
_cell_angle_alpha 90.000000
_cell_angle_beta 90.000000
_cell_angle_gamma 90.000000
_cell_volume 3045.878809
_symmetry_space_group_name_H-M "P B A M"
_symmetry_group_IT_number 55
_symmetry_cell_setting 'orthorhombic'
loop_
_space_group_symop_operation_xyz
x,y,z
-x,-y,z
1/2+x,1/2-y,-z
1/2-x,1/2+y,-z
-x,-y,-z
x,y,-z
1/2-x,1/2+y,z
1/2+x,1/2-y,z
loop_
_atom_site_type_symbol
_atom_site_label
_atom_site_fract_x
_atom_site_fract_y
_atom_site_fract_z
Si Si1 0.640128 0.140077 0.325732
Si Si2 0.303715 0.268185 0.822025
Si Si3 0.847225 0.024459 0.319648
Si Si4 0.534938 0.901600 0.828390
Si Si5 0.446515 0.527004 0.821774
Si Si6 0.632989 0.900899 0.326387
Si Si7 0.700658 0.317198 0.178339
Si Si8 0.553227 0.228525 0.826560
O O1 0.650330 0.174353 0.500000
O O2 0.668674 0.213645 0.208512
O O3 0.583481 0.154426 0.288237
O O4 0.655225 0.017939 0.299224
O O5 0.314801 0.376306 0.732540
O O6 0.344772 0.181762 0.791640
O O7 0.254129 0.213939 0.764560
O O8 0.301254 0.296462 0.000000
O O9 0.850662 0.023771 0.500000
O O10 0.902177 0.035999 0.256425
O O11 0.820058 0.918029 0.267354
O O12 0.575989 0.903242 0.701755
O O13 0.503652 0.794296 0.804576
O O14 0.500000 0.000000 0.801619
O O15 0.557070 0.905267 0.000000
O O16 0.500000 0.500000 0.754548
O O17 0.435820 0.649729 0.790097
O O18 0.445639 0.497548 0.000000
O O19 0.642522 0.863791 0.500000
O O20 0.699531 0.345217 0.000000
O O21 0.568387 0.200180 0.000000
#
# Coordination Sequence:
#
# PCOD8226257 Si02
#       8
#     8   8   8   8   8   8   8   8
#     4  11  23  39  63  96 132 168 209 265 330 391
#     4  11  27  48  71  96 127 172 223 271 322 386
#     4  12  26  45  70 102 139 172 212 271 337 398
#     4  10  20  35  58  89 124 170 220 262 313 375
#     4  10  22  40  64  94 131 177 225 272 322 384
#     4  11  25  42  62  95 135 173 213 266 335 392
#     4  11  25  46  72  98 125 167 222 272 320 384
#     4  10  20  36  59  89 125 170 221 269 316 378
#
# _framework density 21.011997999999998
#
# number of rings (size 3 to 8) (size 9 to 14) (size 15 to 20)
#    0.000    1.250    2.500    2.625    3.500    4.500 
#    0.000    0.000    0.000    0.000    0.000    0.000 
#    0.000    0.000    0.000    0.000    0.000    0.000 
#
# Total GULP energy -793746.571337 kJ/mol
# GULP energy per Si atom -12402.290177 kJ/mol
# Density = 2.096417 g / cm^3
# Si number density = 21.011998 Si / 1000 Ang^3
#
#
#
# Elastic Constant Matrix: (Units=GPa)
#
#
# Indices 1 2 3 4 5 6 
#
# 1 116.6591 41.2216 40.6335 0.0000 0.0000 0.0000
# 2 41.2216 86.7234 40.8377 0.0000 0.0000 0.0000
# 3 40.6335 40.8377 78.6784 0.0000 0.0000 0.0000
# 4 0.0000 0.0000 0.0000 31.8174 0.0000 0.0000
# 5 0.0000 0.0000 0.0000 0.0000 17.3479 0.0000
# 6 0.0000 0.0000 0.0000 0.0000 0.0000 29.9127
#
#
#
# Elastic Compliance Matrix: (Units=1/GPa)
#
#
# Indices 1 2 3 4 5 6 
#
# 1 0.011175 -0.003433 -0.003989 0.000000 0.000000 0.000000
# 2 -0.003433 0.016316 -0.006696 0.000000 0.000000 0.000000
# 3 -0.003989 -0.006696 0.018246 0.000000 0.000000 0.000000
# 4 0.000000 0.000000 0.000000 0.031429 0.000000 0.000000
# 5 0.000000 0.000000 0.000000 0.000000 0.057644 0.000000
# 6 0.000000 0.000000 0.000000 0.000000 0.000000 0.033431
#
#
# Mechanical properties :
#
#
# Convention : Reuss Voigt Hill
#
# Bulk Modulus (GPa) = 57.14260 58.60516 57.87388
# Shear Modulus (GPa) = 24.71472 26.44013 25.57743
#
# Velocity S-wave (km/s) = 3.43333 3.55115 3.49274
# Velocity P-wave (km/s) = 6.55524 6.69074 6.62334
#
# Compressibility (1/GPa) = 0.01750008
#
# Stress axis : x y z
#
# Youngs Moduli (GPa) = 89.48930 61.29092 54.80798
#
# Poissons Ratio (x) = 0.21041 0.21864
# Poissons Ratio (y) = 0.30722 0.36697
# Poissons Ratio (z) = 0.35699 0.41038
#
# Static dielectric constant tensor:
#      x y z
#    x 3.968950 0.000000 0.000000 
#    y 0.000000 3.868900 0.000000 
#    z 0.000000 0.000000 3.667720 
# 
# 
# High freq. dielectric constant tensor:
#      x y z
#    x 1.827270 0.000000 0.000000 
#    y 0.000000 1.830700 0.000000 
#    z 0.000000 0.000000 1.816350 
# 
# From -- ./inp_files/10858.got.cif
#   From: 2010.03.12/outbox.cif.g09.slc.cpg/sg55_6_cif.got.tgz:10858.got - 2010.04.16 15:19:21.
