data_PCOD8226993
_publ_section_title
;
Structure prediction by ZEFSAII (Michael W. Deem and Ramdas Pophale) SiO2 
 PCOD8226993
Probable space group: P B A M
;
_chemical_formula_sum "Si O2"
_cell_formula_units_Z 56
_cell_length_a 9.220316
_cell_length_b 14.755204
_cell_length_c 19.148914
_cell_angle_alpha 90.000000
_cell_angle_beta 90.000000
_cell_angle_gamma 90.000000
_cell_volume 2605.164626
_symmetry_space_group_name_H-M "P B A M"
_symmetry_group_IT_number 55
_symmetry_cell_setting 'orthorhombic'
loop_
_space_group_symop_operation_xyz
x,y,z
-x,-y,z
1/2+x,1/2-y,-z
1/2-x,1/2+y,-z
-x,-y,-z
x,y,-z
1/2-x,1/2+y,z
1/2+x,1/2-y,z
loop_
_atom_site_type_symbol
_atom_site_label
_atom_site_fract_x
_atom_site_fract_y
_atom_site_fract_z
Si Si1 0.716262 0.158629 0.579952
Si Si2 0.411608 0.410239 0.687255
Si Si3 0.806828 0.219385 0.796750
Si Si4 0.929809 0.401031 0.000000
Si Si5 0.051095 0.258663 0.892667
Si Si6 0.913296 0.407964 0.423175
Si Si7 0.205394 0.175064 0.330359
Si Si8 0.913754 0.901201 0.000000
O O1 0.764774 0.150884 0.500000
O O2 0.801093 0.078210 0.621929
O O3 0.543260 0.163014 0.589963
O O4 0.768466 0.251316 0.615173
O O5 0.500000 0.500000 0.707907
O O6 0.317609 0.375042 0.753755
O O7 0.533538 0.336979 0.665972
O O8 0.966948 0.245667 0.820643
O O9 0.711547 0.211070 0.867720
O O10 0.748896 0.300771 0.748463
O O11 0.981175 0.342641 0.933798
O O12 0.757865 0.418750 0.000000
O O13 0.000000 0.500000 0.000000
O O14 0.048216 0.162302 0.933527
O O15 0.839928 0.393106 0.500000
O O16 0.795358 0.411098 0.360178
O O17 0.000000 0.500000 0.424314
O O18 0.000000 0.000000 0.000000
#
# Coordination Sequence:
#
# PCOD8226993 Si02
#       8
#     8   8   8   4   8   8   8   4
#     4  10  21  37  60  85 115 163 216 270 335 401
#     4  11  24  40  60  92 130 167 222 283 338 405
#     4  11  23  44  66  93 130 182 216 266 333 396
#     4  11  26  46  71 111 139 177 231 275 334 404
#     4  11  24  48  72  97 146 179 223 277 329 403
#     4  10  21  37  57  83 118 160 209 268 331 385
#     4  11  22  38  60  87 121 163 216 266 321 401
#     4  11  26  44  79 109 139 183 223 277 340 390
#
# _framework density 21.495761999999999
#
# number of rings (size 3 to 8) (size 9 to 14) (size 15 to 20)
#    0.000    1.286    2.857    3.000    4.000    3.143 
#    2.571    0.000    0.000    0.000    0.000    0.000 
#    0.000    0.000    0.000    0.000    0.000    0.000 
#
# Total GULP energy -693910.029105 kJ/mol
# GULP energy per Si atom -12391.250520 kJ/mol
# Density = 2.144684 g / cm^3
# Si number density = 21.495762 Si / 1000 Ang^3
#
#
#
# Elastic Constant Matrix: (Units=GPa)
#
#
# Indices 1 2 3 4 5 6 
#
# 1 83.9362 28.5285 36.6201 0.0000 0.0000 0.0000
# 2 28.5285 105.1617 39.2122 0.0000 0.0000 0.0000
# 3 36.6201 39.2122 117.7841 0.0000 0.0000 0.0000
# 4 0.0000 0.0000 0.0000 18.5713 0.0000 0.0000
# 5 0.0000 0.0000 0.0000 0.0000 41.2348 0.0000
# 6 0.0000 0.0000 0.0000 0.0000 0.0000 32.7790
#
#
#
# Elastic Compliance Matrix: (Units=1/GPa)
#
#
# Indices 1 2 3 4 5 6 
#
# 1 0.014357 -0.002546 -0.003616 0.000000 0.000000 0.000000
# 2 -0.002546 0.011309 -0.002973 0.000000 0.000000 0.000000
# 3 -0.003616 -0.002973 0.010604 0.000000 0.000000 0.000000
# 4 0.000000 0.000000 0.000000 0.053846 0.000000 0.000000
# 5 0.000000 0.000000 0.000000 0.000000 0.024251 0.000000
# 6 0.000000 0.000000 0.000000 0.000000 0.000000 0.030507
#
#
# Mechanical properties :
#
#
# Convention : Reuss Voigt Hill
#
# Bulk Modulus (GPa) = 55.55985 57.28931 56.42458
# Shear Modulus (GPa) = 29.56042 32.01845 30.78943
#
# Velocity S-wave (km/s) = 3.71236 3.86362 3.78874
# Velocity P-wave (km/s) = 6.65421 6.82735 6.74133
#
# Compressibility (1/GPa) = 0.01799861
#
# Stress axis : x y z
#
# Youngs Moduli (GPa) = 69.65302 88.42856 94.30299
#
# Poissons Ratio (x) = 0.22518 0.34099
# Poissons Ratio (y) = 0.17737 0.28037
# Poissons Ratio (z) = 0.25186 0.26291
#
# Static dielectric constant tensor:
#      x y z
#    x 2.915860 0.000000 0.000000 
#    y 0.000000 3.750860 0.000000 
#    z 0.000000 0.000000 3.865660 
# 
# 
# High freq. dielectric constant tensor:
#      x y z
#    x 1.860120 0.000000 0.000000 
#    y 0.000000 1.836150 0.000000 
#    z 0.000000 0.000000 1.842190 
# 
# From -- ./inp_files/22673.got.cif
#   From: 2010.03.12/outbox.cif.g09.slc.cpg/sg55_12_cif.got.tgz:22673.got - 2010.04.16 15:19:21.
