data_PCOD8226488
_publ_section_title
;
Structure prediction by ZEFSAII (Michael W. Deem and Ramdas Pophale) SiO2 
 PCOD8226488
Probable space group: P B A M
;
_chemical_formula_sum "Si O2"
_cell_formula_units_Z 40
_cell_length_a 8.803923
_cell_length_b 17.336611
_cell_length_c 14.891006
_cell_angle_alpha 90.000000
_cell_angle_beta 90.000000
_cell_angle_gamma 90.000000
_cell_volume 2272.817050
_symmetry_space_group_name_H-M "P B A M"
_symmetry_group_IT_number 55
_symmetry_cell_setting 'orthorhombic'
loop_
_space_group_symop_operation_xyz
x,y,z
-x,-y,z
1/2+x,1/2-y,-z
1/2-x,1/2+y,-z
-x,-y,-z
x,y,-z
1/2-x,1/2+y,z
1/2+x,1/2-y,z
loop_
_atom_site_type_symbol
_atom_site_label
_atom_site_fract_x
_atom_site_fract_y
_atom_site_fract_z
Si Si1 0.451798 0.250185 0.687596
Si Si2 0.707351 0.351071 0.603157
Si Si3 0.821000 0.992351 0.273459
Si Si4 0.173965 0.475837 0.100830
Si Si5 0.792290 0.648139 0.767228
O O1 0.551240 0.312690 0.635378
O O2 0.345680 0.208333 0.614752
O O3 0.347383 0.292102 0.762200
O O4 0.551636 0.187517 0.738954
O O5 0.692060 0.374904 0.500000
O O6 0.741836 0.427722 0.659958
O O7 0.772853 0.971404 0.169997
O O8 0.742817 0.074670 0.298619
O O9 0.000000 0.000000 0.281239
O O10 0.190642 0.385739 0.131605
O O11 0.000000 0.500000 0.106932
O O12 0.237309 0.485541 0.000000
#
# Coordination Sequence:
#
# PCOD8226488 Si02
#       5
#     8   8   8   8   8
#     4  10  20  37  54  76 112 150 174 224 275 325
#     4  11  21  35  55  80 108 145 185 223 271 324
#     4  10  20  37  54  82 108 143 182 229 267 316
#     4   9  18  34  58  84 108 139 180 224 272 322
#     4   9  20  36  57  79 110 148 179 220 276 321
#
# _framework density 17.599305999999999
#
# number of rings (size 3 to 8) (size 9 to 14) (size 15 to 20)
#    1.200    1.000    2.000    1.800    0.000    0.800 
#    0.000    4.000    0.000    4.800    0.000    0.000 
#    0.000    0.000    0.000    0.000    0.000    0.000 
#
# Total GULP energy -495672.319726 kJ/mol
# GULP energy per Si atom -12391.807993 kJ/mol
# Density = 1.755925 g / cm^3
# Si number density = 17.599306 Si / 1000 Ang^3
#
#
#
# Elastic Constant Matrix: (Units=GPa)
#
#
# Indices 1 2 3 4 5 6 
#
# 1 84.6808 41.7576 29.3810 0.0000 0.0000 0.0000
# 2 41.7576 101.5330 46.9791 0.0000 0.0000 0.0000
# 3 29.3810 46.9791 118.7607 0.0000 0.0000 0.0000
# 4 0.0000 0.0000 0.0000 24.5259 0.0000 0.0000
# 5 0.0000 0.0000 0.0000 0.0000 15.2265 0.0000
# 6 0.0000 0.0000 0.0000 0.0000 0.0000 27.9533
#
#
#
# Elastic Compliance Matrix: (Units=1/GPa)
#
#
# Indices 1 2 3 4 5 6 
#
# 1 0.015046 -0.005466 -0.001560 0.000000 0.000000 0.000000
# 2 -0.005466 0.014041 -0.004202 0.000000 0.000000 0.000000
# 3 -0.001560 -0.004202 0.010469 0.000000 0.000000 0.000000
# 4 0.000000 0.000000 0.000000 0.040773 0.000000 0.000000
# 5 0.000000 0.000000 0.000000 0.000000 0.065675 0.000000
# 6 0.000000 0.000000 0.000000 0.000000 0.000000 0.035774
#
#
# Mechanical properties :
#
#
# Convention : Reuss Voigt Hill
#
# Bulk Modulus (GPa) = 58.48247 60.13444 59.30845
# Shear Modulus (GPa) = 23.81699 25.99825 24.90762
#
# Velocity S-wave (km/s) = 3.68270 3.84765 3.76608
# Velocity P-wave (km/s) = 7.16835 7.34724 7.25835
#
# Compressibility (1/GPa) = 0.01709914
#
# Stress axis : x y z
#
# Youngs Moduli (GPa) = 66.46403 71.21805 95.52446
#
# Poissons Ratio (x) = 0.38928 0.14902
# Poissons Ratio (y) = 0.36330 0.40141
# Poissons Ratio (z) = 0.10368 0.29927
#
# Static dielectric constant tensor:
#      x y z
#    x 3.306860 0.000000 0.000000 
#    y 0.000000 3.324780 0.000000 
#    z 0.000000 0.000000 3.066110 
# 
# 
# High freq. dielectric constant tensor:
#      x y z
#    x 1.693050 0.000000 0.000000 
#    y 0.000000 1.680510 0.000000 
#    z 0.000000 0.000000 1.652330 
# 
# From -- ./inp_files/19242.got.cif
#   From: 2010.03.12/outbox.cif.g09.slc.cpg/sg55_10_cif.got.tgz:19242.got - 2010.04.16 15:19:21.
