data_PCOD8226740
_publ_section_title
;
Structure prediction by ZEFSAII (Michael W. Deem and Ramdas Pophale) SiO2 
 PCOD8226740
Probable space group: P B A M
;
_chemical_formula_sum "Si O2"
_cell_formula_units_Z 48
_cell_length_a 7.694524
_cell_length_b 14.947569
_cell_length_c 20.965805
_cell_angle_alpha 90.000000
_cell_angle_beta 90.000000
_cell_angle_gamma 90.000000
_cell_volume 2411.370078
_symmetry_space_group_name_H-M "P B A M"
_symmetry_group_IT_number 55
_symmetry_cell_setting 'orthorhombic'
loop_
_space_group_symop_operation_xyz
x,y,z
-x,-y,z
1/2+x,1/2-y,-z
1/2-x,1/2+y,-z
-x,-y,-z
x,y,-z
1/2-x,1/2+y,z
1/2+x,1/2-y,z
loop_
_atom_site_type_symbol
_atom_site_label
_atom_site_fract_x
_atom_site_fract_y
_atom_site_fract_z
Si Si1 0.698514 0.500001 0.599773
Si Si2 0.204651 0.153548 0.833313
Si Si3 0.201206 0.354828 0.500000
Si Si4 0.201205 0.645170 0.500000
Si Si5 0.294726 0.500000 0.260540
Si Si6 0.204650 0.846452 0.833313
Si Si7 0.000000 0.394503 0.072047
O O1 0.500000 0.500000 0.616319
O O2 0.735118 0.591973 0.562198
O O3 0.735121 0.408029 0.562198
O O4 0.793837 0.500001 0.668820
O O5 0.267279 0.086437 0.778315
O O6 0.250000 0.250000 0.804600
O O7 0.322397 0.140310 0.895885
O O8 0.000001 0.142168 0.850823
O O9 0.249999 0.249999 0.500000
O O10 0.000001 0.362713 0.500000
O O11 0.500000 0.500000 0.265761
O O12 0.232721 0.413564 0.221684
O O13 0.322396 0.859690 0.895885
O O14 0.000000 0.500000 0.074384
O O15 1.000000 0.358071 0.000000
#
# Coordination Sequence:
#
# PCOD8226740 Si02
#       7
#     8   8   4   4   8   8   8
#     4  10  20  39  62  90 119 158 197 247 303 353
#     4  11  22  41  62  89 124 161 201 255 308 361
#     4  11  22  39  58  88 124 159 202 247 294 352
#     4  11  22  39  58  88 124 159 202 247 294 352
#     4   9  21  39  62  88 122 156 202 246 299 362
#     4  11  22  41  62  89 124 161 201 255 308 361
#     4  11  24  42  64  91 119 159 209 249 309 374
#
# _framework density 19.905697
#
# number of rings (size 3 to 8) (size 9 to 14) (size 15 to 20)
#    0.000    1.500    3.333    3.000    0.000    2.667 
#    6.000    5.000    0.000    0.000    0.000    0.000 
#    0.000    0.000    0.000    0.000    0.000    0.000 
#
# Total GULP energy -594914.226280 kJ/mol
# GULP energy per Si atom -12394.046381 kJ/mol
# Density = 1.986039 g / cm^3
# Si number density = 19.905697 Si / 1000 Ang^3
#
#
#
# Elastic Constant Matrix: (Units=GPa)
#
#
# Indices 1 2 3 4 5 6 
#
# 1 98.4614 22.4588 47.4636 0.0000 0.0000 0.0000
# 2 22.4588 178.1213 87.9322 0.0000 0.0000 0.0000
# 3 47.4636 87.9322 185.6143 0.0000 0.0000 0.0000
# 4 0.0000 0.0000 0.0000 69.0794 0.0000 0.0000
# 5 0.0000 0.0000 0.0000 0.0000 153.7609 0.0000
# 6 0.0000 0.0000 0.0000 0.0000 0.0000 29.6644
#
#
#
# Elastic Compliance Matrix: (Units=1/GPa)
#
#
# Indices 1 2 3 4 5 6 
#
# 1 0.011584 0.000002 -0.002963 0.000000 0.000000 0.000000
# 2 0.000002 0.007328 -0.003472 0.000000 0.000000 0.000000
# 3 -0.002963 -0.003472 0.007790 0.000000 0.000000 0.000000
# 4 0.000000 0.000000 0.000000 0.014476 0.000000 0.000000
# 5 0.000000 0.000000 0.000000 0.000000 0.006504 0.000000
# 6 0.000000 0.000000 0.000000 0.000000 0.000000 0.033710
#
#
# Mechanical properties :
#
#
# Convention : Reuss Voigt Hill
#
# Bulk Modulus (GPa) = 72.27510 86.43403 79.35457
# Shear Modulus (GPa) = 50.57119 70.79045 60.68082
#
# Velocity S-wave (km/s) = 5.04584 5.96993 5.52723
# Velocity P-wave (km/s) = 8.38659 9.54129 8.98251
#
# Compressibility (1/GPa) = 0.01383602
#
# Stress axis : x y z
#
# Youngs Moduli (GPa) = 86.32437 136.46463 128.36803
#
# Poissons Ratio (x) = -0.00031 0.38039
# Poissons Ratio (y) = -0.00019 0.44570
# Poissons Ratio (z) = 0.25580 0.47381
#
# Static dielectric constant tensor:
#      x y z
#    x 3.692340 0.000000 0.000000 
#    y 0.000000 3.847270 0.000000 
#    z 0.000000 0.000000 3.572090 
# 
# 
# High freq. dielectric constant tensor:
#      x y z
#    x 1.784730 0.000000 0.000000 
#    y 0.000000 1.788770 0.000000 
#    z 0.000000 0.000000 1.771850 
# 
# From -- ./inp_files/20850.got.cif
#   From: 2010.03.12/outbox.cif.g09.slc.cpg/sg55_11_cif.got.tgz:20850.got - 2010.04.16 15:19:21.
