data_PCOD8226171
_publ_section_title
;
Structure prediction by ZEFSAII (Michael W. Deem and Ramdas Pophale) SiO2 
 PCOD8226171
Probable space group: P B A M
;
_chemical_formula_sum "Si O2"
_cell_formula_units_Z 40
_cell_length_a 9.622015
_cell_length_b 24.333661
_cell_length_c 8.895899
_cell_angle_alpha 90.000000
_cell_angle_beta 90.000000
_cell_angle_gamma 90.000000
_cell_volume 2082.875572
_symmetry_space_group_name_H-M "P B A M"
_symmetry_group_IT_number 55
_symmetry_cell_setting 'orthorhombic'
loop_
_space_group_symop_operation_xyz
x,y,z
-x,-y,z
1/2+x,1/2-y,-z
1/2-x,1/2+y,-z
-x,-y,-z
x,y,-z
1/2-x,1/2+y,z
1/2+x,1/2-y,z
loop_
_atom_site_type_symbol
_atom_site_label
_atom_site_fract_x
_atom_site_fract_y
_atom_site_fract_z
Si Si1 0.843408 0.903702 0.675415
Si Si2 0.388592 0.721833 0.674921
Si Si3 0.871715 0.079706 0.826569
Si Si4 0.669542 0.704829 0.826343
Si Si5 0.844690 0.488302 0.177974
O O1 0.839312 0.914939 0.500000
O O2 0.834844 0.839203 0.713332
O O3 0.710004 0.931568 0.751732
O O4 0.985694 0.929910 0.737508
O O5 0.371199 0.736032 0.500000
O O6 0.548665 0.727776 0.720108
O O7 0.309317 0.765396 0.777034
O O8 0.809840 0.140121 0.799583
O O9 0.755367 0.037590 0.768000
O O10 0.907278 0.069244 0.000000
O O11 0.635327 0.717392 0.000000
O O12 0.000000 0.500000 0.237846
O O13 0.845175 0.482051 0.000000
#
# Coordination Sequence:
#
# PCOD8226171 Si02
#       5
#     8   8   8   8   8
#     4  10  21  36  55  79 106 140 180 218 260 315
#     4  10  21  37  55  79 112 145 177 219 274 324
#     4   9  19  36  56  78 105 139 178 218 262 314
#     4  10  20  35  56  81 107 140 185 227 263 315
#     4  10  21  36  54  78 108 140 174 218 271 318
#
# _framework density 19.204219999999999
#
# number of rings (size 3 to 8) (size 9 to 14) (size 15 to 20)
#    0.000    2.200    0.000    2.400    0.000    8.400 
#    0.000    2.000    0.000    0.000    0.000    0.000 
#    0.000    0.000    0.000    0.000    0.000    0.000 
#
# Total GULP energy -496182.964768 kJ/mol
# GULP energy per Si atom -12404.574119 kJ/mol
# Density = 1.916051 g / cm^3
# Si number density = 19.204220 Si / 1000 Ang^3
#
#
#
# Elastic Constant Matrix: (Units=GPa)
#
#
# Indices 1 2 3 4 5 6 
#
# 1 64.1299 17.0397 16.3842 0.0000 0.0000 0.0000
# 2 17.0397 43.5607 19.1222 0.0000 0.0000 0.0000
# 3 16.3842 19.1222 46.2401 0.0000 0.0000 0.0000
# 4 0.0000 0.0000 0.0000 28.2039 0.0000 0.0000
# 5 0.0000 0.0000 0.0000 0.0000 23.5710 0.0000
# 6 0.0000 0.0000 0.0000 0.0000 0.0000 38.7590
#
#
#
# Elastic Compliance Matrix: (Units=1/GPa)
#
#
# Indices 1 2 3 4 5 6 
#
# 1 0.018060 -0.005199 -0.004249 0.000000 0.000000 0.000000
# 2 -0.005199 0.029545 -0.010376 0.000000 0.000000 0.000000
# 3 -0.004249 -0.010376 0.027423 0.000000 0.000000 0.000000
# 4 0.000000 0.000000 0.000000 0.035456 0.000000 0.000000
# 5 0.000000 0.000000 0.000000 0.000000 0.042425 0.000000
# 6 0.000000 0.000000 0.000000 0.000000 0.000000 0.025800
#
#
# Mechanical properties :
#
#
# Convention : Reuss Voigt Hill
#
# Bulk Modulus (GPa) = 28.26502 28.78032 28.52267
# Shear Modulus (GPa) = 21.72479 24.86575 23.29527
#
# Velocity S-wave (km/s) = 3.36706 3.60225 3.48663
# Velocity P-wave (km/s) = 5.46499 5.68512 5.57614
#
# Compressibility (1/GPa) = 0.03537942
#
# Stress axis : x y z
#
# Youngs Moduli (GPa) = 55.36951 33.84652 36.46617
#
# Poissons Ratio (x) = 0.17598 0.15495
# Poissons Ratio (y) = 0.28789 0.37837
# Poissons Ratio (z) = 0.23527 0.35119
#
# Static dielectric constant tensor:
#      x y z
#    x 3.474890 0.000000 0.000000 
#    y 0.000000 3.560100 0.000000 
#    z 0.000000 0.000000 3.450950 
# 
# 
# High freq. dielectric constant tensor:
#      x y z
#    x 1.743980 0.000000 0.000000 
#    y 0.000000 1.750930 0.000000 
#    z 0.000000 0.000000 1.747730 
# 
# From -- ./inp_files/2274.got.cif
#   From: 2010.03.12/outbox.cif.g09.slc.cpg/sg55_2_cif.got.tgz:2274.got - 2010.04.16 15:19:21.
