data_PCOD8226734
_publ_section_title
;
Structure prediction by ZEFSAII (Michael W. Deem and Ramdas Pophale) SiO2 
 PCOD8226734
Probable space group: P B A M
;
_chemical_formula_sum "Si O2"
_cell_formula_units_Z 56
_cell_length_a 20.117881
_cell_length_b 9.393096
_cell_length_c 14.076317
_cell_angle_alpha 90.000000
_cell_angle_beta 90.000000
_cell_angle_gamma 90.000000
_cell_volume 2659.990187
_symmetry_space_group_name_H-M "P B A M"
_symmetry_group_IT_number 55
_symmetry_cell_setting 'orthorhombic'
loop_
_space_group_symop_operation_xyz
x,y,z
-x,-y,z
1/2+x,1/2-y,-z
1/2-x,1/2+y,-z
-x,-y,-z
x,y,-z
1/2-x,1/2+y,z
1/2+x,1/2-y,z
loop_
_atom_site_type_symbol
_atom_site_label
_atom_site_fract_x
_atom_site_fract_y
_atom_site_fract_z
Si Si1 0.915822 0.851370 0.307181
Si Si2 0.310358 0.140336 0.303310
Si Si3 0.954582 0.258475 0.898759
Si Si4 0.837367 0.459919 0.104336
Si Si5 0.604282 0.255345 0.104952
Si Si6 0.567285 0.665182 0.296986
Si Si7 0.697944 0.169224 0.610039
O O1 0.890181 0.855835 0.197294
O O2 0.871598 0.747412 0.370505
O O3 0.991319 0.797170 0.324991
O O4 0.909581 0.015197 0.342289
O O5 0.296482 0.108819 0.191377
O O6 0.382813 0.208323 0.326116
O O7 0.255416 0.253638 0.331729
O O8 0.305713 0.995711 0.362200
O O9 0.912105 0.401748 0.890674
O O10 0.933513 0.146467 0.817652
O O11 0.030347 0.309466 0.891339
O O12 0.941385 0.180867 0.000000
O O13 0.842351 0.629180 0.118240
O O14 0.805129 0.424713 0.000000
O O15 0.616101 0.328351 0.000000
O O16 0.715491 0.179908 0.500000
#
# Coordination Sequence:
#
# PCOD8226734 Si02
#       7
#     8   8   8   8   8   8   8
#     4  10  20  39  60  94 129 166 200 254 310 369
#     4  11  23  43  65  92 121 161 204 259 309 376
#     4   8  14  24  46  82 125 167 205 239 282 347
#     4   9  16  30  53  86 123 160 200 245 297 360
#     4   9  15  26  50  86 125 165 202 240 289 357
#     4   9  20  36  62  90 130 164 202 249 313 367
#     4  12  26  45  67  89 116 156 211 266 321 376
#
# _framework density 21.052709
#
# number of rings (size 3 to 8) (size 9 to 14) (size 15 to 20)
#    0.000    2.286    1.429    1.714    0.000    2.857 
#    0.000    8.571    0.000    1.714    0.000    0.000 
#    0.000    0.000    0.000    0.000    0.000    0.000 
#
# Total GULP energy -693792.681343 kJ/mol
# GULP energy per Si atom -12389.155024 kJ/mol
# Density = 2.100479 g / cm^3
# Si number density = 21.052709 Si / 1000 Ang^3
#
#
#
# Elastic Constant Matrix: (Units=GPa)
#
#
# Indices 1 2 3 4 5 6 
#
# 1 86.6149 44.7604 35.6233 0.0000 0.0000 0.0000
# 2 44.7604 96.3758 28.6265 0.0000 0.0000 0.0000
# 3 35.6233 28.6265 97.1743 0.0000 0.0000 0.0000
# 4 0.0000 0.0000 0.0000 17.2766 0.0000 0.0000
# 5 0.0000 0.0000 0.0000 0.0000 15.9384 0.0000
# 6 0.0000 0.0000 0.0000 0.0000 0.0000 34.0502
#
#
#
# Elastic Compliance Matrix: (Units=1/GPa)
#
#
# Indices 1 2 3 4 5 6 
#
# 1 0.016610 -0.006472 -0.004183 0.000000 0.000000 0.000000
# 2 -0.006472 0.013893 -0.001720 0.000000 0.000000 0.000000
# 3 -0.004183 -0.001720 0.012331 0.000000 0.000000 0.000000
# 4 0.000000 0.000000 0.000000 0.057882 0.000000 0.000000
# 5 0.000000 0.000000 0.000000 0.000000 0.062741 0.000000
# 6 0.000000 0.000000 0.000000 0.000000 0.000000 0.029368
#
#
# Mechanical properties :
#
#
# Convention : Reuss Voigt Hill
#
# Bulk Modulus (GPa) = 55.29616 55.35394 55.32505
# Shear Modulus (GPa) = 22.36110 24.86339 23.61224
#
# Velocity S-wave (km/s) = 3.26260 3.44031 3.35263
# Velocity P-wave (km/s) = 6.36516 6.49084 6.42831
#
# Compressibility (1/GPa) = 0.01808444
#
# Stress axis : x y z
#
# Youngs Moduli (GPa) = 60.20423 71.97980 81.09777
#
# Poissons Ratio (x) = 0.46585 0.33920
# Poissons Ratio (y) = 0.38964 0.13950
# Poissons Ratio (z) = 0.25181 0.12381
#
# Static dielectric constant tensor:
#      x y z
#    x 3.637020 0.000000 0.000000 
#    y 0.000000 3.543760 0.000000 
#    z 0.000000 0.000000 3.901610 
# 
# 
# High freq. dielectric constant tensor:
#      x y z
#    x 1.808250 0.000000 0.000000 
#    y 0.000000 1.810440 0.000000 
#    z 0.000000 0.000000 1.817240 
# 
# From -- ./inp_files/19765.got.cif
#   From: 2010.03.12/outbox.cif.g09.slc.cpg/sg55_10_cif.got.tgz:19765.got - 2010.04.16 15:19:21.
