data_PCOD8226777
_publ_section_title
;
Structure prediction by ZEFSAII (Michael W. Deem and Ramdas Pophale) SiO2 
 PCOD8226777
Probable space group: P B A M
;
_chemical_formula_sum "Si O2"
_cell_formula_units_Z 64
_cell_length_a 8.526447
_cell_length_b 21.753846
_cell_length_c 16.552234
_cell_angle_alpha 90.000000
_cell_angle_beta 90.000000
_cell_angle_gamma 90.000000
_cell_volume 3070.158267
_symmetry_space_group_name_H-M "P B A M"
_symmetry_group_IT_number 55
_symmetry_cell_setting 'orthorhombic'
loop_
_space_group_symop_operation_xyz
x,y,z
-x,-y,z
1/2+x,1/2-y,-z
1/2-x,1/2+y,-z
-x,-y,-z
x,y,-z
1/2-x,1/2+y,z
1/2+x,1/2-y,z
loop_
_atom_site_type_symbol
_atom_site_label
_atom_site_fract_x
_atom_site_fract_y
_atom_site_fract_z
Si Si1 0.307301 0.831692 0.588183
Si Si2 0.382332 0.153011 0.332102
Si Si3 0.628811 0.719082 0.734702
Si Si4 0.061959 0.668562 0.908051
Si Si5 0.792809 0.051836 0.652794
Si Si6 0.355107 0.731866 0.840217
Si Si7 0.129437 0.075772 0.594921
Si Si8 0.951239 0.568072 0.784026
O O1 0.270188 0.804684 0.500000
O O2 0.483398 0.814059 0.613207
O O3 0.169822 0.808868 0.648116
O O4 0.300454 0.905599 0.589083
O O5 0.352059 0.205655 0.266009
O O6 0.229944 0.137077 0.386143
O O7 0.436144 0.090824 0.288237
O O8 0.460015 0.698553 0.769092
O O9 0.765354 0.708292 0.800714
O O10 0.243868 0.681138 0.882386
O O11 0.972538 0.734320 0.902359
O O12 0.973340 0.614463 0.858689
O O13 0.061696 0.646081 0.000000
O O14 0.724873 0.064352 0.744033
O O15 0.974884 0.072779 0.650566
O O16 0.767163 0.983205 0.620250
O O17 0.084896 0.074329 0.500000
O O18 0.000000 0.500000 0.812246
#
# Coordination Sequence:
#
# PCOD8226777 Si02
#       8
#     8   8   8   8   8   8   8   8
#     4  11  23  36  53  84 125 162 210 262 314 364
#     4  11  22  39  60  87 119 170 218 257 317 369
#     4  11  21  40  60  88 122 170 210 251 306 374
#     4  11  23  41  69 103 130 157 199 255 322 382
#     4  10  22  38  58  84 119 167 215 260 317 370
#     4  10  20  40  66  90 126 161 204 251 299 382
#     4  11  22  38  60  88 121 161 224 284 314 349
#     4  11  21  41  64  91 130 169 210 252 313 401
#
# _framework density 20.845831
#
# number of rings (size 3 to 8) (size 9 to 14) (size 15 to 20)
#    0.000    1.250    5.000    3.000    1.750    1.250 
#    0.000    1.875    0.000    0.000    0.000    1.750 
#    0.000    0.125    0.000    0.000    0.000    0.000 
#
# Total GULP energy -792899.656882 kJ/mol
# GULP energy per Si atom -12389.057139 kJ/mol
# Density = 2.079838 g / cm^3
# Si number density = 20.845831 Si / 1000 Ang^3
#
#
#
# Elastic Constant Matrix: (Units=GPa)
#
#
# Indices 1 2 3 4 5 6 
#
# 1 113.3679 28.3706 57.7012 0.0000 0.0000 0.0000
# 2 28.3706 71.0665 30.4774 0.0000 0.0000 0.0000
# 3 57.7012 30.4774 138.6358 0.0000 0.0000 0.0000
# 4 0.0000 0.0000 0.0000 27.2134 0.0000 0.0000
# 5 0.0000 0.0000 0.0000 0.0000 25.1746 0.0000
# 6 0.0000 0.0000 0.0000 0.0000 0.0000 26.0143
#
#
#
# Elastic Compliance Matrix: (Units=1/GPa)
#
#
# Indices 1 2 3 4 5 6 
#
# 1 0.011692 -0.002849 -0.004240 0.000000 0.000000 0.000000
# 2 -0.002849 0.016230 -0.002382 0.000000 0.000000 0.000000
# 3 -0.004240 -0.002382 0.009501 0.000000 0.000000 0.000000
# 4 0.000000 0.000000 0.000000 0.036747 0.000000 0.000000
# 5 0.000000 0.000000 0.000000 0.000000 0.039723 0.000000
# 6 0.000000 0.000000 0.000000 0.000000 0.000000 0.038440
#
#
# Mechanical properties :
#
#
# Convention : Reuss Voigt Hill
#
# Bulk Modulus (GPa) = 54.10907 61.79649 57.95278
# Shear Modulus (GPa) = 28.17912 29.44851 28.81381
#
# Velocity S-wave (km/s) = 3.68065 3.76264 3.72187
# Velocity P-wave (km/s) = 6.63898 6.97033 6.80667
#
# Compressibility (1/GPa) = 0.01848119
#
# Stress axis : x y z
#
# Youngs Moduli (GPa) = 85.52974 61.61281 105.24657
#
# Poissons Ratio (x) = 0.17555 0.44623
# Poissons Ratio (y) = 0.24369 0.25072
# Poissons Ratio (z) = 0.36263 0.14677
#
# Static dielectric constant tensor:
#      x y z
#    x 3.900570 0.000000 0.000000 
#    y 0.000000 3.758270 0.000000 
#    z 0.000000 0.000000 3.536350 
# 
# 
# High freq. dielectric constant tensor:
#      x y z
#    x 1.826550 0.000000 0.000000 
#    y 0.000000 1.802210 0.000000 
#    z 0.000000 0.000000 1.791440 
# 
# From -- ./inp_files/21128.got.cif
#   From: 2010.03.12/outbox.cif.g09.slc.cpg/sg55_11_cif.got.tgz:21128.got - 2010.04.16 15:19:21.
