data_PCOD8226326
_publ_section_title
;
Structure prediction by ZEFSAII (Michael W. Deem and Ramdas Pophale) SiO2 
 PCOD8226326
Probable space group: P B A M
;
_chemical_formula_sum "Si O2"
_cell_formula_units_Z 48
_cell_length_a 30.876923
_cell_length_b 8.942996
_cell_length_c 8.457087
_cell_angle_alpha 90.000000
_cell_angle_beta 90.000000
_cell_angle_gamma 90.000000
_cell_volume 2335.274029
_symmetry_space_group_name_H-M "P B A M"
_symmetry_group_IT_number 55
_symmetry_cell_setting 'orthorhombic'
loop_
_space_group_symop_operation_xyz
x,y,z
-x,-y,z
1/2+x,1/2-y,-z
1/2-x,1/2+y,-z
-x,-y,-z
x,y,-z
1/2-x,1/2+y,z
1/2+x,1/2-y,z
loop_
_atom_site_type_symbol
_atom_site_label
_atom_site_fract_x
_atom_site_fract_y
_atom_site_fract_z
Si Si1 0.783628 0.661065 0.684454
Si Si2 0.046998 0.339187 0.314760
Si Si3 0.956285 0.338799 0.816169
Si Si4 0.631333 0.324032 0.684242
Si Si5 0.706224 0.840886 0.182593
Si Si6 0.624571 0.645367 0.182881
O O1 0.776864 0.696349 0.500000
O O2 0.826267 0.742828 0.754675
O O3 0.787393 0.484234 0.707774
O O4 0.742742 0.718881 0.781981
O O5 0.040819 0.310196 0.500000
O O6 0.054500 0.514556 0.285285
O O7 0.087683 0.247929 0.242969
O O8 0.004242 0.279886 0.225049
O O9 0.922406 0.209723 0.771649
O O10 0.953091 0.381506 0.000000
O O11 0.630710 0.290847 0.500000
O O12 0.633652 0.499599 0.714584
O O13 0.659933 0.770029 0.224997
O O14 0.708369 0.888926 0.000000
O O15 0.627248 0.599422 0.000000
#
# Coordination Sequence:
#
# PCOD8226326 Si02
#       6
#     8   8   8   8   8   8
#     4  11  23  40  61  87 116 150 189 233 282 336
#     4  10  20  36  57  83 111 145 186 230 278 332
#     4  10  20  36  57  83 111 145 186 230 278 332
#     4  10  23  39  57  82 114 149 188 230 279 333
#     4  11  23  40  61  87 116 150 189 233 282 336
#     4  10  23  39  57  82 114 149 188 230 279 333
#
# _framework density 20.554333
#
# number of rings (size 3 to 8) (size 9 to 14) (size 15 to 20)
#    0.000    1.667    0.000    5.000    0.000    8.667 
#    0.000    3.333    0.000    0.000    0.000    0.000 
#    0.000    0.000    0.000    0.000    0.000    0.000 
#
# Total GULP energy -595469.150769 kJ/mol
# GULP energy per Si atom -12405.607308 kJ/mol
# Density = 2.050755 g / cm^3
# Si number density = 20.554333 Si / 1000 Ang^3
#
#
#
# Elastic Constant Matrix: (Units=GPa)
#
#
# Indices 1 2 3 4 5 6 
#
# 1 113.7668 25.6749 25.9812 0.0000 0.0000 0.0000
# 2 25.6749 75.8483 10.6910 0.0000 0.0000 0.0000
# 3 25.9812 10.6910 34.8044 0.0000 0.0000 0.0000
# 4 0.0000 0.0000 0.0000 28.8468 0.0000 0.0000
# 5 0.0000 0.0000 0.0000 0.0000 28.5487 0.0000
# 6 0.0000 0.0000 0.0000 0.0000 0.0000 39.4241
#
#
#
# Elastic Compliance Matrix: (Units=1/GPa)
#
#
# Indices 1 2 3 4 5 6 
#
# 1 0.011104 -0.002708 -0.007457 0.000000 0.000000 0.000000
# 2 -0.002708 0.014441 -0.002415 0.000000 0.000000 0.000000
# 3 -0.007457 -0.002415 0.035041 0.000000 0.000000 0.000000
# 4 0.000000 0.000000 0.000000 0.034666 0.000000 0.000000
# 5 0.000000 0.000000 0.000000 0.000000 0.035028 0.000000
# 6 0.000000 0.000000 0.000000 0.000000 0.000000 0.025365
#
#
# Mechanical properties :
#
#
# Convention : Reuss Voigt Hill
#
# Bulk Modulus (GPa) = 28.22757 38.79040 33.50899
# Shear Modulus (GPa) = 25.95880 30.16873 28.06377
#
# Velocity S-wave (km/s) = 3.55764 3.83529 3.69907
# Velocity P-wave (km/s) = 5.53522 6.20690 5.88066
#
# Compressibility (1/GPa) = 0.03542636
#
# Stress axis : x y z
#
# Youngs Moduli (GPa) = 90.05751 69.24682 28.53832
#
# Poissons Ratio (x) = 0.18749 0.21282
# Poissons Ratio (y) = 0.24384 0.06891
# Poissons Ratio (z) = 0.67159 0.16721
#
# Static dielectric constant tensor:
#      x y z
#    x 4.152290 0.000000 0.000000 
#    y 0.000000 3.485810 0.000000 
#    z 0.000000 0.000000 3.567880 
# 
# 
# High freq. dielectric constant tensor:
#      x y z
#    x 1.824290 0.000000 0.000000 
#    y 0.000000 1.798510 0.000000 
#    z 0.000000 0.000000 1.797690 
# 
# From -- ./inp_files/10546.got.cif
#   From: 2010.03.12/outbox.cif.g09.slc.cpg/sg55_6_cif.got.tgz:10546.got - 2010.04.16 15:19:21.
