data_PCOD8226985
_publ_section_title
;
Structure prediction by ZEFSAII (Michael W. Deem and Ramdas Pophale) SiO2 
 PCOD8226985
Probable space group: P B A M
;
_chemical_formula_sum "Si O2"
_cell_formula_units_Z 32
_cell_length_a 19.785784
_cell_length_b 10.005018
_cell_length_c 8.303696
_cell_angle_alpha 90.000000
_cell_angle_beta 90.000000
_cell_angle_gamma 90.000000
_cell_volume 1643.775788
_symmetry_space_group_name_H-M "P B A M"
_symmetry_group_IT_number 55
_symmetry_cell_setting 'orthorhombic'
loop_
_space_group_symop_operation_xyz
x,y,z
-x,-y,z
1/2+x,1/2-y,-z
1/2-x,1/2+y,-z
-x,-y,-z
x,y,-z
1/2-x,1/2+y,z
1/2+x,1/2-y,z
loop_
_atom_site_type_symbol
_atom_site_label
_atom_site_fract_x
_atom_site_fract_y
_atom_site_fract_z
Si Si1 0.448336 0.613199 0.688731
Si Si2 0.203962 0.400229 0.314584
Si Si3 0.303524 0.612841 0.813355
Si Si4 0.057315 0.399274 0.812740
O O1 0.500000 0.500000 0.747263
O O2 0.454892 0.641013 0.500000
O O3 0.372734 0.565056 0.729685
O O4 0.467334 0.748308 0.782837
O O5 0.221978 0.424486 0.500000
O O6 0.222859 0.249312 0.266805
O O7 0.247578 0.499717 0.206389
O O8 0.125077 0.428794 0.286435
O O9 0.317827 0.640379 0.000000
O O10 0.000000 0.500000 0.750118
O O11 0.072495 0.422076 0.000000
#
# Coordination Sequence:
#
# PCOD8226985 Si02
#       4
#     8   8   8   8
#     4  10  21  37  57  82 112 145 184 228 275 328
#     4  11  22  38  59  83 113 147 186 230 278 330
#     4  11  22  38  59  83 113 147 186 230 278 330
#     4  10  21  37  57  82 112 145 184 228 275 328
#
# _framework density 19.467375000000001
#
# number of rings (size 3 to 8) (size 9 to 14) (size 15 to 20)
#    0.000    1.500    0.000    9.000    0.000    6.000 
#    0.000    5.000    0.000    0.000    0.000    0.000 
#    0.000    0.000    0.000    0.000    0.000    0.000 
#
# Total GULP energy -396992.454980 kJ/mol
# GULP energy per Si atom -12406.014218 kJ/mol
# Density = 1.942307 g / cm^3
# Si number density = 19.467375 Si / 1000 Ang^3
#
#
#
# Elastic Constant Matrix: (Units=GPa)
#
#
# Indices 1 2 3 4 5 6 
#
# 1 92.4938 85.2825 -0.1977 0.0000 0.0000 0.0000
# 2 85.2825 112.6845 8.0837 0.0000 0.0000 0.0000
# 3 -0.1977 8.0837 62.5280 0.0000 0.0000 0.0000
# 4 0.0000 0.0000 0.0000 31.7344 0.0000 0.0000
# 5 0.0000 0.0000 0.0000 0.0000 31.1091 0.0000
# 6 0.0000 0.0000 0.0000 0.0000 0.0000 45.5283
#
#
#
# Elastic Compliance Matrix: (Units=1/GPa)
#
#
# Indices 1 2 3 4 5 6 
#
# 1 0.036622 -0.027984 0.003734 0.000000 0.000000 0.000000
# 2 -0.027984 0.030341 -0.004011 0.000000 0.000000 0.000000
# 3 0.003734 -0.004011 0.016523 0.000000 0.000000 0.000000
# 4 0.000000 0.000000 0.000000 0.031512 0.000000 0.000000
# 5 0.000000 0.000000 0.000000 0.000000 0.032145 0.000000
# 6 0.000000 0.000000 0.000000 0.000000 0.000000 0.021964
#
#
# Mechanical properties :
#
#
# Convention : Reuss Voigt Hill
#
# Bulk Modulus (GPa) = 37.08774 50.44925 43.76850
# Shear Modulus (GPa) = 21.31120 33.31022 27.31071
#
# Velocity S-wave (km/s) = 3.31223 4.14101 3.74959
# Velocity P-wave (km/s) = 5.80693 6.98820 6.42477
#
# Compressibility (1/GPa) = 0.02696309
#
# Stress axis : x y z
#
# Youngs Moduli (GPa) = 27.30599 32.95836 60.52102
#
# Poissons Ratio (x) = 0.92232 -0.22596
# Poissons Ratio (y) = 0.76414 0.24275
# Poissons Ratio (z) = -0.10195 0.13220
#
# Static dielectric constant tensor:
#      x y z
#    x 3.497870 0.000000 0.000000 
#    y 0.000000 3.607790 0.000000 
#    z 0.000000 0.000000 3.566820 
# 
# 
# High freq. dielectric constant tensor:
#      x y z
#    x 1.755740 0.000000 0.000000 
#    y 0.000000 1.759930 0.000000 
#    z 0.000000 0.000000 1.773720 
# 
# From -- ./inp_files/1988.got.cif
#   From: 2010.03.12/outbox.cif.g09.slc.cpg/sg55_1_cif.got.tgz:1988.got - 2010.04.16 15:19:21.
