data_PCOD8226022
_publ_section_title
;
Structure prediction by ZEFSAII (Michael W. Deem and Ramdas Pophale) SiO2 
 PCOD8226022
Probable space group: P B A M
;
_chemical_formula_sum "Si O2"
_cell_formula_units_Z 48
_cell_length_a 10.193130
_cell_length_b 26.165294
_cell_length_c 9.211435
_cell_angle_alpha 90.000000
_cell_angle_beta 90.000000
_cell_angle_gamma 90.000000
_cell_volume 2456.747224
_symmetry_space_group_name_H-M "P B A M"
_symmetry_group_IT_number 55
_symmetry_cell_setting 'orthorhombic'
loop_
_space_group_symop_operation_xyz
x,y,z
-x,-y,z
1/2+x,1/2-y,-z
1/2-x,1/2+y,-z
-x,-y,-z
x,y,-z
1/2-x,1/2+y,z
1/2+x,1/2-y,z
loop_
_atom_site_type_symbol
_atom_site_label
_atom_site_fract_x
_atom_site_fract_y
_atom_site_fract_z
Si Si1 0.125208 0.531020 0.666939
Si Si2 0.391642 0.683350 0.831529
Si Si3 0.856930 0.351785 0.332507
Si Si4 0.837985 0.135714 0.172230
Si Si5 0.641466 0.520078 0.171771
Si Si6 0.089294 0.301973 0.168688
O O1 0.153643 0.517118 0.500000
O O2 0.093216 0.590503 0.687252
O O3 0.251483 0.516779 0.759615
O O4 0.000000 0.500000 0.726128
O O5 0.284751 0.653076 0.739814
O O6 0.533260 0.665429 0.772614
O O7 0.373405 0.743352 0.807107
O O8 0.374169 0.668580 0.000000
O O9 0.846160 0.336249 0.500000
O O10 0.958045 0.313938 0.255754
O O11 0.839282 0.077721 0.229924
O O12 0.708799 0.164213 0.231881
O O13 0.835412 0.137364 0.000000
O O14 0.500000 0.500000 0.221599
O O15 0.656959 0.517469 0.000000
O O16 0.062111 0.313582 0.000000
#
# Coordination Sequence:
#
# PCOD8226022 Si02
#       6
#     8   8   8   8   8   8
#     4  10  22  39  56  77 109 148 187 224 266 322
#     4  10  20  37  60  82 108 144 183 224 272 327
#     4  11  23  37  55  82 114 146 181 224 273 322
#     4   9  18  33  54  81 108 135 178 231 275 322
#     4  10  20  34  54  80 108 139 178 227 279 325
#     4  10  20  36  59  83 107 141 183 224 269 322
#
# _framework density 19.538029999999999
#
# number of rings (size 3 to 8) (size 9 to 14) (size 15 to 20)
#    0.000    2.000    0.000    3.500    0.000    6.667 
#    0.000    1.667    0.000    0.000    0.000    0.000 
#    0.000    0.000    0.000    0.000    0.000    0.000 
#
# Total GULP energy -595447.925476 kJ/mol
# GULP energy per Si atom -12405.165114 kJ/mol
# Density = 1.949356 g / cm^3
# Si number density = 19.538030 Si / 1000 Ang^3
#
#
#
# Elastic Constant Matrix: (Units=GPa)
#
#
# Indices 1 2 3 4 5 6 
#
# 1 108.7616 11.6394 35.9950 0.0000 0.0000 0.0000
# 2 11.6394 64.5537 23.8875 0.0000 0.0000 0.0000
# 3 35.9950 23.8875 53.8595 0.0000 0.0000 0.0000
# 4 0.0000 0.0000 0.0000 47.0419 0.0000 0.0000
# 5 0.0000 0.0000 0.0000 0.0000 14.6559 0.0000
# 6 0.0000 0.0000 0.0000 0.0000 0.0000 42.5700
#
#
#
# Elastic Compliance Matrix: (Units=1/GPa)
#
#
# Indices 1 2 3 4 5 6 
#
# 1 0.011854 0.000950 -0.008344 0.000000 0.000000 0.000000
# 2 0.000950 0.018609 -0.008888 0.000000 0.000000 0.000000
# 3 -0.008344 -0.008888 0.028085 0.000000 0.000000 0.000000
# 4 0.000000 0.000000 0.000000 0.021258 0.000000 0.000000
# 5 0.000000 0.000000 0.000000 0.000000 0.068232 0.000000
# 6 0.000000 0.000000 0.000000 0.000000 0.000000 0.023491
#
#
# Mechanical properties :
#
#
# Convention : Reuss Voigt Hill
#
# Bulk Modulus (GPa) = 38.48467 41.13539 39.81003
# Shear Modulus (GPa) = 23.50142 31.23042 27.36592
#
# Velocity S-wave (km/s) = 3.47198 4.00239 3.74658
# Velocity P-wave (km/s) = 5.98439 6.51602 6.25586
#
# Compressibility (1/GPa) = 0.02598437
#
# Stress axis : x y z
#
# Youngs Moduli (GPa) = 84.35904 53.73837 35.60614
#
# Poissons Ratio (x) = -0.05106 0.29708
# Poissons Ratio (y) = -0.08015 0.31647
# Poissons Ratio (z) = 0.70386 0.47764
#
# Static dielectric constant tensor:
#      x y z
#    x 3.634570 0.000000 0.000000 
#    y 0.000000 3.674830 0.000000 
#    z 0.000000 0.000000 3.307420 
# 
# 
# High freq. dielectric constant tensor:
#      x y z
#    x 1.774420 0.000000 0.000000 
#    y 0.000000 1.774850 0.000000 
#    z 0.000000 0.000000 1.732620 
# 
# From -- ./inp_files/2910.got.cif
#   From: 2010.03.12/outbox.cif.g09.slc.cpg/sg55_2_cif.got.tgz:2910.got - 2010.04.16 15:19:21.
