data_PCOD8226842
_publ_section_title
;
Structure prediction by ZEFSAII (Michael W. Deem and Ramdas Pophale) SiO2 
 PCOD8226842
Probable space group: P B A M
;
_chemical_formula_sum "Si O2"
_cell_formula_units_Z 40
_cell_length_a 10.063294
_cell_length_b 23.780593
_cell_length_c 9.115698
_cell_angle_alpha 90.000000
_cell_angle_beta 90.000000
_cell_angle_gamma 90.000000
_cell_volume 2181.487705
_symmetry_space_group_name_H-M "P B A M"
_symmetry_group_IT_number 55
_symmetry_cell_setting 'orthorhombic'
loop_
_space_group_symop_operation_xyz
x,y,z
-x,-y,z
1/2+x,1/2-y,-z
1/2-x,1/2+y,-z
-x,-y,-z
x,y,-z
1/2-x,1/2+y,z
1/2+x,1/2-y,z
loop_
_atom_site_type_symbol
_atom_site_label
_atom_site_fract_x
_atom_site_fract_y
_atom_site_fract_z
Si Si1 0.342534 0.768317 0.827080
Si Si2 0.522787 0.844058 0.334128
Si Si3 0.977202 0.064239 0.828242
Si Si4 0.764322 0.133832 0.666178
Si Si5 0.778577 0.859071 0.828774
O O1 0.484702 0.787440 0.757964
O O2 0.225126 0.806834 0.755391
O O3 0.319460 0.703924 0.785602
O O4 0.345367 0.778253 0.000000
O O5 0.560804 0.827179 0.500000
O O6 0.392114 0.884553 0.332466
O O7 0.645530 0.875909 0.258372
O O8 0.105109 0.099517 0.777451
O O9 0.848143 0.085337 0.742910
O O10 0.950388 0.071850 0.000000
O O11 0.000000 0.000000 0.784698
O O12 0.814657 0.143014 0.500000
O O13 0.749396 0.865553 0.000000
#
# Coordination Sequence:
#
# PCOD8226842 Si02
#       5
#     8   8   8   8   8
#     4   9  18  32  54  82 114 147 185 232 287 342
#     4   9  20  35  53  83 115 146 183 228 286 345
#     4  10  22  40  60  84 114 154 202 244 285 339
#     4   9  20  36  55  82 114 149 188 231 289 346
#     4  10  21  35  56  84 113 150 193 236 285 343
#
# _framework density 18.336110999999999
#
# number of rings (size 3 to 8) (size 9 to 14) (size 15 to 20)
#    1.200    1.400    0.000    1.200    2.800    2.800 
#    0.000    1.000    0.000    6.000    0.000    0.000 
#    0.000    0.000    0.000    0.000    0.000    0.000 
#
# Total GULP energy -495733.419875 kJ/mol
# GULP energy per Si atom -12393.335497 kJ/mol
# Density = 1.829438 g / cm^3
# Si number density = 18.336111 Si / 1000 Ang^3
#
#
#
# Elastic Constant Matrix: (Units=GPa)
#
#
# Indices 1 2 3 4 5 6 
#
# 1 106.8444 48.7846 48.9163 0.0000 0.0000 0.0000
# 2 48.7846 101.1087 40.9170 0.0000 0.0000 0.0000
# 3 48.9163 40.9170 84.3019 0.0000 0.0000 0.0000
# 4 0.0000 0.0000 0.0000 8.9213 0.0000 0.0000
# 5 0.0000 0.0000 0.0000 0.0000 30.4866 0.0000
# 6 0.0000 0.0000 0.0000 0.0000 0.0000 26.3865
#
#
#
# Elastic Compliance Matrix: (Units=1/GPa)
#
#
# Indices 1 2 3 4 5 6 
#
# 1 0.014136 -0.004357 -0.006088 0.000000 0.000000 0.000000
# 2 -0.004357 0.013651 -0.004097 0.000000 0.000000 0.000000
# 3 -0.006088 -0.004097 0.017383 0.000000 0.000000 0.000000
# 4 0.000000 0.000000 0.000000 0.112092 0.000000 0.000000
# 5 0.000000 0.000000 0.000000 0.000000 0.032801 0.000000
# 6 0.000000 0.000000 0.000000 0.000000 0.000000 0.037898
#
#
# Mechanical properties :
#
#
# Convention : Reuss Voigt Hill
#
# Bulk Modulus (GPa) = 62.16675 63.27676 62.72175
# Shear Modulus (GPa) = 19.05437 23.40134 21.22785
#
# Velocity S-wave (km/s) = 3.22712 3.57633 3.40620
# Velocity P-wave (km/s) = 6.91833 7.18594 7.05341
#
# Compressibility (1/GPa) = 0.01608577
#
# Stress axis : x y z
#
# Youngs Moduli (GPa) = 70.74209 73.25623 57.52664
#
# Poissons Ratio (x) = 0.31917 0.35020
# Poissons Ratio (y) = 0.30822 0.23571
# Poissons Ratio (z) = 0.43065 0.30016
#
# Static dielectric constant tensor:
#      x y z
#    x 3.319720 0.000000 0.000000 
#    y 0.000000 3.065890 0.000000 
#    z 0.000000 0.000000 3.360090 
# 
# 
# High freq. dielectric constant tensor:
#      x y z
#    x 1.709590 0.000000 0.000000 
#    y 0.000000 1.675340 0.000000 
#    z 0.000000 0.000000 1.719700 
# 
# From -- ./inp_files/3853.got.cif
#   From: 2010.03.12/outbox.cif.g09.slc.cpg/sg55_2_cif.got.tgz:3853.got - 2010.04.16 15:19:21.
