data_PCOD8226508
_publ_section_title
;
Structure prediction by ZEFSAII (Michael W. Deem and Ramdas Pophale) SiO2 
 PCOD8226508
Probable space group: P B A M
;
_chemical_formula_sum "Si O2"
_cell_formula_units_Z 64
_cell_length_a 12.566735
_cell_length_b 29.317376
_cell_length_c 9.259554
_cell_angle_alpha 90.000000
_cell_angle_beta 90.000000
_cell_angle_gamma 90.000000
_cell_volume 3411.439100
_symmetry_space_group_name_H-M "P B A M"
_symmetry_group_IT_number 55
_symmetry_cell_setting 'orthorhombic'
loop_
_space_group_symop_operation_xyz
x,y,z
-x,-y,z
1/2+x,1/2-y,-z
1/2-x,1/2+y,-z
-x,-y,-z
x,y,-z
1/2-x,1/2+y,z
1/2+x,1/2-y,z
loop_
_atom_site_type_symbol
_atom_site_label
_atom_site_fract_x
_atom_site_fract_y
_atom_site_fract_z
Si Si1 0.981383 0.143437 0.664908
Si Si2 0.120453 0.548596 0.329612
Si Si3 0.277283 0.212425 0.159915
Si Si4 0.956653 0.248192 0.335135
Si Si5 0.769617 0.124573 0.829714
Si Si6 0.882055 0.554513 0.671417
Si Si7 0.126090 0.291338 0.158968
Si Si8 0.282976 0.624134 0.329946
O O1 0.949525 0.132340 0.500000
O O2 0.002753 0.197380 0.683153
O O3 0.888830 0.124434 0.766906
O O4 0.091974 0.118245 0.707605
O O5 0.120446 0.547509 0.500000
O O6 0.140636 0.497175 0.276384
O O7 0.216345 0.580531 0.272911
O O8 0.003601 0.566960 0.281874
O O9 0.352345 0.248677 0.239056
O O10 0.167811 0.239696 0.147359
O O11 0.267206 0.167063 0.251205
O O12 0.320247 0.200223 0.000000
O O13 0.929760 0.259373 0.500000
O O14 0.034598 0.288465 0.279052
O O15 0.700435 0.085274 0.757288
O O16 0.715170 0.172753 0.791089
O O17 0.777205 0.116079 0.000000
O O18 0.865165 0.560805 0.500000
O O19 0.082013 0.305675 0.000000
O O20 0.268237 0.631914 0.500000
#
# Coordination Sequence:
#
# PCOD8226508 Si02
#       8
#     8   8   8   8   8   8   8   8
#     4  10  21  36  55  79 110 146 189 235 275 324
#     4   8  17  36  63  87 112 141 175 227 287 341
#     4  11  22  36  53  77 112 153 187 223 273 333
#     4  11  22  35  53  77 107 145 189 236 276 318
#     4  11  23  38  56  81 113 151 190 229 276 334
#     4   9  18  37  62  88 112 141 180 225 284 343
#     4  10  22  37  52  74 109 149 187 223 270 329
#     4  10  20  37  58  85 112 143 190 237 279 329
#
# _framework density 18.760411999999999
#
# number of rings (size 3 to 8) (size 9 to 14) (size 15 to 20)
#    0.000    2.000    2.500    1.875    1.750    2.500 
#    0.000    2.500    0.000    3.750    0.000    0.000 
#    0.000    0.000    0.000    0.000    0.000    0.000 
#
# Total GULP energy -793345.268743 kJ/mol
# GULP energy per Si atom -12396.019824 kJ/mol
# Density = 1.871771 g / cm^3
# Si number density = 18.760412 Si / 1000 Ang^3
#
#
#
# Elastic Constant Matrix: (Units=GPa)
#
#
# Indices 1 2 3 4 5 6 
#
# 1 105.4216 50.7085 50.5222 0.0000 0.0000 0.0000
# 2 50.7085 92.8892 36.5470 0.0000 0.0000 0.0000
# 3 50.5222 36.5470 79.2600 0.0000 0.0000 0.0000
# 4 0.0000 0.0000 0.0000 7.8986 0.0000 0.0000
# 5 0.0000 0.0000 0.0000 0.0000 25.9310 0.0000
# 6 0.0000 0.0000 0.0000 0.0000 0.0000 37.8113
#
#
#
# Elastic Compliance Matrix: (Units=1/GPa)
#
#
# Indices 1 2 3 4 5 6 
#
# 1 0.015789 -0.005692 -0.007440 0.000000 0.000000 0.000000
# 2 -0.005692 0.015204 -0.003382 0.000000 0.000000 0.000000
# 3 -0.007440 -0.003382 0.018918 0.000000 0.000000 0.000000
# 4 0.000000 0.000000 0.000000 0.126605 0.000000 0.000000
# 5 0.000000 0.000000 0.000000 0.000000 0.038564 0.000000
# 6 0.000000 0.000000 0.000000 0.000000 0.000000 0.026447
#
#
# Mechanical properties :
#
#
# Convention : Reuss Voigt Hill
#
# Bulk Modulus (GPa) = 59.23040 61.45846 60.34443
# Shear Modulus (GPa) = 17.84548 23.64770 20.74659
#
# Velocity S-wave (km/s) = 3.08755 3.55422 3.32907
# Velocity P-wave (km/s) = 6.65967 7.04798 6.85657
#
# Compressibility (1/GPa) = 0.01688322
#
# Stress axis : x y z
#
# Youngs Moduli (GPa) = 63.33493 65.77405 52.85860
#
# Poissons Ratio (x) = 0.37440 0.39325
# Poissons Ratio (y) = 0.36051 0.17877
# Poissons Ratio (z) = 0.47119 0.22245
#
# Static dielectric constant tensor:
#      x y z
#    x 3.526230 0.000000 0.000000 
#    y 0.000000 3.526560 0.000000 
#    z 0.000000 0.000000 3.372220 
# 
# 
# High freq. dielectric constant tensor:
#      x y z
#    x 1.732150 0.000000 0.000000 
#    y 0.000000 1.712700 0.000000 
#    z 0.000000 0.000000 1.719480 
# 
# From -- ./inp_files/4538.got.cif
#   From: 2010.03.12/outbox.cif.g09.slc.cpg/sg55_3_cif.got.tgz:4538.got - 2010.04.16 15:19:21.
