data_PCOD8226860
_publ_section_title
;
Structure prediction by ZEFSAII (Michael W. Deem and Ramdas Pophale) SiO2 
 PCOD8226860
Probable space group: P B A M
;
_chemical_formula_sum "Si O2"
_cell_formula_units_Z 64
_cell_length_a 25.192692
_cell_length_b 8.086434
_cell_length_c 18.314730
_cell_angle_alpha 90.000000
_cell_angle_beta 90.000000
_cell_angle_gamma 90.000000
_cell_volume 3731.059234
_symmetry_space_group_name_H-M "P B A M"
_symmetry_group_IT_number 55
_symmetry_cell_setting 'orthorhombic'
loop_
_space_group_symop_operation_xyz
x,y,z
-x,-y,z
1/2+x,1/2-y,-z
1/2-x,1/2+y,-z
-x,-y,-z
x,y,-z
1/2-x,1/2+y,z
1/2+x,1/2-y,z
loop_
_atom_site_type_symbol
_atom_site_label
_atom_site_fract_x
_atom_site_fract_y
_atom_site_fract_z
Si Si1 0.390120 0.815809 0.835145
Si Si2 0.937003 0.000075 0.418261
Si Si3 0.791638 0.798261 0.082624
Si Si4 0.984822 0.811795 0.081285
Si Si5 0.680130 0.676594 0.918992
Si Si6 0.084388 0.685457 0.836977
Si Si7 0.940855 0.313791 0.674597
Si Si8 0.434669 0.812801 0.323955
O O1 0.329204 0.788472 0.857641
O O2 0.426787 0.694538 0.882754
O O3 0.400354 0.786936 0.749234
O O4 0.404068 0.999412 0.859130
O O5 0.913331 0.000750 0.500000
O O6 0.918915 0.171040 0.379260
O O7 0.915957 0.831898 0.379372
O O8 0.000000 0.000000 0.420855
O O9 0.731000 0.778556 0.109845
O O10 0.804010 0.988426 0.080812
O O11 0.798244 0.722928 0.000000
O O12 0.026004 0.718155 0.132699
O O13 0.984128 0.733372 0.000000
O O14 0.000000 0.000000 0.075595
O O15 0.628921 0.695318 0.868949
O O16 0.664518 0.737198 0.000000
O O17 0.088240 0.713194 0.750830
O O18 0.926982 0.499370 0.644286
O O19 0.003073 0.291416 0.691449
#
# Coordination Sequence:
#
# PCOD8226860 Si02
#       8
#     8   8   8   8   8   8   8   8
#     4  11  21  33  50  71  97 133 169 209 258 302
#     4   9  18  30  48  72  98 136 170 198 246 301
#     4  10  21  36  52  70  94 129 171 216 262 303
#     4  11  23  33  45  69  97 130 173 214 252 300
#     4  10  21  36  52  70  94 129 171 216 262 303
#     4  11  21  33  50  71  97 133 169 209 258 302
#     4   9  18  31  47  71 101 134 169 204 248 298
#     4   9  18  31  47  71 101 134 169 204 248 298
#
# _framework density 17.153307000000002
#
# number of rings (size 3 to 8) (size 9 to 14) (size 15 to 20)
#    0.000    2.000    1.250    2.625    3.500    6.000 
#    0.000    2.500    0.000    0.000    0.000    0.000 
#    0.000    1.000    0.500    0.000    0.000    0.000 
#
# Total GULP energy -793439.008394 kJ/mol
# GULP energy per Si atom -12397.484506 kJ/mol
# Density = 1.711427 g / cm^3
# Si number density = 17.153307 Si / 1000 Ang^3
#
#
#
# Elastic Constant Matrix: (Units=GPa)
#
#
# Indices 1 2 3 4 5 6 
#
# 1 45.6997 9.4284 17.4192 0.0000 0.0000 0.0000
# 2 9.4284 87.8365 47.5369 0.0000 0.0000 0.0000
# 3 17.4192 47.5369 88.9183 0.0000 0.0000 0.0000
# 4 0.0000 0.0000 0.0000 26.0950 0.0000 0.0000
# 5 0.0000 0.0000 0.0000 0.0000 14.3562 0.0000
# 6 0.0000 0.0000 0.0000 0.0000 0.0000 24.4527
#
#
#
# Elastic Compliance Matrix: (Units=1/GPa)
#
#
# Indices 1 2 3 4 5 6 
#
# 1 0.023648 -0.000044 -0.004609 0.000000 0.000000 0.000000
# 2 -0.000044 0.016020 -0.008556 0.000000 0.000000 0.000000
# 3 -0.004609 -0.008556 0.016723 0.000000 0.000000 0.000000
# 4 0.000000 0.000000 0.000000 0.038322 0.000000 0.000000
# 5 0.000000 0.000000 0.000000 0.000000 0.069656 0.000000
# 6 0.000000 0.000000 0.000000 0.000000 0.000000 0.040895
#
#
# Mechanical properties :
#
#
# Convention : Reuss Voigt Hill
#
# Bulk Modulus (GPa) = 33.36309 41.24706 37.30508
# Shear Modulus (GPa) = 20.68909 22.85210 21.77059
#
# Velocity S-wave (km/s) = 3.47670 3.65393 3.56642
# Velocity P-wave (km/s) = 5.96731 6.47301 6.22530
#
# Compressibility (1/GPa) = 0.02997324
#
# Stress axis : x y z
#
# Youngs Moduli (GPa) = 42.28698 62.42231 59.79676
#
# Poissons Ratio (x) = 0.00274 0.27562
# Poissons Ratio (y) = 0.00186 0.51161
# Poissons Ratio (z) = 0.19491 0.53408
#
# Static dielectric constant tensor:
#      x y z
#    x 3.502550 0.000000 0.000000 
#    y 0.000000 3.442560 0.000000 
#    z 0.000000 0.000000 3.210060 
# 
# 
# High freq. dielectric constant tensor:
#      x y z
#    x 1.626300 0.000000 0.000000 
#    y 0.000000 1.681840 0.000000 
#    z 0.000000 0.000000 1.643260 
# 
# From -- ./inp_files/22118.got.cif
#   From: 2010.03.12/outbox.cif.g09.slc.cpg/sg55_12_cif.got.tgz:22118.got - 2010.04.16 15:19:21.
