data_PCOD8226681
_publ_section_title
;
Structure prediction by ZEFSAII (Michael W. Deem and Ramdas Pophale) SiO2 
 PCOD8226681
Probable space group: P B A M
;
_chemical_formula_sum "Si O2"
_cell_formula_units_Z 48
_cell_length_a 20.777397
_cell_length_b 15.056966
_cell_length_c 7.432805
_cell_angle_alpha 90.000000
_cell_angle_beta 90.000000
_cell_angle_gamma 90.000000
_cell_volume 2325.312611
_symmetry_space_group_name_H-M "P B A M"
_symmetry_group_IT_number 55
_symmetry_cell_setting 'orthorhombic'
loop_
_space_group_symop_operation_xyz
x,y,z
-x,-y,z
1/2+x,1/2-y,-z
1/2-x,1/2+y,-z
-x,-y,-z
x,y,-z
1/2-x,1/2+y,z
1/2+x,1/2-y,z
loop_
_atom_site_type_symbol
_atom_site_label
_atom_site_fract_x
_atom_site_fract_y
_atom_site_fract_z
Si Si1 0.567421 0.463611 0.286547
Si Si2 0.197363 0.593699 0.709741
Si Si3 0.966224 0.642653 0.000000
Si Si4 0.096211 0.237828 0.713592
Si Si5 0.803809 0.047993 0.288572
Si Si6 0.096815 0.547457 0.000000
Si Si7 0.240713 0.274641 0.712836
O O1 0.500000 0.500000 0.206920
O O2 0.567211 0.469415 0.500000
O O3 0.579165 0.362356 0.228154
O O4 0.625306 0.525602 0.210318
O O5 0.179917 0.587122 0.500000
O O6 0.258692 0.534390 0.758543
O O7 0.214635 0.692977 0.771335
O O8 0.136418 0.560501 0.818220
O O9 0.951865 0.697497 0.181313
O O10 0.926311 0.552738 0.000000
O O11 0.041203 0.620468 0.000000
O O12 0.087654 0.252204 0.500000
O O13 0.168086 0.261040 0.782276
O O14 0.809105 0.062209 0.500000
O O15 0.773217 0.137144 0.202266
O O16 0.236815 0.280597 0.500000
#
# Coordination Sequence:
#
# PCOD8226681 Si02
#       7
#     8   8   4   8   8   4   8
#     4   9  17  31  55  88 125 160 197 244 302 366
#     4  10  20  38  62  87 119 154 196 254 304 356
#     4  11  26  43  59  84 120 157 204 257 294 365
#     4  10  20  39  64  88 118 163 207 246 306 371
#     4   9  16  30  54  86 120 153 197 250 299 353
#     4  11  26  43  58  86 119 153 203 255 310 355
#     4   9  17  31  58  91 119 154 202 249 297 357
#
# _framework density 20.642386999999999
#
# number of rings (size 3 to 8) (size 9 to 14) (size 15 to 20)
#    0.000    2.333    1.667    1.000    0.000    4.667 
#    0.000    6.250    0.000    0.000    0.000    0.000 
#    0.000    0.000    0.000    0.000    0.000    0.000 
#
# Total GULP energy -595136.532620 kJ/mol
# GULP energy per Si atom -12398.677763 kJ/mol
# Density = 2.059540 g / cm^3
# Si number density = 20.642387 Si / 1000 Ang^3
#
#
#
# Elastic Constant Matrix: (Units=GPa)
#
#
# Indices 1 2 3 4 5 6 
#
# 1 170.5584 76.8265 37.0544 0.0000 0.0000 0.0000
# 2 76.8265 145.1416 24.6686 0.0000 0.0000 0.0000
# 3 37.0544 24.6686 62.5151 0.0000 0.0000 0.0000
# 4 0.0000 0.0000 0.0000 10.3032 0.0000 0.0000
# 5 0.0000 0.0000 0.0000 0.0000 12.4571 0.0000
# 6 0.0000 0.0000 0.0000 0.0000 0.0000 24.4006
#
#
#
# Elastic Compliance Matrix: (Units=1/GPa)
#
#
# Indices 1 2 3 4 5 6 
#
# 1 0.008332 -0.003828 -0.003428 0.000000 0.000000 0.000000
# 2 -0.003828 0.009144 -0.001339 0.000000 0.000000 0.000000
# 3 -0.003428 -0.001339 0.018557 0.000000 0.000000 0.000000
# 4 0.000000 0.000000 0.000000 0.097057 0.000000 0.000000
# 5 0.000000 0.000000 0.000000 0.000000 0.080275 0.000000
# 6 0.000000 0.000000 0.000000 0.000000 0.000000 0.040983
#
#
# Mechanical properties :
#
#
# Convention : Reuss Voigt Hill
#
# Bulk Modulus (GPa) = 53.07338 72.81266 62.94302
# Shear Modulus (GPa) = 17.99738 25.40990 21.70364
#
# Velocity S-wave (km/s) = 2.95594 3.51231 3.24606
# Velocity P-wave (km/s) = 6.11693 7.19711 6.67889
#
# Compressibility (1/GPa) = 0.01884184
#
# Stress axis : x y z
#
# Youngs Moduli (GPa) = 120.01898 109.36723 53.88910
#
# Poissons Ratio (x) = 0.41862 0.18474
# Poissons Ratio (y) = 0.45939 0.07217
# Poissons Ratio (z) = 0.41145 0.14647
#
# Static dielectric constant tensor:
#      x y z
#    x 3.917790 0.000000 0.000000 
#    y 0.000000 4.009250 0.000000 
#    z 0.000000 0.000000 3.399380 
# 
# 
# High freq. dielectric constant tensor:
#      x y z
#    x 1.805600 0.000000 0.000000 
#    y 0.000000 1.819480 0.000000 
#    z 0.000000 0.000000 1.790600 
# 
# From -- ./inp_files/5699.got.cif
#   From: 2010.03.12/outbox.cif.g09.slc.cpg/sg55_3_cif.got.tgz:5699.got - 2010.04.16 15:19:21.
