data_PCOD8226154
_publ_section_title
;
Structure prediction by ZEFSAII (Michael W. Deem and Ramdas Pophale) SiO2 
 PCOD8226154
Probable space group: P B A M
;
_chemical_formula_sum "Si O2"
_cell_formula_units_Z 56
_cell_length_a 14.615388
_cell_length_b 21.717794
_cell_length_c 8.591472
_cell_angle_alpha 90.000000
_cell_angle_beta 90.000000
_cell_angle_gamma 90.000000
_cell_volume 2727.053372
_symmetry_space_group_name_H-M "P B A M"
_symmetry_group_IT_number 55
_symmetry_cell_setting 'orthorhombic'
loop_
_space_group_symop_operation_xyz
x,y,z
-x,-y,z
1/2+x,1/2-y,-z
1/2-x,1/2+y,-z
-x,-y,-z
x,y,-z
1/2-x,1/2+y,z
1/2+x,1/2-y,z
loop_
_atom_site_type_symbol
_atom_site_label
_atom_site_fract_x
_atom_site_fract_y
_atom_site_fract_z
Si Si1 0.824492 0.277789 0.316168
Si Si2 0.488739 0.570517 0.182694
Si Si3 0.513263 0.861946 0.319071
Si Si4 0.859569 0.456957 0.823075
Si Si5 0.199132 0.112723 0.684140
Si Si6 0.659255 0.640076 0.681799
Si Si7 0.162920 0.402350 0.824525
O O1 0.820876 0.274983 0.500000
O O2 0.739389 0.320603 0.259731
O O3 0.821194 0.208627 0.250356
O O4 0.920786 0.307006 0.261839
O O5 0.500000 0.500000 0.241539
O O6 0.405851 0.604961 0.268630
O O7 0.579200 0.608497 0.221310
O O8 0.469514 0.571462 0.000000
O O9 0.490084 0.857119 0.500000
O O10 0.565366 0.925753 0.286714
O O11 0.418271 0.856497 0.226315
O O12 0.757185 0.441050 0.766235
O O13 0.876253 0.529244 0.811687
O O14 0.872596 0.433889 0.000000
O O15 0.209810 0.105844 0.500000
O O16 0.633257 0.640073 0.500000
O O17 0.751769 0.602419 0.708865
O O18 0.193803 0.386593 0.000000
#
# Coordination Sequence:
#
# PCOD8226154 Si02
#       7
#     8   8   8   8   8   8   8
#     4   8  19  39  59  83 113 144 182 235 289 329
#     4  11  24  41  59  84 120 155 189 238 297 343
#     4  10  20  36  59  84 111 146 188 227 268 328
#     4  10  20  35  55  82 118 151 178 221 280 331
#     4  10  20  37  62  87 112 147 192 234 277 338
#     4  11  23  40  61  82 109 147 192 237 280 335
#     4  11  23  37  53  80 117 149 179 223 281 332
#
# _framework density 20.534984999999999
#
# number of rings (size 3 to 8) (size 9 to 14) (size 15 to 20)
#    0.000    1.857    0.000    4.714    0.000    9.714 
#    0.000   14.286    0.000    0.000    0.000    0.000 
#    0.000    0.000    0.000    0.000    0.000    0.000 
#
# Total GULP energy -694479.088904 kJ/mol
# GULP energy per Si atom -12401.412302 kJ/mol
# Density = 2.048825 g / cm^3
# Si number density = 20.534985 Si / 1000 Ang^3
#
#
#
# Elastic Constant Matrix: (Units=GPa)
#
#
# Indices 1 2 3 4 5 6 
#
# 1 105.2445 24.3351 0.8303 0.0000 0.0000 0.0000
# 2 24.3351 89.7363 24.3047 0.0000 0.0000 0.0000
# 3 0.8303 24.3047 47.6090 0.0000 0.0000 0.0000
# 4 0.0000 0.0000 0.0000 16.5050 0.0000 0.0000
# 5 0.0000 0.0000 0.0000 0.0000 36.9171 0.0000
# 6 0.0000 0.0000 0.0000 0.0000 0.0000 22.1857
#
#
#
# Elastic Compliance Matrix: (Units=1/GPa)
#
#
# Indices 1 2 3 4 5 6 
#
# 1 0.010221 -0.003161 0.001435 0.000000 0.000000 0.000000
# 2 -0.003161 0.013909 -0.007046 0.000000 0.000000 0.000000
# 3 0.001435 -0.007046 0.024576 0.000000 0.000000 0.000000
# 4 0.000000 0.000000 0.000000 0.060588 0.000000 0.000000
# 5 0.000000 0.000000 0.000000 0.000000 0.027088 0.000000
# 6 0.000000 0.000000 0.000000 0.000000 0.000000 0.045074
#
#
# Mechanical properties :
#
#
# Convention : Reuss Voigt Hill
#
# Bulk Modulus (GPa) = 32.08760 37.94779 35.01769
# Shear Modulus (GPa) = 23.87932 27.99619 25.93776
#
# Velocity S-wave (km/s) = 3.41377 3.69635 3.55787
# Velocity P-wave (km/s) = 5.58554 6.06111 5.82818
#
# Compressibility (1/GPa) = 0.03116469
#
# Stress axis : x y z
#
# Youngs Moduli (GPa) = 97.83633 71.89524 40.68971
#
# Poissons Ratio (x) = 0.22723 -0.05840
# Poissons Ratio (y) = 0.30922 0.28668
# Poissons Ratio (z) = -0.14042 0.50654
#
# Static dielectric constant tensor:
#      x y z
#    x 3.717530 0.000000 0.000000 
#    y 0.000000 3.956920 0.000000 
#    z 0.000000 0.000000 3.623100 
# 
# 
# High freq. dielectric constant tensor:
#      x y z
#    x 1.810190 0.000000 0.000000 
#    y 0.000000 1.797310 0.000000 
#    z 0.000000 0.000000 1.797430 
# 
# From -- ./inp_files/6126.got.cif
#   From: 2010.03.12/outbox.cif.g09.slc.cpg/sg55_4_cif.got.tgz:6126.got - 2010.04.16 15:19:21.
