data_PCOD8226597
_publ_section_title
;
Structure prediction by ZEFSAII (Michael W. Deem and Ramdas Pophale) SiO2 
 PCOD8226597
Probable space group: P B A M
;
_chemical_formula_sum "Si O2"
_cell_formula_units_Z 64
_cell_length_a 24.628945
_cell_length_b 14.989552
_cell_length_c 8.840810
_cell_angle_alpha 90.000000
_cell_angle_beta 90.000000
_cell_angle_gamma 90.000000
_cell_volume 3263.822403
_symmetry_space_group_name_H-M "P B A M"
_symmetry_group_IT_number 55
_symmetry_cell_setting 'orthorhombic'
loop_
_space_group_symop_operation_xyz
x,y,z
-x,-y,z
1/2+x,1/2-y,-z
1/2-x,1/2+y,-z
-x,-y,-z
x,y,-z
1/2-x,1/2+y,z
1/2+x,1/2-y,z
loop_
_atom_site_type_symbol
_atom_site_label
_atom_site_fract_x
_atom_site_fract_y
_atom_site_fract_z
Si Si1 0.599852 0.501649 0.822261
Si Si2 0.442409 0.304384 0.821343
Si Si3 0.231394 0.757532 0.175650
Si Si4 0.137664 0.662791 0.322904
Si Si5 0.144885 0.286516 0.826999
Si Si6 0.944897 0.828560 0.322798
Si Si7 0.217637 0.954453 0.178293
Si Si8 0.835458 0.509207 0.823010
O O1 0.579704 0.598882 0.771704
O O2 0.565522 0.428872 0.733370
O O3 0.663635 0.490614 0.778282
O O4 0.590932 0.486263 0.000000
O O5 0.404003 0.227742 0.758760
O O6 0.502058 0.288964 0.756176
O O7 0.443995 0.295979 0.000000
O O8 0.199314 0.685443 0.274448
O O9 0.295562 0.745282 0.198467
O O10 0.212747 0.853712 0.239719
O O11 0.215546 0.744743 0.000000
O O12 0.129065 0.670856 0.500000
O O13 0.127661 0.560690 0.269535
O O14 0.104860 0.235900 0.715424
O O15 0.143552 0.391359 0.788887
O O16 0.126804 0.270020 0.000000
O O17 0.954401 0.830617 0.500000
O O18 0.272872 0.000644 0.236178
O O19 0.223800 0.943621 0.000000
O O20 0.839733 0.487292 0.000000
#
# Coordination Sequence:
#
# PCOD8226597 Si02
#       8
#     8   8   8   8   8   8   8   8
#     4  10  20  37  62  89 116 155 204 248 288 344
#     4  11  23  43  67  86 112 155 211 256 290 343
#     4   9  17  35  60  85 114 154 201 246 288 339
#     4  12  24  36  56  90 128 159 191 239 306 367
#     4   9  20  40  65  88 114 155 210 256 290 340
#     4  12  26  40  58  87 126 160 192 243 310 367
#     4   8  15  32  58  87 114 147 196 245 285 329
#     4   9  19  37  62  88 117 156 202 250 291 343
#
# _framework density 19.608910000000002
#
# number of rings (size 3 to 8) (size 9 to 14) (size 15 to 20)
#    0.000    2.000    1.250    4.500    1.750    3.500 
#    0.000    2.500    0.000    3.750    0.000    0.000 
#    0.000    0.000    0.000    0.000    0.000    0.000 
#
# Total GULP energy -793612.110852 kJ/mol
# GULP energy per Si atom -12400.189232 kJ/mol
# Density = 1.956428 g / cm^3
# Si number density = 19.608910 Si / 1000 Ang^3
#
#
#
# Elastic Constant Matrix: (Units=GPa)
#
#
# Indices 1 2 3 4 5 6 
#
# 1 80.8943 28.3819 31.4742 0.0000 0.0000 0.0000
# 2 28.3819 62.1089 26.9831 0.0000 0.0000 0.0000
# 3 31.4742 26.9831 76.7501 0.0000 0.0000 0.0000
# 4 0.0000 0.0000 0.0000 5.1578 0.0000 0.0000
# 5 0.0000 0.0000 0.0000 0.0000 16.8415 0.0000
# 6 0.0000 0.0000 0.0000 0.0000 0.0000 25.5197
#
#
#
# Elastic Compliance Matrix: (Units=1/GPa)
#
#
# Indices 1 2 3 4 5 6 
#
# 1 0.016054 -0.005283 -0.004726 0.000000 0.000000 0.000000
# 2 -0.005283 0.020742 -0.005126 0.000000 0.000000 0.000000
# 3 -0.004726 -0.005126 0.016770 0.000000 0.000000 0.000000
# 4 0.000000 0.000000 0.000000 0.193881 0.000000 0.000000
# 5 0.000000 0.000000 0.000000 0.000000 0.059377 0.000000
# 6 0.000000 0.000000 0.000000 0.000000 0.000000 0.039185
#
#
# Mechanical properties :
#
#
# Convention : Reuss Voigt Hill
#
# Bulk Modulus (GPa) = 42.92661 43.71464 43.32063
# Shear Modulus (GPa) = 13.01932 18.36473 15.69203
#
# Velocity S-wave (km/s) = 2.57952 3.06363 2.83194
# Velocity P-wave (km/s) = 5.55075 5.90391 5.73005
#
# Compressibility (1/GPa) = 0.02329557
#
# Stress axis : x y z
#
# Youngs Moduli (GPa) = 62.28875 48.21185 59.63193
#
# Poissons Ratio (x) = 0.25470 0.28184
# Poissons Ratio (y) = 0.32907 0.30566
# Poissons Ratio (z) = 0.29440 0.24712
#
# Static dielectric constant tensor:
#      x y z
#    x 3.680370 0.000000 0.000000 
#    y 0.000000 3.587710 0.000000 
#    z 0.000000 0.000000 3.293020 
# 
# 
# High freq. dielectric constant tensor:
#      x y z
#    x 1.761840 0.000000 0.000000 
#    y 0.000000 1.769380 0.000000 
#    z 0.000000 0.000000 1.737310 
# 
# From -- ./inp_files/6625.got.cif
#   From: 2010.03.12/outbox.cif.g09.slc.cpg/sg55_4_cif.got.tgz:6625.got - 2010.04.16 15:19:21.
