data_PCOD8226966
_publ_section_title
;
Structure prediction by ZEFSAII (Michael W. Deem and Ramdas Pophale) SiO2 
 PCOD8226966
Probable space group: P B A M
;
_chemical_formula_sum "Si O2"
_cell_formula_units_Z 48
_cell_length_a 17.007934
_cell_length_b 16.799079
_cell_length_c 9.052135
_cell_angle_alpha 90.000000
_cell_angle_beta 90.000000
_cell_angle_gamma 90.000000
_cell_volume 2586.354531
_symmetry_space_group_name_H-M "P B A M"
_symmetry_group_IT_number 55
_symmetry_cell_setting 'orthorhombic'
loop_
_space_group_symop_operation_xyz
x,y,z
-x,-y,z
1/2+x,1/2-y,-z
1/2-x,1/2+y,-z
-x,-y,-z
x,y,-z
1/2-x,1/2+y,z
1/2+x,1/2-y,z
loop_
_atom_site_type_symbol
_atom_site_label
_atom_site_fract_x
_atom_site_fract_y
_atom_site_fract_z
Si Si1 0.648892 0.312146 0.673466
Si Si2 0.000576 0.088976 0.324419
Si Si3 0.178040 0.641579 0.668870
Si Si4 0.911277 0.497835 0.174617
Si Si5 0.314440 0.848693 0.175208
Si Si6 0.154575 0.822911 0.672439
O O1 0.642483 0.292593 0.500000
O O2 0.578034 0.366242 0.733132
O O3 0.729313 0.359312 0.706987
O O4 0.644488 0.229474 0.759956
O O5 0.001776 0.086753 0.500000
O O6 0.923604 0.134738 0.267788
O O7 0.000000 0.000000 0.258850
O O8 0.163807 0.616882 0.500000
O O9 0.132947 0.580403 0.771095
O O10 0.144342 0.729253 0.701258
O O11 0.865613 0.576242 0.228612
O O12 0.000000 0.500000 0.238315
O O13 0.913034 0.493486 0.000000
O O14 0.226959 0.859550 0.237917
O O15 0.310570 0.841759 0.000000
O O16 0.170061 0.839739 0.500000
#
# Coordination Sequence:
#
# PCOD8226966 Si02
#       6
#     8   8   8   8   8   8
#     4   9  19  36  58  84 111 139 177 221 268 322
#     4   9  18  32  56  86 112 140 174 217 268 320
#     4   9  19  34  54  83 109 136 177 222 267 316
#     4  10  23  39  54  76 107 144 184 223 266 318
#     4  10  21  37  56  78 106 144 185 220 268 323
#     4   9  19  36  58  83 110 140 178 221 268 321
#
# _framework density 18.55894
#
# number of rings (size 3 to 8) (size 9 to 14) (size 15 to 20)
#    0.000    2.667    0.000    1.500    4.667    4.333 
#    0.000    0.833    0.000    1.000    0.000    0.000 
#    0.000    0.000    0.000    0.000    0.000    0.000 
#
# Total GULP energy -595273.213498 kJ/mol
# GULP energy per Si atom -12401.525281 kJ/mol
# Density = 1.851670 g / cm^3
# Si number density = 18.558940 Si / 1000 Ang^3
#
#
#
# Elastic Constant Matrix: (Units=GPa)
#
#
# Indices 1 2 3 4 5 6 
#
# 1 164.3667 104.5579 30.4195 0.0000 0.0000 0.0000
# 2 104.5579 134.3852 32.9571 0.0000 0.0000 0.0000
# 3 30.4195 32.9571 31.5690 0.0000 0.0000 0.0000
# 4 0.0000 0.0000 0.0000 25.4369 0.0000 0.0000
# 5 0.0000 0.0000 0.0000 0.0000 21.5233 0.0000
# 6 0.0000 0.0000 0.0000 0.0000 0.0000 35.2627
#
#
#
# Elastic Compliance Matrix: (Units=1/GPa)
#
#
# Indices 1 2 3 4 5 6 
#
# 1 0.012189 -0.008875 -0.002479 0.000000 0.000000 0.000000
# 2 -0.008875 0.016465 -0.008637 0.000000 0.000000 0.000000
# 3 -0.002479 -0.008637 0.043082 0.000000 0.000000 0.000000
# 4 0.000000 0.000000 0.000000 0.039313 0.000000 0.000000
# 5 0.000000 0.000000 0.000000 0.000000 0.046461 0.000000
# 6 0.000000 0.000000 0.000000 0.000000 0.000000 0.028359
#
#
# Mechanical properties :
#
#
# Convention : Reuss Voigt Hill
#
# Bulk Modulus (GPa) = 31.49308 74.02112 52.75710
# Shear Modulus (GPa) = 21.14749 27.27033 24.20891
#
# Velocity S-wave (km/s) = 3.37928 3.83742 3.61561
# Velocity P-wave (km/s) = 5.67733 7.72045 6.77633
#
# Compressibility (1/GPa) = 0.03175301
#
# Stress axis : x y z
#
# Youngs Moduli (GPa) = 82.04403 60.73585 23.21159
#
# Poissons Ratio (x) = 0.53905 0.05755
# Poissons Ratio (y) = 0.72816 0.20047
# Poissons Ratio (z) = 0.20341 0.52455
#
# Static dielectric constant tensor:
#      x y z
#    x 3.705220 0.000000 0.000000 
#    y 0.000000 3.500720 0.000000 
#    z 0.000000 0.000000 3.116570 
# 
# 
# High freq. dielectric constant tensor:
#      x y z
#    x 1.732310 0.000000 0.000000 
#    y 0.000000 1.726920 0.000000 
#    z 0.000000 0.000000 1.693340 
# 
# From -- ./inp_files/5670.got.cif
#   From: 2010.03.12/outbox.cif.g09.slc.cpg/sg55_3_cif.got.tgz:5670.got - 2010.04.16 15:19:21.
