data_PCOD8226471
_publ_section_title
;
Structure prediction by ZEFSAII (Michael W. Deem and Ramdas Pophale) SiO2 
 PCOD8226471
Probable space group: P B A M
;
_chemical_formula_sum "Si O2"
_cell_formula_units_Z 64
_cell_length_a 14.937081
_cell_length_b 24.460078
_cell_length_c 8.895182
_cell_angle_alpha 90.000000
_cell_angle_beta 90.000000
_cell_angle_gamma 90.000000
_cell_volume 3249.962966
_symmetry_space_group_name_H-M "P B A M"
_symmetry_group_IT_number 55
_symmetry_cell_setting 'orthorhombic'
loop_
_space_group_symop_operation_xyz
x,y,z
-x,-y,z
1/2+x,1/2-y,-z
1/2-x,1/2+y,-z
-x,-y,-z
x,y,-z
1/2-x,1/2+y,z
1/2+x,1/2-y,z
loop_
_atom_site_type_symbol
_atom_site_label
_atom_site_fract_x
_atom_site_fract_y
_atom_site_fract_z
Si Si1 0.277236 0.646171 0.672402
Si Si2 0.977892 0.830822 0.674124
Si Si3 0.688843 0.061873 0.174013
Si Si4 0.043804 0.281032 0.824047
Si Si5 0.015526 0.389998 0.677427
Si Si6 0.337549 0.373794 0.328889
Si Si7 0.650750 0.938218 0.826100
Si Si8 0.773500 0.730648 0.329337
O O1 0.260167 0.628995 0.500000
O O2 0.382507 0.642235 0.713871
O O3 0.224963 0.605569 0.780032
O O4 0.241201 0.707555 0.702956
O O5 0.979774 0.813233 0.500000
O O6 0.995385 0.776616 0.770673
O O7 0.056452 0.874543 0.709387
O O8 0.613645 0.091609 0.271504
O O9 0.785932 0.085149 0.219346
O O10 0.690416 0.997707 0.208157
O O11 0.669771 0.074217 0.000000
O O12 0.991208 0.330463 0.743446
O O13 0.148396 0.286221 0.784070
O O14 0.029865 0.287203 0.000000
O O15 0.013099 0.387350 0.500000
O O16 0.941102 0.432490 0.734048
O O17 0.319835 0.392568 0.500000
O O18 0.307784 0.310841 0.305373
O O19 0.627298 0.930603 0.000000
O O20 0.811721 0.727620 0.500000
#
# Coordination Sequence:
#
# PCOD8226471 Si02
#       8
#     8   8   8   8   8   8   8   8
#     4   9  19  37  59  86 120 156 199 247 294 344
#     4   9  20  38  60  88 123 158 197 248 296 342
#     4  11  24  42  61  86 122 155 193 248 299 350
#     4  11  21  34  55  87 123 157 191 233 291 354
#     4  12  24  39  61  87 117 155 198 242 291 355
#     4  10  20  36  62  90 118 156 200 243 292 349
#     4  11  25  42  60  85 118 156 199 248 300 352
#     4   9  18  34  56  85 118 154 193 239 290 342
#
# _framework density 19.692532
#
# number of rings (size 3 to 8) (size 9 to 14) (size 15 to 20)
#    0.000    1.750    1.250    4.125    1.750    6.000 
#    0.000    0.625    0.000    3.750    0.000    0.000 
#    0.000    0.000    0.000    0.000    0.000    0.000 
#
# Total GULP energy -793805.000618 kJ/mol
# GULP energy per Si atom -12403.203135 kJ/mol
# Density = 1.964771 g / cm^3
# Si number density = 19.692532 Si / 1000 Ang^3
#
#
#
# Elastic Constant Matrix: (Units=GPa)
#
#
# Indices 1 2 3 4 5 6 
#
# 1 55.6590 18.0922 18.1719 0.0000 0.0000 0.0000
# 2 18.0922 81.3230 41.2463 0.0000 0.0000 0.0000
# 3 18.1719 41.2463 111.4166 0.0000 0.0000 0.0000
# 4 0.0000 0.0000 0.0000 31.3428 0.0000 0.0000
# 5 0.0000 0.0000 0.0000 0.0000 25.0151 0.0000
# 6 0.0000 0.0000 0.0000 0.0000 0.0000 27.9105
#
#
#
# Elastic Compliance Matrix: (Units=1/GPa)
#
#
# Indices 1 2 3 4 5 6 
#
# 1 0.019708 -0.003391 -0.001959 0.000000 0.000000 0.000000
# 2 -0.003391 0.015723 -0.005267 0.000000 0.000000 0.000000
# 3 -0.001959 -0.005267 0.011245 0.000000 0.000000 0.000000
# 4 0.000000 0.000000 0.000000 0.031905 0.000000 0.000000
# 5 0.000000 0.000000 0.000000 0.000000 0.039976 0.000000
# 6 0.000000 0.000000 0.000000 0.000000 0.000000 0.035829
#
#
# Mechanical properties :
#
#
# Convention : Reuss Voigt Hill
#
# Bulk Modulus (GPa) = 39.30674 44.82437 42.06555
# Shear Modulus (GPa) = 27.15899 28.24623 27.70261
#
# Velocity S-wave (km/s) = 3.71772 3.79141 3.75475
# Velocity P-wave (km/s) = 6.19937 6.47903 6.34074
#
# Compressibility (1/GPa) = 0.02544093
#
# Stress axis : x y z
#
# Youngs Moduli (GPa) = 50.73975 63.60247 88.92961
#
# Poissons Ratio (x) = 0.21567 0.17422
# Poissons Ratio (y) = 0.17206 0.46843
# Poissons Ratio (z) = 0.09940 0.33502
#
# Static dielectric constant tensor:
#      x y z
#    x 3.551440 0.000000 0.000000 
#    y 0.000000 3.561860 0.000000 
#    z 0.000000 0.000000 3.510580 
# 
# 
# High freq. dielectric constant tensor:
#      x y z
#    x 1.764360 0.000000 0.000000 
#    y 0.000000 1.759650 0.000000 
#    z 0.000000 0.000000 1.765600 
# 
# From -- ./inp_files/6695.got.cif
#   From: 2010.03.12/outbox.cif.g09.slc.cpg/sg55_4_cif.got.tgz:6695.got - 2010.04.16 15:19:21.
