data_PCOD8226231
_publ_section_title
;
Structure prediction by ZEFSAII (Michael W. Deem and Ramdas Pophale) SiO2 
 PCOD8226231
Probable space group: P B A M
;
_chemical_formula_sum "Si O2"
_cell_formula_units_Z 64
_cell_length_a 24.972424
_cell_length_b 14.469426
_cell_length_c 9.009077
_cell_angle_alpha 90.000000
_cell_angle_beta 90.000000
_cell_angle_gamma 90.000000
_cell_volume 3255.309623
_symmetry_space_group_name_H-M "P B A M"
_symmetry_group_IT_number 55
_symmetry_cell_setting 'orthorhombic'
loop_
_space_group_symop_operation_xyz
x,y,z
-x,-y,z
1/2+x,1/2-y,-z
1/2-x,1/2+y,-z
-x,-y,-z
x,y,-z
1/2-x,1/2+y,z
1/2+x,1/2-y,z
loop_
_atom_site_type_symbol
_atom_site_label
_atom_site_fract_x
_atom_site_fract_y
_atom_site_fract_z
Si Si1 0.866239 0.891933 0.675224
Si Si2 0.491519 0.894943 0.172654
Si Si3 0.730012 0.142509 0.176233
Si Si4 0.928450 0.254191 0.324108
Si Si5 0.681076 0.785586 0.830992
Si Si6 0.260675 0.556263 0.169588
Si Si7 0.615755 0.209052 0.826750
Si Si8 0.446776 0.452382 0.324018
O O1 0.865874 0.881177 0.500000
O O2 0.897838 0.804190 0.742081
O O3 0.806059 0.893244 0.735691
O O4 0.895998 0.986013 0.725057
O O5 0.529573 0.826856 0.261814
O O6 0.430270 0.866187 0.203426
O O7 0.500000 0.000000 0.228068
O O8 0.506512 0.886625 0.000000
O O9 0.774120 0.215319 0.229928
O O10 0.748085 0.043537 0.239108
O O11 0.671444 0.168779 0.238210
O O12 0.726268 0.138938 0.000000
O O13 0.931670 0.255944 0.500000
O O14 0.869465 0.282922 0.275111
O O15 0.940871 0.151427 0.260894
O O16 0.705497 0.887683 0.822478
O O17 0.664420 0.761154 0.000000
O O18 0.281175 0.550280 0.000000
O O19 0.620724 0.232345 0.000000
O O20 0.500000 0.500000 0.257548
O O21 0.450955 0.448047 0.500000
#
# Coordination Sequence:
#
# PCOD8226231 Si02
#       8
#     8   8   8   8   8   8   8   8
#     4  11  21  35  58  87 119 153 192 239 292 350
#     4  10  23  41  64  89 115 153 200 247 292 344
#     4   9  18  34  58  86 111 148 194 241 290 341
#     4  11  23  39  60  85 119 155 192 240 291 350
#     4  10  20  36  58  83 115 150 191 235 284 346
#     4  10  20  35  58  82 111 151 193 237 289 347
#     4  10  20  38  61  85 115 151 197 243 290 347
#     4   9  19  36  57  81 112 153 191 226 283 350
#
# _framework density 19.660187000000001
#
# number of rings (size 3 to 8) (size 9 to 14) (size 15 to 20)
#    0.000    2.000    1.250    2.250    1.750    2.250 
#    0.000    2.500    0.000    4.500    0.000    0.000 
#    0.000    0.000    0.000    0.000    0.000    0.000 
#
# Total GULP energy -793757.651979 kJ/mol
# GULP energy per Si atom -12402.463312 kJ/mol
# Density = 1.961544 g / cm^3
# Si number density = 19.660187 Si / 1000 Ang^3
#
#
#
# Elastic Constant Matrix: (Units=GPa)
#
#
# Indices 1 2 3 4 5 6 
#
# 1 101.4604 28.8723 32.5554 0.0000 0.0000 0.0000
# 2 28.8723 120.6384 34.8583 0.0000 0.0000 0.0000
# 3 32.5554 34.8583 50.7137 0.0000 0.0000 0.0000
# 4 0.0000 0.0000 0.0000 24.5865 0.0000 0.0000
# 5 0.0000 0.0000 0.0000 0.0000 22.5170 0.0000
# 6 0.0000 0.0000 0.0000 0.0000 0.0000 34.8193
#
#
#
# Elastic Compliance Matrix: (Units=1/GPa)
#
#
# Indices 1 2 3 4 5 6 
#
# 1 0.012480 -0.000838 -0.007435 0.000000 0.000000 0.000000
# 2 -0.000838 0.010400 -0.006610 0.000000 0.000000 0.000000
# 3 -0.007435 -0.006610 0.029035 0.000000 0.000000 0.000000
# 4 0.000000 0.000000 0.000000 0.040673 0.000000 0.000000
# 5 0.000000 0.000000 0.000000 0.000000 0.044411 0.000000
# 6 0.000000 0.000000 0.000000 0.000000 0.000000 0.028720
#
#
# Mechanical properties :
#
#
# Convention : Reuss Voigt Hill
#
# Bulk Modulus (GPa) = 45.15199 51.70938 48.43069
# Shear Modulus (GPa) = 24.64640 28.15302 26.39971
#
# Velocity S-wave (km/s) = 3.54449 3.78826 3.66840
# Velocity P-wave (km/s) = 6.30613 6.74486 6.52918
#
# Compressibility (1/GPa) = 0.02214742
#
# Stress axis : x y z
#
# Youngs Moduli (GPa) = 80.12528 96.15482 34.44095
#
# Poissons Ratio (x) = 0.08062 0.25608
# Poissons Ratio (y) = 0.06718 0.22766
# Poissons Ratio (z) = 0.59577 0.63560
#
# Static dielectric constant tensor:
#      x y z
#    x 3.702330 0.000000 0.000000 
#    y 0.000000 3.864520 0.000000 
#    z 0.000000 0.000000 3.256790 
# 
# 
# High freq. dielectric constant tensor:
#      x y z
#    x 1.773840 0.000000 0.000000 
#    y 0.000000 1.782220 0.000000 
#    z 0.000000 0.000000 1.731760 
# 
# From -- ./inp_files/9731.got.cif
#   From: 2010.03.12/outbox.cif.g09.slc.cpg/sg55_5_cif.got.tgz:9731.got - 2010.04.16 15:19:21.
