data_PCOD8226935
_publ_section_title
;
Structure prediction by ZEFSAII (Michael W. Deem and Ramdas Pophale) SiO2 
 PCOD8226935
Probable space group: P B A M
;
_chemical_formula_sum "Si O2"
_cell_formula_units_Z 64
_cell_length_a 15.180007
_cell_length_b 24.409492
_cell_length_c 8.978760
_cell_angle_alpha 90.000000
_cell_angle_beta 90.000000
_cell_angle_gamma 90.000000
_cell_volume 3326.956145
_symmetry_space_group_name_H-M "P B A M"
_symmetry_group_IT_number 55
_symmetry_cell_setting 'orthorhombic'
loop_
_space_group_symop_operation_xyz
x,y,z
-x,-y,z
1/2+x,1/2-y,-z
1/2-x,1/2+y,-z
-x,-y,-z
x,y,-z
1/2-x,1/2+y,z
1/2+x,1/2-y,z
loop_
_atom_site_type_symbol
_atom_site_label
_atom_site_fract_x
_atom_site_fract_y
_atom_site_fract_z
Si Si1 0.332434 0.436619 0.674845
Si Si2 0.493298 0.605170 0.827472
Si Si3 0.002629 0.344038 0.174574
Si Si4 0.960057 0.223679 0.830018
Si Si5 0.810619 0.948984 0.823661
Si Si6 0.177354 0.632934 0.322966
Si Si7 0.322792 0.853323 0.327785
Si Si8 0.287596 0.253684 0.326973
O O1 0.336602 0.449426 0.500000
O O2 0.427987 0.417271 0.727608
O O3 0.303218 0.489872 0.764528
O O4 0.260111 0.390912 0.713023
O O5 0.479323 0.670405 0.801526
O O6 0.404379 0.575904 0.775175
O O7 0.514528 0.592124 0.000000
O O8 0.093497 0.371226 0.229725
O O9 0.009246 0.279498 0.216892
O O10 0.921816 0.371586 0.261515
O O11 0.990574 0.354631 0.000000
O O12 0.870599 0.215282 0.741193
O O13 0.931154 0.228186 0.000000
O O14 0.732985 0.915139 0.748518
O O15 0.798370 0.947400 0.000000
O O16 0.176264 0.626496 0.500000
O O17 0.220453 0.690997 0.270492
O O18 0.348575 0.859620 0.500000
O O19 0.298257 0.789932 0.289367
O O20 0.306804 0.253307 0.500000
#
# Coordination Sequence:
#
# PCOD8226935 Si02
#       8
#     8   8   8   8   8   8   8   8
#     4  11  23  40  61  85 117 153 199 247 289 344
#     4  10  21  37  57  84 119 157 192 234 289 345
#     4  10  21  36  58  87 119 155 193 238 290 349
#     4   9  18  33  53  82 117 151 188 228 278 340
#     4  11  24  40  60  84 117 156 198 245 294 349
#     4  10  21  39  61  85 117 154 195 243 294 347
#     4  10  21  37  57  85 118 153 192 240 292 342
#     4   9  18  34  55  82 115 151 188 232 287 341
#
# _framework density 19.236802999999998
#
# number of rings (size 3 to 8) (size 9 to 14) (size 15 to 20)
#    0.000    2.000    1.250    1.875    1.750    5.000 
#    0.000    0.625    0.000    3.750    0.000    0.000 
#    0.000    0.000    0.000    0.000    0.000    0.000 
#
# Total GULP energy -793617.088257 kJ/mol
# GULP energy per Si atom -12400.267004 kJ/mol
# Density = 1.919302 g / cm^3
# Si number density = 19.236803 Si / 1000 Ang^3
#
#
#
# Elastic Constant Matrix: (Units=GPa)
#
#
# Indices 1 2 3 4 5 6 
#
# 1 108.2546 31.6986 45.4254 0.0000 0.0000 0.0000
# 2 31.6986 59.2883 22.1222 0.0000 0.0000 0.0000
# 3 45.4254 22.1222 58.5844 0.0000 0.0000 0.0000
# 4 0.0000 0.0000 0.0000 29.1888 0.0000 0.0000
# 5 0.0000 0.0000 0.0000 0.0000 35.8464 0.0000
# 6 0.0000 0.0000 0.0000 0.0000 0.0000 20.7788
#
#
#
# Elastic Compliance Matrix: (Units=1/GPa)
#
#
# Indices 1 2 3 4 5 6 
#
# 1 0.014518 -0.004146 -0.009692 0.000000 0.000000 0.000000
# 2 -0.004146 0.020817 -0.004646 0.000000 0.000000 0.000000
# 3 -0.009692 -0.004646 0.026339 0.000000 0.000000 0.000000
# 4 0.000000 0.000000 0.000000 0.034260 0.000000 0.000000
# 5 0.000000 0.000000 0.000000 0.000000 0.027897 0.000000
# 6 0.000000 0.000000 0.000000 0.000000 0.000000 0.048126
#
#
# Mechanical properties :
#
#
# Convention : Reuss Voigt Hill
#
# Bulk Modulus (GPa) = 40.47527 47.17998 43.82763
# Shear Modulus (GPa) = 23.02461 25.62156 24.32308
#
# Velocity S-wave (km/s) = 3.46338 3.65348 3.55970
# Velocity P-wave (km/s) = 6.08930 6.50972 6.30301
#
# Compressibility (1/GPa) = 0.02470644
#
# Stress axis : x y z
#
# Youngs Moduli (GPa) = 68.87876 48.03780 37.96713
#
# Poissons Ratio (x) = 0.19916 0.36796
# Poissons Ratio (y) = 0.28557 0.17640
# Poissons Ratio (z) = 0.66755 0.22319
#
# Static dielectric constant tensor:
#      x y z
#    x 3.398460 0.000000 0.000000 
#    y 0.000000 3.666630 0.000000 
#    z 0.000000 0.000000 3.507170 
# 
# 
# High freq. dielectric constant tensor:
#      x y z
#    x 1.742950 0.000000 0.000000 
#    y 0.000000 1.746270 0.000000 
#    z 0.000000 0.000000 1.752310 
# 
# From -- ./inp_files/6631.got.cif
#   From: 2010.03.12/outbox.cif.g09.slc.cpg/sg55_4_cif.got.tgz:6631.got - 2010.04.16 15:19:21.
