data_PCOD8226952
_publ_section_title
;
Structure prediction by ZEFSAII (Michael W. Deem and Ramdas Pophale) SiO2 
 PCOD8226952
Probable space group: P B A M
;
_chemical_formula_sum "Si O2"
_cell_formula_units_Z 24
_cell_length_a 8.587120
_cell_length_b 19.033716
_cell_length_c 7.656326
_cell_angle_alpha 90.000000
_cell_angle_beta 90.000000
_cell_angle_gamma 90.000000
_cell_volume 1251.386697
_symmetry_space_group_name_H-M "P B A M"
_symmetry_group_IT_number 55
_symmetry_cell_setting 'orthorhombic'
loop_
_space_group_symop_operation_xyz
x,y,z
-x,-y,z
1/2+x,1/2-y,-z
1/2-x,1/2+y,-z
-x,-y,-z
x,y,-z
1/2-x,1/2+y,z
1/2+x,1/2-y,z
loop_
_atom_site_type_symbol
_atom_site_label
_atom_site_fract_x
_atom_site_fract_y
_atom_site_fract_z
Si Si1 0.434091 0.673888 0.500000
Si Si2 0.059946 0.424199 0.196141
Si Si3 0.898249 0.062237 0.306191
Si Si4 0.934205 0.328952 0.500000
O O1 0.497618 0.633051 0.672946
O O2 0.249883 0.674035 0.500000
O O3 0.496873 0.751819 0.500000
O O4 0.247364 0.422218 0.191524
O O5 0.000000 0.500000 0.258736
O O6 0.993602 0.366342 0.325818
O O7 0.000782 0.407692 0.000000
O O8 0.843087 0.036260 0.500000
O O9 0.000000 0.000000 0.217849
#
# Coordination Sequence:
#
# PCOD8226952 Si02
#       4
#     4   8   8   4
#     4  10  21  36  63  88 108 156 192 230 299 338
#     4  11  23  37  59  88 116 154 194 235 285 337
#     4   9  18  36  60  90 110 150 194 228 288 334
#     4  12  21  40  61  80 122 148 190 242 283 350
#
# _framework density 19.178725
#
# number of rings (size 3 to 8) (size 9 to 14) (size 15 to 20)
#    1.000    0.667    1.667    4.500    0.000    0.667 
#    0.000    8.333    0.000    0.000    0.000    0.000 
#    0.000    0.000    0.000    0.000    0.000    0.000 
#
# Total GULP energy -297529.415202 kJ/mol
# GULP energy per Si atom -12397.058967 kJ/mol
# Density = 1.913507 g / cm^3
# Si number density = 19.178725 Si / 1000 Ang^3
#
#
#
# Elastic Constant Matrix: (Units=GPa)
#
#
# Indices 1 2 3 4 5 6 
#
# 1 166.4596 79.1809 31.7659 0.0000 0.0000 0.0000
# 2 79.1809 182.9617 53.2735 0.0000 0.0000 0.0000
# 3 31.7659 53.2735 72.0221 0.0000 0.0000 0.0000
# 4 0.0000 0.0000 0.0000 17.1487 0.0000 0.0000
# 5 0.0000 0.0000 0.0000 0.0000 6.7998 0.0000
# 6 0.0000 0.0000 0.0000 0.0000 0.0000 41.4697
#
#
#
# Elastic Compliance Matrix: (Units=1/GPa)
#
#
# Indices 1 2 3 4 5 6 
#
# 1 0.007642 -0.002964 -0.001178 0.000000 0.000000 0.000000
# 2 -0.002964 0.008116 -0.004696 0.000000 0.000000 0.000000
# 3 -0.001178 -0.004696 0.017877 0.000000 0.000000 0.000000
# 4 0.000000 0.000000 0.000000 0.058313 0.000000 0.000000
# 5 0.000000 0.000000 0.000000 0.000000 0.147064 0.000000
# 6 0.000000 0.000000 0.000000 0.000000 0.000000 0.024114
#
#
# Mechanical properties :
#
#
# Convention : Reuss Voigt Hill
#
# Bulk Modulus (GPa) = 62.65847 83.32045 72.98946
# Shear Modulus (GPa) = 17.47502 30.23184 23.85343
#
# Velocity S-wave (km/s) = 3.02183 3.97460 3.53050
# Velocity P-wave (km/s) = 6.70202 8.03752 7.39996
#
# Compressibility (1/GPa) = 0.01595953
#
# Stress axis : x y z
#
# Youngs Moduli (GPa) = 130.84958 123.21679 55.93635
#
# Poissons Ratio (x) = 0.36526 0.06589
# Poissons Ratio (y) = 0.38789 0.26266
# Poissons Ratio (z) = 0.15414 0.57858
#
# Static dielectric constant tensor:
#      x y z
#    x 3.433840 0.000000 0.000000 
#    y 0.000000 3.423140 0.000000 
#    z 0.000000 0.000000 3.191960 
# 
# 
# High freq. dielectric constant tensor:
#      x y z
#    x 1.759480 0.000000 0.000000 
#    y 0.000000 1.744120 0.000000 
#    z 0.000000 0.000000 1.718980 
# 
# From -- ./inp_files/1762.got.cif
#   From: 2010.03.12/outbox.cif.g09.slc.cpg/sg55_1_cif.got.tgz:1762.got - 2010.04.16 15:19:21.
