data_PCOD8226020
_publ_section_title
;
Structure prediction by ZEFSAII (Michael W. Deem and Ramdas Pophale) SiO2 
 PCOD8226020
Probable space group: P B A M
;
_chemical_formula_sum "Si O2"
_cell_formula_units_Z 48
_cell_length_a 15.328156
_cell_length_b 19.023427
_cell_length_c 8.713097
_cell_angle_alpha 90.000000
_cell_angle_beta 90.000000
_cell_angle_gamma 90.000000
_cell_volume 2540.687301
_symmetry_space_group_name_H-M "P B A M"
_symmetry_group_IT_number 55
_symmetry_cell_setting 'orthorhombic'
loop_
_space_group_symop_operation_xyz
x,y,z
-x,-y,z
1/2+x,1/2-y,-z
1/2-x,1/2+y,-z
-x,-y,-z
x,y,-z
1/2-x,1/2+y,z
1/2+x,1/2-y,z
loop_
_atom_site_type_symbol
_atom_site_label
_atom_site_fract_x
_atom_site_fract_y
_atom_site_fract_z
Si Si1 0.653324 0.173445 0.180348
Si Si2 0.662330 0.669079 0.320546
Si Si3 0.152755 0.177166 0.682980
Si Si4 0.505771 0.081547 0.681243
Si Si5 0.154021 0.671210 0.678427
Si Si6 0.499576 0.421254 0.682696
O O1 0.750851 0.151652 0.227327
O O2 0.624529 0.246597 0.256962
O O3 0.590390 0.111872 0.236356
O O4 0.647238 0.181926 0.000000
O O5 0.682663 0.658486 0.500000
O O6 0.628686 0.748049 0.289012
O O7 0.587684 0.617042 0.259698
O O8 0.152888 0.181995 0.500000
O O9 0.249066 0.156328 0.746314
O O10 0.084629 0.119556 0.744826
O O11 0.514840 0.094246 0.500000
O O12 0.419522 0.120373 0.749872
O O13 0.500000 0.000000 0.722901
O O14 0.157984 0.654732 0.500000
O O15 0.500000 0.500000 0.749549
O O16 0.501628 0.421680 0.500000
#
# Coordination Sequence:
#
# PCOD8226020 Si02
#       6
#     8   8   8   8   8   8
#     4  11  22  35  52  74 101 135 177 219 256 298
#     4   9  17  32  54  76 101 134 171 211 254 302
#     4   9  17  33  55  76 102 134 170 213 258 307
#     4  10  20  34  54  80 107 135 168 208 259 316
#     4   8  15  29  51  77 100 128 167 208 250 297
#     4   9  17  29  52  85 111 132 165 212 261 307
#
# _framework density 18.892526
#
# number of rings (size 3 to 8) (size 9 to 14) (size 15 to 20)
#    0.000    2.667    0.000    3.500    0.000    4.333 
#    0.000   12.500    0.000    6.000    0.000    0.000 
#    0.000    0.000    0.000    0.000    0.000    0.000 
#
# Total GULP energy -595138.414593 kJ/mol
# GULP energy per Si atom -12398.716971 kJ/mol
# Density = 1.884953 g / cm^3
# Si number density = 18.892526 Si / 1000 Ang^3
#
#
#
# Elastic Constant Matrix: (Units=GPa)
#
#
# Indices 1 2 3 4 5 6 
#
# 1 132.6493 92.0311 26.0863 0.0000 0.0000 0.0000
# 2 92.0311 137.5387 25.7778 0.0000 0.0000 0.0000
# 3 26.0863 25.7778 34.6529 0.0000 0.0000 0.0000
# 4 0.0000 0.0000 0.0000 5.7938 0.0000 0.0000
# 5 0.0000 0.0000 0.0000 0.0000 5.8176 0.0000
# 6 0.0000 0.0000 0.0000 0.0000 0.0000 23.6210
#
#
#
# Elastic Compliance Matrix: (Units=1/GPa)
#
#
# Indices 1 2 3 4 5 6 
#
# 1 0.014609 -0.008964 -0.004329 0.000000 0.000000 0.000000
# 2 -0.008964 0.013949 -0.003628 0.000000 0.000000 0.000000
# 3 -0.004329 -0.003628 0.034816 0.000000 0.000000 0.000000
# 4 0.000000 0.000000 0.000000 0.172598 0.000000 0.000000
# 5 0.000000 0.000000 0.000000 0.000000 0.171891 0.000000
# 6 0.000000 0.000000 0.000000 0.000000 0.000000 0.042335
#
#
# Mechanical properties :
#
#
# Convention : Reuss Voigt Hill
#
# Bulk Modulus (GPa) = 33.86352 65.84793 49.85573
# Shear Modulus (GPa) = 10.12382 17.77620 13.95001
#
# Velocity S-wave (km/s) = 2.31738 3.07076 2.72028
# Velocity P-wave (km/s) = 5.01234 6.89219 6.02602
#
# Compressibility (1/GPa) = 0.02953030
#
# Stress axis : x y z
#
# Youngs Moduli (GPa) = 68.44954 71.69064 28.72257
#
# Poissons Ratio (x) = 0.64264 0.12435
# Poissons Ratio (y) = 0.61359 0.10421
# Poissons Ratio (z) = 0.29635 0.26011
#
# Static dielectric constant tensor:
#      x y z
#    x 3.827520 0.000000 0.000000 
#    y 0.000000 3.534790 0.000000 
#    z 0.000000 0.000000 2.965010 
# 
# 
# High freq. dielectric constant tensor:
#      x y z
#    x 1.750330 0.000000 0.000000 
#    y 0.000000 1.731810 0.000000 
#    z 0.000000 0.000000 1.684280 
# 
# From -- ./inp_files/5669.got.cif
#   From: 2010.03.12/outbox.cif.g09.slc.cpg/sg55_3_cif.got.tgz:5669.got - 2010.04.16 15:19:21.
