data_PCOD8226826
_publ_section_title
;
Structure prediction by ZEFSAII (Michael W. Deem and Ramdas Pophale) SiO2 
 PCOD8226826
Probable space group: P B A M
;
_chemical_formula_sum "Si O2"
_cell_formula_units_Z 48
_cell_length_a 12.087983
_cell_length_b 23.809288
_cell_length_c 8.826407
_cell_angle_alpha 90.000000
_cell_angle_beta 90.000000
_cell_angle_gamma 90.000000
_cell_volume 2540.295264
_symmetry_space_group_name_H-M "P B A M"
_symmetry_group_IT_number 55
_symmetry_cell_setting 'orthorhombic'
loop_
_space_group_symop_operation_xyz
x,y,z
-x,-y,z
1/2+x,1/2-y,-z
1/2-x,1/2+y,-z
-x,-y,-z
x,y,-z
1/2-x,1/2+y,z
1/2+x,1/2-y,z
loop_
_atom_site_type_symbol
_atom_site_label
_atom_site_fract_x
_atom_site_fract_y
_atom_site_fract_z
Si Si1 0.215774 0.955686 0.323519
Si Si2 0.645852 0.146984 0.320766
Si Si3 0.518721 0.624233 0.322905
Si Si4 0.333763 0.284113 0.178438
Si Si5 0.895132 0.331533 0.322225
Si Si6 0.287093 0.579702 0.321003
O O1 0.237534 0.962833 0.500000
O O2 0.309207 0.913127 0.259247
O O3 0.094921 0.930032 0.291433
O O4 0.224822 0.017379 0.247679
O O5 0.663378 0.151311 0.500000
O O6 0.716713 0.196696 0.246939
O O7 0.519190 0.153249 0.273211
O O8 0.517536 0.639541 0.500000
O O9 0.564397 0.678470 0.236745
O O10 0.397107 0.610351 0.258378
O O11 0.352868 0.220508 0.226678
O O12 0.327346 0.288638 0.000000
O O13 0.886677 0.317574 0.500000
O O14 0.820562 0.384835 0.277625
O O15 0.302244 0.573977 0.500000
#
# Coordination Sequence:
#
# PCOD8226826 Si02
#       6
#     8   8   8   8   8   8
#     4   8  14  28  52  82 111 138 171 214 264 313
#     4   9  19  36  57  78 105 140 177 218 265 320
#     4   9  17  32  55  82 109 141 177 217 265 316
#     4  11  23  37  54  75 104 141 183 228 269 314
#     4  10  21  35  53  80 109 141 179 219 265 317
#     4   9  17  29  52  85 113 137 171 217 266 315
#
# _framework density 18.895441999999999
#
# number of rings (size 3 to 8) (size 9 to 14) (size 15 to 20)
#    0.000    2.667    0.000    3.000    2.333    3.333 
#    0.000    3.333    0.000   12.000    0.000    5.833 
#    0.000    0.000    0.000    0.000    0.000    0.000 
#
# Total GULP energy -595148.037658 kJ/mol
# GULP energy per Si atom -12398.917451 kJ/mol
# Density = 1.885244 g / cm^3
# Si number density = 18.895442 Si / 1000 Ang^3
#
#
#
# Elastic Constant Matrix: (Units=GPa)
#
#
# Indices 1 2 3 4 5 6 
#
# 1 156.4903 55.1624 31.8274 0.0000 0.0000 0.0000
# 2 55.1624 93.9641 27.6385 0.0000 0.0000 0.0000
# 3 31.8274 27.6385 40.9240 0.0000 0.0000 0.0000
# 4 0.0000 0.0000 0.0000 -1.1728 0.0000 0.0000
# 5 0.0000 0.0000 0.0000 0.0000 5.8868 0.0000
# 6 0.0000 0.0000 0.0000 0.0000 0.0000 22.1322
#
#
#
# Elastic Compliance Matrix: (Units=1/GPa)
#
#
# Indices 1 2 3 4 5 6 
#
# 1 0.008570 -0.003832 -0.004077 0.000000 0.000000 0.000000
# 2 -0.003832 0.014994 -0.007146 0.000000 0.000000 0.000000
# 3 -0.004077 -0.007146 0.032433 0.000000 0.000000 0.000000
# 4 0.000000 0.000000 0.000000 -0.852652 0.000000 0.000000
# 5 0.000000 0.000000 0.000000 0.000000 0.169872 0.000000
# 6 0.000000 0.000000 0.000000 0.000000 0.000000 0.045183
#
#
# Mechanical properties :
#
#
# Convention : Reuss Voigt Hill
#
# Bulk Modulus (GPa) = 38.63070 57.84835 48.23952
# Shear Modulus (GPa) = -9.21047 17.15256 3.97105
#
# Velocity S-wave (km/s) = -2.21021 3.01618 1.45126
# Velocity P-wave (km/s) = 3.73838 6.54303 5.32854
#
# Compressibility (1/GPa) = 0.02588615
#
# Stress axis : x y z
#
# Youngs Moduli (GPa) = 116.68410 66.69395 30.83302
#
# Poissons Ratio (x) = 0.25556 0.12571
# Poissons Ratio (y) = 0.44712 0.22034
# Poissons Ratio (z) = 0.47575 0.47661
#
# Static dielectric constant tensor:
#      x y z
#    x 3.670100 0.000000 0.000000 
#    y 0.000000 3.686220 0.000000 
#    z 0.000000 0.000000 2.986640 
# 
# 
# High freq. dielectric constant tensor:
#      x y z
#    x 1.741190 0.000000 0.000000 
#    y 0.000000 1.744370 0.000000 
#    z 0.000000 0.000000 1.682670 
# 
# From -- ./inp_files/4032.got.cif
#   From: 2010.03.12/outbox.cif.g09.slc.cpg/sg55_3_cif.got.tgz:4032.got - 2010.04.16 15:19:21.
