data_PCOD8226481
_publ_section_title
;
Structure prediction by ZEFSAII (Michael W. Deem and Ramdas Pophale) SiO2 
 PCOD8226481
Probable space group: P B A M
;
_chemical_formula_sum "Si O2"
_cell_formula_units_Z 64
_cell_length_a 30.502219
_cell_length_b 11.945302
_cell_length_c 8.633162
_cell_angle_alpha 90.000000
_cell_angle_beta 90.000000
_cell_angle_gamma 90.000000
_cell_volume 3145.563519
_symmetry_space_group_name_H-M "P B A M"
_symmetry_group_IT_number 55
_symmetry_cell_setting 'orthorhombic'
loop_
_space_group_symop_operation_xyz
x,y,z
-x,-y,z
1/2+x,1/2-y,-z
1/2-x,1/2+y,-z
-x,-y,-z
x,y,-z
1/2-x,1/2+y,z
1/2+x,1/2-y,z
loop_
_atom_site_type_symbol
_atom_site_label
_atom_site_fract_x
_atom_site_fract_y
_atom_site_fract_z
Si Si1 0.803679 0.742515 0.315420
Si Si2 0.627499 0.647998 0.817551
Si Si3 0.833670 0.507270 0.677922
Si Si4 0.379340 0.593571 0.681306
Si Si5 0.294479 0.218462 0.684450
Si Si6 0.049055 0.245145 0.823384
Si Si7 0.046340 0.704561 0.820847
Si Si8 0.934679 0.520774 0.677012
O O1 0.805946 0.739393 0.500000
O O2 0.819448 0.624091 0.243204
O O3 0.836598 0.839237 0.257330
O O4 0.754686 0.762851 0.254464
O O5 0.617202 0.521278 0.772961
O O6 0.673678 0.684253 0.744459
O O7 0.587735 0.725806 0.755127
O O8 0.630796 0.657900 0.000000
O O9 0.819418 0.513872 0.500000
O O10 0.809145 0.401416 0.754161
O O11 0.884600 0.485301 0.697660
O O12 0.375843 0.568275 0.500000
O O13 0.422816 0.666664 0.711174
O O14 0.296556 0.220497 0.500000
O O15 0.056309 0.375196 0.786949
O O16 0.997308 0.219848 0.799565
O O17 0.063247 0.222072 0.000000
O O18 0.038199 0.588922 0.727485
O O19 0.053633 0.673477 0.000000
O O20 0.945934 0.552439 0.500000
#
# Coordination Sequence:
#
# PCOD8226481 Si02
#       8
#     8   8   8   8   8   8   8   8
#     4   9  19  35  60  90 119 150 192 240 291 348
#     4  11  24  42  60  83 119 158 196 245 299 353
#     4   9  17  32  56  89 121 148 187 239 289 337
#     4  11  23  41  63  88 117 154 201 250 297 353
#     4  10  20  36  63  91 115 153 198 241 287 345
#     4  11  23  40  61  86 118 157 198 241 296 363
#     4  10  23  41  60  83 117 161 201 237 295 365
#     4  11  20  35  60  91 124 152 191 248 299 344
#
# _framework density 20.346115999999999
#
# number of rings (size 3 to 8) (size 9 to 14) (size 15 to 20)
#    0.000    1.750    2.500    1.875    1.750    3.500 
#    0.000    3.750    0.000    0.000    0.000    0.000 
#    0.000    0.000    0.000    0.000    0.000    0.000 
#
# Total GULP energy -793703.170298 kJ/mol
# GULP energy per Si atom -12401.612036 kJ/mol
# Density = 2.029981 g / cm^3
# Si number density = 20.346116 Si / 1000 Ang^3
#
#
#
# Elastic Constant Matrix: (Units=GPa)
#
#
# Indices 1 2 3 4 5 6 
#
# 1 78.9740 26.0768 22.1254 0.0000 0.0000 0.0000
# 2 26.0768 102.1906 4.7246 0.0000 0.0000 0.0000
# 3 22.1254 4.7246 33.7341 0.0000 0.0000 0.0000
# 4 0.0000 0.0000 0.0000 29.1546 0.0000 0.0000
# 5 0.0000 0.0000 0.0000 0.0000 22.6638 0.0000
# 6 0.0000 0.0000 0.0000 0.0000 0.0000 28.7523
#
#
#
# Elastic Compliance Matrix: (Units=1/GPa)
#
#
# Indices 1 2 3 4 5 6 
#
# 1 0.016874 -0.003819 -0.010533 0.000000 0.000000 0.000000
# 2 -0.003819 0.010714 0.001004 0.000000 0.000000 0.000000
# 3 -0.010533 0.001004 0.036411 0.000000 0.000000 0.000000
# 4 0.000000 0.000000 0.000000 0.034300 0.000000 0.000000
# 5 0.000000 0.000000 0.000000 0.000000 0.044123 0.000000
# 6 0.000000 0.000000 0.000000 0.000000 0.000000 0.034780
#
#
# Mechanical properties :
#
#
# Convention : Reuss Voigt Hill
#
# Bulk Modulus (GPa) = 26.80648 35.63915 31.22281
# Shear Modulus (GPa) = 23.11271 26.91226 25.01248
#
# Velocity S-wave (km/s) = 3.37408 3.64087 3.51001
# Velocity P-wave (km/s) = 5.32758 5.93541 5.63969
#
# Compressibility (1/GPa) = 0.03730442
#
# Stress axis : x y z
#
# Youngs Moduli (GPa) = 59.26204 93.33821 27.46428
#
# Poissons Ratio (x) = 0.35646 0.28927
# Poissons Ratio (y) = 0.22632 -0.02758
# Poissons Ratio (z) = 0.62418 -0.09374
#
# Static dielectric constant tensor:
#      x y z
#    x 3.897680 0.000000 0.000000 
#    y 0.000000 3.744730 0.000000 
#    z 0.000000 0.000000 3.371710 
# 
# 
# High freq. dielectric constant tensor:
#      x y z
#    x 1.809010 0.000000 0.000000 
#    y 0.000000 1.798770 0.000000 
#    z 0.000000 0.000000 1.765440 
# 
# From -- ./inp_files/10827.got.cif
#   From: 2010.03.12/outbox.cif.g09.slc.cpg/sg55_6_cif.got.tgz:10827.got - 2010.04.16 15:19:21.
