data_PCOD8226741
_publ_section_title
;
Structure prediction by ZEFSAII (Michael W. Deem and Ramdas Pophale) SiO2 
 PCOD8226741
Probable space group: P B A M
;
_chemical_formula_sum "Si O2"
_cell_formula_units_Z 48
_cell_length_a 27.703873
_cell_length_b 9.925328
_cell_length_c 9.133581
_cell_angle_alpha 90.000000
_cell_angle_beta 90.000000
_cell_angle_gamma 90.000000
_cell_volume 2511.461009
_symmetry_space_group_name_H-M "P B A M"
_symmetry_group_IT_number 55
_symmetry_cell_setting 'orthorhombic'
loop_
_space_group_symop_operation_xyz
x,y,z
-x,-y,z
1/2+x,1/2-y,-z
1/2-x,1/2+y,-z
-x,-y,-z
x,y,-z
1/2-x,1/2+y,z
1/2+x,1/2-y,z
loop_
_atom_site_type_symbol
_atom_site_label
_atom_site_fract_x
_atom_site_fract_y
_atom_site_fract_z
Si Si1 0.354215 0.494117 0.826255
Si Si2 0.705401 0.285738 0.671023
Si Si3 0.637755 0.038877 0.332374
Si Si4 0.815005 0.253955 0.331343
Si Si5 0.958189 0.902706 0.174024
Si Si6 0.041705 0.401626 0.173617
O O1 0.311683 0.585124 0.761248
O O2 0.347070 0.342983 0.769211
O O3 0.406195 0.546541 0.769885
O O4 0.351325 0.496630 0.000000
O O5 0.703268 0.322599 0.500000
O O6 0.671985 0.161063 0.713594
O O7 0.759404 0.247077 0.717611
O O8 0.621139 0.052354 0.500000
O O9 0.591478 0.038794 0.230389
O O10 0.667129 0.904075 0.304096
O O11 0.820878 0.210038 0.500000
O O12 0.967089 0.750599 0.231784
O O13 0.959735 0.905845 0.000000
O O14 0.000000 0.000000 0.238237
O O15 0.000000 0.500000 0.233037
O O16 0.043588 0.402097 0.000000
#
# Coordination Sequence:
#
# PCOD8226741 Si02
#       6
#     8   8   8   8   8   8
#     4  11  22  36  59  89 119 149 185 241 292 330
#     4  10  20  39  63  82 111 156 197 231 280 345
#     4  10  21  37  59  85 115 150 190 241 285 326
#     4  10  22  39  59  84 115 157 199 230 274 344
#     4   9  19  36  56  81 113 148 186 227 281 346
#     4  10  21  37  60  84 110 149 190 231 285 347
#
# _framework density 19.112380999999999
#
# number of rings (size 3 to 8) (size 9 to 14) (size 15 to 20)
#    0.000    2.000    1.667    1.500    2.333    4.333 
#    0.000    1.667    0.000    2.500    0.000    0.000 
#    0.000    0.000    0.000    0.000    0.000    0.000 
#
# Total GULP energy -595390.305621 kJ/mol
# GULP energy per Si atom -12403.964700 kJ/mol
# Density = 1.906888 g / cm^3
# Si number density = 19.112381 Si / 1000 Ang^3
#
#
#
# Elastic Constant Matrix: (Units=GPa)
#
#
# Indices 1 2 3 4 5 6 
#
# 1 119.0579 28.6758 26.6126 0.0000 0.0000 0.0000
# 2 28.6758 63.7198 23.8228 0.0000 0.0000 0.0000
# 3 26.6126 23.8228 33.0216 0.0000 0.0000 0.0000
# 4 0.0000 0.0000 0.0000 30.9750 0.0000 0.0000
# 5 0.0000 0.0000 0.0000 0.0000 26.6172 0.0000
# 6 0.0000 0.0000 0.0000 0.0000 0.0000 37.4512
#
#
#
# Elastic Compliance Matrix: (Units=1/GPa)
#
#
# Indices 1 2 3 4 5 6 
#
# 1 0.010451 -0.002128 -0.006887 0.000000 0.000000 0.000000
# 2 -0.002128 0.021923 -0.014101 0.000000 0.000000 0.000000
# 3 -0.006887 -0.014101 0.046007 0.000000 0.000000 0.000000
# 4 0.000000 0.000000 0.000000 0.032284 0.000000 0.000000
# 5 0.000000 0.000000 0.000000 0.000000 0.037570 0.000000
# 6 0.000000 0.000000 0.000000 0.000000 0.000000 0.026701
#
#
# Mechanical properties :
#
#
# Convention : Reuss Voigt Hill
#
# Bulk Modulus (GPa) = 31.10611 41.55796 36.33203
# Shear Modulus (GPa) = 21.56227 28.12122 24.84175
#
# Velocity S-wave (km/s) = 3.36249 3.83999 3.60915
# Velocity P-wave (km/s) = 5.60230 6.43832 6.03481
#
# Compressibility (1/GPa) = 0.03214803
#
# Stress axis : x y z
#
# Youngs Moduli (GPa) = 95.68055 45.61316 21.73594
#
# Poissons Ratio (x) = 0.09709 0.14970
# Poissons Ratio (y) = 0.20365 0.30650
# Poissons Ratio (z) = 0.65899 0.64319
#
# Static dielectric constant tensor:
#      x y z
#    x 3.626400 0.000000 0.000000 
#    y 0.000000 3.673480 0.000000 
#    z 0.000000 0.000000 3.264490 
# 
# 
# High freq. dielectric constant tensor:
#      x y z
#    x 1.752610 0.000000 0.000000 
#    y 0.000000 1.759800 0.000000 
#    z 0.000000 0.000000 1.716950 
# 
# From -- ./inp_files/2854.got.cif
#   From: 2010.03.12/outbox.cif.g09.slc.cpg/sg55_2_cif.got.tgz:2854.got - 2010.04.16 15:19:21.
