data_PCOD8226584
_publ_section_title
;
Structure prediction by ZEFSAII (Michael W. Deem and Ramdas Pophale) SiO2 
 PCOD8226584
Probable space group: P B A M
;
_chemical_formula_sum "Si O2"
_cell_formula_units_Z 56
_cell_length_a 16.054357
_cell_length_b 20.034916
_cell_length_c 8.525628
_cell_angle_alpha 90.000000
_cell_angle_beta 90.000000
_cell_angle_gamma 90.000000
_cell_volume 2742.248585
_symmetry_space_group_name_H-M "P B A M"
_symmetry_group_IT_number 55
_symmetry_cell_setting 'orthorhombic'
loop_
_space_group_symop_operation_xyz
x,y,z
-x,-y,z
1/2+x,1/2-y,-z
1/2-x,1/2+y,-z
-x,-y,-z
x,y,-z
1/2-x,1/2+y,z
1/2+x,1/2-y,z
loop_
_atom_site_type_symbol
_atom_site_label
_atom_site_fract_x
_atom_site_fract_y
_atom_site_fract_z
Si Si1 0.819880 0.197064 0.684105
Si Si2 0.932006 0.947576 0.182328
Si Si3 0.849976 0.343589 0.683224
Si Si4 0.493619 0.685632 0.316289
Si Si5 0.527310 0.172564 0.817663
Si Si6 0.180611 0.400827 0.684457
Si Si7 0.743379 0.964968 0.819049
O O1 0.810066 0.191134 0.500000
O O2 0.807254 0.273898 0.736527
O O3 0.748924 0.150170 0.758717
O O4 0.911196 0.172003 0.737309
O O5 0.938631 0.878244 0.274791
O O6 0.840923 0.977901 0.214484
O O7 0.947920 0.933013 0.000000
O O8 0.000000 0.000000 0.247357
O O9 0.872601 0.340888 0.500000
O O10 0.785759 0.402107 0.717772
O O11 0.935069 0.353318 0.778510
O O12 0.488566 0.701170 0.500000
O O13 0.458614 0.750232 0.227325
O O14 0.589452 0.126848 0.718471
O O15 0.545669 0.162794 0.000000
O O16 0.192594 0.411775 0.500000
O O17 0.190682 0.471127 0.770019
O O18 0.727231 0.948580 0.000000
#
# Coordination Sequence:
#
# PCOD8226584 Si02
#       7
#     8   8   8   8   8   8   8
#     4   8  18  36  60  88 118 150 195 250 300 349
#     4  10  22  39  59  87 127 167 202 245 302 366
#     4  10  21  41  64  89 118 156 202 253 305 360
#     4  10  20  37  61  89 119 156 204 252 296 353
#     4  11  23  40  61  89 121 156 197 249 308 365
#     4  11  22  39  62  89 119 157 202 251 302 361
#     4  11  24  40  58  88 124 162 203 248 303 364
#
# _framework density 20.421199000000001
#
# number of rings (size 3 to 8) (size 9 to 14) (size 15 to 20)
#    0.000    1.857    0.000    4.714    2.000    2.000 
#    0.000   10.000    0.000    0.000    0.000    0.000 
#    0.000    0.000    0.000    0.000    0.000    0.000 
#
# Total GULP energy -694630.486067 kJ/mol
# GULP energy per Si atom -12404.115823 kJ/mol
# Density = 2.037472 g / cm^3
# Si number density = 20.421199 Si / 1000 Ang^3
#
#
#
# Elastic Constant Matrix: (Units=GPa)
#
#
# Indices 1 2 3 4 5 6 
#
# 1 58.8344 34.2276 17.3392 0.0000 0.0000 0.0000
# 2 34.2276 97.9396 12.4063 0.0000 0.0000 0.0000
# 3 17.3392 12.4063 45.0176 0.0000 0.0000 0.0000
# 4 0.0000 0.0000 0.0000 28.5738 0.0000 0.0000
# 5 0.0000 0.0000 0.0000 0.0000 27.8019 0.0000
# 6 0.0000 0.0000 0.0000 0.0000 0.0000 39.3661
#
#
#
# Elastic Compliance Matrix: (Units=1/GPa)
#
#
# Indices 1 2 3 4 5 6 
#
# 1 0.023266 -0.007249 -0.006964 0.000000 0.000000 0.000000
# 2 -0.007249 0.012838 -0.000746 0.000000 0.000000 0.000000
# 3 -0.006964 -0.000746 0.025101 0.000000 0.000000 0.000000
# 4 0.000000 0.000000 0.000000 0.034997 0.000000 0.000000
# 5 0.000000 0.000000 0.000000 0.000000 0.035969 0.000000
# 6 0.000000 0.000000 0.000000 0.000000 0.000000 0.025403
#
#
# Mechanical properties :
#
#
# Convention : Reuss Voigt Hill
#
# Bulk Modulus (GPa) = 31.96053 36.63754 34.29904
# Shear Modulus (GPa) = 25.26264 28.33626 26.79945
#
# Velocity S-wave (km/s) = 3.52103 3.72908 3.62655
# Velocity P-wave (km/s) = 5.67581 6.04328 5.86243
#
# Compressibility (1/GPa) = 0.03128859
#
# Stress axis : x y z
#
# Youngs Moduli (GPa) = 42.98074 77.89254 39.83867
#
# Poissons Ratio (x) = 0.56464 0.27742
# Poissons Ratio (y) = 0.31156 0.02972
# Poissons Ratio (z) = 0.29930 0.05811
#
# Static dielectric constant tensor:
#      x y z
#    x 3.707540 0.000000 0.000000 
#    y 0.000000 3.715930 0.000000 
#    z 0.000000 0.000000 3.524030 
# 
# 
# High freq. dielectric constant tensor:
#      x y z
#    x 1.799930 0.000000 0.000000 
#    y 0.000000 1.803940 0.000000 
#    z 0.000000 0.000000 1.789530 
# 
# From -- ./inp_files/5971.got.cif
#   From: 2010.03.12/outbox.cif.g09.slc.cpg/sg55_3_cif.got.tgz:5971.got - 2010.04.16 15:19:21.
