data_PCOD8226629
_publ_section_title
;
Structure prediction by ZEFSAII (Michael W. Deem and Ramdas Pophale) SiO2 
 PCOD8226629
Probable space group: P B A M
;
_chemical_formula_sum "Si O2"
_cell_formula_units_Z 64
_cell_length_a 20.736584
_cell_length_b 11.554316
_cell_length_c 12.902608
_cell_angle_alpha 90.000000
_cell_angle_beta 90.000000
_cell_angle_gamma 90.000000
_cell_volume 3091.426741
_symmetry_space_group_name_H-M "P B A M"
_symmetry_group_IT_number 55
_symmetry_cell_setting 'orthorhombic'
loop_
_space_group_symop_operation_xyz
x,y,z
-x,-y,z
1/2+x,1/2-y,-z
1/2-x,1/2+y,-z
-x,-y,-z
x,y,-z
1/2-x,1/2+y,z
1/2+x,1/2-y,z
loop_
_atom_site_type_symbol
_atom_site_label
_atom_site_fract_x
_atom_site_fract_y
_atom_site_fract_z
Si Si1 0.675629 0.106904 0.618907
Si Si2 0.511513 0.370938 0.885259
Si Si3 0.814720 0.181675 0.382394
Si Si4 0.869712 0.215065 0.886131
Si Si5 0.819759 0.399089 0.745474
Si Si6 0.573403 0.515779 0.621557
Si Si7 0.122651 0.182399 0.748066
Si Si8 0.294128 0.514108 0.876155
O O1 0.652017 0.127654 0.500000
O O2 0.753752 0.094309 0.622011
O O3 0.650388 0.202439 0.698775
O O4 0.646771 0.986366 0.663600
O O5 0.500000 0.500000 0.841266
O O6 0.443718 0.311749 0.893937
O O7 0.554596 0.296324 0.806041
O O8 0.543958 0.378212 0.000000
O O9 0.827773 0.219555 0.500000
O O10 0.789033 0.294460 0.321100
O O11 0.882749 0.125889 0.338129
O O12 0.868495 0.332918 0.820893
O O13 0.828396 0.106243 0.840632
O O14 0.841170 0.240742 0.000000
O O15 0.773317 0.476945 0.816944
O O16 0.500000 0.500000 0.665397
O O17 0.570668 0.525598 0.500000
O O18 0.614091 0.403939 0.652012
O O19 0.166326 0.125800 0.837795
O O20 0.286094 0.520159 0.000000
#
# Coordination Sequence:
#
# PCOD8226629 Si02
#       8
#     8   8   8   8   8   8   8   8
#     4  11  25  42  62  91 127 170 218 262 313 384
#     4  10  20  37  63  95 125 160 209 266 318 380
#     4  10  22  39  62  90 121 160 209 265 320 378
#     4  10  22  40  63  92 125 160 207 260 319 385
#     4  12  22  40  61  89 123 172 209 257 316 380
#     4  10  22  38  62  95 125 156 210 279 334 376
#     4  12  21  37  61  91 126 168 204 255 319 386
#     4  11  23  38  61  97 132 159 199 263 327 386
#
# _framework density 20.702415999999999
#
# number of rings (size 3 to 8) (size 9 to 14) (size 15 to 20)
#    0.000    1.250    2.500    4.125    1.750    0.000 
#    0.000    2.500    0.000    2.250    0.000    0.000 
#    0.000    0.000    0.000    0.000    0.000    0.000 
#
# Total GULP energy -792884.877581 kJ/mol
# GULP energy per Si atom -12388.826212 kJ/mol
# Density = 2.065530 g / cm^3
# Si number density = 20.702416 Si / 1000 Ang^3
#
#
#
# Elastic Constant Matrix: (Units=GPa)
#
#
# Indices 1 2 3 4 5 6 
#
# 1 70.8860 34.8345 41.6066 0.0000 0.0000 0.0000
# 2 34.8345 112.9603 54.0756 0.0000 0.0000 0.0000
# 3 41.6066 54.0756 102.2409 0.0000 0.0000 0.0000
# 4 0.0000 0.0000 0.0000 44.8106 0.0000 0.0000
# 5 0.0000 0.0000 0.0000 0.0000 22.3493 0.0000
# 6 0.0000 0.0000 0.0000 0.0000 0.0000 26.7199
#
#
#
# Elastic Compliance Matrix: (Units=1/GPa)
#
#
# Indices 1 2 3 4 5 6 
#
# 1 0.019229 -0.002924 -0.006279 0.000000 0.000000 0.000000
# 2 -0.002924 0.012299 -0.005315 0.000000 0.000000 0.000000
# 3 -0.006279 -0.005315 0.015147 0.000000 0.000000 0.000000
# 4 0.000000 0.000000 0.000000 0.022316 0.000000 0.000000
# 5 0.000000 0.000000 0.000000 0.000000 0.044744 0.000000
# 6 0.000000 0.000000 0.000000 0.000000 0.000000 0.037425
#
#
# Mechanical properties :
#
#
# Convention : Reuss Voigt Hill
#
# Bulk Modulus (GPa) = 56.69076 60.79118 58.74097
# Shear Modulus (GPa) = 26.87071 29.14733 28.00902
#
# Velocity S-wave (km/s) = 3.60662 3.75630 3.68222
# Velocity P-wave (km/s) = 6.69228 6.94558 6.82011
#
# Compressibility (1/GPa) = 0.01763956
#
# Stress axis : x y z
#
# Youngs Moduli (GPa) = 52.00349 81.30939 66.01982
#
# Poissons Ratio (x) = 0.23777 0.41452
# Poissons Ratio (y) = 0.15207 0.35088
# Poissons Ratio (z) = 0.32652 0.43214
#
# Static dielectric constant tensor:
#      x y z
#    x 3.736450 0.000000 0.000000 
#    y 0.000000 3.447900 0.000000 
#    z 0.000000 0.000000 4.261710 
# 
# 
# High freq. dielectric constant tensor:
#      x y z
#    x 1.786470 0.000000 0.000000 
#    y 0.000000 1.783950 0.000000 
#    z 0.000000 0.000000 1.847750 
# 
# From -- ./inp_files/19967.got.cif
#   From: 2010.03.12/outbox.cif.g09.slc.cpg/sg55_10_cif.got.tgz:19967.got - 2010.04.16 15:19:21.
