data_PCOD8226642
_publ_section_title
;
Structure prediction by ZEFSAII (Michael W. Deem and Ramdas Pophale) SiO2 
 PCOD8226642
Probable space group: P B A M
;
_chemical_formula_sum "Si O2"
_cell_formula_units_Z 36
_cell_length_a 24.137105
_cell_length_b 5.026943
_cell_length_c 14.751381
_cell_angle_alpha 90.000000
_cell_angle_beta 90.000000
_cell_angle_gamma 90.000000
_cell_volume 1789.871367
_symmetry_space_group_name_H-M "P B A M"
_symmetry_group_IT_number 55
_symmetry_cell_setting 'orthorhombic'
loop_
_space_group_symop_operation_xyz
x,y,z
-x,-y,z
1/2+x,1/2-y,-z
1/2-x,1/2+y,-z
-x,-y,-z
x,y,-z
1/2-x,1/2+y,z
1/2+x,1/2-y,z
loop_
_atom_site_type_symbol
_atom_site_label
_atom_site_fract_x
_atom_site_fract_y
_atom_site_fract_z
Si Si1 0.286363 0.853189 0.894660
Si Si2 0.786277 0.507921 0.398193
Si Si3 0.539173 0.745620 0.500000
Si Si4 0.624837 0.071288 0.252657
Si Si5 0.062568 0.902518 0.692822
O O1 0.258116 0.576522 0.867643
O O2 0.344033 0.884602 0.842112
O O3 0.301903 0.869499 0.000000
O O4 0.810375 0.477070 0.500000
O O5 0.736349 0.303588 0.381812
O O6 0.833922 0.449036 0.326803
O O7 0.500000 0.500000 0.500000
O O8 0.574591 0.720322 0.407769
O O9 0.500000 0.000000 0.500000
O O10 0.601548 0.348267 0.288873
O O11 0.577394 0.843762 0.239785
O O12 0.000000 0.000000 0.708053
#
# Coordination Sequence:
#
# PCOD8226642 Si02
#       5
#     8   8   4   8   8
#     4  10  21  39  64  93 121 148 190 246 299 355
#     4  10  21  35  51  77 114 147 182 227 280 350
#     4  10  20  38  56  76 110 152 202 250 288 320
#     4  12  22  36  62  84 114 156 197 240 291 361
#     4  11  24  38  57  83 117 155 201 253 289 335
#
# _framework density 20.113175999999999
#
# number of rings (size 3 to 8) (size 9 to 14) (size 15 to 20)
#    0.000    1.333    0.000    7.333    3.111    0.000 
#    0.000    0.000    0.000    4.000    0.000    0.000 
#    0.000    0.000    0.000    0.000    0.000    0.000 
#
# Total GULP energy -446407.885565 kJ/mol
# GULP energy per Si atom -12400.219043 kJ/mol
# Density = 2.006740 g / cm^3
# Si number density = 20.113176 Si / 1000 Ang^3
#
#
#
# Elastic Constant Matrix: (Units=GPa)
#
#
# Indices 1 2 3 4 5 6 
#
# 1 77.6430 26.9645 56.1098 0.0000 0.0000 0.0000
# 2 26.9645 115.2567 30.1722 0.0000 0.0000 0.0000
# 3 56.1098 30.1722 80.6815 0.0000 0.0000 0.0000
# 4 0.0000 0.0000 0.0000 20.8908 0.0000 0.0000
# 5 0.0000 0.0000 0.0000 0.0000 35.3828 0.0000
# 6 0.0000 0.0000 0.0000 0.0000 0.0000 37.5276
#
#
#
# Elastic Compliance Matrix: (Units=1/GPa)
#
#
# Indices 1 2 3 4 5 6 
#
# 1 0.026125 -0.001503 -0.017607 0.000000 0.000000 0.000000
# 2 -0.001503 0.009704 -0.002584 0.000000 0.000000 0.000000
# 3 -0.017607 -0.002584 0.025605 0.000000 0.000000 0.000000
# 4 0.000000 0.000000 0.000000 0.047868 0.000000 0.000000
# 5 0.000000 0.000000 0.000000 0.000000 0.028262 0.000000
# 6 0.000000 0.000000 0.000000 0.000000 0.000000 0.026647
#
#
# Mechanical properties :
#
#
# Convention : Reuss Voigt Hill
#
# Bulk Modulus (GPa) = 55.40854 55.56381 55.48618
# Shear Modulus (GPa) = 23.40666 29.44922 26.42794
#
# Velocity S-wave (km/s) = 3.41508 3.83061 3.62879
# Velocity P-wave (km/s) = 6.56951 6.87388 6.72342
#
# Compressibility (1/GPa) = 0.01804776
#
# Stress axis : x y z
#
# Youngs Moduli (GPa) = 38.27749 103.04697 39.05465
#
# Poissons Ratio (x) = 0.15487 0.68762
# Poissons Ratio (y) = 0.05753 0.10091
# Poissons Ratio (z) = 0.67393 0.26626
#
# Static dielectric constant tensor:
#      x y z
#    x 3.548290 0.000000 0.000000 
#    y 0.000000 3.838940 0.000000 
#    z 0.000000 0.000000 3.331750 
# 
# 
# High freq. dielectric constant tensor:
#      x y z
#    x 1.775420 0.000000 0.000000 
#    y 0.000000 1.813320 0.000000 
#    z 0.000000 0.000000 1.765050 
# 
# From -- ./inp_files/16490.got.cif
#   From: 2010.03.12/outbox.cif.g09.slc.cpg/sg55_9_cif.got.tgz:16490.got - 2010.04.16 15:19:21.
