data_PCOD8226355
_publ_section_title
;
Structure prediction by ZEFSAII (Michael W. Deem and Ramdas Pophale) SiO2 
 PCOD8226355
Probable space group: P B A M
;
_chemical_formula_sum "Si O2"
_cell_formula_units_Z 64
_cell_length_a 14.342011
_cell_length_b 25.085503
_cell_length_c 9.184275
_cell_angle_alpha 90.000000
_cell_angle_beta 90.000000
_cell_angle_gamma 90.000000
_cell_volume 3304.286865
_symmetry_space_group_name_H-M "P B A M"
_symmetry_group_IT_number 55
_symmetry_cell_setting 'orthorhombic'
loop_
_space_group_symop_operation_xyz
x,y,z
-x,-y,z
1/2+x,1/2-y,-z
1/2-x,1/2+y,-z
-x,-y,-z
x,y,-z
1/2-x,1/2+y,z
1/2+x,1/2-y,z
loop_
_atom_site_type_symbol
_atom_site_label
_atom_site_fract_x
_atom_site_fract_y
_atom_site_fract_z
Si Si1 0.750196 0.926279 0.827075
Si Si2 0.959302 0.442360 0.829470
Si Si3 0.042016 0.253273 0.331694
Si Si4 0.141328 0.766557 0.168458
Si Si5 0.602644 0.511239 0.827712
Si Si6 0.793215 0.116992 0.170425
Si Si7 0.104443 0.371129 0.669181
Si Si8 0.689128 0.310558 0.830318
O O1 0.646888 0.940987 0.772496
O O2 0.777227 0.867621 0.771179
O O3 0.823716 0.968793 0.762248
O O4 0.751580 0.928216 0.000000
O O5 0.000000 0.500000 0.793938
O O6 0.015332 0.398041 0.742111
O O7 0.966181 0.428653 0.000000
O O8 0.031982 0.239396 0.500000
O O9 0.097458 0.307965 0.306019
O O10 0.095777 0.205106 0.254132
O O11 0.939882 0.258479 0.264283
O O12 0.159041 0.827538 0.214039
O O13 0.232901 0.733006 0.203416
O O14 0.113082 0.761811 0.000000
O O15 0.500000 0.500000 0.761374
O O16 0.634522 0.570727 0.785616
O O17 0.599055 0.504291 0.000000
O O18 0.698023 0.107338 0.256739
O O19 0.767931 0.115327 0.000000
O O20 0.106509 0.386070 0.500000
O O21 0.664239 0.313112 0.000000
#
# Coordination Sequence:
#
# PCOD8226355 Si02
#       8
#     8   8   8   8   8   8   8   8
#     4   9  18  32  53  83 117 148 183 233 290 339
#     4  10  20  36  61  89 116 150 191 241 294 345
#     4  11  24  38  55  81 115 155 192 232 289 353
#     4  10  21  36  58  87 112 145 193 244 293 339
#     4   9  18  32  54  86 117 145 183 233 285 339
#     4  10  20  36  60  87 113 147 191 239 289 341
#     4  11  23  38  57  84 118 156 190 233 291 352
#     4  10  20  36  58  83 113 147 188 239 285 333
#
# _framework density 19.368777000000001
#
# number of rings (size 3 to 8) (size 9 to 14) (size 15 to 20)
#    0.000    2.000    1.250    2.250    1.750    5.750 
#    0.000    0.625    0.000    1.125    0.000    0.000 
#    0.000    0.000    0.000    0.000    0.000    0.000 
#
# Total GULP energy -793863.400607 kJ/mol
# GULP energy per Si atom -12404.115634 kJ/mol
# Density = 1.932469 g / cm^3
# Si number density = 19.368777 Si / 1000 Ang^3
#
#
#
# Elastic Constant Matrix: (Units=GPa)
#
#
# Indices 1 2 3 4 5 6 
#
# 1 116.6048 33.2553 37.5005 0.0000 0.0000 0.0000
# 2 33.2553 107.7472 25.7410 0.0000 0.0000 0.0000
# 3 37.5005 25.7410 50.1773 0.0000 0.0000 0.0000
# 4 0.0000 0.0000 0.0000 16.7130 0.0000 0.0000
# 5 0.0000 0.0000 0.0000 0.0000 6.1064 0.0000
# 6 0.0000 0.0000 0.0000 0.0000 0.0000 37.2915
#
#
#
# Elastic Compliance Matrix: (Units=1/GPa)
#
#
# Indices 1 2 3 4 5 6 
#
# 1 0.011561 -0.001714 -0.007761 0.000000 0.000000 0.000000
# 2 -0.001714 0.010831 -0.004276 0.000000 0.000000 0.000000
# 3 -0.007761 -0.004276 0.027923 0.000000 0.000000 0.000000
# 4 0.000000 0.000000 0.000000 0.059834 0.000000 0.000000
# 5 0.000000 0.000000 0.000000 0.000000 0.163763 0.000000
# 6 0.000000 0.000000 0.000000 0.000000 0.000000 0.026816
#
#
# Mechanical properties :
#
#
# Convention : Reuss Voigt Hill
#
# Bulk Modulus (GPa) = 43.83216 51.94697 47.88957
# Shear Modulus (GPa) = 14.88837 23.89100 19.38969
#
# Velocity S-wave (km/s) = 2.77551 3.51590 3.16742
# Velocity P-wave (km/s) = 5.74027 6.58485 6.17702
#
# Compressibility (1/GPa) = 0.02281430
#
# Stress axis : x y z
#
# Youngs Moduli (GPa) = 86.50012 92.32374 35.81321
#
# Poissons Ratio (x) = 0.15825 0.27793
# Poissons Ratio (y) = 0.14827 0.15312
# Poissons Ratio (z) = 0.67130 0.39473
#
# Static dielectric constant tensor:
#      x y z
#    x 3.607160 0.000000 0.000000 
#    y 0.000000 3.661440 0.000000 
#    z 0.000000 0.000000 3.184700 
# 
# 
# High freq. dielectric constant tensor:
#      x y z
#    x 1.766230 0.000000 0.000000 
#    y 0.000000 1.765930 0.000000 
#    z 0.000000 0.000000 1.715240 
# 
# From -- ./inp_files/6595.got.cif
#   From: 2010.03.12/outbox.cif.g09.slc.cpg/sg55_4_cif.got.tgz:6595.got - 2010.04.16 15:19:21.
