data_PCOD8226612
_publ_section_title
;
Structure prediction by ZEFSAII (Michael W. Deem and Ramdas Pophale) SiO2 
 PCOD8226612
Probable space group: P B A M
;
_chemical_formula_sum "Si O2"
_cell_formula_units_Z 40
_cell_length_a 10.768803
_cell_length_b 15.443063
_cell_length_c 10.900066
_cell_angle_alpha 90.000000
_cell_angle_beta 90.000000
_cell_angle_gamma 90.000000
_cell_volume 1812.716981
_symmetry_space_group_name_H-M "P B A M"
_symmetry_group_IT_number 55
_symmetry_cell_setting 'orthorhombic'
loop_
_space_group_symop_operation_xyz
x,y,z
-x,-y,z
1/2+x,1/2-y,-z
1/2-x,1/2+y,-z
-x,-y,-z
x,y,-z
1/2-x,1/2+y,z
1/2+x,1/2-y,z
loop_
_atom_site_type_symbol
_atom_site_label
_atom_site_fract_x
_atom_site_fract_y
_atom_site_fract_z
Si Si1 0.877014 0.056096 0.362874
Si Si2 0.626793 0.240742 0.792276
Si Si3 0.760031 0.884505 0.637915
Si Si4 0.985567 0.596263 0.358580
Si Si5 0.118597 0.818473 0.132272
O O1 0.859098 0.098325 0.500000
O O2 0.882732 0.124758 0.254287
O O3 0.766350 0.987828 0.333284
O O4 0.000000 0.000000 0.362213
O O5 0.643564 0.328238 0.714704
O O6 0.617895 0.153521 0.709800
O O7 0.498630 0.252296 0.866811
O O8 0.750116 0.232310 0.874649
O O9 0.804774 0.869343 0.500000
O O10 0.617851 0.854425 0.656366
O O11 0.944466 0.589160 0.500000
O O12 0.000000 0.500000 0.301965
O O13 0.108891 0.868678 0.000000
#
# Coordination Sequence:
#
# PCOD8226612 Si02
#       5
#     8   8   8   8   8
#     4  10  21  40  68 100 134 169 216 275 331 396
#     4  12  23  43  66  92 131 178 223 272 328 388
#     4  10  20  37  63 101 134 167 218 275 333 397
#     4  10  21  38  64  97 135 174 217 270 335 400
#     4  12  27  45  67  95 134 177 224 272 328 396
#
# _framework density 22.066323000000001
#
# number of rings (size 3 to 8) (size 9 to 14) (size 15 to 20)
#    0.000    1.200    4.000    2.400    0.000    4.400 
#    0.000    0.000    0.000    2.400    0.000    0.000 
#    0.000    0.000    0.000    0.000    0.000    0.000 
#
# Total GULP energy -495705.025335 kJ/mol
# GULP energy per Si atom -12392.625633 kJ/mol
# Density = 2.201610 g / cm^3
# Si number density = 22.066323 Si / 1000 Ang^3
#
#
#
# Elastic Constant Matrix: (Units=GPa)
#
#
# Indices 1 2 3 4 5 6 
#
# 1 130.5743 16.5113 31.8227 0.0000 0.0000 0.0000
# 2 16.5113 84.3456 58.3034 0.0000 0.0000 0.0000
# 3 31.8227 58.3034 143.0918 0.0000 0.0000 0.0000
# 4 0.0000 0.0000 0.0000 8.9583 0.0000 0.0000
# 5 0.0000 0.0000 0.0000 0.0000 -4.2651 0.0000
# 6 0.0000 0.0000 0.0000 0.0000 0.0000 30.8309
#
#
#
# Elastic Compliance Matrix: (Units=1/GPa)
#
#
# Indices 1 2 3 4 5 6 
#
# 1 0.008111 -0.000475 -0.001610 0.000000 0.000000 0.000000
# 2 -0.000475 0.016532 -0.006631 0.000000 0.000000 0.000000
# 3 -0.001610 -0.006631 0.010048 0.000000 0.000000 0.000000
# 4 0.000000 0.000000 0.000000 0.111628 0.000000 0.000000
# 5 0.000000 0.000000 0.000000 0.000000 -0.234462 0.000000
# 6 0.000000 0.000000 0.000000 0.000000 0.000000 0.032435
#
#
# Mechanical properties :
#
#
# Convention : Reuss Voigt Hill
#
# Bulk Modulus (GPa) = 57.93639 63.47629 60.70634
# Shear Modulus (GPa) = -153.73926 23.86310 -64.93808
#
# Velocity S-wave (km/s) = -8.35600 3.29207 -5.43070
# Velocity P-wave (km/s) = 8.17217 6.57867 3.42822
#
# Compressibility (1/GPa) = 0.01726031
#
# Stress axis : x y z
#
# Youngs Moduli (GPa) = 123.28967 60.48791 99.51893
#
# Poissons Ratio (x) = 0.02871 0.16027
# Poissons Ratio (y) = 0.05851 0.65987
# Poissons Ratio (z) = 0.19855 0.40107
#
# Static dielectric constant tensor:
#      x y z
#    x 4.529090 0.000000 0.000000 
#    y 0.000000 3.913650 0.000000 
#    z 0.000000 0.000000 3.764540 
# 
# 
# High freq. dielectric constant tensor:
#      x y z
#    x 1.905790 0.000000 0.000000 
#    y 0.000000 1.845060 0.000000 
#    z 0.000000 0.000000 1.841090 
# 
# From -- ./inp_files/13005.got.cif
#   From: 2010.03.12/outbox.cif.g09.slc.cpg/sg55_7_cif.got.tgz:13005.got - 2010.04.16 15:19:21.
