data_PCOD8226018
_publ_section_title
;
Structure prediction by ZEFSAII (Michael W. Deem and Ramdas Pophale) SiO2 
 PCOD8226018
Probable space group: P B A M
;
_chemical_formula_sum "Si O2"
_cell_formula_units_Z 64
_cell_length_a 19.436324
_cell_length_b 20.467021
_cell_length_c 8.716743
_cell_angle_alpha 90.000000
_cell_angle_beta 90.000000
_cell_angle_gamma 90.000000
_cell_volume 3467.552194
_symmetry_space_group_name_H-M "P B A M"
_symmetry_group_IT_number 55
_symmetry_cell_setting 'orthorhombic'
loop_
_space_group_symop_operation_xyz
x,y,z
-x,-y,z
1/2+x,1/2-y,-z
1/2-x,1/2+y,-z
-x,-y,-z
x,y,-z
1/2-x,1/2+y,z
1/2+x,1/2-y,z
loop_
_atom_site_type_symbol
_atom_site_label
_atom_site_fract_x
_atom_site_fract_y
_atom_site_fract_z
Si Si1 0.198219 0.429982 0.823715
Si Si2 0.211759 0.576184 0.175493
Si Si3 0.787866 0.193521 0.821135
Si Si4 0.074834 0.774574 0.675850
Si Si5 0.704413 0.311495 0.679173
Si Si6 0.079761 0.620603 0.326281
Si Si7 0.573076 0.130184 0.677864
Si Si8 0.068727 0.231299 0.820275
O O1 0.231638 0.500832 0.793854
O O2 0.254079 0.375706 0.778716
O O3 0.130500 0.423004 0.718604
O O4 0.175224 0.422937 0.000000
O O5 0.256579 0.621136 0.286495
O O6 0.130748 0.584712 0.210244
O O7 0.225583 0.596321 0.000000
O O8 0.867500 0.187972 0.773685
O O9 0.751228 0.250587 0.727072
O O10 0.781044 0.209967 0.000000
O O11 0.080479 0.796397 0.500000
O O12 0.086737 0.697866 0.695666
O O13 0.999823 0.794283 0.737260
O O14 0.689566 0.306202 0.500000
O O15 0.632410 0.313420 0.768972
O O16 0.098678 0.600629 0.500000
O O17 0.001713 0.599554 0.285869
O O18 0.576509 0.150962 0.500000
O O19 0.587322 0.194377 0.778024
O O20 0.057451 0.225271 0.000000
#
# Coordination Sequence:
#
# PCOD8226018 Si02
#       8
#     8   8   8   8   8   8   8   8
#     4  10  23  39  55  80 115 151 193 236 281 337
#     4  11  23  38  56  80 112 153 194 236 283 336
#     4  11  21  36  59  85 112 148 190 235 283 335
#     4  10  20  35  56  85 117 146 182 231 284 336
#     4  12  23  37  58  85 114 147 189 239 286 336
#     4   9  19  34  51  77 113 150 187 230 276 331
#     4  10  20  34  54  79 112 150 190 232 280 332
#     4  11  21  35  57  85 115 147 186 232 282 337
#
# _framework density 18.456824999999998
#
# number of rings (size 3 to 8) (size 9 to 14) (size 15 to 20)
#    0.000    1.500    2.500    4.500    0.000    4.500 
#    0.000    2.500    0.000    0.750    0.000    5.250 
#    0.000    0.000    0.000    0.000    0.000    0.000 
#
# Total GULP energy -793898.380629 kJ/mol
# GULP energy per Si atom -12404.662197 kJ/mol
# Density = 1.841482 g / cm^3
# Si number density = 18.456825 Si / 1000 Ang^3
#
#
#
# Elastic Constant Matrix: (Units=GPa)
#
#
# Indices 1 2 3 4 5 6 
#
# 1 98.9699 38.1213 16.8681 0.0000 0.0000 0.0000
# 2 38.1213 79.4738 23.1404 0.0000 0.0000 0.0000
# 3 16.8681 23.1404 69.4753 0.0000 0.0000 0.0000
# 4 0.0000 0.0000 0.0000 14.6580 0.0000 0.0000
# 5 0.0000 0.0000 0.0000 0.0000 35.6039 0.0000
# 6 0.0000 0.0000 0.0000 0.0000 0.0000 21.0973
#
#
#
# Elastic Compliance Matrix: (Units=1/GPa)
#
#
# Indices 1 2 3 4 5 6 
#
# 1 0.012476 -0.005650 -0.001147 0.000000 0.000000 0.000000
# 2 -0.005650 0.016493 -0.004122 0.000000 0.000000 0.000000
# 3 -0.001147 -0.004122 0.016045 0.000000 0.000000 0.000000
# 4 0.000000 0.000000 0.000000 0.068222 0.000000 0.000000
# 5 0.000000 0.000000 0.000000 0.000000 0.028087 0.000000
# 6 0.000000 0.000000 0.000000 0.000000 0.000000 0.047399
#
#
# Mechanical properties :
#
#
# Convention : Reuss Voigt Hill
#
# Bulk Modulus (GPa) = 43.14811 44.90873 44.02842
# Shear Modulus (GPa) = 22.90576 25.59113 24.24844
#
# Velocity S-wave (km/s) = 3.52667 3.72767 3.62856
# Velocity P-wave (km/s) = 6.32549 6.55072 6.43909
#
# Compressibility (1/GPa) = 0.02317599
#
# Stress axis : x y z
#
# Youngs Moduli (GPa) = 80.15379 60.63116 62.32511
#
# Poissons Ratio (x) = 0.34259 0.07149
# Poissons Ratio (y) = 0.45290 0.25688
# Poissons Ratio (z) = 0.09194 0.24990
#
# Static dielectric constant tensor:
#      x y z
#    x 3.558170 0.000000 0.000000 
#    y 0.000000 3.168220 0.000000 
#    z 0.000000 0.000000 3.439500 
# 
# 
# High freq. dielectric constant tensor:
#      x y z
#    x 1.721410 0.000000 0.000000 
#    y 0.000000 1.684090 0.000000 
#    z 0.000000 0.000000 1.727550 
# 
# From -- ./inp_files/8075.got.cif
#   From: 2010.03.12/outbox.cif.g09.slc.cpg/sg55_5_cif.got.tgz:8075.got - 2010.04.16 15:19:21.
