data_PCOD8226067
_publ_section_title
;
Structure prediction by ZEFSAII (Michael W. Deem and Ramdas Pophale) SiO2 
 PCOD8226067
Probable space group: P B A M
;
_chemical_formula_sum "Si O2"
_cell_formula_units_Z 56
_cell_length_a 20.706119
_cell_length_b 13.338814
_cell_length_c 10.287796
_cell_angle_alpha 90.000000
_cell_angle_beta 90.000000
_cell_angle_gamma 90.000000
_cell_volume 2841.438536
_symmetry_space_group_name_H-M "P B A M"
_symmetry_group_IT_number 55
_symmetry_cell_setting 'orthorhombic'
loop_
_space_group_symop_operation_xyz
x,y,z
-x,-y,z
1/2+x,1/2-y,-z
1/2-x,1/2+y,-z
-x,-y,-z
x,y,-z
1/2-x,1/2+y,z
1/2+x,1/2-y,z
loop_
_atom_site_type_symbol
_atom_site_label
_atom_site_fract_x
_atom_site_fract_y
_atom_site_fract_z
Si Si1 0.555075 0.722184 0.647443
Si Si2 0.189325 0.057556 0.766998
Si Si3 0.858954 0.139769 0.139295
Si Si4 0.805946 0.557053 0.348380
Si Si5 0.436885 0.054277 0.346256
Si Si6 0.051038 0.076314 0.645580
Si Si7 0.773413 0.726110 0.854497
O O1 0.582518 0.715840 0.500000
O O2 0.594284 0.644537 0.737349
O O3 0.480182 0.688059 0.650713
O O4 0.562810 0.832386 0.708036
O O5 0.121953 0.083217 0.700409
O O6 0.209983 0.157932 0.838370
O O7 0.176178 0.968314 0.868112
O O8 0.245432 0.018425 0.669492
O O9 0.803945 0.223248 0.156298
O O10 0.894980 0.155246 0.000000
O O11 0.808424 0.589874 0.500000
O O12 0.871317 0.500618 0.305461
O O13 0.803472 0.655819 0.257991
O O14 0.443883 0.060188 0.500000
O O15 0.500000 0.000000 0.286633
O O16 0.059089 0.035860 0.500000
O O17 0.000000 0.000000 0.716232
O O18 0.795858 0.691685 0.000000
#
# Coordination Sequence:
#
# PCOD8226067 Si02
#       7
#     8   8   8   8   8   8   8
#     4  10  20  36  59  84 115 155 194 235 289 355
#     4  11  21  37  60  86 117 156 198 250 291 356
#     4  10  21  38  59  84 114 153 195 239 294 350
#     4  10  22  38  60  91 118 149 200 255 299 350
#     4   9  19  36  59  85 117 153 191 236 294 353
#     4  10  20  34  55  87 122 154 191 239 301 355
#     4  10  23  40  60  86 119 160 200 243 303 361
#
# _framework density 19.708326
#
# number of rings (size 3 to 8) (size 9 to 14) (size 15 to 20)
#    0.000    2.000    1.429    1.714    2.000    4.000 
#    0.000    2.857    0.000    0.857    0.000    0.000 
#    0.000    0.000    0.000    0.000    0.000    0.000 
#
# Total GULP energy -693963.578542 kJ/mol
# GULP energy per Si atom -12392.206760 kJ/mol
# Density = 1.966347 g / cm^3
# Si number density = 19.708326 Si / 1000 Ang^3
#
#
#
# Elastic Constant Matrix: (Units=GPa)
#
#
# Indices 1 2 3 4 5 6 
#
# 1 117.6659 43.1449 46.9403 0.0000 0.0000 0.0000
# 2 43.1449 108.6567 40.3521 0.0000 0.0000 0.0000
# 3 46.9403 40.3521 99.4719 0.0000 0.0000 0.0000
# 4 0.0000 0.0000 0.0000 16.4855 0.0000 0.0000
# 5 0.0000 0.0000 0.0000 0.0000 8.9669 0.0000
# 6 0.0000 0.0000 0.0000 0.0000 0.0000 33.2433
#
#
#
# Elastic Compliance Matrix: (Units=1/GPa)
#
#
# Indices 1 2 3 4 5 6 
#
# 1 0.011208 -0.002927 -0.004102 0.000000 0.000000 0.000000
# 2 -0.002927 0.011600 -0.003324 0.000000 0.000000 0.000000
# 3 -0.004102 -0.003324 0.013337 0.000000 0.000000 0.000000
# 4 0.000000 0.000000 0.000000 0.060659 0.000000 0.000000
# 5 0.000000 0.000000 0.000000 0.000000 0.111521 0.000000
# 6 0.000000 0.000000 0.000000 0.000000 0.000000 0.030081
#
#
# Mechanical properties :
#
#
# Convention : Reuss Voigt Hill
#
# Bulk Modulus (GPa) = 64.77081 65.18544 64.97812
# Shear Modulus (GPa) = 18.92070 24.76295 21.84183
#
# Velocity S-wave (km/s) = 3.10181 3.54852 3.33266
# Velocity P-wave (km/s) = 6.76493 7.06656 6.91739
#
# Compressibility (1/GPa) = 0.01543905
#
# Stress axis : x y z
#
# Youngs Moduli (GPa) = 89.21991 86.20501 74.97812
#
# Poissons Ratio (x) = 0.25235 0.30753
# Poissons Ratio (y) = 0.26117 0.24926
# Poissons Ratio (z) = 0.36595 0.28658
#
# Static dielectric constant tensor:
#      x y z
#    x 3.667430 0.000000 0.000000 
#    y 0.000000 3.732950 0.000000 
#    z 0.000000 0.000000 3.356650 
# 
# 
# High freq. dielectric constant tensor:
#      x y z
#    x 1.767610 0.000000 0.000000 
#    y 0.000000 1.776700 0.000000 
#    z 0.000000 0.000000 1.744270 
# 
# From -- ./inp_files/15342.got.cif
#   From: 2010.03.12/outbox.cif.g09.slc.cpg/sg55_8_cif.got.tgz:15342.got - 2010.04.16 15:19:21.
