data_PCOD8226648
_publ_section_title
;
Structure prediction by ZEFSAII (Michael W. Deem and Ramdas Pophale) SiO2 
 PCOD8226648
Probable space group: P B A M
;
_chemical_formula_sum "Si O2"
_cell_formula_units_Z 48
_cell_length_a 8.929265
_cell_length_b 16.594085
_cell_length_c 16.017498
_cell_angle_alpha 90.000000
_cell_angle_beta 90.000000
_cell_angle_gamma 90.000000
_cell_volume 2373.360449
_symmetry_space_group_name_H-M "P B A M"
_symmetry_group_IT_number 55
_symmetry_cell_setting 'orthorhombic'
loop_
_space_group_symop_operation_xyz
x,y,z
-x,-y,z
1/2+x,1/2-y,-z
1/2-x,1/2+y,-z
-x,-y,-z
x,y,-z
1/2-x,1/2+y,z
1/2+x,1/2-y,z
loop_
_atom_site_type_symbol
_atom_site_label
_atom_site_fract_x
_atom_site_fract_y
_atom_site_fract_z
Si Si1 0.590338 0.876057 0.409869
Si Si2 0.279586 0.946075 0.408041
Si Si3 0.213240 0.860617 0.091857
Si Si4 0.464324 0.750235 0.847086
Si Si5 0.668623 0.517627 0.764591
Si Si6 0.219433 0.658950 0.245468
O O1 0.616749 0.834585 0.500000
O O2 0.412936 0.882542 0.391558
O O3 0.673779 0.821983 0.341026
O O4 0.656533 0.964897 0.411225
O O5 0.203824 0.928120 0.500000
O O6 0.168899 0.940311 0.327828
O O7 0.052288 0.817570 0.101046
O O8 0.347242 0.795773 0.093923
O O9 0.239960 0.924160 0.165886
O O10 0.216115 0.901822 0.000000
O O11 0.583573 0.813436 0.812324
O O12 0.373170 0.705803 0.772837
O O13 0.500000 0.500000 0.790653
O O14 0.765705 0.436688 0.767204
#
# Coordination Sequence:
#
# PCOD8226648 Si02
#       6
#     8   8   8   8   8   8
#     4   8  14  28  52  81 111 149 190 236 284 333
#     4   8  15  28  51  82 116 149 188 233 284 339
#     4  11  23  41  62  87 115 149 192 239 292 356
#     4  10  22  40  61  82 113 157 190 229 292 362
#     4  11  21  36  57  89 117 152 197 248 296 328
#     4  10  20  38  59  84 116 153 194 239 287 348
#
# _framework density 20.224488000000001
#
# number of rings (size 3 to 8) (size 9 to 14) (size 15 to 20)
#    0.000    2.333    1.667    2.500    0.000    2.667 
#    0.000    3.333    0.000    4.000    0.000    0.000 
#    0.000    0.000    0.000    0.000    0.000    0.000 
#
# Total GULP energy -594888.821537 kJ/mol
# GULP energy per Si atom -12393.517115 kJ/mol
# Density = 2.017846 g / cm^3
# Si number density = 20.224488 Si / 1000 Ang^3
#
#
#
# Elastic Constant Matrix: (Units=GPa)
#
#
# Indices 1 2 3 4 5 6 
#
# 1 76.6675 21.0728 27.9403 0.0000 0.0000 0.0000
# 2 21.0728 57.1322 42.8784 0.0000 0.0000 0.0000
# 3 27.9403 42.8784 150.1515 0.0000 0.0000 0.0000
# 4 0.0000 0.0000 0.0000 23.0893 0.0000 0.0000
# 5 0.0000 0.0000 0.0000 0.0000 19.0676 0.0000
# 6 0.0000 0.0000 0.0000 0.0000 0.0000 28.9721
#
#
#
# Elastic Compliance Matrix: (Units=1/GPa)
#
#
# Indices 1 2 3 4 5 6 
#
# 1 0.014782 -0.004312 -0.001519 0.000000 0.000000 0.000000
# 2 -0.004312 0.023536 -0.005919 0.000000 0.000000 0.000000
# 3 -0.001519 -0.005919 0.008633 0.000000 0.000000 0.000000
# 4 0.000000 0.000000 0.000000 0.043310 0.000000 0.000000
# 5 0.000000 0.000000 0.000000 0.000000 0.052445 0.000000
# 6 0.000000 0.000000 0.000000 0.000000 0.000000 0.034516
#
#
# Mechanical properties :
#
#
# Convention : Reuss Voigt Hill
#
# Bulk Modulus (GPa) = 42.64252 51.97048 47.30650
# Shear Modulus (GPa) = 23.97635 27.02978 25.50306
#
# Velocity S-wave (km/s) = 3.44686 3.65977 3.55491
# Velocity P-wave (km/s) = 6.08042 6.60387 6.34754
#
# Compressibility (1/GPa) = 0.02345077
#
# Stress axis : x y z
#
# Youngs Moduli (GPa) = 67.64875 42.48856 115.83683
#
# Poissons Ratio (x) = 0.18321 0.17599
# Poissons Ratio (y) = 0.29171 0.68560
# Poissons Ratio (z) = 0.10278 0.25148
#
# Static dielectric constant tensor:
#      x y z
#    x 3.636140 0.000000 0.000000 
#    y 0.000000 3.397510 0.000000 
#    z 0.000000 0.000000 3.990320 
# 
# 
# High freq. dielectric constant tensor:
#      x y z
#    x 1.782980 0.000000 0.000000 
#    y 0.000000 1.759520 0.000000 
#    z 0.000000 0.000000 1.796170 
# 
# From -- ./inp_files/17356.got.cif
#   From: 2010.03.12/outbox.cif.g09.slc.cpg/sg55_9_cif.got.tgz:17356.got - 2010.04.16 15:19:21.
