data_PCOD8226313
_publ_section_title
;
Structure prediction by ZEFSAII (Michael W. Deem and Ramdas Pophale) SiO2 
 PCOD8226313
Probable space group: P B A M
;
_chemical_formula_sum "Si O2"
_cell_formula_units_Z 64
_cell_length_a 28.495187
_cell_length_b 14.203412
_cell_length_c 8.609376
_cell_angle_alpha 90.000000
_cell_angle_beta 90.000000
_cell_angle_gamma 90.000000
_cell_volume 3484.463114
_symmetry_space_group_name_H-M "P B A M"
_symmetry_group_IT_number 55
_symmetry_cell_setting 'orthorhombic'
loop_
_space_group_symop_operation_xyz
x,y,z
-x,-y,z
1/2+x,1/2-y,-z
1/2-x,1/2+y,-z
-x,-y,-z
x,y,-z
1/2-x,1/2+y,z
1/2+x,1/2-y,z
loop_
_atom_site_type_symbol
_atom_site_label
_atom_site_fract_x
_atom_site_fract_y
_atom_site_fract_z
Si Si1 0.698217 0.994210 0.315074
Si Si2 0.947093 0.492086 0.317685
Si Si3 0.879273 0.855385 0.685023
Si Si4 0.626153 0.145514 0.681978
Si Si5 0.622853 0.651371 0.682659
Si Si6 0.802612 0.000785 0.317016
Si Si7 0.554497 0.503964 0.818469
Si Si8 0.626308 0.855642 0.181133
O O1 0.699056 0.994700 0.500000
O O2 0.669912 0.085339 0.250958
O O3 0.750586 0.997652 0.242808
O O4 0.671911 0.899325 0.264123
O O5 0.945382 0.470000 0.500000
O O6 0.921874 0.590861 0.278979
O O7 0.921538 0.406426 0.232588
O O8 0.000000 0.500000 0.255651
O O9 0.886727 0.858497 0.500000
O O10 0.875768 0.749811 0.753932
O O11 0.831494 0.908512 0.734626
O O12 0.923453 0.904950 0.765375
O O13 0.633291 0.156555 0.500000
O O14 0.622847 0.672654 0.500000
O O15 0.669446 0.594198 0.735042
O O16 0.577193 0.589986 0.723607
O O17 0.622099 0.746902 0.777530
O O18 0.797290 0.001415 0.500000
O O19 0.500000 0.500000 0.776916
O O20 0.563362 0.520386 0.000000
O O21 0.633131 0.868409 0.000000
#
# Coordination Sequence:
#
# PCOD8226313 Si02
#       8
#     8   8   8   8   8   8   8   8
#     4   9  17  33  54  75 101 134 173 216 258 300
#     4   9  18  34  54  75  99 132 177 222 260 302
#     4   9  17  31  50  74 101 130 169 213 256 302
#     4   8  15  28  48  72  97 125 160 207 253 293
#     4  10  20  36  57  79 102 134 178 222 262 304
#     4   8  16  30  52  78  99 125 168 219 260 297
#     4  10  21  36  52  74 105 137 168 207 258 312
#     4  11  22  35  51  76 110 143 173 209 259 316
#
# _framework density 18.367249000000001
#
# number of rings (size 3 to 8) (size 9 to 14) (size 15 to 20)
#    0.000    2.750    0.000    3.375    0.000    3.250 
#    0.000   10.625    0.000    0.000    0.000    0.000 
#    0.000    0.000    0.000    0.000    0.000    0.000 
#
# Total GULP energy -793501.041677 kJ/mol
# GULP energy per Si atom -12398.453776 kJ/mol
# Density = 1.832544 g / cm^3
# Si number density = 18.367249 Si / 1000 Ang^3
#
#
#
# Elastic Constant Matrix: (Units=GPa)
#
#
# Indices 1 2 3 4 5 6 
#
# 1 160.8688 61.2334 23.6879 0.0000 0.0000 0.0000
# 2 61.2334 139.6034 11.0362 0.0000 0.0000 0.0000
# 3 23.6879 11.0362 30.0798 0.0000 0.0000 0.0000
# 4 0.0000 0.0000 0.0000 14.2297 0.0000 0.0000
# 5 0.0000 0.0000 0.0000 0.0000 10.3597 0.0000
# 6 0.0000 0.0000 0.0000 0.0000 0.0000 13.1466
#
#
#
# Elastic Compliance Matrix: (Units=1/GPa)
#
#
# Indices 1 2 3 4 5 6 
#
# 1 0.008207 -0.003181 -0.005296 0.000000 0.000000 0.000000
# 2 -0.003181 0.008610 -0.000654 0.000000 0.000000 0.000000
# 3 -0.005296 -0.000654 0.037655 0.000000 0.000000 0.000000
# 4 0.000000 0.000000 0.000000 0.070276 0.000000 0.000000
# 5 0.000000 0.000000 0.000000 0.000000 0.096527 0.000000
# 6 0.000000 0.000000 0.000000 0.000000 0.000000 0.076066
#
#
# Mechanical properties :
#
#
# Convention : Reuss Voigt Hill
#
# Bulk Modulus (GPa) = 27.61620 58.05191 42.83405
# Shear Modulus (GPa) = 15.25912 23.18683 19.22297
#
# Velocity S-wave (km/s) = 2.88545 3.55688 3.23861
# Velocity P-wave (km/s) = 5.11559 6.96731 6.11198
#
# Compressibility (1/GPa) = 0.03621063
#
# Stress axis : x y z
#
# Youngs Moduli (GPa) = 121.84854 116.14200 26.55674
#
# Poissons Ratio (x) = 0.36946 0.14064
# Poissons Ratio (y) = 0.38761 0.01737
# Poissons Ratio (z) = 0.64529 0.07595
#
# Static dielectric constant tensor:
#      x y z
#    x 3.728020 0.000000 0.000000 
#    y 0.000000 3.522350 0.000000 
#    z 0.000000 0.000000 3.091550 
# 
# 
# High freq. dielectric constant tensor:
#      x y z
#    x 1.716580 0.000000 0.000000 
#    y 0.000000 1.716100 0.000000 
#    z 0.000000 0.000000 1.685220 
# 
# From -- ./inp_files/10922.got.cif
#   From: 2010.03.12/outbox.cif.g09.slc.cpg/sg55_6_cif.got.tgz:10922.got - 2010.04.16 15:19:21.
