data_PCOD8226494
_publ_section_title
;
Structure prediction by ZEFSAII (Michael W. Deem and Ramdas Pophale) SiO2 
 PCOD8226494
Probable space group: P B A M
;
_chemical_formula_sum "Si O2"
_cell_formula_units_Z 64
_cell_length_a 24.349327
_cell_length_b 10.578726
_cell_length_c 12.398939
_cell_angle_alpha 90.000000
_cell_angle_beta 90.000000
_cell_angle_gamma 90.000000
_cell_volume 3193.778949
_symmetry_space_group_name_H-M "P B A M"
_symmetry_group_IT_number 55
_symmetry_cell_setting 'orthorhombic'
loop_
_space_group_symop_operation_xyz
x,y,z
-x,-y,z
1/2+x,1/2-y,-z
1/2-x,1/2+y,-z
-x,-y,-z
x,y,-z
1/2-x,1/2+y,z
1/2+x,1/2-y,z
loop_
_atom_site_type_symbol
_atom_site_label
_atom_site_fract_x
_atom_site_fract_y
_atom_site_fract_z
Si Si1 0.552180 0.587700 0.124277
Si Si2 0.926847 0.264360 0.309754
Si Si3 0.216636 0.193793 0.874959
Si Si4 0.045721 0.281300 0.619601
Si Si5 0.258803 0.941026 0.761941
Si Si6 0.886185 0.879408 0.235009
Si Si7 0.158620 0.932956 0.620419
Si Si8 0.634316 0.002678 0.625780
O O1 0.500000 0.500000 0.148931
O O2 0.554557 0.719105 0.190235
O O3 0.603108 0.501503 0.160156
O O4 0.555977 0.626527 0.000000
O O5 0.897141 0.148504 0.369783
O O6 0.883385 0.377904 0.308698
O O7 0.980993 0.311032 0.373201
O O8 0.239282 0.334517 0.854682
O O9 0.153194 0.207203 0.837120
O O10 0.247466 0.080230 0.811139
O O11 0.221484 0.161725 0.000000
O O12 0.056570 0.222827 0.500000
O O13 0.059580 0.189376 0.720181
O O14 0.082856 0.404153 0.633915
O O15 0.209154 0.884816 0.691308
O O16 0.312702 0.942067 0.686344
O O17 0.854665 0.923962 0.343002
O O18 0.180106 0.935157 0.500000
O O19 0.648178 0.972623 0.500000
#
# Coordination Sequence:
#
# PCOD8226494 Si02
#       8
#     8   8   8   8   8   8   8   8
#     4  10  20  37  61  85 116 161 205 255 312 361
#     4  11  22  38  61  92 129 163 210 262 312 380
#     4  11  23  41  64  89 120 160 209 267 323 374
#     4  11  21  36  60  89 125 166 204 248 309 379
#     4  11  23  42  64  93 124 163 216 266 319 388
#     4  10  20  37  57  89 117 154 201 250 300 378
#     4  10  21  36  58  89 124 158 198 255 317 371
#     4  11  23  40  62  90 127 172 209 253 317 383
#
# _framework density 20.038957
#
# number of rings (size 3 to 8) (size 9 to 14) (size 15 to 20)
#    0.000    1.375    2.500    3.750    0.000    1.000 
#    0.000    8.750    0.000    0.750    0.000    0.000 
#    0.000    0.000    0.000    0.000    0.000    0.000 
#
# Total GULP energy -793194.492107 kJ/mol
# GULP energy per Si atom -12393.663939 kJ/mol
# Density = 1.999335 g / cm^3
# Si number density = 20.038957 Si / 1000 Ang^3
#
#
#
# Elastic Constant Matrix: (Units=GPa)
#
#
# Indices 1 2 3 4 5 6 
#
# 1 96.1596 24.4676 38.9449 0.0000 0.0000 0.0000
# 2 24.4676 80.2598 43.5804 0.0000 0.0000 0.0000
# 3 38.9449 43.5804 126.4687 0.0000 0.0000 0.0000
# 4 0.0000 0.0000 0.0000 28.5890 0.0000 0.0000
# 5 0.0000 0.0000 0.0000 0.0000 22.1510 0.0000
# 6 0.0000 0.0000 0.0000 0.0000 0.0000 34.8640
#
#
#
# Elastic Compliance Matrix: (Units=1/GPa)
#
#
# Indices 1 2 3 4 5 6 
#
# 1 0.012151 -0.002058 -0.003033 0.000000 0.000000 0.000000
# 2 -0.002058 0.015676 -0.004768 0.000000 0.000000 0.000000
# 3 -0.003033 -0.004768 0.010484 0.000000 0.000000 0.000000
# 4 0.000000 0.000000 0.000000 0.034979 0.000000 0.000000
# 5 0.000000 0.000000 0.000000 0.000000 0.045145 0.000000
# 6 0.000000 0.000000 0.000000 0.000000 0.000000 0.028683
#
#
# Mechanical properties :
#
#
# Convention : Reuss Voigt Hill
#
# Bulk Modulus (GPa) = 53.78072 57.43044 55.60558
# Shear Modulus (GPa) = 28.89628 30.18047 29.53837
#
# Velocity S-wave (km/s) = 3.80149 3.88505 3.84350
# Velocity P-wave (km/s) = 6.79447 6.98902 6.89243
#
# Compressibility (1/GPa) = 0.01859402
#
# Stress axis : x y z
#
# Youngs Moduli (GPa) = 82.29626 63.79218 95.38224
#
# Poissons Ratio (x) = 0.13126 0.28928
# Poissons Ratio (y) = 0.16933 0.45480
# Poissons Ratio (z) = 0.24959 0.30418
#
# Static dielectric constant tensor:
#      x y z
#    x 3.721490 0.000000 0.000000 
#    y 0.000000 3.469100 0.000000 
#    z 0.000000 0.000000 3.608510 
# 
# 
# High freq. dielectric constant tensor:
#      x y z
#    x 1.792650 0.000000 0.000000 
#    y 0.000000 1.771600 0.000000 
#    z 0.000000 0.000000 1.779280 
# 
# From -- ./inp_files/15781.got.cif
#   From: 2010.03.12/outbox.cif.g09.slc.cpg/sg55_8_cif.got.tgz:15781.got - 2010.04.16 15:19:21.
