data_PCOD8226023
_publ_section_title
;
Structure prediction by ZEFSAII (Michael W. Deem and Ramdas Pophale) SiO2 
 PCOD8226023
Probable space group: P B A M
;
_chemical_formula_sum "Si O2"
_cell_formula_units_Z 64
_cell_length_a 12.830523
_cell_length_b 26.996560
_cell_length_c 9.412944
_cell_angle_alpha 90.000000
_cell_angle_beta 90.000000
_cell_angle_gamma 90.000000
_cell_volume 3260.455392
_symmetry_space_group_name_H-M "P B A M"
_symmetry_group_IT_number 55
_symmetry_cell_setting 'orthorhombic'
loop_
_space_group_symop_operation_xyz
x,y,z
-x,-y,z
1/2+x,1/2-y,-z
1/2-x,1/2+y,-z
-x,-y,-z
x,y,-z
1/2-x,1/2+y,z
1/2+x,1/2-y,z
loop_
_atom_site_type_symbol
_atom_site_label
_atom_site_fract_x
_atom_site_fract_y
_atom_site_fract_z
Si Si1 0.962450 0.552294 0.331489
Si Si2 0.931376 0.767412 0.834525
Si Si3 0.641661 0.874000 0.332102
Si Si4 0.301503 0.802685 0.656718
Si Si5 0.261408 0.410575 0.667782
Si Si6 0.393187 0.237194 0.656329
Si Si7 0.036652 0.944686 0.834262
Si Si8 0.153411 0.125456 0.834215
O O1 0.962795 0.551061 0.500000
O O2 0.845269 0.563421 0.279093
O O3 0.000000 0.500000 0.267744
O O4 0.043992 0.593614 0.278978
O O5 0.887548 0.716692 0.766000
O O6 0.866514 0.816713 0.800475
O O7 0.045221 0.772537 0.765236
O O8 0.942557 0.758680 0.000000
O O9 0.661568 0.878696 0.500000
O O10 0.614707 0.818436 0.285392
O O11 0.746357 0.892504 0.253758
O O12 0.351557 0.812878 0.500000
O O13 0.247393 0.852846 0.710654
O O14 0.221477 0.758224 0.644970
O O15 0.279316 0.417416 0.500000
O O16 0.358415 0.434383 0.748049
O O17 0.446441 0.238260 0.500000
O O18 0.946325 0.906671 0.785964
O O19 0.061781 0.937901 0.000000
O O20 0.000000 0.000000 0.799088
O O21 0.175888 0.116957 0.000000
#
# Coordination Sequence:
#
# PCOD8226023 Si02
#       8
#     8   8   8   8   8   8   8   8
#     4   9  19  35  56  84 116 146 180 235 298 341
#     4  11  22  34  54  83 116 154 192 234 282 338
#     4  10  20  36  60  87 114 151 194 236 286 348
#     4  10  20  36  56  81 114 150 187 233 286 338
#     4  10  21  38  61  88 116 148 194 247 291 344
#     4  10  20  34  54  80 112 150 190 232 279 336
#     4  10  23  42  62  84 117 160 198 241 300 354
#     4  10  22  39  57  84 121 155 192 242 291 342
#
# _framework density 19.629159999999999
#
# number of rings (size 3 to 8) (size 9 to 14) (size 15 to 20)
#    0.000    2.000    1.250    1.875    1.750    4.750 
#    0.000    0.625    0.000    0.750    0.000    0.000 
#    0.000    0.000    0.000    0.000    0.000    0.000 
#
# Total GULP energy -793572.797992 kJ/mol
# GULP energy per Si atom -12399.574969 kJ/mol
# Density = 1.958448 g / cm^3
# Si number density = 19.629160 Si / 1000 Ang^3
#
#
#
# Elastic Constant Matrix: (Units=GPa)
#
#
# Indices 1 2 3 4 5 6 
#
# 1 139.6815 46.6014 53.4683 0.0000 0.0000 0.0000
# 2 46.6014 110.2316 33.9253 0.0000 0.0000 0.0000
# 3 53.4683 33.9253 64.2531 0.0000 0.0000 0.0000
# 4 0.0000 0.0000 0.0000 19.0134 0.0000 0.0000
# 5 0.0000 0.0000 0.0000 0.0000 25.4635 0.0000
# 6 0.0000 0.0000 0.0000 0.0000 0.0000 34.9067
#
#
#
# Elastic Compliance Matrix: (Units=1/GPa)
#
#
# Indices 1 2 3 4 5 6 
#
# 1 0.010925 -0.002174 -0.007944 0.000000 0.000000 0.000000
# 2 -0.002174 0.011265 -0.004139 0.000000 0.000000 0.000000
# 3 -0.007944 -0.004139 0.024359 0.000000 0.000000 0.000000
# 4 0.000000 0.000000 0.000000 0.052594 0.000000 0.000000
# 5 0.000000 0.000000 0.000000 0.000000 0.039272 0.000000
# 6 0.000000 0.000000 0.000000 0.000000 0.000000 0.028648
#
#
# Mechanical properties :
#
#
# Convention : Reuss Voigt Hill
#
# Bulk Modulus (GPa) = 55.44342 64.68402 60.06372
# Shear Modulus (GPa) = 24.80321 27.88813 26.34567
#
# Velocity S-wave (km/s) = 3.55856 3.77337 3.66754
# Velocity P-wave (km/s) = 6.72244 7.21173 6.97138
#
# Compressibility (1/GPa) = 0.01803641
#
# Stress axis : x y z
#
# Youngs Moduli (GPa) = 91.53223 88.77393 41.05291
#
# Poissons Ratio (x) = 0.19299 0.32610
# Poissons Ratio (y) = 0.19899 0.16990
# Poissons Ratio (z) = 0.72709 0.36740
#
# Static dielectric constant tensor:
#      x y z
#    x 3.586480 0.000000 0.000000 
#    y 0.000000 3.676020 0.000000 
#    z 0.000000 0.000000 3.375840 
# 
# 
# High freq. dielectric constant tensor:
#      x y z
#    x 1.774180 0.000000 0.000000 
#    y 0.000000 1.771080 0.000000 
#    z 0.000000 0.000000 1.739540 
# 
# From -- ./inp_files/4504.got.cif
#   From: 2010.03.12/outbox.cif.g09.slc.cpg/sg55_3_cif.got.tgz:4504.got - 2010.04.16 15:19:21.
