data_PCOD8226749
_publ_section_title
;
Structure prediction by ZEFSAII (Michael W. Deem and Ramdas Pophale) SiO2 
 PCOD8226749
Probable space group: P B A M
;
_chemical_formula_sum "Si O2"
_cell_formula_units_Z 64
_cell_length_a 18.818428
_cell_length_b 14.776345
_cell_length_c 11.311015
_cell_angle_alpha 90.000000
_cell_angle_beta 90.000000
_cell_angle_gamma 90.000000
_cell_volume 3145.226619
_symmetry_space_group_name_H-M "P B A M"
_symmetry_group_IT_number 55
_symmetry_cell_setting 'orthorhombic'
loop_
_space_group_symop_operation_xyz
x,y,z
-x,-y,z
1/2+x,1/2-y,-z
1/2-x,1/2+y,-z
-x,-y,-z
x,y,-z
1/2-x,1/2+y,z
1/2+x,1/2-y,z
loop_
_atom_site_type_symbol
_atom_site_label
_atom_site_fract_x
_atom_site_fract_y
_atom_site_fract_z
Si Si1 0.566837 0.942450 0.862060
Si Si2 0.972283 0.091326 0.867860
Si Si3 0.360145 0.800150 0.361107
Si Si4 0.772438 0.872898 0.369812
Si Si5 0.206387 0.469224 0.758388
Si Si6 0.011349 0.727691 0.259748
Si Si7 0.315922 0.357501 0.129796
Si Si8 0.348179 0.255931 0.371317
O O1 0.549932 0.837912 0.834643
O O2 0.500000 0.000000 0.815235
O O3 0.638249 0.974654 0.798871
O O4 0.578165 0.955654 0.000000
O O5 0.003866 0.176457 0.799508
O O6 0.887492 0.084620 0.867887
O O7 0.003419 0.097137 0.000000
O O8 0.000000 0.000000 0.804793
O O9 0.368449 0.792308 0.500000
O O10 0.321011 0.708316 0.314146
O O11 0.315603 0.890279 0.332986
O O12 0.437244 0.812173 0.303192
O O13 0.802160 0.897057 0.500000
O O14 0.691012 0.839825 0.379014
O O15 0.767608 0.965027 0.295086
O O16 0.246461 0.421404 0.867918
O O17 0.067043 0.741143 0.366499
O O18 0.317409 0.299790 0.250786
O O19 0.312640 0.305722 0.000000
O O20 0.332933 0.306144 0.500000
#
# Coordination Sequence:
#
# PCOD8226749 Si02
#       8
#     8   8   8   8   8   8   8   8
#     4  11  23  39  58  89 129 167 210 262 321 385
#     4   9  20  39  63  90 122 163 211 262 314 376
#     4  11  24  41  62  92 127 163 211 268 318 380
#     4  10  22  39  60  90 125 164 208 260 318 381
#     4  12  22  40  65  91 125 170 208 262 318 387
#     4  11  21  39  63  91 125 166 209 264 323 380
#     4  10  22  39  62  91 125 162 211 263 311 370
#     4  10  20  39  64  89 124 166 209 256 316 380
#
# _framework density 20.348295
#
# number of rings (size 3 to 8) (size 9 to 14) (size 15 to 20)
#    0.000    1.500    3.750    1.500    1.750    1.000 
#    0.000    0.625    0.000    1.875    0.000    0.000 
#    0.000    0.000    0.000    0.000    0.000    0.000 
#
# Total GULP energy -792839.922897 kJ/mol
# GULP energy per Si atom -12388.123795 kJ/mol
# Density = 2.030198 g / cm^3
# Si number density = 20.348295 Si / 1000 Ang^3
#
#
#
# Elastic Constant Matrix: (Units=GPa)
#
#
# Indices 1 2 3 4 5 6 
#
# 1 75.0613 19.9007 21.5500 0.0000 0.0000 0.0000
# 2 19.9007 93.5070 32.5106 0.0000 0.0000 0.0000
# 3 21.5500 32.5106 104.9293 0.0000 0.0000 0.0000
# 4 0.0000 0.0000 0.0000 28.3778 0.0000 0.0000
# 5 0.0000 0.0000 0.0000 0.0000 22.5255 0.0000
# 6 0.0000 0.0000 0.0000 0.0000 0.0000 31.8949
#
#
#
# Elastic Compliance Matrix: (Units=1/GPa)
#
#
# Indices 1 2 3 4 5 6 
#
# 1 0.014590 -0.002312 -0.002280 0.000000 0.000000 0.000000
# 2 -0.002312 0.012352 -0.003352 0.000000 0.000000 0.000000
# 3 -0.002280 -0.003352 0.011037 0.000000 0.000000 0.000000
# 4 0.000000 0.000000 0.000000 0.035239 0.000000 0.000000
# 5 0.000000 0.000000 0.000000 0.000000 0.044394 0.000000
# 6 0.000000 0.000000 0.000000 0.000000 0.000000 0.031353
#
#
# Mechanical properties :
#
#
# Convention : Reuss Voigt Hill
#
# Bulk Modulus (GPa) = 45.26925 46.82448 46.04686
# Shear Modulus (GPa) = 29.03304 29.86206 29.44755
#
# Velocity S-wave (km/s) = 3.78140 3.83501 3.80830
# Velocity P-wave (km/s) = 6.43124 6.53232 6.48198
#
# Compressibility (1/GPa) = 0.02209005
#
# Stress axis : x y z
#
# Youngs Moduli (GPa) = 68.53959 80.95847 90.60359
#
# Poissons Ratio (x) = 0.18721 0.20658
# Poissons Ratio (y) = 0.15849 0.30372
# Poissons Ratio (z) = 0.15627 0.27138
#
# Static dielectric constant tensor:
#      x y z
#    x 3.859950 0.000000 0.000000 
#    y 0.000000 3.646690 0.000000 
#    z 0.000000 0.000000 3.816430 
# 
# 
# High freq. dielectric constant tensor:
#      x y z
#    x 1.801600 0.000000 0.000000 
#    y 0.000000 1.784210 0.000000 
#    z 0.000000 0.000000 1.790690 
# 
# From -- ./inp_files/14993.got.cif
#   From: 2010.03.12/outbox.cif.g09.slc.cpg/sg55_8_cif.got.tgz:14993.got - 2010.04.16 15:19:21.
