data_PCOD8226908
_publ_section_title
;
Structure prediction by ZEFSAII (Michael W. Deem and Ramdas Pophale) SiO2 
 PCOD8226908
Probable space group: P B A M
;
_chemical_formula_sum "Si O2"
_cell_formula_units_Z 64
_cell_length_a 11.950580
_cell_length_b 29.154755
_cell_length_c 9.108853
_cell_angle_alpha 90.000000
_cell_angle_beta 90.000000
_cell_angle_gamma 90.000000
_cell_volume 3173.672240
_symmetry_space_group_name_H-M "P B A M"
_symmetry_group_IT_number 55
_symmetry_cell_setting 'orthorhombic'
loop_
_space_group_symop_operation_xyz
x,y,z
-x,-y,z
1/2+x,1/2-y,-z
1/2-x,1/2+y,-z
-x,-y,-z
x,y,-z
1/2-x,1/2+y,z
1/2+x,1/2-y,z
loop_
_atom_site_type_symbol
_atom_site_label
_atom_site_fract_x
_atom_site_fract_y
_atom_site_fract_z
Si Si1 0.515278 0.934650 0.836623
Si Si2 0.257535 0.525877 0.830612
Si Si3 0.172232 0.113786 0.668266
Si Si4 0.703787 0.060417 0.672052
Si Si5 0.255056 0.836021 0.326995
Si Si6 0.133119 0.658361 0.165597
Si Si7 0.941923 0.724372 0.828100
Si Si8 0.005836 0.812443 0.668122
O O1 0.626818 0.963523 0.808332
O O2 0.424733 0.948655 0.716243
O O3 0.540475 0.881116 0.821554
O O4 0.467970 0.945413 0.000000
O O5 0.329922 0.566646 0.759000
O O6 0.282518 0.477266 0.752331
O O7 0.291902 0.523053 0.000000
O O8 0.199028 0.101955 0.500000
O O9 0.265844 0.149826 0.723316
O O10 0.052474 0.138015 0.686591
O O11 0.718654 0.053705 0.500000
O O12 0.738618 0.111100 0.724507
O O13 0.276413 0.832829 0.500000
O O14 0.346584 0.805545 0.247121
O O15 0.133755 0.817186 0.281630
O O16 0.066175 0.704557 0.205642
O O17 0.182077 0.659767 0.000000
O O18 0.940401 0.775822 0.767214
O O19 0.916306 0.724905 0.000000
O O20 0.997931 0.795947 0.500000
#
# Coordination Sequence:
#
# PCOD8226908 Si02
#       8
#     8   8   8   8   8   8   8   8
#     4   9  17  32  51  76 115 157 188 227 291 352
#     4  10  21  36  56  82 118 160 196 240 300 360
#     4  10  21  38  61  86 114 153 202 250 292 346
#     4  11  21  33  55  86 116 152 199 248 294 349
#     4  10  23  43  63  87 122 160 200 247 300 357
#     4   9  19  35  55  83 120 155 186 233 295 353
#     4  11  23  39  62  91 120 153 196 244 299 360
#     4  10  24  44  63  85 118 159 201 248 301 354
#
# _framework density 20.165913
#
# number of rings (size 3 to 8) (size 9 to 14) (size 15 to 20)
#    0.000    2.000    1.250    2.625    1.750    7.000 
#    0.000    0.625    0.000    3.750    0.000    0.000 
#    0.000    0.000    0.000    0.000    0.000    0.000 
#
# Total GULP energy -793695.726633 kJ/mol
# GULP energy per Si atom -12401.495729 kJ/mol
# Density = 2.012001 g / cm^3
# Si number density = 20.165913 Si / 1000 Ang^3
#
#
#
# Elastic Constant Matrix: (Units=GPa)
#
#
# Indices 1 2 3 4 5 6 
#
# 1 53.3609 28.8766 33.4948 0.0000 0.0000 0.0000
# 2 28.8766 122.2871 53.3732 0.0000 0.0000 0.0000
# 3 33.4948 53.3732 93.6085 0.0000 0.0000 0.0000
# 4 0.0000 0.0000 0.0000 31.1102 0.0000 0.0000
# 5 0.0000 0.0000 0.0000 0.0000 11.1523 0.0000
# 6 0.0000 0.0000 0.0000 0.0000 0.0000 13.6123
#
#
#
# Elastic Compliance Matrix: (Units=1/GPa)
#
#
# Indices 1 2 3 4 5 6 
#
# 1 0.024792 -0.002639 -0.007366 0.000000 0.000000 0.000000
# 2 -0.002639 0.011168 -0.005423 0.000000 0.000000 0.000000
# 3 -0.007366 -0.005423 0.016411 0.000000 0.000000 0.000000
# 4 0.000000 0.000000 0.000000 0.032144 0.000000 0.000000
# 5 0.000000 0.000000 0.000000 0.000000 0.089668 0.000000
# 6 0.000000 0.000000 0.000000 0.000000 0.000000 0.073463
#
#
# Mechanical properties :
#
#
# Convention : Reuss Voigt Hill
#
# Bulk Modulus (GPa) = 46.48283 55.63841 51.06062
# Shear Modulus (GPa) = 17.50246 21.40908 19.45577
#
# Velocity S-wave (km/s) = 2.94925 3.26183 3.10947
# Velocity P-wave (km/s) = 5.89047 6.46809 6.18603
#
# Compressibility (1/GPa) = 0.02151332
#
# Stress axis : x y z
#
# Youngs Moduli (GPa) = 40.33481 89.54388 60.93575
#
# Poissons Ratio (x) = 0.23634 0.44887
# Poissons Ratio (y) = 0.10646 0.33046
# Poissons Ratio (z) = 0.29712 0.48561
#
# Static dielectric constant tensor:
#      x y z
#    x 3.375690 0.000000 0.000000 
#    y 0.000000 3.827090 0.000000 
#    z 0.000000 0.000000 3.651630 
# 
# 
# High freq. dielectric constant tensor:
#      x y z
#    x 1.762570 0.000000 0.000000 
#    y 0.000000 1.800030 0.000000 
#    z 0.000000 0.000000 1.788130 
# 
# From -- ./inp_files/4683.got.cif
#   From: 2010.03.12/outbox.cif.g09.slc.cpg/sg55_3_cif.got.tgz:4683.got - 2010.04.16 15:19:21.
