data_PCOD8226837
_publ_section_title
;
Structure prediction by ZEFSAII (Michael W. Deem and Ramdas Pophale) SiO2 
 PCOD8226837
Probable space group: P B A M
;
_chemical_formula_sum "Si O2"
_cell_formula_units_Z 36
_cell_length_a 27.595404
_cell_length_b 5.071856
_cell_length_c 11.614192
_cell_angle_alpha 90.000000
_cell_angle_beta 90.000000
_cell_angle_gamma 90.000000
_cell_volume 1625.521329
_symmetry_space_group_name_H-M "P B A M"
_symmetry_group_IT_number 55
_symmetry_cell_setting 'orthorhombic'
loop_
_space_group_symop_operation_xyz
x,y,z
-x,-y,z
1/2+x,1/2-y,-z
1/2-x,1/2+y,-z
-x,-y,-z
x,y,-z
1/2-x,1/2+y,z
1/2+x,1/2-y,z
loop_
_atom_site_type_symbol
_atom_site_label
_atom_site_fract_x
_atom_site_fract_y
_atom_site_fract_z
Si Si1 0.281257 0.349568 0.867873
Si Si2 0.052645 0.968086 0.757719
Si Si3 0.650027 0.348735 0.713816
Si Si4 0.588292 0.049109 0.130982
Si Si5 0.783045 0.792908 0.500000
O O1 0.260992 0.061077 0.839319
O O2 0.326484 0.411909 0.786253
O O3 0.298115 0.376461 0.000000
O O4 0.057488 0.679449 0.809940
O O5 0.943981 0.816114 0.861391
O O6 0.097568 0.035033 0.670057
O O7 0.000000 0.000000 0.696544
O O8 0.639156 0.101657 0.800022
O O9 0.683406 0.250834 0.610642
O O10 0.601230 0.978475 0.000000
O O11 0.739797 0.583195 0.500000
#
# Coordination Sequence:
#
# PCOD8226837 Si02
#       5
#     8   8   8   8   4
#     4  10  21  35  55  83 118 155 194 246 313 379
#     4  10  23  39  62  94 135 172 212 256 313 378
#     4  10  25  41  64  91 126 162 214 266 316 381
#     4  10  22  37  62  93 132 169 206 254 312 374
#     4  12  28  46  73  95 121 165 218 272 332 378
#
# _framework density 22.146740000000001
#
# number of rings (size 3 to 8) (size 9 to 14) (size 15 to 20)
#    1.333    0.444    0.000    3.333    6.222    2.667 
#    0.000    0.556    0.000    1.333    0.000    0.000 
#    0.000    0.000    0.000    0.000    0.000    0.000 
#
# Total GULP energy -446073.956239 kJ/mol
# GULP energy per Si atom -12390.943229 kJ/mol
# Density = 2.209633 g / cm^3
# Si number density = 22.146740 Si / 1000 Ang^3
#
#
#
# Elastic Constant Matrix: (Units=GPa)
#
#
# Indices 1 2 3 4 5 6 
#
# 1 135.1250 -8.1195 27.6201 0.0000 0.0000 0.0000
# 2 -8.1195 69.2075 -14.6006 0.0000 0.0000 0.0000
# 3 27.6201 -14.6006 57.4448 0.0000 0.0000 0.0000
# 4 0.0000 0.0000 0.0000 3.1920 0.0000 0.0000
# 5 0.0000 0.0000 0.0000 0.0000 23.4853 0.0000
# 6 0.0000 0.0000 0.0000 0.0000 0.0000 28.3335
#
#
#
# Elastic Compliance Matrix: (Units=1/GPa)
#
#
# Indices 1 2 3 4 5 6 
#
# 1 0.008208 0.000138 -0.003912 0.000000 0.000000 0.000000
# 2 0.000138 0.015270 0.003815 0.000000 0.000000 0.000000
# 3 -0.003912 0.003815 0.020258 0.000000 0.000000 0.000000
# 4 0.000000 0.000000 0.000000 0.313280 0.000000 0.000000
# 5 0.000000 0.000000 0.000000 0.000000 0.042580 0.000000
# 6 0.000000 0.000000 0.000000 0.000000 0.000000 0.035294
#
#
# Mechanical properties :
#
#
# Convention : Reuss Voigt Hill
#
# Bulk Modulus (GPa) = 22.82101 30.17525 26.49813
# Shear Modulus (GPa) = 11.12557 28.12732 19.62644
#
# Velocity S-wave (km/s) = 2.24376 3.56763 2.98014
# Velocity P-wave (km/s) = 4.12789 5.53402 4.88185
#
# Compressibility (1/GPa) = 0.04381928
#
# Stress axis : x y z
#
# Youngs Moduli (GPa) = 121.82649 65.48658 49.36220
#
# Poissons Ratio (x) = -0.00902 0.19309
# Poissons Ratio (y) = -0.01679 -0.18832
# Poissons Ratio (z) = 0.47654 -0.24983
#
# Static dielectric constant tensor:
#      x y z
#    x 4.064160 0.000000 0.000000 
#    y 0.000000 3.962290 0.000000 
#    z 0.000000 0.000000 3.561270 
# 
# 
# High freq. dielectric constant tensor:
#      x y z
#    x 1.882680 0.000000 0.000000 
#    y 0.000000 1.887090 0.000000 
#    z 0.000000 0.000000 1.815910 
# 
# From -- ./inp_files/15532.got.cif
#   From: 2010.03.12/outbox.cif.g09.slc.cpg/sg55_8_cif.got.tgz:15532.got - 2010.04.16 15:19:21.
