data_PCOD8226316
_publ_section_title
;
Structure prediction by ZEFSAII (Michael W. Deem and Ramdas Pophale) SiO2 
 PCOD8226316
Probable space group: P B A M
;
_chemical_formula_sum "Si O2"
_cell_formula_units_Z 64
_cell_length_a 15.452606
_cell_length_b 23.882852
_cell_length_c 8.827986
_cell_angle_alpha 90.000000
_cell_angle_beta 90.000000
_cell_angle_gamma 90.000000
_cell_volume 3257.988556
_symmetry_space_group_name_H-M "P B A M"
_symmetry_group_IT_number 55
_symmetry_cell_setting 'orthorhombic'
loop_
_space_group_symop_operation_xyz
x,y,z
-x,-y,z
1/2+x,1/2-y,-z
1/2-x,1/2+y,-z
-x,-y,-z
x,y,-z
1/2-x,1/2+y,z
1/2+x,1/2-y,z
loop_
_atom_site_type_symbol
_atom_site_label
_atom_site_fract_x
_atom_site_fract_y
_atom_site_fract_z
Si Si1 0.402979 0.998585 0.178720
Si Si2 0.845528 0.888394 0.324999
Si Si3 0.347812 0.109230 0.326039
Si Si4 0.002922 0.313131 0.680484
Si Si5 0.100275 0.998993 0.822733
Si Si6 0.160883 0.377919 0.820516
Si Si7 0.660739 0.613193 0.320235
Si Si8 0.001620 0.812856 0.320850
O O1 0.358337 0.941360 0.231473
O O2 0.500000 0.000000 0.245449
O O3 0.348841 0.050323 0.240925
O O4 0.405118 0.003546 0.000000
O O5 0.864409 0.904222 0.500000
O O6 0.748066 0.864784 0.305030
O O7 0.911331 0.840599 0.267676
O O8 0.856615 0.942844 0.222572
O O9 0.368390 0.096984 0.500000
O O10 0.419254 0.152210 0.261436
O O11 0.011196 0.314719 0.500000
O O12 0.089017 0.337415 0.753160
O O13 0.992162 0.250039 0.742595
O O14 0.148392 0.950352 0.732199
O O15 0.113999 0.988234 0.000000
O O16 0.000000 0.000000 0.776919
O O17 0.253031 0.360501 0.751976
O O18 0.161691 0.371753 0.000000
O O19 0.668137 0.615217 0.500000
O O20 0.581139 0.650394 0.258071
O O21 0.006514 0.811187 0.500000
#
# Coordination Sequence:
#
# PCOD8226316 Si02
#       8
#     8   8   8   8   8   8   8   8
#     4  10  20  36  57  79 110 151 187 224 281 347
#     4  10  20  37  59  85 115 152 193 239 288 344
#     4  10  21  34  56  87 115 142 184 238 286 333
#     4  10  21  39  60  85 114 150 194 240 287 339
#     4  11  22  36  57  87 121 155 188 235 292 350
#     4  11  23  39  59  86 118 153 192 238 291 349
#     4  11  22  38  62  89 116 153 196 241 291 346
#     4   9  20  38  61  85 112 150 196 240 284 335
#
# _framework density 19.644023000000001
#
# number of rings (size 3 to 8) (size 9 to 14) (size 15 to 20)
#    0.000    1.750    2.500    1.875    0.000    5.250 
#    0.000    5.625    0.000    1.500    0.000    0.000 
#    0.000    0.000    0.000    0.000    0.000    0.000 
#
# Total GULP energy -793817.415397 kJ/mol
# GULP energy per Si atom -12403.397116 kJ/mol
# Density = 1.959931 g / cm^3
# Si number density = 19.644023 Si / 1000 Ang^3
#
#
#
# Elastic Constant Matrix: (Units=GPa)
#
#
# Indices 1 2 3 4 5 6 
#
# 1 147.9102 51.3634 23.7547 0.0000 0.0000 0.0000
# 2 51.3634 129.3946 19.9453 0.0000 0.0000 0.0000
# 3 23.7547 19.9453 33.3760 0.0000 0.0000 0.0000
# 4 0.0000 0.0000 0.0000 3.8496 0.0000 0.0000
# 5 0.0000 0.0000 0.0000 0.0000 26.1552 0.0000
# 6 0.0000 0.0000 0.0000 0.0000 0.0000 14.9478
#
#
#
# Elastic Compliance Matrix: (Units=1/GPa)
#
#
# Indices 1 2 3 4 5 6 
#
# 1 0.008386 -0.002653 -0.004383 0.000000 0.000000 0.000000
# 2 -0.002653 0.009352 -0.003700 0.000000 0.000000 0.000000
# 3 -0.004383 -0.003700 0.035292 0.000000 0.000000 0.000000
# 4 0.000000 0.000000 0.000000 0.259768 0.000000 0.000000
# 5 0.000000 0.000000 0.000000 0.000000 0.038233 0.000000
# 6 0.000000 0.000000 0.000000 0.000000 0.000000 0.066900
#
#
# Mechanical properties :
#
#
# Convention : Reuss Voigt Hill
#
# Bulk Modulus (GPa) = 31.68835 55.64529 43.66682
# Shear Modulus (GPa) = 11.11299 23.36499 17.23899
#
# Velocity S-wave (km/s) = 2.38106 3.45254 2.96559
# Velocity P-wave (km/s) = 4.87089 6.65445 5.83126
#
# Compressibility (1/GPa) = 0.03155734
#
# Stress axis : x y z
#
# Youngs Moduli (GPa) = 119.24389 106.93022 28.33464
#
# Poissons Ratio (x) = 0.28372 0.12419
# Poissons Ratio (y) = 0.31639 0.10484
# Poissons Ratio (z) = 0.52266 0.39567
#
# Static dielectric constant tensor:
#      x y z
#    x 3.858930 0.000000 0.000000 
#    y 0.000000 3.631670 0.000000 
#    z 0.000000 0.000000 3.357920 
# 
# 
# High freq. dielectric constant tensor:
#      x y z
#    x 1.784860 0.000000 0.000000 
#    y 0.000000 1.759060 0.000000 
#    z 0.000000 0.000000 1.746720 
# 
# From -- ./inp_files/6536.got.cif
#   From: 2010.03.12/outbox.cif.g09.slc.cpg/sg55_4_cif.got.tgz:6536.got - 2010.04.16 15:19:21.
