data_PCOD8226899
_publ_section_title
;
Structure prediction by ZEFSAII (Michael W. Deem and Ramdas Pophale) SiO2 
 PCOD8226899
Probable space group: P B A M
;
_chemical_formula_sum "Si O2"
_cell_formula_units_Z 64
_cell_length_a 16.020630
_cell_length_b 22.260422
_cell_length_c 8.939538
_cell_angle_alpha 90.000000
_cell_angle_beta 90.000000
_cell_angle_gamma 90.000000
_cell_volume 3188.071540
_symmetry_space_group_name_H-M "P B A M"
_symmetry_group_IT_number 55
_symmetry_cell_setting 'orthorhombic'
loop_
_space_group_symop_operation_xyz
x,y,z
-x,-y,z
1/2+x,1/2-y,-z
1/2-x,1/2+y,-z
-x,-y,-z
x,y,-z
1/2-x,1/2+y,z
1/2+x,1/2-y,z
loop_
_atom_site_type_symbol
_atom_site_label
_atom_site_fract_x
_atom_site_fract_y
_atom_site_fract_z
Si Si1 0.089683 0.362543 0.827300
Si Si2 0.417006 0.464229 0.822392
Si Si3 0.401195 0.336057 0.330179
Si Si4 0.753712 0.962748 0.174196
Si Si5 0.244294 0.674317 0.169619
Si Si6 0.284133 0.787420 0.668013
Si Si7 0.092505 0.484733 0.324310
Si Si8 0.560123 0.781738 0.170402
O O1 0.163766 0.316524 0.800595
O O2 0.110151 0.416634 0.717389
O O3 0.005456 0.330844 0.773220
O O4 0.086918 0.383199 0.000000
O O5 0.500000 0.500000 0.768858
O O6 0.419422 0.397211 0.757891
O O7 0.332752 0.498433 0.765868
O O8 0.415962 0.459635 0.000000
O O9 0.430048 0.345740 0.500000
O O10 0.305146 0.318342 0.319253
O O11 0.451698 0.279766 0.262556
O O12 0.773436 0.893096 0.204796
O O13 0.666428 0.976082 0.254665
O O14 0.739665 0.975619 0.000000
O O15 0.286451 0.716934 0.292349
O O16 0.145976 0.683225 0.190443
O O17 0.270143 0.691725 0.000000
O O18 0.320069 0.795354 0.500000
O O19 0.095487 0.494924 0.500000
O O20 0.000000 0.500000 0.260273
O O21 0.542699 0.763471 0.000000
#
# Coordination Sequence:
#
# PCOD8226899 Si02
#       8
#     8   8   8   8   8   8   8   8
#     4  11  22  36  57  84 112 145 187 231 276 331
#     4  10  22  39  58  82 113 149 191 240 289 334
#     4  10  21  37  57  80 108 144 185 228 277 334
#     4  10  21  38  61  85 113 154 199 242 284 333
#     4   9  18  35  57  81 108 141 188 236 279 331
#     4  10  21  36  55  82 115 148 182 226 280 336
#     4  11  24  39  57  85 121 156 188 231 289 350
#     4   9  19  35  56  80 107 140 178 228 281 329
#
# _framework density 20.074833000000002
#
# number of rings (size 3 to 8) (size 9 to 14) (size 15 to 20)
#    0.000    2.000    0.000    3.000    0.000    8.750 
#    0.000    5.000    0.000    0.000    0.000    0.000 
#    0.000    0.000    0.000    0.000    0.000    0.000 
#
# Total GULP energy -793467.675484 kJ/mol
# GULP energy per Si atom -12397.932429 kJ/mol
# Density = 2.002914 g / cm^3
# Si number density = 20.074833 Si / 1000 Ang^3
#
#
#
# Elastic Constant Matrix: (Units=GPa)
#
#
# Indices 1 2 3 4 5 6 
#
# 1 58.9380 9.8958 23.6751 0.0000 0.0000 0.0000
# 2 9.8958 81.0652 21.7440 0.0000 0.0000 0.0000
# 3 23.6751 21.7440 48.5969 0.0000 0.0000 0.0000
# 4 0.0000 0.0000 0.0000 113.1446 0.0000 0.0000
# 5 0.0000 0.0000 0.0000 0.0000 24.6198 0.0000
# 6 0.0000 0.0000 0.0000 0.0000 0.0000 21.6888
#
#
#
# Elastic Compliance Matrix: (Units=1/GPa)
#
#
# Indices 1 2 3 4 5 6 
#
# 1 0.021098 0.000206 -0.010371 0.000000 0.000000 0.000000
# 2 0.000206 0.014020 -0.006374 0.000000 0.000000 0.000000
# 3 -0.010371 -0.006374 0.028482 0.000000 0.000000 0.000000
# 4 0.000000 0.000000 0.000000 0.008838 0.000000 0.000000
# 5 0.000000 0.000000 0.000000 0.000000 0.040618 0.000000
# 6 0.000000 0.000000 0.000000 0.000000 0.000000 0.046107
#
#
# Mechanical properties :
#
#
# Convention : Reuss Voigt Hill
#
# Bulk Modulus (GPa) = 32.76140 33.24775 33.00457
# Shear Modulus (GPa) = 24.70192 40.77633 32.73913
#
# Velocity S-wave (km/s) = 3.51164 4.51179 4.04276
# Velocity P-wave (km/s) = 5.72689 6.61359 6.18615
#
# Compressibility (1/GPa) = 0.03052373
#
# Stress axis : x y z
#
# Youngs Moduli (GPa) = 47.39735 71.32595 35.11049
#
# Poissons Ratio (x) = -0.01471 0.36412
# Poissons Ratio (y) = -0.00977 0.22378
# Poissons Ratio (z) = 0.49155 0.45460
#
# Static dielectric constant tensor:
#      x y z
#    x 3.739000 0.000000 0.000000 
#    y 0.000000 3.672010 0.000000 
#    z 0.000000 0.000000 3.627190 
# 
# 
# High freq. dielectric constant tensor:
#      x y z
#    x 1.780490 0.000000 0.000000 
#    y 0.000000 1.794100 0.000000 
#    z 0.000000 0.000000 1.777710 
# 
# From -- ./inp_files/8050.got.cif
#   From: 2010.03.12/outbox.cif.g09.slc.cpg/sg55_5_cif.got.tgz:8050.got - 2010.04.16 15:19:21.
