data_PCOD8226633
_publ_section_title
;
Structure prediction by ZEFSAII (Michael W. Deem and Ramdas Pophale) SiO2 
 PCOD8226633
Probable space group: P B A M
;
_chemical_formula_sum "Si O2"
_cell_formula_units_Z 56
_cell_length_a 10.054780
_cell_length_b 15.063618
_cell_length_c 15.601456
_cell_angle_alpha 90.000000
_cell_angle_beta 90.000000
_cell_angle_gamma 90.000000
_cell_volume 2363.017822
_symmetry_space_group_name_H-M "P B A M"
_symmetry_group_IT_number 55
_symmetry_cell_setting 'orthorhombic'
loop_
_space_group_symop_operation_xyz
x,y,z
-x,-y,z
1/2+x,1/2-y,-z
1/2-x,1/2+y,-z
-x,-y,-z
x,y,-z
1/2-x,1/2+y,z
1/2+x,1/2-y,z
loop_
_atom_site_type_symbol
_atom_site_label
_atom_site_fract_x
_atom_site_fract_y
_atom_site_fract_z
Si Si1 0.334441 0.550343 0.094159
Si Si2 0.111410 0.705758 0.759294
Si Si3 0.837740 0.892443 0.319931
Si Si4 0.067834 0.278357 0.403124
Si Si5 0.958180 0.401075 0.094326
Si Si6 0.433829 0.393495 0.806424
Si Si7 0.355494 0.970602 0.401740
O O1 0.200663 0.606282 0.091774
O O2 0.459312 0.614194 0.115801
O O3 0.331784 0.472632 0.168161
O O4 0.355452 0.507299 0.000000
O O5 0.244889 0.646993 0.755980
O O6 0.003251 0.663779 0.826779
O O7 0.051698 0.711730 0.664085
O O8 0.148316 0.803452 0.794153
O O9 0.851832 0.813125 0.389693
O O10 0.981586 0.915626 0.280261
O O11 0.768420 0.980496 0.357040
O O12 0.009335 0.279571 0.500000
O O13 0.164119 0.364360 0.390648
O O14 0.000000 0.500000 0.117937
O O15 0.016919 0.374043 0.000000
O O16 0.351428 0.000241 0.500000
O O17 0.500000 0.000000 0.363171
#
# Coordination Sequence:
#
# PCOD8226633 Si02
#       7
#     8   8   8   8   8   8   8
#     4  10  21  42  67  90 126 171 214 267 329 397
#     4  11  23  38  62  91 127 168 216 268 326 385
#     4  11  22  38  60  97 131 173 216 287 336 399
#     4  10  23  39  60  95 132 170 222 281 342 401
#     4  10  23  42  65  96 130 167 213 271 330 385
#     4  10  22  37  60  93 125 168 214 251 331 394
#     4  10  20  37  64  92 120 170 227 278 339 406
#
# _framework density 23.698509999999999
#
# number of rings (size 3 to 8) (size 9 to 14) (size 15 to 20)
#    0.000    1.714    2.857    1.286    2.000    6.286 
#    0.000    0.000    0.000    0.000    0.000   17.000 
#    0.000    0.000    0.000    0.000    0.000    0.000 
#
# Total GULP energy -693824.880502 kJ/mol
# GULP energy per Si atom -12389.730009 kJ/mol
# Density = 2.364457 g / cm^3
# Si number density = 23.698510 Si / 1000 Ang^3
#
#
#
# Elastic Constant Matrix: (Units=GPa)
#
#
# Indices 1 2 3 4 5 6 
#
# 1 31.2577 -4.5627 3.9394 0.0000 0.0000 0.0000
# 2 -4.5627 97.3496 46.1366 0.0000 0.0000 0.0000
# 3 3.9394 46.1366 133.8169 0.0000 0.0000 0.0000
# 4 0.0000 0.0000 0.0000 28.6976 0.0000 0.0000
# 5 0.0000 0.0000 0.0000 0.0000 9.2714 0.0000
# 6 0.0000 0.0000 0.0000 0.0000 0.0000 27.5506
#
#
#
# Elastic Compliance Matrix: (Units=1/GPa)
#
#
# Indices 1 2 3 4 5 6 
#
# 1 0.032561 0.002367 -0.001775 0.000000 0.000000 0.000000
# 2 0.002367 0.012451 -0.004362 0.000000 0.000000 0.000000
# 3 -0.001775 -0.004362 0.009029 0.000000 0.000000 0.000000
# 4 0.000000 0.000000 0.000000 0.034846 0.000000 0.000000
# 5 0.000000 0.000000 0.000000 0.000000 0.107859 0.000000
# 6 0.000000 0.000000 0.000000 0.000000 0.000000 0.036297
#
#
# Mechanical properties :
#
#
# Convention : Reuss Voigt Hill
#
# Bulk Modulus (GPa) = 21.50473 39.27233 30.38853
# Shear Modulus (GPa) = 19.52491 27.56463 23.54477
#
# Velocity S-wave (km/s) = 2.87346 3.41418 3.15542
# Velocity P-wave (km/s) = 4.48364 5.67008 5.11140
#
# Compressibility (1/GPa) = 0.04650141
#
# Stress axis : x y z
#
# Youngs Moduli (GPa) = 30.71127 80.31715 110.75223
#
# Poissons Ratio (x) = -0.19013 0.19655
# Poissons Ratio (y) = -0.07270 0.48314
# Poissons Ratio (z) = 0.05450 0.35037
#
# Static dielectric constant tensor:
#      x y z
#    x 3.899110 0.000000 0.000000 
#    y 0.000000 4.332240 0.000000 
#    z 0.000000 0.000000 4.640580 
# 
# 
# High freq. dielectric constant tensor:
#      x y z
#    x 1.908240 0.000000 0.000000 
#    y 0.000000 1.935290 0.000000 
#    z 0.000000 0.000000 1.953490 
# 
# From -- ./inp_files/18357.got.cif
#   From: 2010.03.12/outbox.cif.g09.slc.cpg/sg55_10_cif.got.tgz:18357.got - 2010.04.16 15:19:21.
