data_PCOD8226346
_publ_section_title
;
Structure prediction by ZEFSAII (Michael W. Deem and Ramdas Pophale) SiO2 
 PCOD8226346
Probable space group: P B A M
;
_chemical_formula_sum "Si O2"
_cell_formula_units_Z 64
_cell_length_a 18.368427
_cell_length_b 20.625513
_cell_length_c 8.602001
_cell_angle_alpha 90.000000
_cell_angle_beta 90.000000
_cell_angle_gamma 90.000000
_cell_volume 3258.938872
_symmetry_space_group_name_H-M "P B A M"
_symmetry_group_IT_number 55
_symmetry_cell_setting 'orthorhombic'
loop_
_space_group_symop_operation_xyz
x,y,z
-x,-y,z
1/2+x,1/2-y,-z
1/2-x,1/2+y,-z
-x,-y,-z
x,y,-z
1/2-x,1/2+y,z
1/2+x,1/2-y,z
loop_
_atom_site_type_symbol
_atom_site_label
_atom_site_fract_x
_atom_site_fract_y
_atom_site_fract_z
Si Si1 0.957950 0.562133 0.184914
Si Si2 0.953714 0.940067 0.315134
Si Si3 0.708029 0.059579 0.183028
Si Si4 0.793167 0.179536 0.317801
Si Si5 0.459431 0.317920 0.682959
Si Si6 0.287754 0.562124 0.683105
Si Si7 0.046818 0.683627 0.816570
Si Si8 0.713251 0.814997 0.817125
O O1 0.875004 0.560943 0.241348
O O2 0.000000 0.500000 0.253317
O O3 0.998027 0.625681 0.251980
O O4 0.961904 0.561440 0.000000
O O5 0.958358 0.939562 0.500000
O O6 0.870730 0.945953 0.259927
O O7 0.989254 0.874244 0.248416
O O8 0.000000 0.000000 0.247396
O O9 0.749340 0.115843 0.273263
O O10 0.739856 0.989548 0.224234
O O11 0.714336 0.071605 0.000000
O O12 0.786148 0.192731 0.500000
O O13 0.876513 0.167249 0.267806
O O14 0.761733 0.242267 0.227777
O O15 0.467043 0.313461 0.500000
O O16 0.486557 0.250326 0.753593
O O17 0.280397 0.549663 0.500000
O O18 0.262473 0.634374 0.724212
O O19 0.130070 0.674394 0.761931
O O20 0.043153 0.685088 0.000000
O O21 0.723029 0.826024 0.000000
#
# Coordination Sequence:
#
# PCOD8226346 Si02
#       8
#     8   8   8   8   8   8   8   8
#     4   9  18  34  55  77 102 136 178 221 266 314
#     4   9  18  34  55  77 102 136 178 221 266 314
#     4  11  22  36  56  81 110 143 180 223 269 320
#     4  10  20  36  58  82 110 143 179 220 266 319
#     4   9  18  34  56  79 104 137 175 216 263 314
#     4  11  22  36  56  81 110 143 180 223 269 320
#     4   9  18  34  56  79 104 137 175 216 263 314
#     4  10  20  36  58  82 110 143 179 220 266 319
#
# _framework density 19.638293000000001
#
# number of rings (size 3 to 8) (size 9 to 14) (size 15 to 20)
#    0.000    2.250    0.000    3.000    0.000    6.000 
#    0.000    5.000    0.000    5.250    0.000    0.000 
#    0.000    0.000    0.000    0.000    0.000    0.000 
#
# Total GULP energy -793771.470001 kJ/mol
# GULP energy per Si atom -12402.679219 kJ/mol
# Density = 1.959360 g / cm^3
# Si number density = 19.638293 Si / 1000 Ang^3
#
#
#
# Elastic Constant Matrix: (Units=GPa)
#
#
# Indices 1 2 3 4 5 6 
#
# 1 89.2856 46.6204 22.1073 0.0000 0.0000 0.0000
# 2 46.6204 128.0867 14.1364 0.0000 0.0000 0.0000
# 3 22.1073 14.1364 24.8072 0.0000 0.0000 0.0000
# 4 0.0000 0.0000 0.0000 36.1788 0.0000 0.0000
# 5 0.0000 0.0000 0.0000 0.0000 16.6669 0.0000
# 6 0.0000 0.0000 0.0000 0.0000 0.0000 43.3415
#
#
#
# Elastic Compliance Matrix: (Units=1/GPa)
#
#
# Indices 1 2 3 4 5 6 
#
# 1 0.016683 -0.004729 -0.012173 0.000000 0.000000 0.000000
# 2 -0.004729 0.009672 -0.001297 0.000000 0.000000 0.000000
# 3 -0.012173 -0.001297 0.051898 0.000000 0.000000 0.000000
# 4 0.000000 0.000000 0.000000 0.027641 0.000000 0.000000
# 5 0.000000 0.000000 0.000000 0.000000 0.059999 0.000000
# 6 0.000000 0.000000 0.000000 0.000000 0.000000 0.023073
#
#
# Mechanical properties :
#
#
# Convention : Reuss Voigt Hill
#
# Bulk Modulus (GPa) = 23.89190 45.32307 34.60749
# Shear Modulus (GPa) = 20.89306 29.85845 25.37576
#
# Velocity S-wave (km/s) = 3.26528 3.90349 3.59856
# Velocity P-wave (km/s) = 5.13891 6.59131 5.90990
#
# Compressibility (1/GPa) = 0.04185519
#
# Stress axis : x y z
#
# Youngs Moduli (GPa) = 59.94081 103.39607 19.26862
#
# Poissons Ratio (x) = 0.48894 0.23455
# Poissons Ratio (y) = 0.28345 0.02500
# Poissons Ratio (z) = 0.72964 0.13413
#
# Static dielectric constant tensor:
#      x y z
#    x 3.710060 0.000000 0.000000 
#    y 0.000000 3.786390 0.000000 
#    z 0.000000 0.000000 3.279140 
# 
# 
# High freq. dielectric constant tensor:
#      x y z
#    x 1.765290 0.000000 0.000000 
#    y 0.000000 1.782510 0.000000 
#    z 0.000000 0.000000 1.741170 
# 
# From -- ./inp_files/7960.got.cif
#   From: 2010.03.12/outbox.cif.g09.slc.cpg/sg55_4_cif.got.tgz:7960.got - 2010.04.16 15:19:21.
