data_PCOD8226729
_publ_section_title
;
Structure prediction by ZEFSAII (Michael W. Deem and Ramdas Pophale) SiO2 
 PCOD8226729
Probable space group: P B A M
;
_chemical_formula_sum "Si O2"
_cell_formula_units_Z 56
_cell_length_a 9.505844
_cell_length_b 19.526071
_cell_length_c 15.522509
_cell_angle_alpha 90.000000
_cell_angle_beta 90.000000
_cell_angle_gamma 90.000000
_cell_volume 2881.160601
_symmetry_space_group_name_H-M "P B A M"
_symmetry_group_IT_number 55
_symmetry_cell_setting 'orthorhombic'
loop_
_space_group_symop_operation_xyz
x,y,z
-x,-y,z
1/2+x,1/2-y,-z
1/2-x,1/2+y,-z
-x,-y,-z
x,y,-z
1/2-x,1/2+y,z
1/2+x,1/2-y,z
loop_
_atom_site_type_symbol
_atom_site_label
_atom_site_fract_x
_atom_site_fract_y
_atom_site_fract_z
Si Si1 0.515686 0.300479 0.901816
Si Si2 0.665148 0.999530 0.593970
Si Si3 0.148434 0.467569 0.907352
Si Si4 0.113319 0.056267 0.143000
Si Si5 0.255108 0.257399 0.212780
Si Si6 0.809087 0.383929 0.714017
Si Si7 0.635690 0.105586 0.738671
O O1 0.533636 0.382303 0.905243
O O2 0.656326 0.265678 0.865572
O O3 0.396456 0.279947 0.834357
O O4 0.486557 0.274912 0.000000
O O5 0.734349 0.015200 0.500000
O O6 0.704676 0.057959 0.664361
O O7 0.500000 0.000000 0.582685
O O8 0.712952 0.922611 0.622642
O O9 0.267620 0.525332 0.919395
O O10 0.195456 0.416343 0.832098
O O11 0.000000 0.500000 0.881306
O O12 0.135036 0.429209 0.000000
O O13 0.192718 0.081892 0.226954
O O14 0.000000 0.000000 0.170753
O O15 0.285373 0.197651 0.283328
O O16 0.188552 0.316814 0.272511
O O17 0.967674 0.400612 0.743459
#
# Coordination Sequence:
#
# PCOD8226729 Si02
#       7
#     8   8   8   8   8   8   8
#     4  11  24  39  56  81 119 161 212 252 288 346
#     4   9  18  35  67  95 113 144 195 249 301 353
#     4  11  21  34  56  86 116 157 202 248 298 343
#     4  11  22  37  56  84 117 157 197 251 301 347
#     4  11  23  39  59  84 115 169 197 239 306 345
#     4  10  20  39  57  86 121 151 194 241 299 352
#     4  11  19  38  61  86 120 151 200 248 287 355
#
# _framework density 19.436613000000001
#
# number of rings (size 3 to 8) (size 9 to 14) (size 15 to 20)
#    0.000    1.429    4.286    2.143    0.000    3.429 
#    0.000    0.714    0.000    0.429    0.000    0.000 
#    0.000    0.000    0.000    0.000    0.000    0.000 
#
# Total GULP energy -693977.546277 kJ/mol
# GULP energy per Si atom -12392.456184 kJ/mol
# Density = 1.939237 g / cm^3
# Si number density = 19.436613 Si / 1000 Ang^3
#
#
#
# Elastic Constant Matrix: (Units=GPa)
#
#
# Indices 1 2 3 4 5 6 
#
# 1 78.1991 34.8515 12.7006 0.0000 0.0000 0.0000
# 2 34.8515 138.4214 64.7691 0.0000 0.0000 0.0000
# 3 12.7006 64.7691 130.1205 0.0000 0.0000 0.0000
# 4 0.0000 0.0000 0.0000 15.0795 0.0000 0.0000
# 5 0.0000 0.0000 0.0000 0.0000 4.6363 0.0000
# 6 0.0000 0.0000 0.0000 0.0000 0.0000 28.4898
#
#
#
# Elastic Compliance Matrix: (Units=1/GPa)
#
#
# Indices 1 2 3 4 5 6 
#
# 1 0.014431 -0.003877 0.000521 0.000000 0.000000 0.000000
# 2 -0.003877 0.010460 -0.004828 0.000000 0.000000 0.000000
# 3 0.000521 -0.004828 0.010037 0.000000 0.000000 0.000000
# 4 0.000000 0.000000 0.000000 0.066315 0.000000 0.000000
# 5 0.000000 0.000000 0.000000 0.000000 0.215689 0.000000
# 6 0.000000 0.000000 0.000000 0.000000 0.000000 0.035100
#
#
# Mechanical properties :
#
#
# Convention : Reuss Voigt Hill
#
# Bulk Modulus (GPa) = 53.87799 63.48706 58.68253
# Shear Modulus (GPa) = 13.34803 25.26911 19.30857
#
# Velocity S-wave (km/s) = 2.62343 3.60957 3.15526
# Velocity P-wave (km/s) = 6.07919 7.07860 6.59784
#
# Compressibility (1/GPa) = 0.01856046
#
# Stress axis : x y z
#
# Youngs Moduli (GPa) = 69.29395 95.60553 99.62685
#
# Poissons Ratio (x) = 0.37071 -0.05195
# Poissons Ratio (y) = 0.26869 0.48099
# Poissons Ratio (z) = -0.03614 0.46158
#
# Static dielectric constant tensor:
#      x y z
#    x 3.526090 0.000000 0.000000 
#    y 0.000000 3.841230 0.000000 
#    z 0.000000 0.000000 3.544920 
# 
# 
# High freq. dielectric constant tensor:
#      x y z
#    x 1.754510 0.000000 0.000000 
#    y 0.000000 1.759410 0.000000 
#    z 0.000000 0.000000 1.729940 
# 
# From -- ./inp_files/17660.got.cif
#   From: 2010.03.12/outbox.cif.g09.slc.cpg/sg55_9_cif.got.tgz:17660.got - 2010.04.16 15:19:21.
