data_PCOD8226371
_publ_section_title
;
Structure prediction by ZEFSAII (Michael W. Deem and Ramdas Pophale) SiO2 
 PCOD8226371
Probable space group: P B A M
;
_chemical_formula_sum "Si O2"
_cell_formula_units_Z 64
_cell_length_a 23.488765
_cell_length_b 15.478103
_cell_length_c 8.556282
_cell_angle_alpha 90.000000
_cell_angle_beta 90.000000
_cell_angle_gamma 90.000000
_cell_volume 3110.734924
_symmetry_space_group_name_H-M "P B A M"
_symmetry_group_IT_number 55
_symmetry_cell_setting 'orthorhombic'
loop_
_space_group_symop_operation_xyz
x,y,z
-x,-y,z
1/2+x,1/2-y,-z
1/2-x,1/2+y,-z
-x,-y,-z
x,y,-z
1/2-x,1/2+y,z
1/2+x,1/2-y,z
loop_
_atom_site_type_symbol
_atom_site_label
_atom_site_fract_x
_atom_site_fract_y
_atom_site_fract_z
Si Si1 0.166204 0.517284 0.179160
Si Si2 0.365933 0.367890 0.322153
Si Si3 0.291026 0.508445 0.182071
Si Si4 0.993641 0.095942 0.316770
Si Si5 0.810660 0.286197 0.822410
Si Si6 0.691340 0.313208 0.318048
Si Si7 0.550929 0.062043 0.814010
Si Si8 0.930894 0.747205 0.315634
O O1 0.227381 0.486458 0.248038
O O2 0.163343 0.619619 0.201799
O O3 0.111001 0.473025 0.258920
O O4 0.163930 0.490146 0.000000
O O5 0.355837 0.398061 0.500000
O O6 0.330159 0.426019 0.203753
O O7 0.431302 0.371056 0.275708
O O8 0.346027 0.270462 0.298733
O O9 0.319647 0.586466 0.277815
O O10 0.286466 0.535030 0.000000
O O11 0.005508 0.088441 0.500000
O O12 0.037093 0.167485 0.247476
O O13 0.000000 0.000000 0.241261
O O14 0.743826 0.279318 0.783862
O O15 0.818947 0.254532 0.000000
O O16 0.705767 0.304098 0.500000
O O17 0.635789 0.257160 0.273781
O O18 0.542781 0.160942 0.760346
O O19 0.500000 0.000000 0.751226
O O20 0.551178 0.058669 0.000000
O O21 0.940679 0.741054 0.500000
#
# Coordination Sequence:
#
# PCOD8226371 Si02
#       8
#     8   8   8   8   8   8   8   8
#     4   8  18  37  57  79 109 149 191 230 287 350
#     4  11  22  35  57  87 117 151 196 242 288 351
#     4  10  20  36  58  85 118 157 192 234 294 355
#     4   9  19  38  61  84 116 158 195 236 299 359
#     4  10  21  37  58  82 116 155 190 240 298 354
#     4  10  20  37  60  87 118 150 193 243 292 352
#     4  10  22  39  60  84 113 154 200 246 296 352
#     4  10  22  39  61  89 119 154 197 245 297 354
#
# _framework density 20.573916000000001
#
# number of rings (size 3 to 8) (size 9 to 14) (size 15 to 20)
#    0.000    2.250    0.000    3.000    3.500    3.250 
#    0.000    3.750    0.000    2.625    0.000    0.000 
#    0.000    0.000    0.000    0.000    0.000    0.000 
#
# Total GULP energy -793483.019313 kJ/mol
# GULP energy per Si atom -12398.172177 kJ/mol
# Density = 2.052709 g / cm^3
# Si number density = 20.573916 Si / 1000 Ang^3
#
#
#
# Elastic Constant Matrix: (Units=GPa)
#
#
# Indices 1 2 3 4 5 6 
#
# 1 104.1148 58.4194 25.8313 0.0000 0.0000 0.0000
# 2 58.4194 111.8629 17.1908 0.0000 0.0000 0.0000
# 3 25.8313 17.1908 29.2664 0.0000 0.0000 0.0000
# 4 0.0000 0.0000 0.0000 32.4660 0.0000 0.0000
# 5 0.0000 0.0000 0.0000 0.0000 15.5416 0.0000
# 6 0.0000 0.0000 0.0000 0.0000 0.0000 39.6629
#
#
#
# Elastic Compliance Matrix: (Units=1/GPa)
#
#
# Indices 1 2 3 4 5 6 
#
# 1 0.015889 -0.006752 -0.010058 0.000000 0.000000 0.000000
# 2 -0.006752 0.012696 -0.001498 0.000000 0.000000 0.000000
# 3 -0.010058 -0.001498 0.043926 0.000000 0.000000 0.000000
# 4 0.000000 0.000000 0.000000 0.030801 0.000000 0.000000
# 5 0.000000 0.000000 0.000000 0.000000 0.064344 0.000000
# 6 0.000000 0.000000 0.000000 0.000000 0.000000 0.025212
#
#
# Mechanical properties :
#
#
# Convention : Reuss Voigt Hill
#
# Bulk Modulus (GPa) = 27.85885 49.79190 38.82538
# Shear Modulus (GPa) = 20.70832 27.12093 23.91462
#
# Velocity S-wave (km/s) = 3.17603 3.63467 3.41306
# Velocity P-wave (km/s) = 5.19806 6.47058 5.86891
#
# Compressibility (1/GPa) = 0.03589524
#
# Stress axis : x y z
#
# Youngs Moduli (GPa) = 62.93732 78.76525 22.76558
#
# Poissons Ratio (x) = 0.53184 0.22897
# Poissons Ratio (y) = 0.42496 0.03410
# Poissons Ratio (z) = 0.63301 0.11798
#
# Static dielectric constant tensor:
#      x y z
#    x 3.921850 0.000000 0.000000 
#    y 0.000000 3.766100 0.000000 
#    z 0.000000 0.000000 3.366000 
# 
# 
# High freq. dielectric constant tensor:
#      x y z
#    x 1.814250 0.000000 0.000000 
#    y 0.000000 1.809120 0.000000 
#    z 0.000000 0.000000 1.773450 
# 
# From -- ./inp_files/9669.got.cif
#   From: 2010.03.12/outbox.cif.g09.slc.cpg/sg55_5_cif.got.tgz:9669.got - 2010.04.16 15:19:21.
