data_PCOD8226357
_publ_section_title
;
Structure prediction by ZEFSAII (Michael W. Deem and Ramdas Pophale) SiO2 
 PCOD8226357
Probable space group: P B A M
;
_chemical_formula_sum "Si O2"
_cell_formula_units_Z 64
_cell_length_a 16.201107
_cell_length_b 22.688734
_cell_length_c 8.649073
_cell_angle_alpha 90.000000
_cell_angle_beta 90.000000
_cell_angle_gamma 90.000000
_cell_volume 3179.248803
_symmetry_space_group_name_H-M "P B A M"
_symmetry_group_IT_number 55
_symmetry_cell_setting 'orthorhombic'
loop_
_space_group_symop_operation_xyz
x,y,z
-x,-y,z
1/2+x,1/2-y,-z
1/2-x,1/2+y,-z
-x,-y,-z
x,y,-z
1/2-x,1/2+y,z
1/2+x,1/2-y,z
loop_
_atom_site_type_symbol
_atom_site_label
_atom_site_fract_x
_atom_site_fract_y
_atom_site_fract_z
Si Si1 0.428640 0.954430 0.818240
Si Si2 0.090559 0.016307 0.320733
Si Si3 0.248041 0.446345 0.315729
Si Si4 0.546465 0.170672 0.324001
Si Si5 0.608877 0.362470 0.174465
Si Si6 0.318650 0.334559 0.172801
Si Si7 0.321514 0.752173 0.829774
Si Si8 0.526692 0.711381 0.324088
O O1 0.340725 0.972007 0.739036
O O2 0.458384 0.887878 0.779781
O O3 0.500000 0.000000 0.762786
O O4 0.414944 0.959487 0.000000
O O5 0.085124 0.001815 0.500000
O O6 0.108651 0.084695 0.294871
O O7 0.170292 0.981463 0.253298
O O8 0.000000 0.000000 0.246070
O O9 0.247552 0.443609 0.500000
O O10 0.255173 0.382507 0.239108
O O11 0.548683 0.148313 0.500000
O O12 0.627942 0.209697 0.294168
O O13 0.470751 0.217314 0.295076
O O14 0.685296 0.318183 0.207546
O O15 0.532851 0.318483 0.200371
O O16 0.607664 0.387973 0.000000
O O17 0.271925 0.272908 0.164200
O O18 0.388892 0.323123 0.297418
O O19 0.350112 0.352226 0.000000
O O20 0.363070 0.760355 0.000000
O O21 0.498348 0.699030 0.500000
#
# Coordination Sequence:
#
# PCOD8226357 Si02
#       8
#     8   8   8   8   8   8   8   8
#     4  11  24  42  63  86 116 160 209 260 313 366
#     4  10  22  40  60  86 123 163 200 246 303 364
#     4  11  23  39  63  92 123 161 206 257 307 362
#     4  10  20  36  60  86 113 149 193 244 300 358
#     4  10  20  36  58  83 113 151 193 236 290 354
#     4  11  21  35  58  87 118 152 195 242 293 357
#     4   9  19  35  56  82 114 147 184 235 291 350
#     4  10  21  36  56  86 120 153 191 240 298 359
#
# _framework density 20.13054
#
# number of rings (size 3 to 8) (size 9 to 14) (size 15 to 20)
#    0.000    1.750    1.250    3.000    0.000    5.750 
#    2.250    0.000    0.000    0.000    0.000    0.000 
#    0.000    0.000    0.000    0.000    0.000    0.000 
#
# Total GULP energy -792956.649830 kJ/mol
# GULP energy per Si atom -12389.947654 kJ/mol
# Density = 2.008472 g / cm^3
# Si number density = 20.130540 Si / 1000 Ang^3
#
#
#
# Elastic Constant Matrix: (Units=GPa)
#
#
# Indices 1 2 3 4 5 6 
#
# 1 99.9627 39.0063 29.2641 0.0000 0.0000 0.0000
# 2 39.0063 100.2519 18.8812 0.0000 0.0000 0.0000
# 3 29.2641 18.8812 61.0330 0.0000 0.0000 0.0000
# 4 0.0000 0.0000 0.0000 28.9308 0.0000 0.0000
# 5 0.0000 0.0000 0.0000 0.0000 26.2050 0.0000
# 6 0.0000 0.0000 0.0000 0.0000 0.0000 31.7233
#
#
#
# Elastic Compliance Matrix: (Units=1/GPa)
#
#
# Indices 1 2 3 4 5 6 
#
# 1 0.013084 -0.004151 -0.004989 0.000000 0.000000 0.000000
# 2 -0.004151 0.011909 -0.001694 0.000000 0.000000 0.000000
# 3 -0.004989 -0.001694 0.019301 0.000000 0.000000 0.000000
# 4 0.000000 0.000000 0.000000 0.034565 0.000000 0.000000
# 5 0.000000 0.000000 0.000000 0.000000 0.038161 0.000000
# 6 0.000000 0.000000 0.000000 0.000000 0.000000 0.031523
#
#
# Mechanical properties :
#
#
# Convention : Reuss Voigt Hill
#
# Bulk Modulus (GPa) = 44.19809 48.39453 46.29631
# Shear Modulus (GPa) = 28.12889 28.97819 28.55354
#
# Velocity S-wave (km/s) = 3.74214 3.79821 3.77028
# Velocity P-wave (km/s) = 6.37768 6.58238 6.48084
#
# Compressibility (1/GPa) = 0.02262541
#
# Stress axis : x y z
#
# Youngs Moduli (GPa) = 76.42810 83.96998 51.81110
#
# Poissons Ratio (x) = 0.34857 0.25851
# Poissons Ratio (y) = 0.31726 0.08776
# Poissons Ratio (z) = 0.38133 0.14223
#
# Static dielectric constant tensor:
#      x y z
#    x 3.732570 0.000000 0.000000 
#    y 0.000000 3.770700 0.000000 
#    z 0.000000 0.000000 3.599800 
# 
# 
# High freq. dielectric constant tensor:
#      x y z
#    x 1.770800 0.000000 0.000000 
#    y 0.000000 1.785720 0.000000 
#    z 0.000000 0.000000 1.788570 
# 
# From -- ./inp_files/7926.got.cif
#   From: 2010.03.12/outbox.cif.g09.slc.cpg/sg55_4_cif.got.tgz:7926.got - 2010.04.16 15:19:21.
