data_PCOD8226829
_publ_section_title
;
Structure prediction by ZEFSAII (Michael W. Deem and Ramdas Pophale) SiO2 
 PCOD8226829
Probable space group: P B A M
;
_chemical_formula_sum "Si O2"
_cell_formula_units_Z 48
_cell_length_a 8.460467
_cell_length_b 15.824008
_cell_length_c 16.052739
_cell_angle_alpha 90.000000
_cell_angle_beta 90.000000
_cell_angle_gamma 90.000000
_cell_volume 2149.116578
_symmetry_space_group_name_H-M "P B A M"
_symmetry_group_IT_number 55
_symmetry_cell_setting 'orthorhombic'
loop_
_space_group_symop_operation_xyz
x,y,z
-x,-y,z
1/2+x,1/2-y,-z
1/2-x,1/2+y,-z
-x,-y,-z
x,y,-z
1/2-x,1/2+y,z
1/2+x,1/2-y,z
loop_
_atom_site_type_symbol
_atom_site_label
_atom_site_fract_x
_atom_site_fract_y
_atom_site_fract_z
Si Si1 0.736553 0.452659 0.162334
Si Si2 0.585771 0.628863 0.162855
Si Si3 0.570915 0.810035 0.405358
Si Si4 0.337152 0.126312 0.000000
Si Si5 0.669143 0.973741 0.658162
Si Si6 0.238789 0.845780 0.665521
Si Si7 0.499322 0.285819 0.000000
O O1 0.661482 0.540897 0.136818
O O2 0.598749 0.385459 0.185279
O O3 0.845966 0.458916 0.243169
O O4 0.844024 0.428114 0.083833
O O5 0.679277 0.670697 0.240319
O O6 0.598491 0.687561 0.082176
O O7 0.511239 0.817483 0.500000
O O8 0.705238 0.883245 0.386701
O O9 0.642731 0.716628 0.394458
O O10 0.424781 0.824285 0.342073
O O11 0.493028 0.184313 0.000000
O O12 0.175674 0.180331 0.000000
O O13 0.500000 0.000000 0.621543
O O14 0.788739 0.053665 0.641418
#
# Coordination Sequence:
#
# PCOD8226829 Si02
#       7
#     8   8   8   4   8   8   4
#     4   9  18  37  59  83 115 158 207 242 297 355
#     4   9  19  36  61  84 115 158 200 250 293 359
#     4  11  24  41  64  90 121 161 203 254 317 378
#     4  10  21  35  54  83 120 162 196 251 291 358
#     4   9  21  41  62  91 122 163 205 254 311 368
#     4  10  23  40  63  92 122 158 205 253 308 369
#     4  10  21  35  53  86 117 155 198 239 299 346
#
# _framework density 22.334758999999998
#
# number of rings (size 3 to 8) (size 9 to 14) (size 15 to 20)
#    0.000    2.333    0.000    1.000    4.667    7.000 
#    6.000    0.417    0.000    2.000    0.000    0.000 
#    0.000    0.000    0.000    0.000    0.000    0.000 
#
# Total GULP energy -594840.616113 kJ/mol
# GULP energy per Si atom -12392.512836 kJ/mol
# Density = 2.228392 g / cm^3
# Si number density = 22.334759 Si / 1000 Ang^3
#
#
#
# Elastic Constant Matrix: (Units=GPa)
#
#
# Indices 1 2 3 4 5 6 
#
# 1 26.5373 19.6522 7.1505 0.0000 0.0000 0.0000
# 2 19.6522 102.3664 45.4687 0.0000 0.0000 0.0000
# 3 7.1505 45.4687 90.8935 0.0000 0.0000 0.0000
# 4 0.0000 0.0000 0.0000 34.5359 0.0000 0.0000
# 5 0.0000 0.0000 0.0000 0.0000 19.2137 0.0000
# 6 0.0000 0.0000 0.0000 0.0000 0.0000 30.4476
#
#
#
# Elastic Compliance Matrix: (Units=1/GPa)
#
#
# Indices 1 2 3 4 5 6 
#
# 1 0.043996 -0.008883 0.000982 0.000000 0.000000 0.000000
# 2 -0.008883 0.014353 -0.006481 0.000000 0.000000 0.000000
# 3 0.000982 -0.006481 0.014167 0.000000 0.000000 0.000000
# 4 0.000000 0.000000 0.000000 0.028955 0.000000 0.000000
# 5 0.000000 0.000000 0.000000 0.000000 0.052046 0.000000
# 6 0.000000 0.000000 0.000000 0.000000 0.000000 0.032843
#
#
# Mechanical properties :
#
#
# Convention : Reuss Voigt Hill
#
# Bulk Modulus (GPa) = 22.85564 40.48224 31.66894
# Shear Modulus (GPa) = 21.76678 26.67449 24.22063
#
# Velocity S-wave (km/s) = 3.12520 3.45962 3.29665
# Velocity P-wave (km/s) = 4.82472 5.84151 5.35729
#
# Compressibility (1/GPa) = 0.04375287
#
# Stress axis : x y z
#
# Youngs Moduli (GPa) = 22.72924 69.67238 70.58785
#
# Poissons Ratio (x) = 0.61888 -0.06934
# Poissons Ratio (y) = 0.20190 0.45749
# Poissons Ratio (z) = -0.02233 0.45156
#
# Static dielectric constant tensor:
#      x y z
#    x 3.679670 0.000000 0.000000 
#    y 0.000000 4.356070 0.000000 
#    z 0.000000 0.000000 3.834870 
# 
# 
# High freq. dielectric constant tensor:
#      x y z
#    x 1.848400 0.000000 0.000000 
#    y 0.000000 1.890520 0.000000 
#    z 0.000000 0.000000 1.873250 
# 
# From -- ./inp_files/17384.got.cif
#   From: 2010.03.12/outbox.cif.g09.slc.cpg/sg55_9_cif.got.tgz:17384.got - 2010.04.16 15:19:21.
