data_PCOD8226036
_publ_section_title
;
Structure prediction by ZEFSAII (Michael W. Deem and Ramdas Pophale) SiO2 
 PCOD8226036
Probable space group: P B A M
;
_chemical_formula_sum "Si O2"
_cell_formula_units_Z 56
_cell_length_a 14.900881
_cell_length_b 21.288311
_cell_length_c 9.049854
_cell_angle_alpha 90.000000
_cell_angle_beta 90.000000
_cell_angle_gamma 90.000000
_cell_volume 2870.745716
_symmetry_space_group_name_H-M "P B A M"
_symmetry_group_IT_number 55
_symmetry_cell_setting 'orthorhombic'
loop_
_space_group_symop_operation_xyz
x,y,z
-x,-y,z
1/2+x,1/2-y,-z
1/2-x,1/2+y,-z
-x,-y,-z
x,y,-z
1/2-x,1/2+y,z
1/2+x,1/2-y,z
loop_
_atom_site_type_symbol
_atom_site_label
_atom_site_fract_x
_atom_site_fract_y
_atom_site_fract_z
Si Si1 0.790122 0.894388 0.671503
Si Si2 0.727181 0.758829 0.673790
Si Si3 0.627057 0.980390 0.326930
Si Si4 0.034717 0.415579 0.828857
Si Si5 0.472098 0.568359 0.173011
Si Si6 0.601566 0.221191 0.168288
Si Si7 0.561455 0.693535 0.170904
O O1 0.813320 0.886814 0.500000
O O2 0.740720 0.830800 0.728190
O O3 0.725530 0.953232 0.701758
O O4 0.881265 0.907036 0.755864
O O5 0.718441 0.755186 0.500000
O O6 0.813004 0.719432 0.725794
O O7 0.638510 0.726696 0.736805
O O8 0.607530 0.988614 0.500000
O O9 0.554744 0.932829 0.259090
O O10 0.618819 0.047053 0.243157
O O11 0.047240 0.342323 0.808380
O O12 0.025691 0.434609 0.000000
O O13 0.500000 0.500000 0.237301
O O14 0.551852 0.618853 0.205152
O O15 0.453369 0.563245 0.000000
O O16 0.534847 0.277087 0.213114
O O17 0.635221 0.228420 0.000000
O O18 0.583525 0.705847 0.000000
#
# Coordination Sequence:
#
# PCOD8226036 Si02
#       7
#     8   8   8   8   8   8   8
#     4  10  22  39  58  84 115 153 197 239 289 355
#     4  11  23  37  59  88 116 150 195 243 294 351
#     4  10  20  35  55  80 115 153 189 230 287 349
#     4  10  20  34  54  83 114 146 192 239 286 340
#     4  10  22  40  63  88 115 152 198 246 295 350
#     4  10  21  38  59  83 113 151 190 238 291 345
#     4  10  21  39  61  86 118 154 195 243 299 354
#
# _framework density 19.507126
#
# number of rings (size 3 to 8) (size 9 to 14) (size 15 to 20)
#    0.000    1.857    1.429    3.000    0.000    5.429 
#    0.000    4.286    0.000    0.000    0.000    0.000 
#    0.000    0.000    0.000    0.000    0.000    0.000 
#
# Total GULP energy -694407.695142 kJ/mol
# GULP energy per Si atom -12400.137413 kJ/mol
# Density = 1.946273 g / cm^3
# Si number density = 19.507126 Si / 1000 Ang^3
#
#
#
# Elastic Constant Matrix: (Units=GPa)
#
#
# Indices 1 2 3 4 5 6 
#
# 1 93.0722 38.7234 42.0991 0.0000 0.0000 0.0000
# 2 38.7234 117.9176 37.7995 0.0000 0.0000 0.0000
# 3 42.0991 37.7995 68.8949 0.0000 0.0000 0.0000
# 4 0.0000 0.0000 0.0000 27.6569 0.0000 0.0000
# 5 0.0000 0.0000 0.0000 0.0000 68.2944 0.0000
# 6 0.0000 0.0000 0.0000 0.0000 0.0000 28.4528
#
#
#
# Elastic Compliance Matrix: (Units=1/GPa)
#
#
# Indices 1 2 3 4 5 6 
#
# 1 0.015424 -0.002480 -0.008064 0.000000 0.000000 0.000000
# 2 -0.002480 0.010689 -0.004349 0.000000 0.000000 0.000000
# 3 -0.008064 -0.004349 0.021829 0.000000 0.000000 0.000000
# 4 0.000000 0.000000 0.000000 0.036157 0.000000 0.000000
# 5 0.000000 0.000000 0.000000 0.000000 0.014642 0.000000
# 6 0.000000 0.000000 0.000000 0.000000 0.000000 0.035146
#
#
# Mechanical properties :
#
#
# Convention : Reuss Voigt Hill
#
# Bulk Modulus (GPa) = 55.08167 57.45873 56.27020
# Shear Modulus (GPa) = 29.45924 35.63167 32.54546
#
# Velocity S-wave (km/s) = 3.89032 4.27851 4.08902
# Velocity P-wave (km/s) = 6.96257 7.34348 7.15556
#
# Compressibility (1/GPa) = 0.01815486
#
# Stress axis : x y z
#
# Youngs Moduli (GPa) = 64.83462 93.55336 45.81103
#
# Poissons Ratio (x) = 0.23201 0.36943
# Poissons Ratio (y) = 0.16079 0.19924
# Poissons Ratio (z) = 0.52284 0.40688
#
# Static dielectric constant tensor:
#      x y z
#    x 3.422750 0.000000 0.000000 
#    y 0.000000 3.870830 0.000000 
#    z 0.000000 0.000000 3.566110 
# 
# 
# High freq. dielectric constant tensor:
#      x y z
#    x 1.753160 0.000000 0.000000 
#    y 0.000000 1.772620 0.000000 
#    z 0.000000 0.000000 1.759360 
# 
# From -- ./inp_files/5994.got.cif
#   From: 2010.03.12/outbox.cif.g09.slc.cpg/sg55_3_cif.got.tgz:5994.got - 2010.04.16 15:19:21.
