data_PCOD8226697
_publ_section_title
;
Structure prediction by ZEFSAII (Michael W. Deem and Ramdas Pophale) SiO2 
 PCOD8226697
Probable space group: P B A M
;
_chemical_formula_sum "Si O2"
_cell_formula_units_Z 64
_cell_length_a 14.651308
_cell_length_b 24.744646
_cell_length_c 8.626515
_cell_angle_alpha 90.000000
_cell_angle_beta 90.000000
_cell_angle_gamma 90.000000
_cell_volume 3127.469083
_symmetry_space_group_name_H-M "P B A M"
_symmetry_group_IT_number 55
_symmetry_cell_setting 'orthorhombic'
loop_
_space_group_symop_operation_xyz
x,y,z
-x,-y,z
1/2+x,1/2-y,-z
1/2-x,1/2+y,-z
-x,-y,-z
x,y,-z
1/2-x,1/2+y,z
1/2+x,1/2-y,z
loop_
_atom_site_type_symbol
_atom_site_label
_atom_site_fract_x
_atom_site_fract_y
_atom_site_fract_z
Si Si1 0.238881 0.050670 0.318228
Si Si2 0.360477 0.262082 0.819512
Si Si3 0.997179 0.331107 0.182723
Si Si4 0.163738 0.268856 0.682944
Si Si5 0.860171 0.847987 0.674969
Si Si6 0.448831 0.053474 0.680644
Si Si7 0.437155 0.364014 0.675558
Si Si8 0.405973 0.473204 0.181268
O O1 0.213484 0.044870 0.500000
O O2 0.214880 0.111030 0.255883
O O3 0.343961 0.040641 0.285550
O O4 0.181305 0.009251 0.217400
O O5 0.415217 0.208739 0.757877
O O6 0.269423 0.276480 0.724624
O O7 0.423830 0.313603 0.789173
O O8 0.337208 0.256210 0.000000
O O9 0.980306 0.392599 0.232706
O O10 0.096535 0.313180 0.243891
O O11 0.000320 0.327775 0.000000
O O12 0.149443 0.273229 0.500000
O O13 0.137632 0.210343 0.757200
O O14 0.831293 0.834826 0.500000
O O15 0.956175 0.878434 0.684914
O O16 0.468489 0.062847 0.500000
O O17 0.500000 0.000000 0.742852
O O18 0.407169 0.349566 0.500000
O O19 0.384739 0.416895 0.733143
O O20 0.500000 0.500000 0.242603
O O21 0.413571 0.461885 0.000000
#
# Coordination Sequence:
#
# PCOD8226697 Si02
#       8
#     8   8   8   8   8   8   8   8
#     4  10  20  38  63  89 119 160 211 263 311 367
#     4  11  24  41  60  91 130 164 203 251 313 376
#     4  11  24  42  65  93 128 169 207 254 316 376
#     4  11  22  39  65  94 125 165 212 257 305 364
#     4   9  18  33  58  89 116 151 204 258 304 355
#     4  10  23  43  67  93 121 157 209 266 312 361
#     4  11  21  37  61  87 118 159 205 253 305 361
#     4  11  23  37  55  86 125 162 199 248 312 377
#
# _framework density 20.463833000000001
#
# number of rings (size 3 to 8) (size 9 to 14) (size 15 to 20)
#    0.000    1.500    2.500    2.625    0.000    4.750 
#    0.000    5.000    0.000    0.000    0.000    0.000 
#    0.000    0.000    0.000    0.000    0.000    0.000 
#
# Total GULP energy -793505.376398 kJ/mol
# GULP energy per Si atom -12398.521506 kJ/mol
# Density = 2.041726 g / cm^3
# Si number density = 20.463833 Si / 1000 Ang^3
#
#
#
# Elastic Constant Matrix: (Units=GPa)
#
#
# Indices 1 2 3 4 5 6 
#
# 1 113.7254 50.7445 29.4424 0.0000 0.0000 0.0000
# 2 50.7445 137.5275 30.6933 0.0000 0.0000 0.0000
# 3 29.4424 30.6933 53.2913 0.0000 0.0000 0.0000
# 4 0.0000 0.0000 0.0000 30.4731 0.0000 0.0000
# 5 0.0000 0.0000 0.0000 0.0000 25.2923 0.0000
# 6 0.0000 0.0000 0.0000 0.0000 0.0000 34.5357
#
#
#
# Elastic Compliance Matrix: (Units=1/GPa)
#
#
# Indices 1 2 3 4 5 6 
#
# 1 0.011372 -0.003206 -0.004436 0.000000 0.000000 0.000000
# 2 -0.003206 0.009248 -0.003555 0.000000 0.000000 0.000000
# 3 -0.004436 -0.003555 0.023263 0.000000 0.000000 0.000000
# 4 0.000000 0.000000 0.000000 0.032816 0.000000 0.000000
# 5 0.000000 0.000000 0.000000 0.000000 0.039538 0.000000
# 6 0.000000 0.000000 0.000000 0.000000 0.000000 0.028956
#
#
# Mechanical properties :
#
#
# Convention : Reuss Voigt Hill
#
# Bulk Modulus (GPa) = 46.53668 58.47829 52.50748
# Shear Modulus (GPa) = 28.61237 30.97115 29.79176
#
# Velocity S-wave (km/s) = 3.74330 3.89454 3.81967
# Velocity P-wave (km/s) = 6.43998 6.99011 6.72068
#
# Compressibility (1/GPa) = 0.02148842
#
# Stress axis : x y z
#
# Youngs Moduli (GPa) = 87.93402 108.13629 42.98613
#
# Poissons Ratio (x) = 0.34668 0.19070
# Poissons Ratio (y) = 0.28191 0.15281
# Poissons Ratio (z) = 0.39011 0.38442
#
# Static dielectric constant tensor:
#      x y z
#    x 3.667600 0.000000 0.000000 
#    y 0.000000 3.840680 0.000000 
#    z 0.000000 0.000000 3.501190 
# 
# 
# High freq. dielectric constant tensor:
#      x y z
#    x 1.801110 0.000000 0.000000 
#    y 0.000000 1.810210 0.000000 
#    z 0.000000 0.000000 1.784350 
# 
# From -- ./inp_files/6579.got.cif
#   From: 2010.03.12/outbox.cif.g09.slc.cpg/sg55_4_cif.got.tgz:6579.got - 2010.04.16 15:19:21.
