data_PCOD8226057
_publ_section_title
;
Structure prediction by ZEFSAII (Michael W. Deem and Ramdas Pophale) SiO2 
 PCOD8226057
Probable space group: P B A M
;
_chemical_formula_sum "Si O2"
_cell_formula_units_Z 56
_cell_length_a 8.331894
_cell_length_b 15.024686
_cell_length_c 21.178957
_cell_angle_alpha 90.000000
_cell_angle_beta 90.000000
_cell_angle_gamma 90.000000
_cell_volume 2651.268483
_symmetry_space_group_name_H-M "P B A M"
_symmetry_group_IT_number 55
_symmetry_cell_setting 'orthorhombic'
loop_
_space_group_symop_operation_xyz
x,y,z
-x,-y,z
1/2+x,1/2-y,-z
1/2-x,1/2+y,-z
-x,-y,-z
x,y,-z
1/2-x,1/2+y,z
1/2+x,1/2-y,z
loop_
_atom_site_type_symbol
_atom_site_label
_atom_site_fract_x
_atom_site_fract_y
_atom_site_fract_z
Si Si1 0.682118 0.480798 0.636736
Si Si2 0.120313 0.344814 0.629270
Si Si3 0.279099 0.147061 0.133752
Si Si4 0.686794 0.022516 0.930489
Si Si5 0.089854 0.289419 0.927062
Si Si6 0.786802 0.317004 0.428867
Si Si7 0.418345 0.089801 0.739991
O O1 0.500000 0.500000 0.656042
O O2 0.773318 0.568873 0.613082
O O3 0.685383 0.407509 0.581079
O O4 0.769874 0.437678 0.696509
O O5 0.231270 0.257906 0.621469
O O6 0.974161 0.338538 0.580209
O O7 0.049389 0.353316 0.700323
O O8 0.406207 0.182778 0.082628
O O9 0.127135 0.210984 0.123031
O O10 0.351900 0.151527 0.204023
O O11 0.226442 0.045054 0.118080
O O12 0.705329 0.125978 0.910622
O O13 0.500000 0.000000 0.931254
O O14 0.761421 0.008331 0.000000
O O15 0.110792 0.260010 0.000000
O O16 0.758035 0.282829 0.500000
O O17 0.500000 0.000000 0.767837
#
# Coordination Sequence:
#
# PCOD8226057 Si02
#       7
#     8   8   8   8   8   8   8
#     4  10  22  41  62  86 120 159 195 247 312 360
#     4  10  22  39  59  86 124 160 199 253 301 347
#     4  11  20  35  57  81 110 147 192 238 285 346
#     4   8  15  30  51  73 102 141 180 220 272 334
#     4  10  20  34  55  83 112 145 187 235 291 348
#     4  11  22  37  61  91 121 160 207 246 293 357
#     4   9  20  39  60  84 116 157 202 242 290 356
#
# _framework density 21.121963999999998
#
# number of rings (size 3 to 8) (size 9 to 14) (size 15 to 20)
#    0.000    2.143    0.000    6.000    0.000    4.286 
#    0.000    6.429    0.000    2.571    0.000    0.000 
#    0.000    0.000    0.000    0.000    0.000    0.000 
#
# Total GULP energy -694233.192806 kJ/mol
# GULP energy per Si atom -12397.021300 kJ/mol
# Density = 2.107389 g / cm^3
# Si number density = 21.121964 Si / 1000 Ang^3
#
#
#
# Elastic Constant Matrix: (Units=GPa)
#
#
# Indices 1 2 3 4 5 6 
#
# 1 81.7143 32.4983 17.5266 0.0000 0.0000 0.0000
# 2 32.4983 97.3566 27.7001 0.0000 0.0000 0.0000
# 3 17.5266 27.7001 82.8583 0.0000 0.0000 0.0000
# 4 0.0000 0.0000 0.0000 29.0082 0.0000 0.0000
# 5 0.0000 0.0000 0.0000 0.0000 18.5628 0.0000
# 6 0.0000 0.0000 0.0000 0.0000 0.0000 32.9660
#
#
#
# Elastic Compliance Matrix: (Units=1/GPa)
#
#
# Indices 1 2 3 4 5 6 
#
# 1 0.014296 -0.004323 -0.001579 0.000000 0.000000 0.000000
# 2 -0.004323 0.012658 -0.003317 0.000000 0.000000 0.000000
# 3 -0.001579 -0.003317 0.013512 0.000000 0.000000 0.000000
# 4 0.000000 0.000000 0.000000 0.034473 0.000000 0.000000
# 5 0.000000 0.000000 0.000000 0.000000 0.053871 0.000000
# 6 0.000000 0.000000 0.000000 0.000000 0.000000 0.030334
#
#
# Mechanical properties :
#
#
# Convention : Reuss Voigt Hill
#
# Bulk Modulus (GPa) = 45.39704 46.37548 45.88626
# Shear Modulus (GPa) = 27.03804 28.38767 27.71286
#
# Velocity S-wave (km/s) = 3.58172 3.67002 3.62614
# Velocity P-wave (km/s) = 6.21646 6.32159 6.26924
#
# Compressibility (1/GPa) = 0.02202787
#
# Stress axis : x y z
#
# Youngs Moduli (GPa) = 69.95177 78.99921 74.00951
#
# Poissons Ratio (x) = 0.34150 0.11684
# Poissons Ratio (y) = 0.30239 0.24552
# Poissons Ratio (z) = 0.11044 0.26207
#
# Static dielectric constant tensor:
#      x y z
#    x 3.534040 0.000000 0.000000 
#    y 0.000000 4.308940 0.000000 
#    z 0.000000 0.000000 3.566730 
# 
# 
# High freq. dielectric constant tensor:
#      x y z
#    x 1.804330 0.000000 0.000000 
#    y 0.000000 1.838480 0.000000 
#    z 0.000000 0.000000 1.811050 
# 
# From -- ./inp_files/22637.got.cif
#   From: 2010.03.12/outbox.cif.g09.slc.cpg/sg55_12_cif.got.tgz:22637.got - 2010.04.16 15:19:21.
