data_PCOD8226714
_publ_section_title
;
Structure prediction by ZEFSAII (Michael W. Deem and Ramdas Pophale) SiO2 
 PCOD8226714
Probable space group: P B A M
;
_chemical_formula_sum "Si O2"
_cell_formula_units_Z 64
_cell_length_a 8.995759
_cell_length_b 22.920423
_cell_length_c 14.881800
_cell_angle_alpha 90.000000
_cell_angle_beta 90.000000
_cell_angle_gamma 90.000000
_cell_volume 3068.427766
_symmetry_space_group_name_H-M "P B A M"
_symmetry_group_IT_number 55
_symmetry_cell_setting 'orthorhombic'
loop_
_space_group_symop_operation_xyz
x,y,z
-x,-y,z
1/2+x,1/2-y,-z
1/2-x,1/2+y,-z
-x,-y,-z
x,y,-z
1/2-x,1/2+y,z
1/2+x,1/2-y,z
loop_
_atom_site_type_symbol
_atom_site_label
_atom_site_fract_x
_atom_site_fract_y
_atom_site_fract_z
Si Si1 0.268472 0.756133 0.189172
Si Si2 0.979149 0.331970 0.600051
Si Si3 0.627817 0.047496 0.603849
Si Si4 0.344625 0.622944 0.599929
Si Si5 0.973600 0.325208 0.104219
Si Si6 0.666460 0.483421 0.733644
Si Si7 0.508042 0.713919 0.303344
Si Si8 0.627264 0.952155 0.896095
O O1 0.365843 0.805108 0.139893
O O2 0.377627 0.706137 0.229263
O O3 0.154169 0.721835 0.125542
O O4 0.173157 0.791249 0.264105
O O5 0.031348 0.315778 0.500000
O O6 0.802100 0.337933 0.603186
O O7 0.059138 0.390733 0.631892
O O8 0.024290 0.279891 0.664688
O O9 0.684067 0.046786 0.500000
O O10 0.500000 0.000000 0.617160
O O11 0.759478 0.034785 0.674088
O O12 0.366169 0.596179 0.500000
O O13 0.330847 0.573200 0.672314
O O14 0.485987 0.664840 0.620675
O O15 0.932682 0.389714 0.140196
O O16 0.992734 0.329956 0.000000
O O17 0.500000 0.500000 0.757968
O O18 0.742541 0.472399 0.829562
O O19 0.500000 0.000000 0.888959
O O20 0.684729 0.947877 0.000000
#
# Coordination Sequence:
#
# PCOD8226714 Si02
#       8
#     8   8   8   8   8   8   8   8
#     4  10  22  34  62  93 125 164 209 258 314 386
#     4  10  21  38  61  86 119 168 220 261 304 364
#     4  10  20  38  65  92 119 166 224 268 307 367
#     4  11  23  40  61  89 130 171 214 262 311 369
#     4  10  21  42  66  94 127 160 206 267 328 388
#     4  12  26  41  64  95 130 167 206 265 333 386
#     4  11  21  38  56  91 128 167 209 256 309 368
#     4  10  24  45  71  96 124 168 218 266 320 391
#
# _framework density 20.857586999999999
#
# number of rings (size 3 to 8) (size 9 to 14) (size 15 to 20)
#    0.000    1.500    2.500    2.250    1.750    3.250 
#    0.000    1.250    0.000    6.750    0.000    0.000 
#    0.000    0.000    0.000    0.000    0.000    0.000 
#
# Total GULP energy -793521.135952 kJ/mol
# GULP energy per Si atom -12398.767749 kJ/mol
# Density = 2.081011 g / cm^3
# Si number density = 20.857587 Si / 1000 Ang^3
#
#
#
# Elastic Constant Matrix: (Units=GPa)
#
#
# Indices 1 2 3 4 5 6 
#
# 1 118.1020 25.0779 50.4481 0.0000 0.0000 0.0000
# 2 25.0779 63.1018 34.2463 0.0000 0.0000 0.0000
# 3 50.4481 34.2463 95.8814 0.0000 0.0000 0.0000
# 4 0.0000 0.0000 0.0000 26.6453 0.0000 0.0000
# 5 0.0000 0.0000 0.0000 0.0000 23.8156 0.0000
# 6 0.0000 0.0000 0.0000 0.0000 0.0000 29.4502
#
#
#
# Elastic Compliance Matrix: (Units=1/GPa)
#
#
# Indices 1 2 3 4 5 6 
#
# 1 0.011040 -0.001532 -0.005262 0.000000 0.000000 0.000000
# 2 -0.001532 0.019871 -0.006291 0.000000 0.000000 0.000000
# 3 -0.005262 -0.006291 0.015445 0.000000 0.000000 0.000000
# 4 0.000000 0.000000 0.000000 0.037530 0.000000 0.000000
# 5 0.000000 0.000000 0.000000 0.000000 0.041989 0.000000
# 6 0.000000 0.000000 0.000000 0.000000 0.000000 0.033956
#
#
# Mechanical properties :
#
#
# Convention : Reuss Voigt Hill
#
# Bulk Modulus (GPa) = 49.53895 55.18109 52.36002
# Shear Modulus (GPa) = 25.94318 27.13640 26.53979
#
# Velocity S-wave (km/s) = 3.53062 3.61090 3.57098
# Velocity P-wave (km/s) = 6.35790 6.62558 6.49312
#
# Compressibility (1/GPa) = 0.02018614
#
# Stress axis : x y z
#
# Youngs Moduli (GPa) = 90.57904 50.32562 64.74601
#
# Poissons Ratio (x) = 0.07710 0.34066
# Poissons Ratio (y) = 0.13877 0.40733
# Poissons Ratio (z) = 0.47659 0.31661
#
# Static dielectric constant tensor:
#      x y z
#    x 3.365010 0.000000 0.000000 
#    y 0.000000 2.713620 0.000000 
#    z 0.000000 0.000000 3.973930 
# 
# 
# High freq. dielectric constant tensor:
#      x y z
#    x 1.814420 0.000000 0.000000 
#    y 0.000000 1.816360 0.000000 
#    z 0.000000 0.000000 1.822150 
# 
# From -- ./inp_files/17847.got.cif
#   From: 2010.03.12/outbox.cif.g09.slc.cpg/sg55_9_cif.got.tgz:17847.got - 2010.04.16 15:19:21.
