data_PCOD8226103
_publ_section_title
;
Structure prediction by ZEFSAII (Michael W. Deem and Ramdas Pophale) SiO2 
 PCOD8226103
Probable space group: P B A M
;
_chemical_formula_sum "Si O2"
_cell_formula_units_Z 56
_cell_length_a 9.356809
_cell_length_b 20.471883
_cell_length_c 13.741551
_cell_angle_alpha 90.000000
_cell_angle_beta 90.000000
_cell_angle_gamma 90.000000
_cell_volume 2632.214694
_symmetry_space_group_name_H-M "P B A M"
_symmetry_group_IT_number 55
_symmetry_cell_setting 'orthorhombic'
loop_
_space_group_symop_operation_xyz
x,y,z
-x,-y,z
1/2+x,1/2-y,-z
1/2-x,1/2+y,-z
-x,-y,-z
x,y,-z
1/2-x,1/2+y,z
1/2+x,1/2-y,z
loop_
_atom_site_type_symbol
_atom_site_label
_atom_site_fract_x
_atom_site_fract_y
_atom_site_fract_z
Si Si1 0.321706 0.133191 0.109728
Si Si2 0.876816 0.914858 0.269028
Si Si3 0.646605 0.104863 0.111138
Si Si4 0.759944 0.680395 0.387458
Si Si5 0.134281 0.779198 0.110521
Si Si6 0.532483 0.282275 0.302400
Si Si7 0.303069 0.447681 0.279886
O O1 0.214836 0.089693 0.171537
O O2 0.485296 0.121049 0.139363
O O3 0.290161 0.209601 0.126887
O O4 0.294132 0.111739 0.000000
O O5 0.869651 0.846497 0.329263
O O6 0.042063 0.925492 0.241371
O O7 0.815067 0.978941 0.326135
O O8 0.741472 0.168997 0.130086
O O9 0.701217 0.049218 0.184917
O O10 0.660200 0.080194 0.000000
O O11 0.798383 0.685956 0.500000
O O12 0.610476 0.716210 0.366907
O O13 0.883030 0.716268 0.325680
O O14 0.756222 0.603769 0.358747
O O15 0.005870 0.787830 0.187529
O O16 0.071458 0.784289 0.000000
#
# Coordination Sequence:
#
# PCOD8226103 Si02
#       7
#     8   8   8   8   8   8   8
#     4  10  22  34  53  86 125 166 213 256 299 360
#     4  10  22  38  58  86 122 163 208 258 310 367
#     4  10  20  36  56  84 123 168 207 246 299 365
#     4  11  23  42  68  94 121 156 203 261 321 374
#     4  10  20  34  58  91 128 165 202 251 308 366
#     4  11  22  41  64  95 126 158 207 258 309 374
#     4  10  22  41  60  85 124 166 208 252 313 376
#
# _framework density 21.27486
#
# number of rings (size 3 to 8) (size 9 to 14) (size 15 to 20)
#    0.000    1.714    2.857    2.143    2.000    2.286 
#    0.000    9.286    0.000    0.000    0.000    7.000 
#    0.000    0.000    0.000    0.000    0.000    0.000 
#
# Total GULP energy -694178.732662 kJ/mol
# GULP energy per Si atom -12396.048798 kJ/mol
# Density = 2.122644 g / cm^3
# Si number density = 21.274860 Si / 1000 Ang^3
#
#
#
# Elastic Constant Matrix: (Units=GPa)
#
#
# Indices 1 2 3 4 5 6 
#
# 1 66.2496 24.9400 34.7734 0.0000 0.0000 0.0000
# 2 24.9400 90.7569 29.5982 0.0000 0.0000 0.0000
# 3 34.7734 29.5982 90.3720 0.0000 0.0000 0.0000
# 4 0.0000 0.0000 0.0000 14.2520 0.0000 0.0000
# 5 0.0000 0.0000 0.0000 0.0000 24.1885 0.0000
# 6 0.0000 0.0000 0.0000 0.0000 0.0000 21.2683
#
#
#
# Elastic Compliance Matrix: (Units=1/GPa)
#
#
# Indices 1 2 3 4 5 6 
#
# 1 0.019761 -0.003303 -0.006522 0.000000 0.000000 0.000000
# 2 -0.003303 0.012888 -0.002950 0.000000 0.000000 0.000000
# 3 -0.006522 -0.002950 0.014541 0.000000 0.000000 0.000000
# 4 0.000000 0.000000 0.000000 0.070166 0.000000 0.000000
# 5 0.000000 0.000000 0.000000 0.000000 0.041342 0.000000
# 6 0.000000 0.000000 0.000000 0.000000 0.000000 0.047018
#
#
# Mechanical properties :
#
#
# Convention : Reuss Voigt Hill
#
# Bulk Modulus (GPa) = 46.21069 47.33350 46.77210
# Shear Modulus (GPa) = 20.96609 22.47956 21.72283
#
# Velocity S-wave (km/s) = 3.14265 3.25410 3.19886
# Velocity P-wave (km/s) = 5.91069 6.03455 5.97294
#
# Compressibility (1/GPa) = 0.02164001
#
# Stress axis : x y z
#
# Youngs Moduli (GPa) = 50.60418 77.58975 68.77099
#
# Poissons Ratio (x) = 0.25631 0.44851
# Poissons Ratio (y) = 0.16717 0.20287
# Poissons Ratio (z) = 0.33003 0.22889
#
# Static dielectric constant tensor:
#      x y z
#    x 3.787640 0.000000 0.000000 
#    y 0.000000 4.159680 0.000000 
#    z 0.000000 0.000000 3.554440 
# 
# 
# High freq. dielectric constant tensor:
#      x y z
#    x 1.834830 0.000000 0.000000 
#    y 0.000000 1.841090 0.000000 
#    z 0.000000 0.000000 1.799100 
# 
# From -- ./inp_files/17638.got.cif
#   From: 2010.03.12/outbox.cif.g09.slc.cpg/sg55_9_cif.got.tgz:17638.got - 2010.04.16 15:19:21.
