data_PCOD8226809
_publ_section_title
;
Structure prediction by ZEFSAII (Michael W. Deem and Ramdas Pophale) SiO2 
 PCOD8226809
Probable space group: P B A M
;
_chemical_formula_sum "Si O2"
_cell_formula_units_Z 64
_cell_length_a 18.726217
_cell_length_b 20.825004
_cell_length_c 9.324525
_cell_angle_alpha 90.000000
_cell_angle_beta 90.000000
_cell_angle_gamma 90.000000
_cell_volume 3636.318060
_symmetry_space_group_name_H-M "P B A M"
_symmetry_group_IT_number 55
_symmetry_cell_setting 'orthorhombic'
loop_
_space_group_symop_operation_xyz
x,y,z
-x,-y,z
1/2+x,1/2-y,-z
1/2-x,1/2+y,-z
-x,-y,-z
x,y,-z
1/2-x,1/2+y,z
1/2+x,1/2-y,z
loop_
_atom_site_type_symbol
_atom_site_label
_atom_site_fract_x
_atom_site_fract_y
_atom_site_fract_z
Si Si1 0.667618 0.879995 0.332883
Si Si2 0.676558 0.616953 0.166723
Si Si3 0.579678 0.001236 0.329170
Si Si4 0.675220 0.758907 0.834163
Si Si5 0.315240 0.745567 0.661678
Si Si6 0.919101 0.998397 0.830757
Si Si7 0.165212 0.107575 0.662162
Si Si8 0.822930 0.614122 0.664619
O O1 0.654266 0.870224 0.500000
O O2 0.622727 0.939644 0.272199
O O3 0.637557 0.815766 0.255246
O O4 0.750769 0.892767 0.298489
O O5 0.642310 0.687824 0.194892
O O6 0.618731 0.564514 0.216435
O O7 0.748647 0.605923 0.254072
O O8 0.696023 0.609221 0.000000
O O9 0.577165 0.001558 0.500000
O O10 0.500000 0.000000 0.264839
O O11 0.618915 0.065210 0.271482
O O12 0.756788 0.754834 0.785137
O O13 0.671448 0.777552 0.000000
O O14 0.280629 0.741917 0.500000
O O15 0.363627 0.681480 0.680653
O O16 0.356258 0.813602 0.677899
O O17 0.878038 0.937743 0.766916
O O18 0.918114 0.989373 0.000000
O O19 0.000000 0.000000 0.772249
O O20 0.153799 0.083132 0.500000
O O21 0.806563 0.596735 0.500000
#
# Coordination Sequence:
#
# PCOD8226809 Si02
#       8
#     8   8   8   8   8   8   8   8
#     4   9  17  30  48  71  97 121 149 188 228 267
#     4   9  18  32  49  69  92 117 150 193 232 268
#     4   9  17  29  46  69  96 125 156 188 222 264
#     4   9  16  27  46  70  92 115 147 187 230 273
#     4   8  15  28  46  69  95 118 145 186 230 269
#     4  10  21  35  48  64  90 124 158 190 227 273
#     4   9  17  30  48  70  94 117 146 189 233 269
#     4   9  16  29  51  73  92 120 155 187 224 270
#
# _framework density 17.600221000000001
#
# number of rings (size 3 to 8) (size 9 to 14) (size 15 to 20)
#    0.000    3.000    0.000    1.875    0.000    4.250 
#    0.000    1.875    0.000    3.000    0.000    0.000 
#    0.000    0.000    0.000    0.000    0.000    0.000 
#
# Total GULP energy -793049.600320 kJ/mol
# GULP energy per Si atom -12391.400005 kJ/mol
# Density = 1.756016 g / cm^3
# Si number density = 17.600221 Si / 1000 Ang^3
#
#
#
# Elastic Constant Matrix: (Units=GPa)
#
#
# Indices 1 2 3 4 5 6 
#
# 1 83.8752 73.0928 27.9437 0.0000 0.0000 0.0000
# 2 73.0928 182.8936 45.0028 0.0000 0.0000 0.0000
# 3 27.9437 45.0028 39.7828 0.0000 0.0000 0.0000
# 4 0.0000 0.0000 0.0000 23.4713 0.0000 0.0000
# 5 0.0000 0.0000 0.0000 0.0000 12.3838 0.0000
# 6 0.0000 0.0000 0.0000 0.0000 0.0000 5.4428
#
#
#
# Elastic Compliance Matrix: (Units=1/GPa)
#
#
# Indices 1 2 3 4 5 6 
#
# 1 0.019528 -0.006137 -0.006774 0.000000 0.000000 0.000000
# 2 -0.006137 0.009506 -0.006442 0.000000 0.000000 0.000000
# 3 -0.006774 -0.006442 0.037181 0.000000 0.000000 0.000000
# 4 0.000000 0.000000 0.000000 0.042605 0.000000 0.000000
# 5 0.000000 0.000000 0.000000 0.000000 0.080751 0.000000
# 6 0.000000 0.000000 0.000000 0.000000 0.000000 0.183729
#
#
# Mechanical properties :
#
#
# Convention : Reuss Voigt Hill
#
# Bulk Modulus (GPa) = 36.35193 66.51447 51.43320
# Shear Modulus (GPa) = 11.87156 18.96039 15.41598
#
# Velocity S-wave (km/s) = 2.59995 3.28576 2.96277
# Velocity P-wave (km/s) = 5.45088 7.22972 6.40238
#
# Compressibility (1/GPa) = 0.02750886
#
# Stress axis : x y z
#
# Youngs Moduli (GPa) = 51.20950 105.20179 26.89517
#
# Poissons Ratio (x) = 0.64567 0.18218
# Poissons Ratio (y) = 0.31430 0.17325
# Poissons Ratio (z) = 0.34687 0.67769
#
# Static dielectric constant tensor:
#      x y z
#    x 2.995910 0.000000 0.000000 
#    y 0.000000 3.794040 0.000000 
#    z 0.000000 0.000000 3.106760 
# 
# 
# High freq. dielectric constant tensor:
#      x y z
#    x 1.633040 0.000000 0.000000 
#    y 0.000000 1.707940 0.000000 
#    z 0.000000 0.000000 1.663980 
# 
# From -- ./inp_files/9160.got.cif
#   From: 2010.03.12/outbox.cif.g09.slc.cpg/sg55_5_cif.got.tgz:9160.got - 2010.04.16 15:19:21.
