data_PCOD8226043
_publ_section_title
;
Structure prediction by ZEFSAII (Michael W. Deem and Ramdas Pophale) SiO2 
 PCOD8226043
Probable space group: P B A M
;
_chemical_formula_sum "Si O2"
_cell_formula_units_Z 64
_cell_length_a 24.722765
_cell_length_b 14.987209
_cell_length_c 8.870028
_cell_angle_alpha 90.000000
_cell_angle_beta 90.000000
_cell_angle_gamma 90.000000
_cell_volume 3286.569308
_symmetry_space_group_name_H-M "P B A M"
_symmetry_group_IT_number 55
_symmetry_cell_setting 'orthorhombic'
loop_
_space_group_symop_operation_xyz
x,y,z
-x,-y,z
1/2+x,1/2-y,-z
1/2-x,1/2+y,-z
-x,-y,-z
x,y,-z
1/2-x,1/2+y,z
1/2+x,1/2-y,z
loop_
_atom_site_type_symbol
_atom_site_label
_atom_site_fract_x
_atom_site_fract_y
_atom_site_fract_z
Si Si1 0.894308 0.504632 0.676767
Si Si2 0.447232 0.807847 0.323691
Si Si3 0.149949 0.784902 0.676827
Si Si4 0.559106 0.834084 0.177764
Si Si5 0.675658 0.518494 0.671456
Si Si6 0.643029 0.329194 0.671903
Si Si7 0.215409 0.464152 0.826511
Si Si8 0.760689 0.738744 0.173677
O O1 0.895413 0.488191 0.500000
O O2 0.915874 0.602066 0.721109
O O3 0.932880 0.431819 0.752298
O O4 0.833308 0.491599 0.734298
O O5 0.462020 0.807099 0.500000
O O6 0.500946 0.797681 0.226650
O O7 0.410452 0.723259 0.277103
O O8 0.141714 0.768827 0.500000
O O9 0.103233 0.735729 0.766145
O O10 0.207567 0.744925 0.726363
O O11 0.146789 0.889803 0.722156
O O12 0.562392 0.841906 0.000000
O O13 0.695955 0.530049 0.500000
O O14 0.633584 0.436084 0.686477
O O15 0.727907 0.495657 0.771641
O O16 0.657119 0.301862 0.500000
O O17 0.693602 0.307363 0.777127
O O18 0.215096 0.358828 0.797798
O O19 0.207242 0.489390 0.000000
O O20 0.745114 0.753880 0.000000
#
# Coordination Sequence:
#
# PCOD8226043 Si02
#       8
#     8   8   8   8   8   8   8   8
#     4  11  22  38  61  87 117 157 198 240 289 352
#     4  10  22  41  63  87 117 154 199 244 292 353
#     4  10  21  40  62  84 115 156 201 248 294 346
#     4  12  26  41  60  85 116 155 198 249 304 356
#     4   9  20  37  60  87 118 155 198 245 293 345
#     4  10  20  37  61  89 118 153 197 244 292 349
#     4  10  20  34  54  84 123 159 192 235 288 347
#     4  10  20  34  55  85 121 157 192 237 293 348
#
# _framework density 19.473192000000001
#
# number of rings (size 3 to 8) (size 9 to 14) (size 15 to 20)
#    0.000    1.750    1.250    3.000    1.750    5.000 
#    0.000    0.625    0.000    3.750    0.000    0.000 
#    0.000    0.000    0.000    0.000    0.000    0.000 
#
# Total GULP energy -793857.607442 kJ/mol
# GULP energy per Si atom -12404.025116 kJ/mol
# Density = 1.942887 g / cm^3
# Si number density = 19.473192 Si / 1000 Ang^3
#
#
#
# Elastic Constant Matrix: (Units=GPa)
#
#
# Indices 1 2 3 4 5 6 
#
# 1 96.2348 35.0196 45.0289 0.0000 0.0000 0.0000
# 2 35.0196 59.2037 28.8782 0.0000 0.0000 0.0000
# 3 45.0289 28.8782 87.9576 0.0000 0.0000 0.0000
# 4 0.0000 0.0000 0.0000 23.2798 0.0000 0.0000
# 5 0.0000 0.0000 0.0000 0.0000 18.2449 0.0000
# 6 0.0000 0.0000 0.0000 0.0000 0.0000 28.3311
#
#
#
# Elastic Compliance Matrix: (Units=1/GPa)
#
#
# Indices 1 2 3 4 5 6 
#
# 1 0.015397 -0.006266 -0.005825 0.000000 0.000000 0.000000
# 2 -0.006266 0.022662 -0.004232 0.000000 0.000000 0.000000
# 3 -0.005825 -0.004232 0.015741 0.000000 0.000000 0.000000
# 4 0.000000 0.000000 0.000000 0.042956 0.000000 0.000000
# 5 0.000000 0.000000 0.000000 0.000000 0.054810 0.000000
# 6 0.000000 0.000000 0.000000 0.000000 0.000000 0.035297
#
#
# Mechanical properties :
#
#
# Convention : Reuss Voigt Hill
#
# Bulk Modulus (GPa) = 47.27605 51.24994 49.26300
# Shear Modulus (GPa) = 22.06920 22.93580 22.50250
#
# Velocity S-wave (km/s) = 3.37012 3.43565 3.40305
# Velocity P-wave (km/s) = 6.28282 6.48950 6.38700
#
# Compressibility (1/GPa) = 0.02115236
#
# Stress axis : x y z
#
# Youngs Moduli (GPa) = 64.94730 44.12705 63.52935
#
# Poissons Ratio (x) = 0.27651 0.37006
# Poissons Ratio (y) = 0.40697 0.26888
# Poissons Ratio (z) = 0.37832 0.18676
#
# Static dielectric constant tensor:
#      x y z
#    x 3.452900 0.000000 0.000000 
#    y 0.000000 3.660910 0.000000 
#    z 0.000000 0.000000 3.545130 
# 
# 
# High freq. dielectric constant tensor:
#      x y z
#    x 1.745340 0.000000 0.000000 
#    y 0.000000 1.763740 0.000000 
#    z 0.000000 0.000000 1.761950 
# 
# From -- ./inp_files/6609.got.cif
#   From: 2010.03.12/outbox.cif.g09.slc.cpg/sg55_4_cif.got.tgz:6609.got - 2010.04.16 15:19:21.
