data_PCOD8226800
_publ_section_title
;
Structure prediction by ZEFSAII (Michael W. Deem and Ramdas Pophale) SiO2 
 PCOD8226800
Probable space group: P B A M
;
_chemical_formula_sum "Si O2"
_cell_formula_units_Z 36
_cell_length_a 8.771963
_cell_length_b 21.427753
_cell_length_c 9.755222
_cell_angle_alpha 90.000000
_cell_angle_beta 90.000000
_cell_angle_gamma 90.000000
_cell_volume 1833.625246
_symmetry_space_group_name_H-M "P B A M"
_symmetry_group_IT_number 55
_symmetry_cell_setting 'orthorhombic'
loop_
_space_group_symop_operation_xyz
x,y,z
-x,-y,z
1/2+x,1/2-y,-z
1/2-x,1/2+y,-z
-x,-y,-z
x,y,-z
1/2-x,1/2+y,z
1/2+x,1/2-y,z
loop_
_atom_site_type_symbol
_atom_site_label
_atom_site_fract_x
_atom_site_fract_y
_atom_site_fract_z
Si Si1 0.525208 0.143454 0.500000
Si Si2 0.211734 0.647708 0.724222
Si Si3 0.507119 0.431078 0.773967
Si Si4 0.565976 0.663340 0.000000
Si Si5 0.093821 0.212111 0.500000
Si Si6 0.864141 0.104184 0.500000
Si Si7 0.770545 0.287838 0.000000
O O1 0.433185 0.124379 0.362814
O O2 0.547712 0.216975 0.500000
O O3 0.682365 0.106687 0.500000
O O4 0.315605 0.587654 0.757561
O O5 0.309890 0.697027 0.635840
O O6 0.156271 0.680784 0.864251
O O7 0.500000 0.500000 0.840616
O O8 0.419641 0.434488 0.630551
O O9 0.421198 0.380449 0.867471
O O10 0.410063 0.702400 0.000000
O O11 0.701537 0.713545 0.000000
O O12 0.936418 0.173326 0.500000
#
# Coordination Sequence:
#
# PCOD8226800 Si02
#       7
#     4   8   8   4   4   4   4
#     4  11  21  33  55  84 121 146 184 233 294 343
#     4   9  21  36  55  83 117 152 178 235 289 327
#     4  10  21  41  59  80 111 154 199 228 268 341
#     4  10  23  36  62  86 115 146 182 234 296 332
#     4   9  19  34  54  79 117 149 182 221 287 352
#     4  10  21  33  58  87 104 151 193 232 280 325
#     4  10  22  36  54  88 118 140 184 230 286 342
#
# _framework density 19.633239
#
# number of rings (size 3 to 8) (size 9 to 14) (size 15 to 20)
#    0.000    2.222    0.000    2.667   12.444    0.000 
#    0.000    2.222    0.000    0.000    0.000    9.333 
#    0.000    0.000    0.000    0.000    0.000    0.000 
#
# Total GULP energy -446493.773212 kJ/mol
# GULP energy per Si atom -12402.604811 kJ/mol
# Density = 1.958855 g / cm^3
# Si number density = 19.633239 Si / 1000 Ang^3
#
#
#
# Elastic Constant Matrix: (Units=GPa)
#
#
# Indices 1 2 3 4 5 6 
#
# 1 84.5053 34.9987 38.0589 0.0000 0.0000 0.0000
# 2 34.9987 117.8863 39.8055 0.0000 0.0000 0.0000
# 3 38.0589 39.8055 145.4331 0.0000 0.0000 0.0000
# 4 0.0000 0.0000 0.0000 13.1433 0.0000 0.0000
# 5 0.0000 0.0000 0.0000 0.0000 11.6864 0.0000
# 6 0.0000 0.0000 0.0000 0.0000 0.0000 19.0962
#
#
#
# Elastic Compliance Matrix: (Units=1/GPa)
#
#
# Indices 1 2 3 4 5 6 
#
# 1 0.014514 -0.003335 -0.002886 0.000000 0.000000 0.000000
# 2 -0.003335 0.010113 -0.001895 0.000000 0.000000 0.000000
# 3 -0.002886 -0.001895 0.008150 0.000000 0.000000 0.000000
# 4 0.000000 0.000000 0.000000 0.076084 0.000000 0.000000
# 5 0.000000 0.000000 0.000000 0.000000 0.085570 0.000000
# 6 0.000000 0.000000 0.000000 0.000000 0.000000 0.052366
#
#
# Mechanical properties :
#
#
# Convention : Reuss Voigt Hill
#
# Bulk Modulus (GPa) = 60.43811 63.72789 62.08300
# Shear Modulus (GPa) = 18.61894 24.44928 21.53411
#
# Velocity S-wave (km/s) = 3.08285 3.53271 3.31542
# Velocity P-wave (km/s) = 6.59715 7.01211 6.80779
#
# Compressibility (1/GPa) = 0.01654585
#
# Stress axis : x y z
#
# Youngs Moduli (GPa) = 68.89764 98.88533 122.70130
#
# Poissons Ratio (x) = 0.32976 0.35406
# Poissons Ratio (y) = 0.22976 0.23254
# Poissons Ratio (z) = 0.19881 0.18741
#
# Static dielectric constant tensor:
#      x y z
#    x 3.450040 0.000000 0.000000 
#    y 0.000000 3.302270 0.000000 
#    z 0.000000 0.000000 3.824460 
# 
# 
# High freq. dielectric constant tensor:
#      x y z
#    x 1.747740 0.000000 0.000000 
#    y 0.000000 1.746660 0.000000 
#    z 0.000000 0.000000 1.780670 
# 
# From -- ./inp_files/12036.got.cif
#   From: 2010.03.12/outbox.cif.g09.slc.cpg/sg55_7_cif.got.tgz:12036.got - 2010.04.16 15:19:21.
