data_PCOD8226319
_publ_section_title
;
Structure prediction by ZEFSAII (Michael W. Deem and Ramdas Pophale) SiO2 
 PCOD8226319
Probable space group: P B A M
;
_chemical_formula_sum "Si O2"
_cell_formula_units_Z 56
_cell_length_a 18.650794
_cell_length_b 17.174106
_cell_length_c 9.401453
_cell_angle_alpha 90.000000
_cell_angle_beta 90.000000
_cell_angle_gamma 90.000000
_cell_volume 3011.386115
_symmetry_space_group_name_H-M "P B A M"
_symmetry_group_IT_number 55
_symmetry_cell_setting 'orthorhombic'
loop_
_space_group_symop_operation_xyz
x,y,z
-x,-y,z
1/2+x,1/2-y,-z
1/2-x,1/2+y,-z
-x,-y,-z
x,y,-z
1/2-x,1/2+y,z
1/2+x,1/2-y,z
loop_
_atom_site_type_symbol
_atom_site_label
_atom_site_fract_x
_atom_site_fract_y
_atom_site_fract_z
Si Si1 0.078450 0.517380 0.168550
Si Si2 0.380299 0.188746 0.832229
Si Si3 0.157059 0.953967 0.664306
Si Si4 0.046972 0.820835 0.332997
Si Si5 0.294171 0.908893 0.167764
Si Si6 0.110726 0.126757 0.336186
Si Si7 0.719842 0.268671 0.166627
O O1 0.106500 0.600971 0.220654
O O2 0.133224 0.450738 0.220204
O O3 0.000000 0.500000 0.234312
O O4 0.073798 0.516528 0.000000
O O5 0.437535 0.242332 0.752565
O O6 0.300811 0.213646 0.786273
O O7 0.392365 0.198063 0.000000
O O8 0.178328 0.943749 0.500000
O O9 0.103179 0.886649 0.714322
O O10 0.228341 0.951212 0.757141
O O11 0.117598 0.035210 0.691750
O O12 0.052266 0.804049 0.500000
O O13 0.968402 0.848919 0.288253
O O14 0.299511 0.818947 0.212655
O O15 0.282239 0.918112 0.000000
O O16 0.124580 0.147445 0.500000
O O17 0.168307 0.172296 0.244757
O O18 0.709719 0.281648 0.000000
#
# Coordination Sequence:
#
# PCOD8226319 Si02
#       7
#     8   8   8   8   8   8   8
#     4   9  19  34  55  80 108 146 184 222 271 329
#     4  10  20  36  57  81 110 143 186 229 273 329
#     4  10  20  37  59  81 109 148 185 222 275 337
#     4  10  21  37  57  82 113 146 181 226 279 332
#     4  10  20  36  58  83 111 143 186 231 274 329
#     4  10  22  37  56  82 111 145 186 228 273 331
#     4  10  21  36  56  85 113 144 185 234 281 325
#
# _framework density 18.596087000000001
#
# number of rings (size 3 to 8) (size 9 to 14) (size 15 to 20)
#    0.000    2.143    1.429    1.286    2.000    5.143 
#    0.000    0.714    0.000    3.429    0.000    0.000 
#    0.000    0.000    0.000    0.000    0.000    0.000 
#
# Total GULP energy -694618.234937 kJ/mol
# GULP energy per Si atom -12403.897052 kJ/mol
# Density = 1.855376 g / cm^3
# Si number density = 18.596087 Si / 1000 Ang^3
#
#
#
# Elastic Constant Matrix: (Units=GPa)
#
#
# Indices 1 2 3 4 5 6 
#
# 1 63.1141 20.4114 25.0299 0.0000 0.0000 0.0000
# 2 20.4114 108.7049 23.1698 0.0000 0.0000 0.0000
# 3 25.0299 23.1698 27.7146 0.0000 0.0000 0.0000
# 4 0.0000 0.0000 0.0000 27.0242 0.0000 0.0000
# 5 0.0000 0.0000 0.0000 0.0000 23.6145 0.0000
# 6 0.0000 0.0000 0.0000 0.0000 0.0000 35.2900
#
#
#
# Elastic Compliance Matrix: (Units=1/GPa)
#
#
# Indices 1 2 3 4 5 6 
#
# 1 0.024688 0.000142 -0.022415 0.000000 0.000000 0.000000
# 2 0.000142 0.011195 -0.009487 0.000000 0.000000 0.000000
# 3 -0.022415 -0.009487 0.064257 0.000000 0.000000 0.000000
# 4 0.000000 0.000000 0.000000 0.037004 0.000000 0.000000
# 5 0.000000 0.000000 0.000000 0.000000 0.042347 0.000000
# 6 0.000000 0.000000 0.000000 0.000000 0.000000 0.028337
#
#
# Mechanical properties :
#
#
# Convention : Reuss Voigt Hill
#
# Bulk Modulus (GPa) = 27.30805 37.41732 32.36269
# Shear Modulus (GPa) = 17.63334 25.91390 21.77362
#
# Velocity S-wave (km/s) = 3.08267 3.73703 3.42551
# Velocity P-wave (km/s) = 5.23328 6.22778 5.75206
#
# Compressibility (1/GPa) = 0.03661923
#
# Stress axis : x y z
#
# Youngs Moduli (GPa) = 40.50583 89.32814 15.56247
#
# Poissons Ratio (x) = -0.01269 0.34883
# Poissons Ratio (y) = -0.00575 0.14764
# Poissons Ratio (z) = 0.90794 0.84747
#
# Static dielectric constant tensor:
#      x y z
#    x 3.575640 0.000000 0.000000 
#    y 0.000000 3.566630 0.000000 
#    z 0.000000 0.000000 3.174050 
# 
# 
# High freq. dielectric constant tensor:
#      x y z
#    x 1.732800 0.000000 0.000000 
#    y 0.000000 1.736970 0.000000 
#    z 0.000000 0.000000 1.696840 
# 
# From -- ./inp_files/8761.got.cif
#   From: 2010.03.12/outbox.cif.g09.slc.cpg/sg55_5_cif.got.tgz:8761.got - 2010.04.16 15:19:21.
