data_PCOD8226321
_publ_section_title
;
Structure prediction by ZEFSAII (Michael W. Deem and Ramdas Pophale) SiO2 
 PCOD8226321
Probable space group: P B A M
;
_chemical_formula_sum "Si O2"
_cell_formula_units_Z 64
_cell_length_a 32.805361
_cell_length_b 11.583880
_cell_length_c 8.755220
_cell_angle_alpha 90.000000
_cell_angle_beta 90.000000
_cell_angle_gamma 90.000000
_cell_volume 3327.100615
_symmetry_space_group_name_H-M "P B A M"
_symmetry_group_IT_number 55
_symmetry_cell_setting 'orthorhombic'
loop_
_space_group_symop_operation_xyz
x,y,z
-x,-y,z
1/2+x,1/2-y,-z
1/2-x,1/2+y,-z
-x,-y,-z
x,y,-z
1/2-x,1/2+y,z
1/2+x,1/2-y,z
loop_
_atom_site_type_symbol
_atom_site_label
_atom_site_fract_x
_atom_site_fract_y
_atom_site_fract_z
Si Si1 0.447419 0.414473 0.180268
Si Si2 0.784682 0.608358 0.320106
Si Si3 0.696389 0.541848 0.324220
Si Si4 0.090619 0.318472 0.179315
Si Si5 0.365305 0.021366 0.320240
Si Si6 0.327792 0.689010 0.821868
Si Si7 0.373945 0.285375 0.324625
Si Si8 0.530579 0.348989 0.318890
O O1 0.405728 0.349438 0.216227
O O2 0.484222 0.346539 0.260951
O O3 0.444980 0.544746 0.243252
O O4 0.454789 0.418596 0.000000
O O5 0.781971 0.619303 0.500000
O O6 0.741550 0.562675 0.256664
O O7 0.820482 0.521382 0.267610
O O8 0.792336 0.736288 0.256406
O O9 0.698351 0.502739 0.500000
O O10 0.674388 0.442583 0.229217
O O11 0.670478 0.658473 0.304780
O O12 0.099793 0.448601 0.234057
O O13 0.128337 0.237607 0.227179
O O14 0.051207 0.270707 0.267784
O O15 0.081919 0.317579 0.000000
O O16 0.370734 0.003353 0.500000
O O17 0.370318 0.153441 0.271168
O O18 0.321355 0.699120 0.000000
O O19 0.388717 0.294308 0.500000
O O20 0.531450 0.362613 0.500000
#
# Coordination Sequence:
#
# PCOD8226321 Si02
#       8
#     8   8   8   8   8   8   8   8
#     4  11  22  37  57  85 119 152 185 227 281 337
#     4   9  19  35  57  80 105 140 187 234 278 326
#     4  10  21  34  56  82 107 142 186 234 279 328
#     4  10  20  36  57  82 112 146 186 228 278 335
#     4   9  19  36  57  80 110 148 190 235 280 330
#     4  10  21  35  52  77 111 144 178 225 276 331
#     4  10  21  37  56  82 114 149 189 233 281 333
#     4  11  21  36  61  88 115 146 185 232 281 330
#
# _framework density 19.235969000000001
#
# number of rings (size 3 to 8) (size 9 to 14) (size 15 to 20)
#    0.000    2.000    0.000    4.500    1.750    5.000 
#    0.000    0.625    0.000    3.750    0.000    0.000 
#    0.000    0.000    0.000    0.000    0.000    0.000 
#
# Total GULP energy -793875.299120 kJ/mol
# GULP energy per Si atom -12404.301549 kJ/mol
# Density = 1.919219 g / cm^3
# Si number density = 19.235969 Si / 1000 Ang^3
#
#
#
# Elastic Constant Matrix: (Units=GPa)
#
#
# Indices 1 2 3 4 5 6 
#
# 1 76.7143 29.5890 23.0810 0.0000 0.0000 0.0000
# 2 29.5890 88.7502 20.5447 0.0000 0.0000 0.0000
# 3 23.0810 20.5447 63.5633 0.0000 0.0000 0.0000
# 4 0.0000 0.0000 0.0000 19.5846 0.0000 0.0000
# 5 0.0000 0.0000 0.0000 0.0000 23.8890 0.0000
# 6 0.0000 0.0000 0.0000 0.0000 0.0000 28.5975
#
#
#
# Elastic Compliance Matrix: (Units=1/GPa)
#
#
# Indices 1 2 3 4 5 6 
#
# 1 0.016034 -0.004321 -0.004425 0.000000 0.000000 0.000000
# 2 -0.004321 0.013343 -0.002744 0.000000 0.000000 0.000000
# 3 -0.004425 -0.002744 0.018226 0.000000 0.000000 0.000000
# 4 0.000000 0.000000 0.000000 0.051060 0.000000 0.000000
# 5 0.000000 0.000000 0.000000 0.000000 0.041860 0.000000
# 6 0.000000 0.000000 0.000000 0.000000 0.000000 0.034968
#
#
# Mechanical properties :
#
#
# Convention : Reuss Voigt Hill
#
# Bulk Modulus (GPa) = 40.61319 41.71745 41.16532
# Shear Modulus (GPa) = 24.19200 24.80176 24.49688
#
# Velocity S-wave (km/s) = 3.55018 3.59464 3.57248
# Velocity P-wave (km/s) = 6.16149 6.24202 6.20189
#
# Compressibility (1/GPa) = 0.02462254
#
# Stress axis : x y z
#
# Youngs Moduli (GPa) = 62.36939 74.94367 54.86631
#
# Poissons Ratio (x) = 0.32384 0.24281
# Poissons Ratio (y) = 0.26950 0.15054
# Poissons Ratio (z) = 0.27601 0.20563
#
# Static dielectric constant tensor:
#      x y z
#    x 3.555150 0.000000 0.000000 
#    y 0.000000 3.490960 0.000000 
#    z 0.000000 0.000000 3.432780 
# 
# 
# High freq. dielectric constant tensor:
#      x y z
#    x 1.746790 0.000000 0.000000 
#    y 0.000000 1.745060 0.000000 
#    z 0.000000 0.000000 1.746670 
# 
# From -- ./inp_files/10822.got.cif
#   From: 2010.03.12/outbox.cif.g09.slc.cpg/sg55_6_cif.got.tgz:10822.got - 2010.04.16 15:19:21.
