data_PCOD8226736
_publ_section_title
;
Structure prediction by ZEFSAII (Michael W. Deem and Ramdas Pophale) SiO2 
 PCOD8226736
Probable space group: P B A M
;
_chemical_formula_sum "Si O2"
_cell_formula_units_Z 48
_cell_length_a 20.331276
_cell_length_b 13.961969
_cell_length_c 8.813545
_cell_angle_alpha 90.000000
_cell_angle_beta 90.000000
_cell_angle_gamma 90.000000
_cell_volume 2501.853825
_symmetry_space_group_name_H-M "P B A M"
_symmetry_group_IT_number 55
_symmetry_cell_setting 'orthorhombic'
loop_
_space_group_symop_operation_xyz
x,y,z
-x,-y,z
1/2+x,1/2-y,-z
1/2-x,1/2+y,-z
-x,-y,-z
x,y,-z
1/2-x,1/2+y,z
1/2+x,1/2-y,z
loop_
_atom_site_type_symbol
_atom_site_label
_atom_site_fract_x
_atom_site_fract_y
_atom_site_fract_z
Si Si1 0.439983 0.071174 0.668300
Si Si2 0.002014 0.747049 0.176164
Si Si3 0.561224 0.556930 0.821387
Si Si4 0.812910 0.546202 0.321730
Si Si5 0.859314 0.755607 0.679155
Si Si6 0.812132 0.948281 0.179929
O O1 0.428000 0.114917 0.500000
O O2 0.456437 0.153058 0.787964
O O3 0.500000 0.000000 0.660063
O O4 0.376879 0.013759 0.726147
O O5 0.934791 0.754706 0.268685
O O6 0.051797 0.832322 0.220900
O O7 0.982842 0.750796 0.000000
O O8 0.500000 0.500000 0.749231
O O9 0.628619 0.513992 0.754723
O O10 0.562498 0.540406 0.000000
O O11 0.798979 0.538266 0.500000
O O12 0.823951 0.656499 0.273278
O O13 0.753786 0.500608 0.229372
O O14 0.858994 0.768031 0.500000
O O15 0.817957 0.841666 0.752716
O O16 0.813592 0.939194 0.000000
#
# Coordination Sequence:
#
# PCOD8226736 Si02
#       6
#     8   8   8   8   8   8
#     4  10  20  39  61  84 117 158 200 244 300 358
#     4  11  21  35  61  93 121 153 203 256 304 352
#     4   9  18  36  58  83 119 155 188 239 301 352
#     4  10  23  42  62  85 121 163 200 245 300 364
#     4  11  22  40  63  87 120 162 204 244 304 368
#     4  11  23  40  63  90 122 158 200 251 306 361
#
# _framework density 19.185772
#
# number of rings (size 3 to 8) (size 9 to 14) (size 15 to 20)
#    0.000    1.667    3.333    1.500    0.000    3.667 
#    0.000    7.500    0.000    0.000    0.000    0.000 
#    0.000    0.000    0.000    0.000    0.000    0.000 
#
# Total GULP energy -595222.487129 kJ/mol
# GULP energy per Si atom -12400.468482 kJ/mol
# Density = 1.914210 g / cm^3
# Si number density = 19.185772 Si / 1000 Ang^3
#
#
#
# Elastic Constant Matrix: (Units=GPa)
#
#
# Indices 1 2 3 4 5 6 
#
# 1 145.7167 73.2389 42.1320 0.0000 0.0000 0.0000
# 2 73.2389 149.6481 51.9978 0.0000 0.0000 0.0000
# 3 42.1320 51.9978 61.4983 0.0000 0.0000 0.0000
# 4 0.0000 0.0000 0.0000 34.9804 0.0000 0.0000
# 5 0.0000 0.0000 0.0000 0.0000 34.2220 0.0000
# 6 0.0000 0.0000 0.0000 0.0000 0.0000 35.1060
#
#
#
# Elastic Compliance Matrix: (Units=1/GPa)
#
#
# Indices 1 2 3 4 5 6 
#
# 1 0.009665 -0.003440 -0.003713 0.000000 0.000000 0.000000
# 2 -0.003440 0.010687 -0.006679 0.000000 0.000000 0.000000
# 3 -0.003713 -0.006679 0.024451 0.000000 0.000000 0.000000
# 4 0.000000 0.000000 0.000000 0.028587 0.000000 0.000000
# 5 0.000000 0.000000 0.000000 0.000000 0.029221 0.000000
# 6 0.000000 0.000000 0.000000 0.000000 0.000000 0.028485
#
#
# Mechanical properties :
#
#
# Convention : Reuss Voigt Hill
#
# Bulk Modulus (GPa) = 58.34505 76.84450 67.59478
# Shear Modulus (GPa) = 30.39995 33.49464 31.94730
#
# Velocity S-wave (km/s) = 3.98490 4.18282 4.08506
# Velocity P-wave (km/s) = 7.18674 7.96667 7.58673
#
# Compressibility (1/GPa) = 0.01713941
#
# Stress axis : x y z
#
# Youngs Moduli (GPa) = 103.46395 93.57434 40.89735
#
# Poissons Ratio (x) = 0.32191 0.15185
# Poissons Ratio (y) = 0.35593 0.27315
# Poissons Ratio (z) = 0.38415 0.62498
#
# Static dielectric constant tensor:
#      x y z
#    x 3.529530 0.000000 0.000000 
#    y 0.000000 3.675670 0.000000 
#    z 0.000000 0.000000 3.396270 
# 
# 
# High freq. dielectric constant tensor:
#      x y z
#    x 1.748000 0.000000 0.000000 
#    y 0.000000 1.760650 0.000000 
#    z 0.000000 0.000000 1.734210 
# 
# From -- ./inp_files/7423.got.cif
#   From: 2010.03.12/outbox.cif.g09.slc.cpg/sg55_4_cif.got.tgz:7423.got - 2010.04.16 15:19:21.
