data_PCOD8226719
_publ_section_title
;
Structure prediction by ZEFSAII (Michael W. Deem and Ramdas Pophale) SiO2 
 PCOD8226719
Probable space group: P B A M
;
_chemical_formula_sum "Si O2"
_cell_formula_units_Z 40
_cell_length_a 12.220198
_cell_length_b 18.481551
_cell_length_c 8.999593
_cell_angle_alpha 90.000000
_cell_angle_beta 90.000000
_cell_angle_gamma 90.000000
_cell_volume 2032.541993
_symmetry_space_group_name_H-M "P B A M"
_symmetry_group_IT_number 55
_symmetry_cell_setting 'orthorhombic'
loop_
_space_group_symop_operation_xyz
x,y,z
-x,-y,z
1/2+x,1/2-y,-z
1/2-x,1/2+y,-z
-x,-y,-z
x,y,-z
1/2-x,1/2+y,z
1/2+x,1/2-y,z
loop_
_atom_site_type_symbol
_atom_site_label
_atom_site_fract_x
_atom_site_fract_y
_atom_site_fract_z
Si Si1 0.598444 0.806827 0.173310
Si Si2 0.040122 0.837938 0.324691
Si Si3 0.692483 0.548861 0.173851
Si Si4 0.437054 0.930568 0.823731
Si Si5 0.827230 0.880658 0.171020
O O1 0.599269 0.733797 0.266577
O O2 0.497236 0.857001 0.224946
O O3 0.708787 0.849592 0.209149
O O4 0.589414 0.787473 0.000000
O O5 0.044417 0.838873 0.500000
O O6 0.101596 0.907925 0.263043
O O7 0.914894 0.839144 0.271295
O O8 0.812412 0.571711 0.233233
O O9 0.672780 0.465147 0.207577
O O10 0.679915 0.566213 0.000000
O O11 0.500000 0.000000 0.755177
O O12 0.437756 0.938852 0.000000
O O13 0.857739 0.866603 0.000000
#
# Coordination Sequence:
#
# PCOD8226719 Si02
#       5
#     8   8   8   8   8
#     4  10  21  39  64  92 119 152 198 250 304 356
#     4  12  27  41  56  84 128 169 202 241 294 360
#     4  10  20  38  66  95 119 149 199 254 303 357
#     4   9  16  33  63  96 119 141 186 251 309 352
#     4  10  21  40  66  91 117 152 202 257 302 353
#
# _framework density 19.679791000000002
#
# number of rings (size 3 to 8) (size 9 to 14) (size 15 to 20)
#    0.000    1.800    2.000    2.400    2.800    4.000 
#    0.000    0.000    0.000    1.200    0.000    0.000 
#    0.000    0.000    0.000    0.000    0.000    0.000 
#
# Total GULP energy -496165.913315 kJ/mol
# GULP energy per Si atom -12404.147833 kJ/mol
# Density = 1.963500 g / cm^3
# Si number density = 19.679791 Si / 1000 Ang^3
#
#
#
# Elastic Constant Matrix: (Units=GPa)
#
#
# Indices 1 2 3 4 5 6 
#
# 1 82.7992 22.4168 32.8933 0.0000 0.0000 0.0000
# 2 22.4168 90.5288 45.4861 0.0000 0.0000 0.0000
# 3 32.8933 45.4861 77.8681 0.0000 0.0000 0.0000
# 4 0.0000 0.0000 0.0000 -0.2756 0.0000 0.0000
# 5 0.0000 0.0000 0.0000 0.0000 7.5423 0.0000
# 6 0.0000 0.0000 0.0000 0.0000 0.0000 35.1264
#
#
#
# Elastic Compliance Matrix: (Units=1/GPa)
#
#
# Indices 1 2 3 4 5 6 
#
# 1 0.014547 -0.000728 -0.005719 0.000000 0.000000 0.000000
# 2 -0.000728 0.015672 -0.008847 0.000000 0.000000 0.000000
# 3 -0.005719 -0.008847 0.020426 0.000000 0.000000 0.000000
# 4 0.000000 0.000000 0.000000 -3.628460 0.000000 0.000000
# 5 0.000000 0.000000 0.000000 0.000000 0.132586 0.000000
# 6 0.000000 0.000000 0.000000 0.000000 0.000000 0.028469
#
#
# Mechanical properties :
#
#
# Convention : Reuss Voigt Hill
#
# Bulk Modulus (GPa) = 49.86224 50.30985 50.08604
# Shear Modulus (GPa) = -1.47951 18.50529 8.51289
#
# Velocity S-wave (km/s) = -0.86800 3.06979 2.08209
# Velocity P-wave (km/s) = 4.93834 6.17936 5.59338
#
# Compressibility (1/GPa) = 0.02005526
#
# Stress axis : x y z
#
# Youngs Moduli (GPa) = 68.74400 63.80967 48.95720
#
# Poissons Ratio (x) = 0.04648 0.28001
# Poissons Ratio (y) = 0.05007 0.43311
# Poissons Ratio (z) = 0.39317 0.56451
#
# Static dielectric constant tensor:
#      x y z
#    x 3.809720 0.000000 0.000000 
#    y 0.000000 3.654450 0.000000 
#    z 0.000000 0.000000 3.209710 
# 
# 
# High freq. dielectric constant tensor:
#      x y z
#    x 1.785060 0.000000 0.000000 
#    y 0.000000 1.778840 0.000000 
#    z 0.000000 0.000000 1.723560 
# 
# From -- ./inp_files/3585.got.cif
#   From: 2010.03.12/outbox.cif.g09.slc.cpg/sg55_2_cif.got.tgz:3585.got - 2010.04.16 15:19:21.
