data_PCOD8226159
_publ_section_title
;
Structure prediction by ZEFSAII (Michael W. Deem and Ramdas Pophale) SiO2 
 PCOD8226159
Probable space group: P B A M
;
_chemical_formula_sum "Si O2"
_cell_formula_units_Z 56
_cell_length_a 13.272210
_cell_length_b 23.662352
_cell_length_c 8.918378
_cell_angle_alpha 90.000000
_cell_angle_beta 90.000000
_cell_angle_gamma 90.000000
_cell_volume 2800.831815
_symmetry_space_group_name_H-M "P B A M"
_symmetry_group_IT_number 55
_symmetry_cell_setting 'orthorhombic'
loop_
_space_group_symop_operation_xyz
x,y,z
-x,-y,z
1/2+x,1/2-y,-z
1/2-x,1/2+y,-z
-x,-y,-z
x,y,-z
1/2-x,1/2+y,z
1/2+x,1/2-y,z
loop_
_atom_site_type_symbol
_atom_site_label
_atom_site_fract_x
_atom_site_fract_y
_atom_site_fract_z
Si Si1 0.641529 0.165917 0.674548
Si Si2 0.589776 0.830455 0.672752
Si Si3 0.768593 0.771017 0.823032
Si Si4 0.612321 0.368458 0.673615
Si Si5 0.280277 0.943010 0.174746
Si Si6 0.453776 0.441055 0.824539
Si Si7 0.695783 0.943017 0.671324
O O1 0.667935 0.169587 0.500000
O O2 0.525991 0.182923 0.704728
O O3 0.713600 0.207626 0.766013
O O4 0.658678 0.102717 0.731234
O O5 0.620348 0.819729 0.500000
O O6 0.656752 0.789360 0.774314
O O7 0.612331 0.895955 0.711432
O O8 0.854156 0.811324 0.755049
O O9 0.776181 0.772683 0.000000
O O10 0.599279 0.353718 0.500000
O O11 0.506356 0.389130 0.739513
O O12 0.694052 0.417254 0.701267
O O13 0.163062 0.938869 0.216612
O O14 0.322131 0.004419 0.219517
O O15 0.299278 0.933154 0.000000
O O16 0.500000 0.500000 0.766364
O O17 0.474183 0.433853 0.000000
O O18 0.685527 0.963486 0.500000
#
# Coordination Sequence:
#
# PCOD8226159 Si02
#       7
#     8   8   8   8   8   8   8
#     4  11  24  43  64  86 119 157 198 247 295 347
#     4   9  21  42  66  89 114 153 199 243 290 348
#     4  11  23  40  64  90 119 153 195 245 298 356
#     4  10  20  35  59  88 118 157 204 246 291 352
#     4  11  23  37  56  85 123 159 197 245 299 355
#     4  10  20  35  55  84 123 161 198 244 299 353
#     4   9  18  35  58  85 115 149 195 241 290 351
#
# _framework density 19.994060000000001
#
# number of rings (size 3 to 8) (size 9 to 14) (size 15 to 20)
#    0.000    1.857    1.429    3.429    0.000    6.571 
#    0.000    2.857    0.000    0.000    0.000    0.000 
#    0.000    0.000    0.000    0.000    0.000    0.000 
#
# Total GULP energy -694718.585671 kJ/mol
# GULP energy per Si atom -12405.689030 kJ/mol
# Density = 1.994855 g / cm^3
# Si number density = 19.994060 Si / 1000 Ang^3
#
#
#
# Elastic Constant Matrix: (Units=GPa)
#
#
# Indices 1 2 3 4 5 6 
#
# 1 59.3992 24.3544 39.6061 0.0000 0.0000 0.0000
# 2 24.3544 92.7905 45.0582 0.0000 0.0000 0.0000
# 3 39.6061 45.0582 105.6900 0.0000 0.0000 0.0000
# 4 0.0000 0.0000 0.0000 36.9228 0.0000 0.0000
# 5 0.0000 0.0000 0.0000 0.0000 28.4287 0.0000
# 6 0.0000 0.0000 0.0000 0.0000 0.0000 25.3175
#
#
#
# Elastic Compliance Matrix: (Units=1/GPa)
#
#
# Indices 1 2 3 4 5 6 
#
# 1 0.022832 -0.002318 -0.007568 0.000000 0.000000 0.000000
# 2 -0.002318 0.013826 -0.005026 0.000000 0.000000 0.000000
# 3 -0.007568 -0.005026 0.014440 0.000000 0.000000 0.000000
# 4 0.000000 0.000000 0.000000 0.027084 0.000000 0.000000
# 5 0.000000 0.000000 0.000000 0.000000 0.035176 0.000000
# 6 0.000000 0.000000 0.000000 0.000000 0.000000 0.039498
#
#
# Mechanical properties :
#
#
# Convention : Reuss Voigt Hill
#
# Bulk Modulus (GPa) = 47.00334 52.87968 49.94151
# Shear Modulus (GPa) = 26.34781 28.05787 27.20284
#
# Velocity S-wave (km/s) = 3.63406 3.75014 3.69256
# Velocity P-wave (km/s) = 6.41625 6.72730 6.57361
#
# Compressibility (1/GPa) = 0.02127508
#
# Stress axis : x y z
#
# Youngs Moduli (GPa) = 43.79902 72.32903 69.25131
#
# Poissons Ratio (x) = 0.16764 0.52408
# Poissons Ratio (y) = 0.10151 0.34804
# Poissons Ratio (z) = 0.33146 0.36350
#
# Static dielectric constant tensor:
#      x y z
#    x 3.540870 0.000000 0.000000 
#    y 0.000000 3.554190 0.000000 
#    z 0.000000 0.000000 3.559590 
# 
# 
# High freq. dielectric constant tensor:
#      x y z
#    x 1.774490 0.000000 0.000000 
#    y 0.000000 1.781310 0.000000 
#    z 0.000000 0.000000 1.781680 
# 
# From -- ./inp_files/6195.got.cif
#   From: 2010.03.12/outbox.cif.g09.slc.cpg/sg55_4_cif.got.tgz:6195.got - 2010.04.16 15:19:21.
