data_PCOD8226174
_publ_section_title
;
Structure prediction by ZEFSAII (Michael W. Deem and Ramdas Pophale) SiO2 
 PCOD8226174
Probable space group: P B A M
;
_chemical_formula_sum "Si O2"
_cell_formula_units_Z 64
_cell_length_a 18.543380
_cell_length_b 20.439279
_cell_length_c 8.736106
_cell_angle_alpha 90.000000
_cell_angle_beta 90.000000
_cell_angle_gamma 90.000000
_cell_volume 3311.100516
_symmetry_space_group_name_H-M "P B A M"
_symmetry_group_IT_number 55
_symmetry_cell_setting 'orthorhombic'
loop_
_space_group_symop_operation_xyz
x,y,z
-x,-y,z
1/2+x,1/2-y,-z
1/2-x,1/2+y,-z
-x,-y,-z
x,y,-z
1/2-x,1/2+y,z
1/2+x,1/2-y,z
loop_
_atom_site_type_symbol
_atom_site_label
_atom_site_fract_x
_atom_site_fract_y
_atom_site_fract_z
Si Si1 0.959069 0.933417 0.320423
Si Si2 0.952267 0.181667 0.820302
Si Si3 0.799577 0.562863 0.320232
Si Si4 0.300455 0.172938 0.319524
Si Si5 0.799721 0.181017 0.320793
Si Si6 0.038214 0.680152 0.318658
Si Si7 0.796311 0.942076 0.318559
Si Si8 0.453952 0.937818 0.820003
O O1 0.962454 0.916573 0.500000
O O2 0.877765 0.941780 0.258640
O O3 0.993386 0.875165 0.225276
O O4 0.000000 0.000000 0.283141
O O5 0.872410 0.161434 0.766256
O O6 0.980890 0.248214 0.743555
O O7 0.952021 0.191829 0.000000
O O8 0.817235 0.557694 0.500000
O O9 0.765386 0.632922 0.277277
O O10 0.742521 0.508440 0.266601
O O11 0.871552 0.551069 0.225342
O O12 0.299795 0.164480 0.500000
O O13 0.274935 0.245903 0.273718
O O14 0.381786 0.160342 0.260240
O O15 0.246605 0.119812 0.246004
O O16 0.818327 0.176536 0.500000
O O17 0.034284 0.683058 0.500000
O O18 0.981185 0.627929 0.259527
O O19 0.796754 0.937590 0.500000
O O20 0.500000 0.000000 0.761956
O O21 0.461405 0.929169 0.000000
#
# Coordination Sequence:
#
# PCOD8226174 Si02
#       8
#     8   8   8   8   8   8   8   8
#     4  10  20  35  56  81 111 148 190 234 277 327
#     4  11  22  36  56  83 116 150 184 227 284 346
#     4  10  20  35  57  82 107 141 188 235 275 323
#     4   8  15  29  51  78 103 129 170 225 277 321
#     4   9  18  34  55  79 106 139 184 232 276 328
#     4  10  20  37  61  83 107 144 191 239 281 329
#     4   9  17  30  51  78 105 135 178 232 279 318
#     4  11  24  39  55  81 119 155 185 226 283 342
#
# _framework density 19.32892
#
# number of rings (size 3 to 8) (size 9 to 14) (size 15 to 20)
#    0.000    2.250    0.000    4.125    0.000    5.750 
#    0.000    3.125    0.000    3.750    0.000    0.000 
#    0.000    0.000    0.000    0.000    0.000    0.000 
#
# Total GULP energy -793695.034037 kJ/mol
# GULP energy per Si atom -12401.484907 kJ/mol
# Density = 1.928493 g / cm^3
# Si number density = 19.328920 Si / 1000 Ang^3
#
#
#
# Elastic Constant Matrix: (Units=GPa)
#
#
# Indices 1 2 3 4 5 6 
#
# 1 112.4504 60.5301 29.9170 0.0000 0.0000 0.0000
# 2 60.5301 116.9408 32.7481 0.0000 0.0000 0.0000
# 3 29.9170 32.7481 60.5918 0.0000 0.0000 0.0000
# 4 0.0000 0.0000 0.0000 17.7540 0.0000 0.0000
# 5 0.0000 0.0000 0.0000 0.0000 13.5990 0.0000
# 6 0.0000 0.0000 0.0000 0.0000 0.0000 41.9551
#
#
#
# Elastic Compliance Matrix: (Units=1/GPa)
#
#
# Indices 1 2 3 4 5 6 
#
# 1 0.012845 -0.005742 -0.003239 0.000000 0.000000 0.000000
# 2 -0.005742 0.012643 -0.003998 0.000000 0.000000 0.000000
# 3 -0.003239 -0.003998 0.020264 0.000000 0.000000 0.000000
# 4 0.000000 0.000000 0.000000 0.056325 0.000000 0.000000
# 5 0.000000 0.000000 0.000000 0.000000 0.073535 0.000000
# 6 0.000000 0.000000 0.000000 0.000000 0.000000 0.023835
#
#
# Mechanical properties :
#
#
# Convention : Reuss Voigt Hill
#
# Bulk Modulus (GPa) = 50.51962 59.59702 55.05832
# Shear Modulus (GPa) = 21.55141 25.78082 23.66612
#
# Velocity S-wave (km/s) = 3.34276 3.65608 3.50292
# Velocity P-wave (km/s) = 6.41032 6.98016 6.70130
#
# Compressibility (1/GPa) = 0.01979429
#
# Stress axis : x y z
#
# Youngs Moduli (GPa) = 77.84976 79.09503 49.34854
#
# Poissons Ratio (x) = 0.45415 0.15984
# Poissons Ratio (y) = 0.44700 0.19730
# Poissons Ratio (z) = 0.25216 0.31624
#
# Static dielectric constant tensor:
#      x y z
#    x 3.721080 0.000000 0.000000 
#    y 0.000000 3.821340 0.000000 
#    z 0.000000 0.000000 3.201810 
# 
# 
# High freq. dielectric constant tensor:
#      x y z
#    x 1.754800 0.000000 0.000000 
#    y 0.000000 1.768430 0.000000 
#    z 0.000000 0.000000 1.720850 
# 
# From -- ./inp_files/8037.got.cif
#   From: 2010.03.12/outbox.cif.g09.slc.cpg/sg55_5_cif.got.tgz:8037.got - 2010.04.16 15:19:21.
