data_PCOD8226108
_publ_section_title
;
Structure prediction by ZEFSAII (Michael W. Deem and Ramdas Pophale) SiO2 
 PCOD8226108
Probable space group: P B A M
;
_chemical_formula_sum "Si O2"
_cell_formula_units_Z 56
_cell_length_a 21.843365
_cell_length_b 14.654595
_cell_length_c 8.859715
_cell_angle_alpha 90.000000
_cell_angle_beta 90.000000
_cell_angle_gamma 90.000000
_cell_volume 2836.044984
_symmetry_space_group_name_H-M "P B A M"
_symmetry_group_IT_number 55
_symmetry_cell_setting 'orthorhombic'
loop_
_space_group_symop_operation_xyz
x,y,z
-x,-y,z
1/2+x,1/2-y,-z
1/2-x,1/2+y,-z
-x,-y,-z
x,y,-z
1/2-x,1/2+y,z
1/2+x,1/2-y,z
loop_
_atom_site_type_symbol
_atom_site_label
_atom_site_fract_x
_atom_site_fract_y
_atom_site_fract_z
Si Si1 0.178342 0.441648 0.176101
Si Si2 0.758280 0.892497 0.175348
Si Si3 0.100357 0.881643 0.324278
Si Si4 0.611892 0.409902 0.677006
Si Si5 0.042764 0.418814 0.820050
Si Si6 0.782604 0.192576 0.172298
Si Si7 0.011212 0.217343 0.821662
O O1 0.215446 0.527737 0.242727
O O2 0.110974 0.432606 0.248769
O O3 0.216027 0.349461 0.209179
O O4 0.169802 0.459004 0.000000
O O5 0.820031 0.889205 0.269325
O O6 0.720443 0.800126 0.198177
O O7 0.774975 0.908867 0.000000
O O8 0.088050 0.865733 0.500000
O O9 0.168756 0.851163 0.284699
O O10 0.053690 0.821018 0.229934
O O11 0.091918 0.987414 0.280952
O O12 0.608175 0.393698 0.500000
O O13 0.566371 0.340992 0.756517
O O14 0.016660 0.321659 0.764553
O O15 0.000000 0.500000 0.757143
O O16 0.044703 0.420992 0.000000
O O17 0.801341 0.169107 0.000000
O O18 0.015396 0.212362 0.000000
#
# Coordination Sequence:
#
# PCOD8226108 Si02
#       7
#     8   8   8   8   8   8   8
#     4   9  17  32  54  84 120 150 180 235 291 339
#     4  10  20  34  60  90 117 149 194 244 292 350
#     4  11  24  40  58  84 120 157 199 247 303 362
#     4  11  23  40  60  85 121 160 197 242 302 361
#     4   9  19  35  58  90 124 152 188 240 298 351
#     4  10  20  35  58  88 118 151 198 247 296 349
#     4  11  23  38  62  90 118 155 202 248 296 352
#
# _framework density 19.745806999999999
#
# number of rings (size 3 to 8) (size 9 to 14) (size 15 to 20)
#    0.000    1.857    1.429    2.571    2.000    6.286 
#    0.000    0.000    0.000    2.571    0.000    0.000 
#    0.000    0.000    0.000    0.000    0.000    0.000 
#
# Total GULP energy -694552.987110 kJ/mol
# GULP energy per Si atom -12402.731913 kJ/mol
# Density = 1.970087 g / cm^3
# Si number density = 19.745807 Si / 1000 Ang^3
#
#
#
# Elastic Constant Matrix: (Units=GPa)
#
#
# Indices 1 2 3 4 5 6 
#
# 1 121.6625 49.9375 27.6909 0.0000 0.0000 0.0000
# 2 49.9375 133.9085 36.7268 0.0000 0.0000 0.0000
# 3 27.6909 36.7268 44.7887 0.0000 0.0000 0.0000
# 4 0.0000 0.0000 0.0000 16.6999 0.0000 0.0000
# 5 0.0000 0.0000 0.0000 0.0000 6.9693 0.0000
# 6 0.0000 0.0000 0.0000 0.0000 0.0000 35.1311
#
#
#
# Elastic Compliance Matrix: (Units=1/GPa)
#
#
# Indices 1 2 3 4 5 6 
#
# 1 0.010267 -0.002694 -0.004139 0.000000 0.000000 0.000000
# 2 -0.002694 0.010341 -0.006815 0.000000 0.000000 0.000000
# 3 -0.004139 -0.006815 0.030474 0.000000 0.000000 0.000000
# 4 0.000000 0.000000 0.000000 0.059881 0.000000 0.000000
# 5 0.000000 0.000000 0.000000 0.000000 0.143486 0.000000
# 6 0.000000 0.000000 0.000000 0.000000 0.000000 0.028465
#
#
# Mechanical properties :
#
#
# Convention : Reuss Voigt Hill
#
# Bulk Modulus (GPa) = 42.03779 58.78559 50.41169
# Shear Modulus (GPa) = 15.71649 24.16037 19.93843
#
# Velocity S-wave (km/s) = 2.82430 3.50175 3.18111
# Velocity P-wave (km/s) = 5.65431 6.79599 6.25127
#
# Compressibility (1/GPa) = 0.02378812
#
# Stress axis : x y z
#
# Youngs Moduli (GPa) = 97.39815 96.69948 32.81502
#
# Poissons Ratio (x) = 0.26048 0.13582
# Poissons Ratio (y) = 0.26236 0.22362
# Poissons Ratio (z) = 0.40312 0.65896
#
# Static dielectric constant tensor:
#      x y z
#    x 3.807250 0.000000 0.000000 
#    y 0.000000 3.848010 0.000000 
#    z 0.000000 0.000000 3.314990 
# 
# 
# High freq. dielectric constant tensor:
#      x y z
#    x 1.780600 0.000000 0.000000 
#    y 0.000000 1.787080 0.000000 
#    z 0.000000 0.000000 1.735080 
# 
# From -- ./inp_files/6175.got.cif
#   From: 2010.03.12/outbox.cif.g09.slc.cpg/sg55_4_cif.got.tgz:6175.got - 2010.04.16 15:19:21.
