data_PCOD8226898
_publ_section_title
;
Structure prediction by ZEFSAII (Michael W. Deem and Ramdas Pophale) SiO2 
 PCOD8226898
Probable space group: P B A M
;
_chemical_formula_sum "Si O2"
_cell_formula_units_Z 56
_cell_length_a 10.024094
_cell_length_b 19.686991
_cell_length_c 14.378458
_cell_angle_alpha 90.000000
_cell_angle_beta 90.000000
_cell_angle_gamma 90.000000
_cell_volume 2837.505987
_symmetry_space_group_name_H-M "P B A M"
_symmetry_group_IT_number 55
_symmetry_cell_setting 'orthorhombic'
loop_
_space_group_symop_operation_xyz
x,y,z
-x,-y,z
1/2+x,1/2-y,-z
1/2-x,1/2+y,-z
-x,-y,-z
x,y,-z
1/2-x,1/2+y,z
1/2+x,1/2-y,z
loop_
_atom_site_type_symbol
_atom_site_label
_atom_site_fract_x
_atom_site_fract_y
_atom_site_fract_z
Si Si1 0.068468 0.792968 0.392171
Si Si2 0.815531 0.941592 0.255131
Si Si3 0.192474 0.814203 0.108106
Si Si4 0.512318 0.206290 0.107232
Si Si5 0.908614 0.437170 0.890186
Si Si6 0.883573 0.089657 0.742161
Si Si7 0.231365 0.176436 0.608326
O O1 0.094636 0.806272 0.500000
O O2 0.133297 0.857325 0.341277
O O3 0.146985 0.725147 0.360596
O O4 0.910293 0.786164 0.370517
O O5 0.732887 0.939259 0.160226
O O6 0.753972 0.893631 0.334964
O O7 0.962982 0.918117 0.228754
O O8 0.818764 0.019160 0.292197
O O9 0.333163 0.775813 0.122991
O O10 0.191449 0.884119 0.165195
O O11 0.079610 0.764753 0.153095
O O12 0.171207 0.832767 0.000000
O O13 0.482567 0.131062 0.144526
O O14 0.471419 0.207749 0.000000
O O15 0.000000 0.500000 0.858821
O O16 0.881914 0.438688 0.000000
O O17 0.241020 0.157305 0.500000
#
# Coordination Sequence:
#
# PCOD8226898 Si02
#       7
#     8   8   8   8   8   8   8
#     4   9  19  37  60  85 111 147 188 232 284 340
#     4  10  22  38  54  86 114 149 195 233 283 341
#     4  10  21  36  55  82 114 148 187 235 284 333
#     4   9  20  35  54  78 106 143 189 233 279 333
#     4  10  21  38  57  77 111 156 198 235 281 342
#     4  10  22  36  56  82 117 149 189 235 282 343
#     4   9  19  38  63  87 115 147 186 235 286 342
#
# _framework density 19.735641000000001
#
# number of rings (size 3 to 8) (size 9 to 14) (size 15 to 20)
#    0.000    2.429    0.000    0.857    4.000    4.000 
#    2.571    4.286    0.000    0.429    0.000    0.000 
#    0.000    0.000    0.000    0.000    0.000    0.000 
#
# Total GULP energy -694393.011262 kJ/mol
# GULP energy per Si atom -12399.875201 kJ/mol
# Density = 1.969072 g / cm^3
# Si number density = 19.735641 Si / 1000 Ang^3
#
#
#
# Elastic Constant Matrix: (Units=GPa)
#
#
# Indices 1 2 3 4 5 6 
#
# 1 86.1856 56.4730 41.6135 0.0000 0.0000 0.0000
# 2 56.4730 143.7395 49.9103 0.0000 0.0000 0.0000
# 3 41.6135 49.9103 61.6148 0.0000 0.0000 0.0000
# 4 0.0000 0.0000 0.0000 28.5785 0.0000 0.0000
# 5 0.0000 0.0000 0.0000 0.0000 25.3085 0.0000
# 6 0.0000 0.0000 0.0000 0.0000 0.0000 31.4823
#
#
#
# Elastic Compliance Matrix: (Units=1/GPa)
#
#
# Indices 1 2 3 4 5 6 
#
# 1 0.018845 -0.004153 -0.009364 0.000000 0.000000 0.000000
# 2 -0.004153 0.010595 -0.005777 0.000000 0.000000 0.000000
# 3 -0.009364 -0.005777 0.027234 0.000000 0.000000 0.000000
# 4 0.000000 0.000000 0.000000 0.034991 0.000000 0.000000
# 5 0.000000 0.000000 0.000000 0.000000 0.039512 0.000000
# 6 0.000000 0.000000 0.000000 0.000000 0.000000 0.031764
#
#
# Mechanical properties :
#
#
# Convention : Reuss Voigt Hill
#
# Bulk Modulus (GPa) = 55.29174 65.28149 60.28662
# Shear Modulus (GPa) = 24.08971 26.64342 25.36656
#
# Velocity S-wave (km/s) = 3.49753 3.67824 3.58902
# Velocity P-wave (km/s) = 6.66238 7.15465 6.91290
#
# Compressibility (1/GPa) = 0.01808588
#
# Stress axis : x y z
#
# Youngs Moduli (GPa) = 53.06445 94.38787 36.71876
#
# Poissons Ratio (x) = 0.39195 0.34383
# Poissons Ratio (y) = 0.22035 0.21214
# Poissons Ratio (z) = 0.49689 0.54532
#
# Static dielectric constant tensor:
#      x y z
#    x 3.605250 0.000000 0.000000 
#    y 0.000000 3.785560 0.000000 
#    z 0.000000 0.000000 3.404560 
# 
# 
# High freq. dielectric constant tensor:
#      x y z
#    x 1.769890 0.000000 0.000000 
#    y 0.000000 1.772660 0.000000 
#    z 0.000000 0.000000 1.757040 
# 
# From -- ./inp_files/17631.got.cif
#   From: 2010.03.12/outbox.cif.g09.slc.cpg/sg55_9_cif.got.tgz:17631.got - 2010.04.16 15:19:21.
