data_PCOD8226049
_publ_section_title
;
Structure prediction by ZEFSAII (Michael W. Deem and Ramdas Pophale) SiO2 
 PCOD8226049
Probable space group: P B A M
;
_chemical_formula_sum "Si O2"
_cell_formula_units_Z 56
_cell_length_a 13.054719
_cell_length_b 9.714195
_cell_length_c 22.567616
_cell_angle_alpha 90.000000
_cell_angle_beta 90.000000
_cell_angle_gamma 90.000000
_cell_volume 2861.936732
_symmetry_space_group_name_H-M "P B A M"
_symmetry_group_IT_number 55
_symmetry_cell_setting 'orthorhombic'
loop_
_space_group_symop_operation_xyz
x,y,z
-x,-y,z
1/2+x,1/2-y,-z
1/2-x,1/2+y,-z
-x,-y,-z
x,y,-z
1/2-x,1/2+y,z
1/2+x,1/2-y,z
loop_
_atom_site_type_symbol
_atom_site_label
_atom_site_fract_x
_atom_site_fract_y
_atom_site_fract_z
Si Si1 0.522644 0.854585 0.851956
Si Si2 0.553165 0.354194 0.644025
Si Si3 0.217826 0.023537 0.432804
Si Si4 0.119821 0.737963 0.568470
Si Si5 0.921269 0.876430 0.775533
Si Si6 0.750198 0.410535 0.867842
Si Si7 0.657450 0.166036 0.068603
O O1 0.473530 0.740146 0.812676
O O2 0.643161 0.829778 0.858464
O O3 0.462426 0.855889 0.915271
O O4 0.500000 0.000000 0.820023
O O5 0.500000 0.500000 0.647434
O O6 0.651336 0.368017 0.603459
O O7 0.475486 0.245025 0.613911
O O8 0.593085 0.314055 0.709639
O O9 0.184090 0.045113 0.500000
O O10 0.332318 0.084780 0.422901
O O11 0.201101 0.862661 0.415682
O O12 0.083576 0.756113 0.500000
O O13 0.813119 0.920054 0.805845
O O14 0.000000 0.000000 0.774528
O O15 0.771092 0.562762 0.893077
O O16 0.687635 0.322705 0.916142
O O17 0.674370 0.135642 0.000000
#
# Coordination Sequence:
#
# PCOD8226049 Si02
#       7
#     8   8   8   8   8   8   8
#     4   9  20  36  52  74 104 136 168 204 254 307
#     4   9  18  32  51  73  97 133 173 207 249 304
#     4   9  17  31  50  73 100 130 167 209 255 303
#     4   9  17  31  51  74 101 132 167 210 257 304
#     4  10  20  35  53  74 100 133 177 217 250 299
#     4  10  20  35  54  75 104 138 167 208 258 298
#     4  10  20  34  55  81 105 133 170 207 249 304
#
# _framework density 19.567169
#
# number of rings (size 3 to 8) (size 9 to 14) (size 15 to 20)
#    0.000    2.571    0.000    1.714    0.000    6.000 
#    0.000    9.286    0.000    8.143    0.000    0.000 
#    0.000    0.000    0.000    0.000    0.000    0.000 
#
# Total GULP energy -693876.862689 kJ/mol
# GULP energy per Si atom -12390.658262 kJ/mol
# Density = 1.952263 g / cm^3
# Si number density = 19.567169 Si / 1000 Ang^3
#
#
#
# Elastic Constant Matrix: (Units=GPa)
#
#
# Indices 1 2 3 4 5 6 
#
# 1 91.5311 7.5855 40.1593 0.0000 0.0000 0.0000
# 2 7.5855 46.0713 14.3234 0.0000 0.0000 0.0000
# 3 40.1593 14.3234 109.3696 0.0000 0.0000 0.0000
# 4 0.0000 0.0000 0.0000 14.8465 0.0000 0.0000
# 5 0.0000 0.0000 0.0000 0.0000 27.6857 0.0000
# 6 0.0000 0.0000 0.0000 0.0000 0.0000 25.5585
#
#
#
# Elastic Compliance Matrix: (Units=1/GPa)
#
#
# Indices 1 2 3 4 5 6 
#
# 1 0.013044 -0.000687 -0.004700 0.000000 0.000000 0.000000
# 2 -0.000687 0.022663 -0.002716 0.000000 0.000000 0.000000
# 3 -0.004700 -0.002716 0.011225 0.000000 0.000000 0.000000
# 4 0.000000 0.000000 0.000000 0.067356 0.000000 0.000000
# 5 0.000000 0.000000 0.000000 0.000000 0.036120 0.000000
# 6 0.000000 0.000000 0.000000 0.000000 0.000000 0.039126
#
#
# Mechanical properties :
#
#
# Convention : Reuss Voigt Hill
#
# Bulk Modulus (GPa) = 32.54431 41.23424 36.88928
# Shear Modulus (GPa) = 23.15028 25.94506 24.54767
#
# Velocity S-wave (km/s) = 3.44338 3.64531 3.54578
# Velocity P-wave (km/s) = 5.69889 6.23190 5.97135
#
# Compressibility (1/GPa) = 0.03072734
#
# Stress axis : x y z
#
# Youngs Moduli (GPa) = 76.66261 44.12496 89.08931
#
# Poissons Ratio (x) = 0.03029 0.41870
# Poissons Ratio (y) = 0.05263 0.24196
# Poissons Ratio (z) = 0.36030 0.11984
#
# Static dielectric constant tensor:
#      x y z
#    x 3.599170 0.000000 0.000000 
#    y 0.000000 3.420460 0.000000 
#    z 0.000000 0.000000 3.757490 
# 
# 
# High freq. dielectric constant tensor:
#      x y z
#    x 1.756840 0.000000 0.000000 
#    y 0.000000 1.759550 0.000000 
#    z 0.000000 0.000000 1.751700 
# 
# From -- ./inp_files/22828.got.cif
#   From: 2010.03.12/outbox.cif.g09.slc.cpg/sg55_12_cif.got.tgz:22828.got - 2010.04.16 15:19:21.
