data_PCOD8226403
_publ_section_title
;
Structure prediction by ZEFSAII (Michael W. Deem and Ramdas Pophale) SiO2 
 PCOD8226403
Probable space group: P B A M
;
_chemical_formula_sum "Si O2"
_cell_formula_units_Z 48
_cell_length_a 13.620761
_cell_length_b 9.627433
_cell_length_c 18.620461
_cell_angle_alpha 90.000000
_cell_angle_beta 90.000000
_cell_angle_gamma 90.000000
_cell_volume 2441.756241
_symmetry_space_group_name_H-M "P B A M"
_symmetry_group_IT_number 55
_symmetry_cell_setting 'orthorhombic'
loop_
_space_group_symop_operation_xyz
x,y,z
-x,-y,z
1/2+x,1/2-y,-z
1/2-x,1/2+y,-z
-x,-y,-z
x,y,-z
1/2-x,1/2+y,z
1/2+x,1/2-y,z
loop_
_atom_site_type_symbol
_atom_site_label
_atom_site_fract_x
_atom_site_fract_y
_atom_site_fract_z
Si Si1 0.097586 0.589600 0.500000
Si Si2 0.703041 0.269315 0.288179
Si Si3 0.960768 0.852561 0.186490
Si Si4 0.598406 0.588459 0.500000
Si Si5 0.332871 0.257648 0.153965
Si Si6 0.756473 0.518464 0.616489
Si Si7 0.797502 0.955446 0.084369
O O1 0.068524 0.750614 0.500000
O O2 0.160291 0.556375 0.570399
O O3 0.000000 0.500000 0.500000
O O4 0.597564 0.274150 0.249357
O O5 0.787706 0.224614 0.233056
O O6 0.726608 0.421929 0.317426
O O7 0.697721 0.160760 0.353197
O O8 0.891631 0.878624 0.117920
O O9 0.049694 0.754951 0.161176
O O10 0.000000 0.000000 0.216192
O O11 0.500000 0.500000 0.500000
O O12 0.660379 0.552354 0.570480
O O13 0.300630 0.114325 0.116660
O O14 0.295655 0.383187 0.104163
O O15 0.801857 0.935851 0.000000
#
# Coordination Sequence:
#
# PCOD8226403 Si02
#       7
#     4   8   8   4   8   8   8
#     4  11  26  44  61  97 129 157 205 255 304 366
#     4  11  22  40  64  89 119 164 201 251 311 361
#     4   9  20  37  59  88 120 152 207 257 297 360
#     4  11  26  44  69  93 125 163 207 251 304 366
#     4  10  21  38  58  86 122 152 201 255 298 362
#     4  11  24  43  66  88 126 161 205 252 305 366
#     4  10  20  36  59  86 118 162 202 246 307 363
#
# _framework density 19.657982000000001
#
# number of rings (size 3 to 8) (size 9 to 14) (size 15 to 20)
#    0.000    1.667    1.667    3.500    2.333    7.000 
#    0.000    6.667    0.000    5.000    0.000    0.000 
#    0.000    0.000    0.000    0.000    0.000    0.000 
#
# Total GULP energy -595452.348030 kJ/mol
# GULP energy per Si atom -12405.257251 kJ/mol
# Density = 1.961324 g / cm^3
# Si number density = 19.657982 Si / 1000 Ang^3
#
#
#
# Elastic Constant Matrix: (Units=GPa)
#
#
# Indices 1 2 3 4 5 6 
#
# 1 119.5430 50.4091 42.1953 0.0000 0.0000 0.0000
# 2 50.4091 87.3347 31.2673 0.0000 0.0000 0.0000
# 3 42.1953 31.2673 106.8715 0.0000 0.0000 0.0000
# 4 0.0000 0.0000 0.0000 38.1100 0.0000 0.0000
# 5 0.0000 0.0000 0.0000 0.0000 15.9368 0.0000
# 6 0.0000 0.0000 0.0000 0.0000 0.0000 34.7880
#
#
#
# Elastic Compliance Matrix: (Units=1/GPa)
#
#
# Indices 1 2 3 4 5 6 
#
# 1 0.011855 -0.005771 -0.002992 0.000000 0.000000 0.000000
# 2 -0.005771 0.015600 -0.002285 0.000000 0.000000 0.000000
# 3 -0.002992 -0.002285 0.011207 0.000000 0.000000 0.000000
# 4 0.000000 0.000000 0.000000 0.026240 0.000000 0.000000
# 5 0.000000 0.000000 0.000000 0.000000 0.062748 0.000000
# 6 0.000000 0.000000 0.000000 0.000000 0.000000 0.028746
#
#
# Mechanical properties :
#
#
# Convention : Reuss Voigt Hill
#
# Bulk Modulus (GPa) = 60.37182 62.38807 61.37995
# Shear Modulus (GPa) = 27.17191 30.42548 28.79870
#
# Velocity S-wave (km/s) = 3.72187 3.93840 3.83167
# Velocity P-wave (km/s) = 7.01766 7.24479 7.13213
#
# Compressibility (1/GPa) = 0.01656402
#
# Stress axis : x y z
#
# Youngs Moduli (GPa) = 84.35251 64.10426 89.23017
#
# Poissons Ratio (x) = 0.36997 0.26698
# Poissons Ratio (y) = 0.48683 0.20391
# Poissons Ratio (z) = 0.25239 0.14650
#
# Static dielectric constant tensor:
#      x y z
#    x 3.641700 0.000000 0.000000 
#    y 0.000000 3.612020 0.000000 
#    z 0.000000 0.000000 3.722180 
# 
# 
# High freq. dielectric constant tensor:
#      x y z
#    x 1.766580 0.000000 0.000000 
#    y 0.000000 1.770760 0.000000 
#    z 0.000000 0.000000 1.772510 
# 
# From -- ./inp_files/21545.got.cif
#   From: 2010.03.12/outbox.cif.g09.slc.cpg/sg55_11_cif.got.tgz:21545.got - 2010.04.16 15:19:21.
