data_PCOD8226309
_publ_section_title
;
Structure prediction by ZEFSAII (Michael W. Deem and Ramdas Pophale) SiO2 
 PCOD8226309
Probable space group: P B A M
;
_chemical_formula_sum "Si O2"
_cell_formula_units_Z 40
_cell_length_a 10.200685
_cell_length_b 17.578200
_cell_length_c 12.900502
_cell_angle_alpha 90.000000
_cell_angle_beta 90.000000
_cell_angle_gamma 90.000000
_cell_volume 2313.184899
_symmetry_space_group_name_H-M "P B A M"
_symmetry_group_IT_number 55
_symmetry_cell_setting 'orthorhombic'
loop_
_space_group_symop_operation_xyz
x,y,z
-x,-y,z
1/2+x,1/2-y,-z
1/2-x,1/2+y,-z
-x,-y,-z
x,y,-z
1/2-x,1/2+y,z
1/2+x,1/2-y,z
loop_
_atom_site_type_symbol
_atom_site_label
_atom_site_fract_x
_atom_site_fract_y
_atom_site_fract_z
Si Si1 0.054507 0.915021 0.883686
Si Si2 0.523749 0.349924 0.684738
Si Si3 0.214382 0.574590 0.382441
Si Si4 0.528734 0.177548 0.622154
Si Si5 0.240607 0.916073 0.287944
O O1 0.961603 0.862265 0.810007
O O2 0.202057 0.914111 0.834664
O O3 0.057720 0.881798 0.000000
O O4 0.000000 0.000000 0.882369
O O5 0.648309 0.382259 0.625419
O O6 0.502937 0.262865 0.656970
O O7 0.393317 0.396349 0.648011
O O8 0.190965 0.549011 0.500000
O O9 0.206896 0.499436 0.313813
O O10 0.099864 0.630731 0.345951
O O11 0.558418 0.172520 0.500000
O O12 0.650933 0.146348 0.686783
#
# Coordination Sequence:
#
# PCOD8226309 Si02
#       5
#     8   8   8   8   8
#     4   9  18  38  63  83 103 138 189 244 287 312
#     4  10  20  36  56  84 103 145 190 231 268 329
#     4  11  21  34  53  82 114 150 187 219 271 335
#     4  11  23  35  52  80 125 156 168 218 290 336
#     4  10  20  37  56  81 108 147 192 228 265 332
#
# _framework density 17.292175
#
# number of rings (size 3 to 8) (size 9 to 14) (size 15 to 20)
#    1.200    0.600    2.000    3.600    0.000    7.200 
#    0.000    1.000    0.000    4.800    0.000    0.000 
#    0.000    0.000    0.000    0.000    0.000    0.000 
#
# Total GULP energy -495736.651914 kJ/mol
# GULP energy per Si atom -12393.416298 kJ/mol
# Density = 1.725282 g / cm^3
# Si number density = 17.292175 Si / 1000 Ang^3
#
#
#
# Elastic Constant Matrix: (Units=GPa)
#
#
# Indices 1 2 3 4 5 6 
#
# 1 67.5564 11.5214 10.7661 0.0000 0.0000 0.0000
# 2 11.5214 77.7461 17.8161 0.0000 0.0000 0.0000
# 3 10.7661 17.8161 76.3121 0.0000 0.0000 0.0000
# 4 0.0000 0.0000 0.0000 9.5692 0.0000 0.0000
# 5 0.0000 0.0000 0.0000 0.0000 12.5917 0.0000
# 6 0.0000 0.0000 0.0000 0.0000 0.0000 33.9246
#
#
#
# Elastic Compliance Matrix: (Units=1/GPa)
#
#
# Indices 1 2 3 4 5 6 
#
# 1 0.015400 -0.001885 -0.001733 0.000000 0.000000 0.000000
# 2 -0.001885 0.013820 -0.002961 0.000000 0.000000 0.000000
# 3 -0.001733 -0.002961 0.014040 0.000000 0.000000 0.000000
# 4 0.000000 0.000000 0.000000 0.104502 0.000000 0.000000
# 5 0.000000 0.000000 0.000000 0.000000 0.079418 0.000000
# 6 0.000000 0.000000 0.000000 0.000000 0.000000 0.029477
#
#
# Mechanical properties :
#
#
# Convention : Reuss Voigt Hill
#
# Bulk Modulus (GPa) = 33.21878 33.53576 33.37727
# Shear Modulus (GPa) = 17.86684 23.31781 20.59233
#
# Velocity S-wave (km/s) = 3.21788 3.67612 3.45461
# Velocity P-wave (km/s) = 5.74964 6.11998 5.93770
#
# Compressibility (1/GPa) = 0.03010346
#
# Stress axis : x y z
#
# Youngs Moduli (GPa) = 64.93482 72.35792 71.22662
#
# Poissons Ratio (x) = 0.13641 0.12340
# Poissons Ratio (y) = 0.12241 0.21087
# Poissons Ratio (z) = 0.11250 0.21422
#
# Static dielectric constant tensor:
#      x y z
#    x 3.250060 0.000000 0.000000 
#    y 0.000000 3.204980 0.000000 
#    z 0.000000 0.000000 3.212340 
# 
# 
# High freq. dielectric constant tensor:
#      x y z
#    x 1.668130 0.000000 0.000000 
#    y 0.000000 1.674310 0.000000 
#    z 0.000000 0.000000 1.644730 
# 
# From -- ./inp_files/17188.got.cif
#   From: 2010.03.12/outbox.cif.g09.slc.cpg/sg55_9_cif.got.tgz:17188.got - 2010.04.16 15:19:21.
