data_PCOD8226328
_publ_section_title
;
Structure prediction by ZEFSAII (Michael W. Deem and Ramdas Pophale) SiO2 
 PCOD8226328
Probable space group: P B A M
;
_chemical_formula_sum "Si O2"
_cell_formula_units_Z 64
_cell_length_a 23.851512
_cell_length_b 15.602861
_cell_length_c 8.893224
_cell_angle_alpha 90.000000
_cell_angle_beta 90.000000
_cell_angle_gamma 90.000000
_cell_volume 3309.629554
_symmetry_space_group_name_H-M "P B A M"
_symmetry_group_IT_number 55
_symmetry_cell_setting 'orthorhombic'
loop_
_space_group_symop_operation_xyz
x,y,z
-x,-y,z
1/2+x,1/2-y,-z
1/2-x,1/2+y,-z
-x,-y,-z
x,y,-z
1/2-x,1/2+y,z
1/2+x,1/2-y,z
loop_
_atom_site_type_symbol
_atom_site_label
_atom_site_fract_x
_atom_site_fract_y
_atom_site_fract_z
Si Si1 0.006032 0.865622 0.677737
Si Si2 0.410275 0.508977 0.322272
Si Si3 0.209641 0.011816 0.178064
Si Si4 0.727490 0.158536 0.821158
Si Si5 0.395824 0.083665 0.177623
Si Si6 0.216701 0.667698 0.177627
Si Si7 0.118785 0.402188 0.676863
Si Si8 0.998426 0.325924 0.676695
O O1 0.001574 0.860891 0.500000
O O2 0.009083 0.769775 0.744047
O O3 0.950398 0.914265 0.735179
O O4 0.061401 0.918437 0.724536
O O5 0.400909 0.513367 0.500000
O O6 0.352471 0.518733 0.238767
O O7 0.245133 0.091234 0.244207
O O8 0.238010 0.924112 0.233485
O O9 0.207515 0.014109 0.000000
O O10 0.761730 0.241148 0.761435
O O11 0.667148 0.159268 0.741346
O O12 0.718933 0.159929 0.000000
O O13 0.348119 0.152800 0.224044
O O14 0.455123 0.110884 0.244166
O O15 0.376908 0.992974 0.242158
O O16 0.401088 0.074640 0.000000
O O17 0.222141 0.665708 0.000000
O O18 0.126265 0.415089 0.500000
O O19 0.060270 0.357463 0.716183
O O20 0.986485 0.329069 0.500000
#
# Coordination Sequence:
#
# PCOD8226328 Si02
#       8
#     8   8   8   8   8   8   8   8
#     4   8  17  36  56  78 112 151 184 226 280 332
#     4   9  18  34  58  81 108 149 191 223 269 338
#     4  10  20  36  57  83 114 147 180 229 290 331
#     4  10  21  39  61  81 113 153 188 229 281 337
#     4  11  22  40  62  83 111 149 192 231 278 342
#     4   9  20  38  58  82 112 149 187 227 279 334
#     4  11  23  39  59  84 115 147 184 233 286 335
#     4  10  22  38  57  82 114 146 183 236 291 330
#
# _framework density 19.337510999999999
#
# number of rings (size 3 to 8) (size 9 to 14) (size 15 to 20)
#    0.000    2.250    1.250    1.875    3.500    3.000 
#    0.000    3.125    0.000    0.000    0.000    0.000 
#    0.000    0.000    0.000    0.000    0.000    0.000 
#
# Total GULP energy -793647.341841 kJ/mol
# GULP energy per Si atom -12400.739716 kJ/mol
# Density = 1.929350 g / cm^3
# Si number density = 19.337511 Si / 1000 Ang^3
#
#
#
# Elastic Constant Matrix: (Units=GPa)
#
#
# Indices 1 2 3 4 5 6 
#
# 1 83.6385 12.6711 26.2203 0.0000 0.0000 0.0000
# 2 12.6711 98.1766 17.8444 0.0000 0.0000 0.0000
# 3 26.2203 17.8444 30.2271 0.0000 0.0000 0.0000
# 4 0.0000 0.0000 0.0000 16.8503 0.0000 0.0000
# 5 0.0000 0.0000 0.0000 0.0000 38.0946 0.0000
# 6 0.0000 0.0000 0.0000 0.0000 0.0000 30.1705
#
#
#
# Elastic Compliance Matrix: (Units=1/GPa)
#
#
# Indices 1 2 3 4 5 6 
#
# 1 0.016446 0.000527 -0.014577 0.000000 0.000000 0.000000
# 2 0.000527 0.011427 -0.007203 0.000000 0.000000 0.000000
# 3 -0.014577 -0.007203 0.049980 0.000000 0.000000 0.000000
# 4 0.000000 0.000000 0.000000 0.059346 0.000000 0.000000
# 5 0.000000 0.000000 0.000000 0.000000 0.026250 0.000000
# 6 0.000000 0.000000 0.000000 0.000000 0.000000 0.033145
#
#
# Mechanical properties :
#
#
# Convention : Reuss Voigt Hill
#
# Bulk Modulus (GPa) = 28.29115 36.16820 32.22968
# Shear Modulus (GPa) = 19.92958 27.37686 23.65322
#
# Velocity S-wave (km/s) = 3.21381 3.76671 3.50119
# Velocity P-wave (km/s) = 5.33229 6.13692 5.74870
#
# Compressibility (1/GPa) = 0.03534674
#
# Stress axis : x y z
#
# Youngs Moduli (GPa) = 60.80396 87.51285 20.00799
#
# Poissons Ratio (x) = -0.04611 0.29166
# Poissons Ratio (y) = -0.03204 0.14411
# Poissons Ratio (z) = 0.88636 0.63034
#
# Static dielectric constant tensor:
#      x y z
#    x 3.639800 0.000000 0.000000 
#    y 0.000000 3.989610 0.000000 
#    z 0.000000 0.000000 3.194150 
# 
# 
# High freq. dielectric constant tensor:
#      x y z
#    x 1.765940 0.000000 0.000000 
#    y 0.000000 1.764220 0.000000 
#    z 0.000000 0.000000 1.721880 
# 
# From -- ./inp_files/9735.got.cif
#   From: 2010.03.12/outbox.cif.g09.slc.cpg/sg55_5_cif.got.tgz:9735.got - 2010.04.16 15:19:21.
