data_PCOD8226149
_publ_section_title
;
Structure prediction by ZEFSAII (Michael W. Deem and Ramdas Pophale) SiO2 
 PCOD8226149
Probable space group: P B A M
;
_chemical_formula_sum "Si O2"
_cell_formula_units_Z 64
_cell_length_a 27.791318
_cell_length_b 13.249267
_cell_length_c 9.010315
_cell_angle_alpha 90.000000
_cell_angle_beta 90.000000
_cell_angle_gamma 90.000000
_cell_volume 3317.729466
_symmetry_space_group_name_H-M "P B A M"
_symmetry_group_IT_number 55
_symmetry_cell_setting 'orthorhombic'
loop_
_space_group_symop_operation_xyz
x,y,z
-x,-y,z
1/2+x,1/2-y,-z
1/2-x,1/2+y,-z
-x,-y,-z
x,y,-z
1/2-x,1/2+y,z
1/2+x,1/2-y,z
loop_
_atom_site_type_symbol
_atom_site_label
_atom_site_fract_x
_atom_site_fract_y
_atom_site_fract_z
Si Si1 0.946545 0.032518 0.176224
Si Si2 0.671526 0.069822 0.170219
Si Si3 0.619184 0.373420 0.329311
Si Si4 0.309670 0.157668 0.175564
Si Si5 0.517256 0.899073 0.833917
Si Si6 0.714452 0.262474 0.325461
Si Si7 0.408402 0.253308 0.823614
Si Si8 0.417090 0.805161 0.162099
O O1 0.930385 0.142069 0.238117
O O2 0.903764 0.960332 0.229999
O O3 0.947175 0.029933 0.000000
O O4 0.000000 0.000000 0.235715
O O5 0.701809 0.152844 0.259968
O O6 0.614483 0.093460 0.187932
O O7 0.680259 0.956753 0.230608
O O8 0.688256 0.076743 0.000000
O O9 0.613268 0.403676 0.500000
O O10 0.674718 0.348775 0.287719
O O11 0.590757 0.270828 0.296749
O O12 0.263712 0.199599 0.257830
O O13 0.353269 0.232895 0.221107
O O14 0.301497 0.159871 0.000000
O O15 0.560666 0.839599 0.754691
O O16 0.473154 0.823326 0.841674
O O17 0.500000 0.000000 0.746408
O O18 0.534099 0.931638 0.000000
O O19 0.719679 0.248519 0.500000
O O20 0.414844 0.252604 0.000000
O O21 0.402028 0.758983 0.000000
#
# Coordination Sequence:
#
# PCOD8226149 Si02
#       8
#     8   8   8   8   8   8   8   8
#     4  10  20  35  56  81 111 147 182 218 266 325
#     4   9  18  33  54  79 105 134 171 216 265 316
#     4  10  21  36  53  74 101 135 177 223 267 310
#     4  10  20  35  55  79 108 140 176 222 274 321
#     4   9  15  25  47  78 107 132 160 199 247 299
#     4  10  22  38  55  77 105 140 183 228 274 326
#     4   9  18  31  48  76 110 138 170 213 260 313
#     4   9  16  29  52  79 104 132 168 207 250 305
#
# _framework density 19.290300999999999
#
# number of rings (size 3 to 8) (size 9 to 14) (size 15 to 20)
#    0.000    2.500    0.000    2.250    0.000    8.250 
#    0.000    4.375    0.000    1.125    0.000    0.000 
#    0.000    0.000    0.000    0.000    0.000    0.000 
#
# Total GULP energy -793112.340365 kJ/mol
# GULP energy per Si atom -12392.380318 kJ/mol
# Density = 1.924640 g / cm^3
# Si number density = 19.290301 Si / 1000 Ang^3
#
#
#
# Elastic Constant Matrix: (Units=GPa)
#
#
# Indices 1 2 3 4 5 6 
#
# 1 124.9549 61.9667 35.3152 0.0000 0.0000 0.0000
# 2 61.9667 119.7091 25.4850 0.0000 0.0000 0.0000
# 3 35.3152 25.4850 31.3574 0.0000 0.0000 0.0000
# 4 0.0000 0.0000 0.0000 9.3666 0.0000 0.0000
# 5 0.0000 0.0000 0.0000 0.0000 15.4357 0.0000
# 6 0.0000 0.0000 0.0000 0.0000 0.0000 32.4394
#
#
#
# Elastic Compliance Matrix: (Units=1/GPa)
#
#
# Indices 1 2 3 4 5 6 
#
# 1 0.013513 -0.004541 -0.011528 0.000000 0.000000 0.000000
# 2 -0.004541 0.011627 -0.004336 0.000000 0.000000 0.000000
# 3 -0.011528 -0.004336 0.048397 0.000000 0.000000 0.000000
# 4 0.000000 0.000000 0.000000 0.106763 0.000000 0.000000
# 5 0.000000 0.000000 0.000000 0.000000 0.064785 0.000000
# 6 0.000000 0.000000 0.000000 0.000000 0.000000 0.030827
#
#
# Mechanical properties :
#
#
# Convention : Reuss Voigt Hill
#
# Bulk Modulus (GPa) = 30.55475 57.95056 44.25266
# Shear Modulus (GPa) = 15.26112 21.66530 18.46321
#
# Velocity S-wave (km/s) = 2.81575 3.35493 3.09710
# Velocity P-wave (km/s) = 5.14248 6.71669 5.98160
#
# Compressibility (1/GPa) = 0.03272813
#
# Stress axis : x y z
#
# Youngs Moduli (GPa) = 74.00456 86.00621 20.66226
#
# Poissons Ratio (x) = 0.39052 0.23819
# Poissons Ratio (y) = 0.33602 0.08959
# Poissons Ratio (z) = 0.85312 0.37292
#
# Static dielectric constant tensor:
#      x y z
#    x 3.613280 0.000000 0.000000 
#    y 0.000000 3.676130 0.000000 
#    z 0.000000 0.000000 3.200500 
# 
# 
# High freq. dielectric constant tensor:
#      x y z
#    x 1.759140 0.000000 0.000000 
#    y 0.000000 1.755620 0.000000 
#    z 0.000000 0.000000 1.707200 
# 
# From -- ./inp_files/9804.got.cif
#   From: 2010.03.12/outbox.cif.g09.slc.cpg/sg55_5_cif.got.tgz:9804.got - 2010.04.16 15:19:21.
