data_PCOD8226269
_publ_section_title
;
Structure prediction by ZEFSAII (Michael W. Deem and Ramdas Pophale) SiO2 
 PCOD8226269
Probable space group: P B A M
;
_chemical_formula_sum "Si O2"
_cell_formula_units_Z 64
_cell_length_a 17.742347
_cell_length_b 11.911232
_cell_length_c 14.494579
_cell_angle_alpha 90.000000
_cell_angle_beta 90.000000
_cell_angle_gamma 90.000000
_cell_volume 3063.185927
_symmetry_space_group_name_H-M "P B A M"
_symmetry_group_IT_number 55
_symmetry_cell_setting 'orthorhombic'
loop_
_space_group_symop_operation_xyz
x,y,z
-x,-y,z
1/2+x,1/2-y,-z
1/2-x,1/2+y,-z
-x,-y,-z
x,y,-z
1/2-x,1/2+y,z
1/2+x,1/2-y,z
loop_
_atom_site_type_symbol
_atom_site_label
_atom_site_fract_x
_atom_site_fract_y
_atom_site_fract_z
Si Si1 0.873644 0.696612 0.772940
Si Si2 0.534398 0.120124 0.394412
Si Si3 0.616894 0.758126 0.602545
Si Si4 0.295062 0.207894 0.777812
Si Si5 0.836861 0.101117 0.100330
Si Si6 0.089568 0.998304 0.401329
Si Si7 0.824267 0.510805 0.102243
Si Si8 0.423469 0.571123 0.789420
O O1 0.896144 0.651751 0.671680
O O2 0.790012 0.748497 0.769383
O O3 0.882437 0.591270 0.842767
O O4 0.930489 0.795524 0.809426
O O5 0.563877 0.120761 0.500000
O O6 0.469821 0.212037 0.377920
O O7 0.500000 0.000000 0.367906
O O8 0.639653 0.801179 0.500000
O O9 0.672416 0.816472 0.675921
O O10 0.623745 0.625052 0.609729
O O11 0.350118 0.299787 0.826019
O O12 0.301302 0.097024 0.838790
O O13 0.748473 0.086762 0.087823
O O14 0.871484 0.983844 0.133467
O O15 0.872013 0.132078 0.000000
O O16 0.118140 0.049369 0.500000
O O17 0.117191 0.067034 0.311917
O O18 0.000000 0.000000 0.403066
O O19 0.856011 0.477872 0.000000
O O20 0.500000 0.500000 0.788515
#
# Coordination Sequence:
#
# PCOD8226269 Si02
#       8
#     8   8   8   8   8   8   8   8
#     4  11  24  38  63  97 127 164 215 270 319 379
#     4  10  21  39  61  87 125 176 222 257 312 387
#     4  10  20  35  59  89 124 166 207 249 308 379
#     4  11  21  39  64  91 126 159 211 265 316 369
#     4  10  21  37  59  87 116 157 205 251 311 378
#     4   9  17  31  53  82 114 152 196 239 292 362
#     4  10  22  42  64  86 118 164 212 259 319 387
#     4  11  21  37  60  90 127 159 202 262 322 384
#
# _framework density 20.893279
#
# number of rings (size 3 to 8) (size 9 to 14) (size 15 to 20)
#    0.000    1.750    2.500    2.625    0.000    3.250 
#    0.000    0.000    0.000    1.875    0.000    0.000 
#    0.000    0.000    0.000    0.000    0.000    0.000 
#
# Total GULP energy -793158.391188 kJ/mol
# GULP energy per Si atom -12393.099862 kJ/mol
# Density = 2.084572 g / cm^3
# Si number density = 20.893279 Si / 1000 Ang^3
#
#
#
# Elastic Constant Matrix: (Units=GPa)
#
#
# Indices 1 2 3 4 5 6 
#
# 1 45.9409 31.1208 50.6311 0.0000 0.0000 0.0000
# 2 31.1208 103.9496 53.1498 0.0000 0.0000 0.0000
# 3 50.6311 53.1498 167.6645 0.0000 0.0000 0.0000
# 4 0.0000 0.0000 0.0000 95.9176 0.0000 0.0000
# 5 0.0000 0.0000 0.0000 0.0000 24.3742 0.0000
# 6 0.0000 0.0000 0.0000 0.0000 0.0000 32.3176
#
#
#
# Elastic Compliance Matrix: (Units=1/GPa)
#
#
# Indices 1 2 3 4 5 6 
#
# 1 0.035658 -0.006170 -0.008812 0.000000 0.000000 0.000000
# 2 -0.006170 0.012548 -0.002115 0.000000 0.000000 0.000000
# 3 -0.008812 -0.002115 0.009296 0.000000 0.000000 0.000000
# 4 0.000000 0.000000 0.000000 0.010426 0.000000 0.000000
# 5 0.000000 0.000000 0.000000 0.000000 0.041027 0.000000
# 6 0.000000 0.000000 0.000000 0.000000 0.000000 0.030943
#
#
# Mechanical properties :
#
#
# Convention : Reuss Voigt Hill
#
# Bulk Modulus (GPa) = 42.90168 65.26205 54.08186
# Shear Modulus (GPa) = 27.49344 42.69876 35.09610
#
# Velocity S-wave (km/s) = 3.63147 4.52559 4.10296
# Velocity P-wave (km/s) = 6.17752 7.65583 6.95605
#
# Compressibility (1/GPa) = 0.02330911
#
# Stress axis : x y z
#
# Youngs Moduli (GPa) = 28.04382 79.69105 107.57573
#
# Poissons Ratio (x) = 0.49168 0.94799
# Poissons Ratio (y) = 0.17303 0.22749
# Poissons Ratio (z) = 0.24713 0.16852
#
# Static dielectric constant tensor:
#      x y z
#    x 3.358910 0.000000 0.000000 
#    y 0.000000 3.856060 0.000000 
#    z 0.000000 0.000000 4.369870 
# 
# 
# High freq. dielectric constant tensor:
#      x y z
#    x 1.774560 0.000000 0.000000 
#    y 0.000000 1.822500 0.000000 
#    z 0.000000 0.000000 1.835180 
# 
# From -- ./inp_files/19485.got.cif
#   From: 2010.03.12/outbox.cif.g09.slc.cpg/sg55_10_cif.got.tgz:19485.got - 2010.04.16 15:19:21.
