data_PCOD8226139
_publ_section_title
;
Structure prediction by ZEFSAII (Michael W. Deem and Ramdas Pophale) SiO2 
 PCOD8226139
Probable space group: P B A M
;
_chemical_formula_sum "Si O2"
_cell_formula_units_Z 64
_cell_length_a 14.591649
_cell_length_b 25.624357
_cell_length_c 9.597672
_cell_angle_alpha 90.000000
_cell_angle_beta 90.000000
_cell_angle_gamma 90.000000
_cell_volume 3588.585140
_symmetry_space_group_name_H-M "P B A M"
_symmetry_group_IT_number 55
_symmetry_cell_setting 'orthorhombic'
loop_
_space_group_symop_operation_xyz
x,y,z
-x,-y,z
1/2+x,1/2-y,-z
1/2-x,1/2+y,-z
-x,-y,-z
x,y,-z
1/2-x,1/2+y,z
1/2+x,1/2-y,z
loop_
_atom_site_type_symbol
_atom_site_label
_atom_site_fract_x
_atom_site_fract_y
_atom_site_fract_z
Si Si1 0.477794 0.942646 0.339698
Si Si2 0.831191 0.890004 0.338192
Si Si3 0.372237 0.142872 0.340366
Si Si4 0.996406 0.287941 0.837655
Si Si5 0.105354 0.995251 0.662020
Si Si6 0.141698 0.373218 0.840682
Si Si7 0.655720 0.601952 0.839489
Si Si8 0.981381 0.830980 0.163378
O O1 0.446854 0.943952 0.500000
O O2 0.567904 0.908506 0.315800
O O3 0.392889 0.920808 0.252894
O O4 0.500000 0.000000 0.283843
O O5 0.852714 0.879577 0.500000
O O6 0.730086 0.871836 0.296110
O O7 0.899346 0.856585 0.246360
O O8 0.842192 0.951141 0.304745
O O9 0.377217 0.161450 0.500000
O O10 0.409223 0.189710 0.245169
O O11 0.012182 0.228925 0.790081
O O12 0.089064 0.319824 0.800382
O O13 0.972020 0.291401 0.000000
O O14 0.111157 0.980284 0.500000
O O15 0.154911 0.950214 0.748481
O O16 0.000000 0.000000 0.709986
O O17 0.249900 0.366458 0.814560
O O18 0.120704 0.387833 0.000000
O O19 0.575302 0.640777 0.793656
O O20 0.645243 0.585157 0.000000
O O21 0.961035 0.836203 0.000000
#
# Coordination Sequence:
#
# PCOD8226139 Si02
#       8
#     8   8   8   8   8   8   8   8
#     4   9  18  32  52  76 102 135 175 216 258 310
#     4  10  21  36  54  79 110 141 176 218 263 314
#     4   9  19  35  53  77 108 139 173 218 266 310
#     4   9  19  37  58  78 104 139 178 221 265 312
#     4  10  20  35  55  77 105 142 178 216 262 313
#     4   9  19  35  52  74 106 139 172 216 264 310
#     4  10  21  35  52  78 109 139 175 219 265 313
#     4  10  21  36  56  80 105 139 181 222 264 312
#
# _framework density 17.834326000000001
#
# number of rings (size 3 to 8) (size 9 to 14) (size 15 to 20)
#    0.000    2.500    1.250    0.000    1.750    3.500 
#    0.000    2.500    0.000    0.000    0.000    0.000 
#    0.000    0.000    0.000    0.000    0.000    0.000 
#
# Total GULP energy -793778.470903 kJ/mol
# GULP energy per Si atom -12402.788608 kJ/mol
# Density = 1.779373 g / cm^3
# Si number density = 17.834326 Si / 1000 Ang^3
#
#
#
# Elastic Constant Matrix: (Units=GPa)
#
#
# Indices 1 2 3 4 5 6 
#
# 1 129.0690 56.6298 48.6811 0.0000 0.0000 0.0000
# 2 56.6298 130.5122 53.4723 0.0000 0.0000 0.0000
# 3 48.6811 53.4723 54.7433 0.0000 0.0000 0.0000
# 4 0.0000 0.0000 0.0000 27.1952 0.0000 0.0000
# 5 0.0000 0.0000 0.0000 0.0000 30.5314 0.0000
# 6 0.0000 0.0000 0.0000 0.0000 0.0000 4.1829
#
#
#
# Elastic Compliance Matrix: (Units=1/GPa)
#
#
# Indices 1 2 3 4 5 6 
#
# 1 0.011803 -0.001369 -0.009159 0.000000 0.000000 0.000000
# 2 -0.001369 0.012933 -0.011416 0.000000 0.000000 0.000000
# 3 -0.009159 -0.011416 0.037562 0.000000 0.000000 0.000000
# 4 0.000000 0.000000 0.000000 0.036771 0.000000 0.000000
# 5 0.000000 0.000000 0.000000 0.000000 0.032753 0.000000
# 6 0.000000 0.000000 0.000000 0.000000 0.000000 0.239066
#
#
# Mechanical properties :
#
#
# Convention : Reuss Voigt Hill
#
# Bulk Modulus (GPa) = 54.31313 70.21010 62.26161
# Shear Modulus (GPa) = 11.87895 22.75132 17.31513
#
# Velocity S-wave (km/s) = 2.58364 3.57557 3.11929
# Velocity P-wave (km/s) = 6.27858 7.51663 6.92533
#
# Compressibility (1/GPa) = 0.01841175
#
# Stress axis : x y z
#
# Youngs Moduli (GPa) = 84.72580 77.32038 26.62252
#
# Poissons Ratio (x) = 0.10584 0.24383
# Poissons Ratio (y) = 0.11598 0.30391
# Poissons Ratio (z) = 0.77598 0.88266
#
# Static dielectric constant tensor:
#      x y z
#    x 3.391130 0.000000 0.000000 
#    y 0.000000 3.315490 0.000000 
#    z 0.000000 0.000000 3.296130 
# 
# 
# High freq. dielectric constant tensor:
#      x y z
#    x 1.695130 0.000000 0.000000 
#    y 0.000000 1.689710 0.000000 
#    z 0.000000 0.000000 1.686580 
# 
# From -- ./inp_files/6533.got.cif
#   From: 2010.03.12/outbox.cif.g09.slc.cpg/sg55_4_cif.got.tgz:6533.got - 2010.04.16 15:19:21.
