data_PCOD8226987
_publ_section_title
;
Structure prediction by ZEFSAII (Michael W. Deem and Ramdas Pophale) SiO2 
 PCOD8226987
Probable space group: P B A M
;
_chemical_formula_sum "Si O2"
_cell_formula_units_Z 40
_cell_length_a 12.273837
_cell_length_b 4.987130
_cell_length_c 30.309041
_cell_angle_alpha 90.000000
_cell_angle_beta 90.000000
_cell_angle_gamma 90.000000
_cell_volume 1855.253398
_symmetry_space_group_name_H-M "P B A M"
_symmetry_group_IT_number 55
_symmetry_cell_setting 'orthorhombic'
loop_
_space_group_symop_operation_xyz
x,y,z
-x,-y,z
1/2+x,1/2-y,-z
1/2-x,1/2+y,-z
-x,-y,-z
x,y,-z
1/2-x,1/2+y,z
1/2+x,1/2-y,z
loop_
_atom_site_type_symbol
_atom_site_label
_atom_site_fract_x
_atom_site_fract_y
_atom_site_fract_z
Si Si1 0.500000 0.000000 0.836175
Si Si2 0.000000 0.000000 0.222911
Si Si3 0.176275 0.467866 0.500000
Si Si4 0.000000 0.500000 0.572531
Si Si5 0.177746 0.465188 0.906680
Si Si6 0.500000 0.500000 0.367867
Si Si7 0.179537 0.345626 0.000000
Si Si8 0.676187 0.465063 0.295307
O O1 0.463580 0.248578 0.806352
O O2 0.598164 0.100044 0.866686
O O3 0.896916 0.914347 0.252260
O O4 0.221588 0.769050 0.500000
O O5 0.103484 0.418262 0.456862
O O6 0.966069 0.249949 0.602325
O O7 0.217940 0.770427 0.903352
O O8 0.116769 0.414822 0.954156
O O9 0.603438 0.417268 0.338508
O O10 0.288575 0.532756 0.000000
O O11 0.721813 0.765927 0.295225
#
# Coordination Sequence:
#
# PCOD8226987 Si02
#       8
#     4   4   4   4   8   4   4   8
#     4  12  24  38  60  87 114 151 194 234 286 350
#     4  11  26  42  58  88 120 148 194 242 286 357
#     4  11  24  41  62  90 128 177 216 241 294 358
#     4  11  24  41  62  93 132 163 202 263 298 335
#     4  10  21  37  57  83 114 148 189 235 283 339
#     4  11  24  41  64  97 124 151 206 259 300 355
#     4   8  16  33  54  77 110 146 182 231 282 331
#     4  11  24  43  66  89 118 157 195 242 306 361
#
# _framework density 21.560396999999998
#
# number of rings (size 3 to 8) (size 9 to 14) (size 15 to 20)
#    0.000    1.400    0.000    4.800    0.000   14.800 
#    0.000    0.000    0.000    8.400    0.000    0.000 
#    0.000    0.000    0.000    0.000    0.000    0.000 
#
# Total GULP energy -496153.934813 kJ/mol
# GULP energy per Si atom -12403.848370 kJ/mol
# Density = 2.151132 g / cm^3
# Si number density = 21.560397 Si / 1000 Ang^3
#
#
#
# Elastic Constant Matrix: (Units=GPa)
#
#
# Indices 1 2 3 4 5 6 
#
# 1 70.4559 3.0110 35.4911 0.0000 0.0000 0.0000
# 2 3.0110 94.4783 26.4105 0.0000 0.0000 0.0000
# 3 35.4911 26.4105 138.7291 0.0000 0.0000 0.0000
# 4 0.0000 0.0000 0.0000 27.7633 0.0000 0.0000
# 5 0.0000 0.0000 0.0000 0.0000 32.8677 0.0000
# 6 0.0000 0.0000 0.0000 0.0000 0.0000 36.3946
#
#
#
# Elastic Compliance Matrix: (Units=1/GPa)
#
#
# Indices 1 2 3 4 5 6 
#
# 1 0.016335 0.000684 -0.004309 0.000000 0.000000 0.000000
# 2 0.000684 0.011208 -0.002309 0.000000 0.000000 0.000000
# 3 -0.004309 -0.002309 0.008750 0.000000 0.000000 0.000000
# 4 0.000000 0.000000 0.000000 0.036019 0.000000 0.000000
# 5 0.000000 0.000000 0.000000 0.000000 0.030425 0.000000
# 6 0.000000 0.000000 0.000000 0.000000 0.000000 0.027477
#
#
# Mechanical properties :
#
#
# Convention : Reuss Voigt Hill
#
# Bulk Modulus (GPa) = 40.94121 48.16538 44.55330
# Shear Modulus (GPa) = 33.28390 35.32183 34.30286
#
# Velocity S-wave (km/s) = 3.93332 4.05195 3.99308
# Velocity P-wave (km/s) = 6.29749 6.65427 6.47834
#
# Compressibility (1/GPa) = 0.02442527
#
# Stress axis : x y z
#
# Youngs Moduli (GPa) = 61.21937 89.22179 114.28290
#
# Poissons Ratio (x) = -0.06103 0.49246
# Poissons Ratio (y) = -0.04187 0.26385
# Poissons Ratio (z) = 0.26380 0.20599
#
# Static dielectric constant tensor:
#      x y z
#    x 3.506090 0.000000 0.000000 
#    y 0.000000 6.942660 0.000000 
#    z 0.000000 0.000000 4.201580 
# 
# 
# High freq. dielectric constant tensor:
#      x y z
#    x 1.823060 0.000000 0.000000 
#    y 0.000000 1.858500 0.000000 
#    z 0.000000 0.000000 1.869490 
# 
# From -- ./inp_files/23931.got.cif
#   From: 2010.03.12/outbox.cif.g09.slc.cpg/sg55_12_cif.got.tgz:23931.got - 2010.04.16 15:19:21.
