data_PCOD8226153
_publ_section_title
;
Structure prediction by ZEFSAII (Michael W. Deem and Ramdas Pophale) SiO2 
 PCOD8226153
Probable space group: P B A M
;
_chemical_formula_sum "Si O2"
_cell_formula_units_Z 56
_cell_length_a 21.426667
_cell_length_b 14.261484
_cell_length_c 9.006734
_cell_angle_alpha 90.000000
_cell_angle_beta 90.000000
_cell_angle_gamma 90.000000
_cell_volume 2752.242367
_symmetry_space_group_name_H-M "P B A M"
_symmetry_group_IT_number 55
_symmetry_cell_setting 'orthorhombic'
loop_
_space_group_symop_operation_xyz
x,y,z
-x,-y,z
1/2+x,1/2-y,-z
1/2-x,1/2+y,-z
-x,-y,-z
x,y,-z
1/2-x,1/2+y,z
1/2+x,1/2-y,z
loop_
_atom_site_type_symbol
_atom_site_label
_atom_site_fract_x
_atom_site_fract_y
_atom_site_fract_z
Si Si1 0.962101 0.153442 0.331298
Si Si2 0.084704 0.133791 0.830188
Si Si3 0.134606 0.336611 0.832226
Si Si4 0.776894 0.170888 0.171661
Si Si5 0.846917 0.016171 0.667770
Si Si6 0.886489 0.306886 0.175266
Si Si7 0.427986 0.006454 0.675077
O O1 0.974792 0.185576 0.500000
O O2 0.943006 0.244062 0.236194
O O3 0.023464 0.107010 0.262241
O O4 0.910094 0.074703 0.323590
O O5 0.093596 0.244352 0.815438
O O6 0.143741 0.078924 0.761010
O O7 0.076722 0.102233 0.000000
O O8 0.205270 0.305843 0.794837
O O9 0.108171 0.412129 0.718225
O O10 0.130561 0.376766 0.000000
O O11 0.820269 0.258962 0.220369
O O12 0.791511 0.076928 0.262765
O O13 0.789903 0.148883 0.000000
O O14 0.828838 0.990015 0.500000
O O15 0.891216 0.408782 0.247594
O O16 0.893769 0.317041 0.000000
O O17 0.424486 0.021016 0.500000
O O18 0.500000 0.000000 0.728753
#
# Coordination Sequence:
#
# PCOD8226153 Si02
#       7
#     8   8   8   8   8   8   8
#     4  10  20  35  55  82 117 150 183 228 279 333
#     4  11  22  35  55  83 113 147 187 230 279 334
#     4  10  23  41  59  81 111 147 189 237 283 334
#     4   9  20  40  61  82 110 145 187 233 282 336
#     4  10  21  36  56  83 114 148 184 225 276 334
#     4  10  20  36  61  87 112 148 191 235 286 344
#     4  11  24  40  59  86 119 154 193 240 293 345
#
# _framework density 20.347045999999999
#
# number of rings (size 3 to 8) (size 9 to 14) (size 15 to 20)
#    0.000    1.857    0.000    3.429    0.000   10.286 
#    0.000    2.857    0.000    0.000    0.000    0.000 
#    0.000    0.000    0.000    0.000    0.000    0.000 
#
# Total GULP energy -694627.049398 kJ/mol
# GULP energy per Si atom -12404.054454 kJ/mol
# Density = 2.030073 g / cm^3
# Si number density = 20.347046 Si / 1000 Ang^3
#
#
#
# Elastic Constant Matrix: (Units=GPa)
#
#
# Indices 1 2 3 4 5 6 
#
# 1 75.1367 10.7168 31.3790 0.0000 0.0000 0.0000
# 2 10.7168 78.4824 36.0280 0.0000 0.0000 0.0000
# 3 31.3790 36.0280 102.2715 0.0000 0.0000 0.0000
# 4 0.0000 0.0000 0.0000 32.7621 0.0000 0.0000
# 5 0.0000 0.0000 0.0000 0.0000 25.9691 0.0000
# 6 0.0000 0.0000 0.0000 0.0000 0.0000 22.1157
#
#
#
# Elastic Compliance Matrix: (Units=1/GPa)
#
#
# Indices 1 2 3 4 5 6 
#
# 1 0.015265 0.000078 -0.004711 0.000000 0.000000 0.000000
# 2 0.000078 0.015200 -0.005379 0.000000 0.000000 0.000000
# 3 -0.004711 -0.005379 0.013118 0.000000 0.000000 0.000000
# 4 0.000000 0.000000 0.000000 0.030523 0.000000 0.000000
# 5 0.000000 0.000000 0.000000 0.000000 0.038507 0.000000
# 6 0.000000 0.000000 0.000000 0.000000 0.000000 0.045217
#
#
# Mechanical properties :
#
#
# Convention : Reuss Voigt Hill
#
# Bulk Modulus (GPa) = 42.44420 45.79313 44.11866
# Shear Modulus (GPa) = 26.92398 28.02048 27.47223
#
# Velocity S-wave (km/s) = 3.64158 3.71499 3.67847
# Velocity P-wave (km/s) = 6.21183 6.39972 6.30648
#
# Compressibility (1/GPa) = 0.02356035
#
# Stress axis : x y z
#
# Youngs Moduli (GPa) = 65.50720 65.78877 76.22979
#
# Poissons Ratio (x) = -0.00515 0.35914
# Poissons Ratio (y) = -0.00513 0.41002
# Poissons Ratio (z) = 0.30863 0.35386
#
# Static dielectric constant tensor:
#      x y z
#    x 3.636640 0.000000 0.000000 
#    y 0.000000 3.635130 0.000000 
#    z 0.000000 0.000000 3.793190 
# 
# 
# High freq. dielectric constant tensor:
#      x y z
#    x 1.790300 0.000000 0.000000 
#    y 0.000000 1.795190 0.000000 
#    z 0.000000 0.000000 1.801580 
# 
# From -- ./inp_files/6088.got.cif
#   From: 2010.03.12/outbox.cif.g09.slc.cpg/sg55_4_cif.got.tgz:6088.got - 2010.04.16 15:19:21.
