data_PCOD8226028
_publ_section_title
;
Structure prediction by ZEFSAII (Michael W. Deem and Ramdas Pophale) SiO2 
 PCOD8226028
Probable space group: P B A M
;
_chemical_formula_sum "Si O2"
_cell_formula_units_Z 40
_cell_length_a 21.324362
_cell_length_b 10.356246
_cell_length_c 9.543517
_cell_angle_alpha 90.000000
_cell_angle_beta 90.000000
_cell_angle_gamma 90.000000
_cell_volume 2107.593526
_symmetry_space_group_name_H-M "P B A M"
_symmetry_group_IT_number 55
_symmetry_cell_setting 'orthorhombic'
loop_
_space_group_symop_operation_xyz
x,y,z
-x,-y,z
1/2+x,1/2-y,-z
1/2-x,1/2+y,-z
-x,-y,-z
x,y,-z
1/2-x,1/2+y,z
1/2+x,1/2-y,z
loop_
_atom_site_type_symbol
_atom_site_label
_atom_site_fract_x
_atom_site_fract_y
_atom_site_fract_z
Si Si1 0.063505 0.432207 0.165517
Si Si2 0.292033 0.318500 0.166671
Si Si3 0.303927 0.031000 0.165135
Si Si4 0.544238 0.311092 0.658663
Si Si5 0.592694 0.590653 0.340897
O O1 0.123657 0.516590 0.212797
O O2 0.071143 0.293314 0.235129
O O3 0.000000 0.500000 0.220055
O O4 0.061311 0.411517 0.000000
O O5 0.277458 0.170628 0.213455
O O6 0.238433 0.414354 0.227117
O O7 0.357959 0.358091 0.230529
O O8 0.298478 0.327666 0.000000
O O9 0.300365 0.019259 0.000000
O O10 0.549343 0.259325 0.500000
O O11 0.472485 0.340907 0.695745
O O12 0.586414 0.437515 0.677542
O O13 0.613216 0.623176 0.500000
#
# Coordination Sequence:
#
# PCOD8226028 Si02
#       5
#     8   8   8   8   8
#     4  10  20  34  54  81 112 141 181 232 275 320
#     4  10  20  36  57  79 107 145 184 220 267 327
#     4   9  20  35  54  81 112 143 178 224 275 320
#     4   9  19  35  55  79 108 143 180 221 274 327
#     4   9  19  36  55  78 110 142 176 225 275 320
#
# _framework density 18.978992999999999
#
# number of rings (size 3 to 8) (size 9 to 14) (size 15 to 20)
#    0.000    2.600    0.000    2.400    2.800    3.600 
#    0.000    5.000    0.000    0.000    0.000    0.000 
#    0.000    0.000    0.000    0.000    0.000    0.000 
#
# Total GULP energy -495940.610948 kJ/mol
# GULP energy per Si atom -12398.515274 kJ/mol
# Density = 1.893580 g / cm^3
# Si number density = 18.978993 Si / 1000 Ang^3
#
#
#
# Elastic Constant Matrix: (Units=GPa)
#
#
# Indices 1 2 3 4 5 6 
#
# 1 91.4751 64.5254 20.7820 0.0000 0.0000 0.0000
# 2 64.5254 137.6900 31.3570 0.0000 0.0000 0.0000
# 3 20.7820 31.3570 31.2085 0.0000 0.0000 0.0000
# 4 0.0000 0.0000 0.0000 24.8528 0.0000 0.0000
# 5 0.0000 0.0000 0.0000 0.0000 23.0223 0.0000
# 6 0.0000 0.0000 0.0000 0.0000 0.0000 29.3869
#
#
#
# Elastic Compliance Matrix: (Units=1/GPa)
#
#
# Indices 1 2 3 4 5 6 
#
# 1 0.016751 -0.006885 -0.004237 0.000000 0.000000 0.000000
# 2 -0.006885 0.012248 -0.007721 0.000000 0.000000 0.000000
# 3 -0.004237 -0.007721 0.042622 0.000000 0.000000 0.000000
# 4 0.000000 0.000000 0.000000 0.040237 0.000000 0.000000
# 5 0.000000 0.000000 0.000000 0.000000 0.043436 0.000000
# 6 0.000000 0.000000 0.000000 0.000000 0.000000 0.034029
#
#
# Mechanical properties :
#
#
# Convention : Reuss Voigt Hill
#
# Bulk Modulus (GPa) = 29.46859 54.85582 42.16221
# Shear Modulus (GPa) = 20.98023 25.03303 23.00663
#
# Velocity S-wave (km/s) = 3.32843 3.63572 3.48547
# Velocity P-wave (km/s) = 5.50744 6.82575 6.20172
#
# Compressibility (1/GPa) = 0.03393443
#
# Stress axis : x y z
#
# Youngs Moduli (GPa) = 59.69708 81.64820 23.46232
#
# Poissons Ratio (x) = 0.56217 0.09940
# Poissons Ratio (y) = 0.41103 0.18115
# Poissons Ratio (z) = 0.25292 0.63041
#
# Static dielectric constant tensor:
#      x y z
#    x 3.520600 0.000000 0.000000 
#    y 0.000000 3.678590 0.000000 
#    z 0.000000 0.000000 3.154230 
# 
# 
# High freq. dielectric constant tensor:
#      x y z
#    x 1.737790 0.000000 0.000000 
#    y 0.000000 1.748260 0.000000 
#    z 0.000000 0.000000 1.709300 
# 
# From -- ./inp_files/2339.got.cif
#   From: 2010.03.12/outbox.cif.g09.slc.cpg/sg55_2_cif.got.tgz:2339.got - 2010.04.16 15:19:21.
