data_PCOD8226183
_publ_section_title
;
Structure prediction by ZEFSAII (Michael W. Deem and Ramdas Pophale) SiO2 
 PCOD8226183
Probable space group: P B A M
;
_chemical_formula_sum "Si O2"
_cell_formula_units_Z 64
_cell_length_a 12.367530
_cell_length_b 14.798672
_cell_length_c 16.591825
_cell_angle_alpha 90.000000
_cell_angle_beta 90.000000
_cell_angle_gamma 90.000000
_cell_volume 3036.685917
_symmetry_space_group_name_H-M "P B A M"
_symmetry_group_IT_number 55
_symmetry_cell_setting 'orthorhombic'
loop_
_space_group_symop_operation_xyz
x,y,z
-x,-y,z
1/2+x,1/2-y,-z
1/2-x,1/2+y,-z
-x,-y,-z
x,y,-z
1/2-x,1/2+y,z
1/2+x,1/2-y,z
loop_
_atom_site_type_symbol
_atom_site_label
_atom_site_fract_x
_atom_site_fract_y
_atom_site_fract_z
Si Si1 0.972775 0.221135 0.323213
Si Si2 0.052630 0.405598 0.594355
Si Si3 0.623126 0.470080 0.090399
Si Si4 0.271219 0.868643 0.146074
Si Si5 0.279094 0.409166 0.674043
Si Si6 0.656853 0.794534 0.189616
Si Si7 0.002147 0.597836 0.906582
Si Si8 0.662837 0.396502 0.736719
O O1 0.873319 0.159191 0.358095
O O2 0.943466 0.244723 0.231601
O O3 0.996115 0.314572 0.370680
O O4 0.078215 0.158945 0.316778
O O5 0.032925 0.399992 0.500000
O O6 0.181241 0.409223 0.610604
O O7 0.000000 0.500000 0.628045
O O8 0.500000 0.500000 0.094617
O O9 0.707306 0.552505 0.100553
O O10 0.636401 0.403643 0.166920
O O11 0.644649 0.428450 0.000000
O O12 0.272507 0.876832 0.242454
O O13 0.215934 0.773321 0.128668
O O14 0.392072 0.852726 0.115754
O O15 0.327913 0.508672 0.690169
O O16 0.612777 0.867844 0.129578
O O17 0.726456 0.839423 0.262301
O O18 0.000000 0.500000 0.867610
O O19 0.019999 0.596853 0.000000
#
# Coordination Sequence:
#
# PCOD8226183 Si02
#       8
#     8   8   8   8   8   8   8   8
#     4  11  22  41  65  94 125 159 206 260 313 378
#     4  11  25  44  67  97 132 168 206 253 316 389
#     4  10  20  35  56  82 118 163 210 267 330 383
#     4  10  21  37  56  83 116 155 207 261 313 374
#     4  10  21  39  66  94 125 163 206 256 313 381
#     4  11  22  35  57  84 114 156 207 259 316 373
#     4  11  23  37  52  74 110 155 203 256 314 374
#     4  11  21  38  64  92 124 165 215 269 319 379
#
# _framework density 21.075607000000002
#
# number of rings (size 3 to 8) (size 9 to 14) (size 15 to 20)
#    0.000    1.375    0.000    8.250    0.000    4.000 
#    0.000    5.000    0.000    1.500    0.000    0.000 
#    0.000    0.000    0.000    0.000    0.000    0.000 
#
# Total GULP energy -793029.479317 kJ/mol
# GULP energy per Si atom -12391.085614 kJ/mol
# Density = 2.102764 g / cm^3
# Si number density = 21.075607 Si / 1000 Ang^3
#
#
#
# Elastic Constant Matrix: (Units=GPa)
#
#
# Indices 1 2 3 4 5 6 
#
# 1 111.0294 52.9821 23.5709 0.0000 0.0000 0.0000
# 2 52.9821 134.1312 31.1145 0.0000 0.0000 0.0000
# 3 23.5709 31.1145 48.1174 0.0000 0.0000 0.0000
# 4 0.0000 0.0000 0.0000 40.1279 0.0000 0.0000
# 5 0.0000 0.0000 0.0000 0.0000 42.2117 0.0000
# 6 0.0000 0.0000 0.0000 0.0000 0.0000 38.7949
#
#
#
# Elastic Compliance Matrix: (Units=1/GPa)
#
#
# Indices 1 2 3 4 5 6 
#
# 1 0.011496 -0.003805 -0.003171 0.000000 0.000000 0.000000
# 2 -0.003805 0.010031 -0.004622 0.000000 0.000000 0.000000
# 3 -0.003171 -0.004622 0.025325 0.000000 0.000000 0.000000
# 4 0.000000 0.000000 0.000000 0.024920 0.000000 0.000000
# 5 0.000000 0.000000 0.000000 0.000000 0.023690 0.000000
# 6 0.000000 0.000000 0.000000 0.000000 0.000000 0.025777
#
#
# Mechanical properties :
#
#
# Convention : Reuss Voigt Hill
#
# Bulk Modulus (GPa) = 42.27492 56.51254 49.39373
# Shear Modulus (GPa) = 32.82590 36.60094 34.71342
#
# Velocity S-wave (km/s) = 3.95084 4.17183 4.06284
# Velocity P-wave (km/s) = 6.39644 7.07658 6.74509
#
# Compressibility (1/GPa) = 0.02365469
#
# Stress axis : x y z
#
# Youngs Moduli (GPa) = 86.99005 99.69409 39.48742
#
# Poissons Ratio (x) = 0.37936 0.12520
# Poissons Ratio (y) = 0.33102 0.18252
# Poissons Ratio (z) = 0.27581 0.46080
#
# Static dielectric constant tensor:
#      x y z
#    x 3.865900 0.000000 0.000000 
#    y 0.000000 4.254380 0.000000 
#    z 0.000000 0.000000 3.515010 
# 
# 
# High freq. dielectric constant tensor:
#      x y z
#    x 1.845140 0.000000 0.000000 
#    y 0.000000 1.839510 0.000000 
#    z 0.000000 0.000000 1.792760 
# 
# From -- ./inp_files/21323.got.cif
#   From: 2010.03.12/outbox.cif.g09.slc.cpg/sg55_11_cif.got.tgz:21323.got - 2010.04.16 15:19:21.
