data_PCOD8226133
_publ_section_title
;
Structure prediction by ZEFSAII (Michael W. Deem and Ramdas Pophale) SiO2 
 PCOD8226133
Probable space group: P B A M
;
_chemical_formula_sum "Si O2"
_cell_formula_units_Z 64
_cell_length_a 14.847673
_cell_length_b 23.716106
_cell_length_c 9.343645
_cell_angle_alpha 90.000000
_cell_angle_beta 90.000000
_cell_angle_gamma 90.000000
_cell_volume 3290.168246
_symmetry_space_group_name_H-M "P B A M"
_symmetry_group_IT_number 55
_symmetry_cell_setting 'orthorhombic'
loop_
_space_group_symop_operation_xyz
x,y,z
-x,-y,z
1/2+x,1/2-y,-z
1/2-x,1/2+y,-z
-x,-y,-z
x,y,-z
1/2-x,1/2+y,z
1/2+x,1/2-y,z
loop_
_atom_site_type_symbol
_atom_site_label
_atom_site_fract_x
_atom_site_fract_y
_atom_site_fract_z
Si Si1 0.487286 0.364930 0.339380
Si Si2 0.760589 0.255946 0.169479
Si Si3 0.315565 0.367153 0.165211
Si Si4 0.577854 0.249093 0.667491
Si Si5 0.439815 0.173068 0.169684
Si Si6 0.749036 0.016012 0.166395
Si Si7 0.093553 0.031711 0.658267
Si Si8 0.574587 0.956849 0.170295
O O1 0.453646 0.376597 0.500000
O O2 0.407599 0.385277 0.238736
O O3 0.508619 0.300007 0.315584
O O4 0.576012 0.402249 0.308725
O O5 0.780823 0.192480 0.222117
O O6 0.670271 0.269910 0.257442
O O7 0.844844 0.296522 0.210816
O O8 0.740772 0.259858 0.000000
O O9 0.242262 0.416466 0.195614
O O10 0.338534 0.361536 0.000000
O O11 0.595189 0.234349 0.500000
O O12 0.526963 0.198186 0.748726
O O13 0.436321 0.107854 0.220105
O O14 0.456784 0.179127 0.000000
O O15 0.840820 0.991595 0.224099
O O16 0.666414 0.982258 0.235904
O O17 0.749636 0.003829 0.000000
O O18 0.135680 0.023875 0.500000
O O19 0.000000 0.000000 0.670071
O O20 0.500000 0.000000 0.230805
O O21 0.574182 0.958489 0.000000
#
# Coordination Sequence:
#
# PCOD8226133 Si02
#       8
#     8   8   8   8   8   8   8   8
#     4  10  21  37  55  79 114 154 190 225 280 346
#     4  10  22  38  59  88 116 148 192 240 292 348
#     4  10  20  35  57  85 114 144 187 240 289 338
#     4  11  24  39  59  86 116 153 192 236 294 349
#     4  10  21  40  64  88 116 152 196 245 292 342
#     4  10  21  35  56  87 114 145 190 236 284 335
#     4  10  20  35  54  78 113 155 189 219 273 343
#     4   9  20  38  61  85 113 151 194 240 289 338
#
# _framework density 19.451893999999999
#
# number of rings (size 3 to 8) (size 9 to 14) (size 15 to 20)
#    0.000    2.000    2.500    0.375    3.500    2.250 
#    0.000    0.625    0.000    0.750    0.000    0.000 
#    0.000    0.000    0.000    0.000    0.000    0.000 
#
# Total GULP energy -793301.259187 kJ/mol
# GULP energy per Si atom -12395.332175 kJ/mol
# Density = 1.940762 g / cm^3
# Si number density = 19.451894 Si / 1000 Ang^3
#
#
#
# Elastic Constant Matrix: (Units=GPa)
#
#
# Indices 1 2 3 4 5 6 
#
# 1 83.5898 34.5299 33.9428 0.0000 0.0000 0.0000
# 2 34.5299 129.0699 32.5480 0.0000 0.0000 0.0000
# 3 33.9428 32.5480 35.1839 0.0000 0.0000 0.0000
# 4 0.0000 0.0000 0.0000 16.3965 0.0000 0.0000
# 5 0.0000 0.0000 0.0000 0.0000 61.4382 0.0000
# 6 0.0000 0.0000 0.0000 0.0000 0.0000 25.8086
#
#
#
# Elastic Compliance Matrix: (Units=1/GPa)
#
#
# Indices 1 2 3 4 5 6 
#
# 1 0.019706 -0.000623 -0.018434 0.000000 0.000000 0.000000
# 2 -0.000623 0.010125 -0.008765 0.000000 0.000000 0.000000
# 3 -0.018434 -0.008765 0.054315 0.000000 0.000000 0.000000
# 4 0.000000 0.000000 0.000000 0.060989 0.000000 0.000000
# 5 0.000000 0.000000 0.000000 0.000000 0.016277 0.000000
# 6 0.000000 0.000000 0.000000 0.000000 0.000000 0.038747
#
#
# Mechanical properties :
#
#
# Convention : Reuss Voigt Hill
#
# Bulk Modulus (GPa) = 35.08756 49.98721 42.53739
# Shear Modulus (GPa) = 18.84638 30.51687 24.68162
#
# Velocity S-wave (km/s) = 3.11605 3.96515 3.56596
# Velocity P-wave (km/s) = 5.56988 6.83498 6.23460
#
# Compressibility (1/GPa) = 0.02850013
#
# Stress axis : x y z
#
# Youngs Moduli (GPa) = 50.74540 98.76766 18.41127
#
# Poissons Ratio (x) = 0.06156 0.33940
# Poissons Ratio (y) = 0.03163 0.16137
# Poissons Ratio (z) = 0.93547 0.86569
#
# Static dielectric constant tensor:
#      x y z
#    x 3.526870 0.000000 0.000000 
#    y 0.000000 4.023730 0.000000 
#    z 0.000000 0.000000 3.343730 
# 
# 
# High freq. dielectric constant tensor:
#      x y z
#    x 1.751520 0.000000 0.000000 
#    y 0.000000 1.775460 0.000000 
#    z 0.000000 0.000000 1.734610 
# 
# From -- ./inp_files/6486.got.cif
#   From: 2010.03.12/outbox.cif.g09.slc.cpg/sg55_4_cif.got.tgz:6486.got - 2010.04.16 15:19:21.
