data_PCOD8226634
_publ_section_title
;
Structure prediction by ZEFSAII (Michael W. Deem and Ramdas Pophale) SiO2 
 PCOD8226634
Probable space group: P B A M
;
_chemical_formula_sum "Si O2"
_cell_formula_units_Z 44
_cell_length_a 5.217038
_cell_length_b 27.528169
_cell_length_c 15.697350
_cell_angle_alpha 90.000000
_cell_angle_beta 90.000000
_cell_angle_gamma 90.000000
_cell_volume 2254.382828
_symmetry_space_group_name_H-M "P B A M"
_symmetry_group_IT_number 55
_symmetry_cell_setting 'orthorhombic'
loop_
_space_group_symop_operation_xyz
x,y,z
-x,-y,z
1/2+x,1/2-y,-z
1/2-x,1/2+y,-z
-x,-y,-z
x,y,-z
1/2-x,1/2+y,z
1/2+x,1/2-y,z
loop_
_atom_site_type_symbol
_atom_site_label
_atom_site_fract_x
_atom_site_fract_y
_atom_site_fract_z
Si Si1 0.373812 0.446971 0.097657
Si Si2 0.881516 0.165326 0.500000
Si Si3 0.000000 0.500000 0.803158
Si Si4 0.377342 0.074580 0.682674
Si Si5 0.391023 0.280961 0.321484
Si Si6 0.900307 0.119642 0.247322
Si Si7 0.117851 0.599117 0.500000
O O1 0.500000 0.500000 0.111849
O O2 0.478736 0.401900 0.153706
O O3 0.091248 0.457030 0.133862
O O4 0.377221 0.430440 0.000000
O O5 0.132860 0.132662 0.500000
O O6 0.872868 0.198881 0.583079
O O7 0.628818 0.133099 0.500000
O O8 0.199167 0.526392 0.737693
O O9 0.656703 0.092068 0.713641
O O10 0.389891 0.063910 0.582079
O O11 0.152340 0.113662 0.694289
O O12 0.668144 0.257803 0.306097
O O13 0.348789 0.322848 0.249583
#
# Coordination Sequence:
#
# PCOD8226634 Si02
#       7
#     8   4   4   8   8   8   4
#     4  10  20  37  64  93 119 148 189 242 300 357
#     4  12  22  37  56  85 113 146 206 258 296 329
#     4  10  21  35  58  86 126 154 200 239 289 354
#     4  11  21  36  57  80 120 164 197 238 289 341
#     4  12  23  38  59  84 115 157 200 247 296 345
#     4  11  22  40  58  86 121 155 191 244 301 351
#     4  12  20  36  56  80 119 162 201 242 287 343
#
# _framework density 19.517536
#
# number of rings (size 3 to 8) (size 9 to 14) (size 15 to 20)
#    0.000    0.909    5.455    3.000    0.000    0.364 
#    0.000    0.000    0.000    5.455    0.000    0.000 
#    0.000    0.000    0.000    0.000    0.000    0.000 
#
# Total GULP energy -545107.375249 kJ/mol
# GULP energy per Si atom -12388.803983 kJ/mol
# Density = 1.947311 g / cm^3
# Si number density = 19.517536 Si / 1000 Ang^3
#
#
#
# Elastic Constant Matrix: (Units=GPa)
#
#
# Indices 1 2 3 4 5 6 
#
# 1 94.2134 8.2952 27.2096 0.0000 0.0000 0.0000
# 2 8.2952 74.5175 57.8478 0.0000 0.0000 0.0000
# 3 27.2096 57.8478 160.2699 0.0000 0.0000 0.0000
# 4 0.0000 0.0000 0.0000 -7.2076 0.0000 0.0000
# 5 0.0000 0.0000 0.0000 0.0000 15.6907 0.0000
# 6 0.0000 0.0000 0.0000 0.0000 0.0000 30.9095
#
#
#
# Elastic Compliance Matrix: (Units=1/GPa)
#
#
# Indices 1 2 3 4 5 6 
#
# 1 0.011167 0.000318 -0.002010 0.000000 0.000000 0.000000
# 2 0.000318 0.018653 -0.006786 0.000000 0.000000 0.000000
# 3 -0.002010 -0.006786 0.009030 0.000000 0.000000 0.000000
# 4 0.000000 0.000000 0.000000 -0.138743 0.000000 0.000000
# 5 0.000000 0.000000 0.000000 0.000000 0.063732 0.000000
# 6 0.000000 0.000000 0.000000 0.000000 0.000000 0.032353
#
#
# Mechanical properties :
#
#
# Convention : Reuss Voigt Hill
#
# Bulk Modulus (GPa) = 45.68027 57.30066 51.49047
# Shear Modulus (GPa) = 244.53935 23.58841 134.06388
#
# Velocity S-wave (km/s) = 11.20554 3.48023 8.29687
# Velocity P-wave (km/s) = 13.81573 6.75067 10.87304
#
# Compressibility (1/GPa) = 0.02189129
#
# Stress axis : x y z
#
# Youngs Moduli (GPa) = 89.55056 53.61193 110.73859
#
# Poissons Ratio (x) = -0.01703 0.22264
# Poissons Ratio (y) = -0.02845 0.75151
# Poissons Ratio (z) = 0.18004 0.36383
#
# Static dielectric constant tensor:
#      x y z
#    x 3.653090 0.000000 0.000000 
#    y 0.000000 3.605650 0.000000 
#    z 0.000000 0.000000 3.709370 
# 
# 
# High freq. dielectric constant tensor:
#      x y z
#    x 1.772100 0.000000 0.000000 
#    y 0.000000 1.741840 0.000000 
#    z 0.000000 0.000000 1.753370 
# 
# From -- ./inp_files/16646.got.cif
#   From: 2010.03.12/outbox.cif.g09.slc.cpg/sg55_9_cif.got.tgz:16646.got - 2010.04.16 15:19:21.
