data_PCOD8226501
_publ_section_title
;
Structure prediction by ZEFSAII (Michael W. Deem and Ramdas Pophale) SiO2 
 PCOD8226501
Probable space group: P B A M
;
_chemical_formula_sum "Si O2"
_cell_formula_units_Z 64
_cell_length_a 14.906359
_cell_length_b 24.464229
_cell_length_c 8.830140
_cell_angle_alpha 90.000000
_cell_angle_beta 90.000000
_cell_angle_gamma 90.000000
_cell_volume 3220.109937
_symmetry_space_group_name_H-M "P B A M"
_symmetry_group_IT_number 55
_symmetry_cell_setting 'orthorhombic'
loop_
_space_group_symop_operation_xyz
x,y,z
-x,-y,z
1/2+x,1/2-y,-z
1/2-x,1/2+y,-z
-x,-y,-z
x,y,-z
1/2-x,1/2+y,z
1/2+x,1/2-y,z
loop_
_atom_site_type_symbol
_atom_site_label
_atom_site_fract_x
_atom_site_fract_y
_atom_site_fract_z
Si Si1 0.126241 0.857790 0.673154
Si Si2 0.552071 0.364118 0.173994
Si Si3 0.003785 0.667891 0.680803
Si Si4 0.670071 0.765394 0.326679
Si Si5 0.753643 0.062612 0.178695
Si Si6 0.450331 0.945345 0.178068
Si Si7 0.094885 0.017753 0.176077
Si Si8 0.868246 0.759805 0.320962
O O1 0.111959 0.875738 0.500000
O O2 0.123741 0.792990 0.689016
O O3 0.220286 0.881386 0.735434
O O4 0.048418 0.882088 0.779829
O O5 0.613393 0.417663 0.200799
O O6 0.581982 0.315731 0.282601
O O7 0.554860 0.344978 0.000000
O O8 0.003822 0.668344 0.500000
O O9 0.992567 0.606921 0.740403
O O10 0.923671 0.707472 0.742158
O O11 0.099805 0.690862 0.743248
O O12 0.686436 0.781112 0.500000
O O13 0.768267 0.763595 0.247067
O O14 0.653002 0.047316 0.224910
O O15 0.820143 0.015294 0.242240
O O16 0.761403 0.071462 0.000000
O O17 0.500000 0.000000 0.234289
O O18 0.462834 0.936798 0.000000
O O19 0.088444 0.003649 0.000000
O O20 0.000000 0.000000 0.252734
O O21 0.861961 0.753507 0.500000
#
# Coordination Sequence:
#
# PCOD8226501 Si02
#       8
#     8   8   8   8   8   8   8   8
#     4  11  20  35  58  84 114 149 192 236 283 337
#     4  11  21  34  55  83 115 150 187 228 280 342
#     4  10  20  38  61  84 113 151 192 233 284 345
#     4   9  19  35  57  82 110 150 189 225 279 340
#     4  10  20  37  59  81 110 151 195 239 286 342
#     4  10  23  41  60  84 114 148 191 244 294 334
#     4   9  17  32  53  76 107 148 184 217 273 342
#     4  10  20  37  58  82 115 149 186 233 283 334
#
# _framework density 19.875098000000001
#
# number of rings (size 3 to 8) (size 9 to 14) (size 15 to 20)
#    0.000    2.000    2.500    1.500    0.000    3.250 
#    0.000    5.000    0.000    0.000    0.000    0.000 
#    0.000    0.000    0.000    0.000    0.000    0.000 
#
# Total GULP energy -793431.851954 kJ/mol
# GULP energy per Si atom -12397.372687 kJ/mol
# Density = 1.982986 g / cm^3
# Si number density = 19.875098 Si / 1000 Ang^3
#
#
#
# Elastic Constant Matrix: (Units=GPa)
#
#
# Indices 1 2 3 4 5 6 
#
# 1 145.1593 67.7165 20.8624 0.0000 0.0000 0.0000
# 2 67.7165 122.3170 19.6952 0.0000 0.0000 0.0000
# 3 20.8624 19.6952 19.3348 0.0000 0.0000 0.0000
# 4 0.0000 0.0000 0.0000 29.2018 0.0000 0.0000
# 5 0.0000 0.0000 0.0000 0.0000 19.2823 0.0000
# 6 0.0000 0.0000 0.0000 0.0000 0.0000 34.2985
#
#
#
# Elastic Compliance Matrix: (Units=1/GPa)
#
#
# Indices 1 2 3 4 5 6 
#
# 1 0.009849 -0.004475 -0.006068 0.000000 0.000000 0.000000
# 2 -0.004475 0.011813 -0.007204 0.000000 0.000000 0.000000
# 3 -0.006068 -0.007204 0.065607 0.000000 0.000000 0.000000
# 4 0.000000 0.000000 0.000000 0.034244 0.000000 0.000000
# 5 0.000000 0.000000 0.000000 0.000000 0.051861 0.000000
# 6 0.000000 0.000000 0.000000 0.000000 0.000000 0.029156
#
#
# Mechanical properties :
#
#
# Convention : Reuss Voigt Hill
#
# Bulk Modulus (GPa) = 19.31520 55.92881 37.62200
# Shear Modulus (GPa) = 19.58606 28.45897 24.02252
#
# Velocity S-wave (km/s) = 3.14261 3.78814 3.48037
# Velocity P-wave (km/s) = 4.78616 6.88001 5.92629
#
# Compressibility (1/GPa) = 0.05177269
#
# Stress axis : x y z
#
# Youngs Moduli (GPa) = 101.53452 84.65138 15.24236
#
# Poissons Ratio (x) = 0.37885 0.09249
# Poissons Ratio (y) = 0.45441 0.10981
# Poissons Ratio (z) = 0.61613 0.60986
#
# Static dielectric constant tensor:
#      x y z
#    x 3.954610 0.000000 0.000000 
#    y 0.000000 3.551760 0.000000 
#    z 0.000000 0.000000 3.215170 
# 
# 
# High freq. dielectric constant tensor:
#      x y z
#    x 1.783750 0.000000 0.000000 
#    y 0.000000 1.779680 0.000000 
#    z 0.000000 0.000000 1.737560 
# 
# From -- ./inp_files/6674.got.cif
#   From: 2010.03.12/outbox.cif.g09.slc.cpg/sg55_4_cif.got.tgz:6674.got - 2010.04.16 15:19:21.
