data_PCOD8226806
_publ_section_title
;
Structure prediction by ZEFSAII (Michael W. Deem and Ramdas Pophale) SiO2 
 PCOD8226806
Probable space group: P B A M
;
_chemical_formula_sum "Si O2"
_cell_formula_units_Z 64
_cell_length_a 11.052495
_cell_length_b 31.982870
_cell_length_c 9.273590
_cell_angle_alpha 90.000000
_cell_angle_beta 90.000000
_cell_angle_gamma 90.000000
_cell_volume 3278.126066
_symmetry_space_group_name_H-M "P B A M"
_symmetry_group_IT_number 55
_symmetry_cell_setting 'orthorhombic'
loop_
_space_group_symop_operation_xyz
x,y,z
-x,-y,z
1/2+x,1/2-y,-z
1/2-x,1/2+y,-z
-x,-y,-z
x,y,-z
1/2-x,1/2+y,z
1/2+x,1/2-y,z
loop_
_atom_site_type_symbol
_atom_site_label
_atom_site_fract_x
_atom_site_fract_y
_atom_site_fract_z
Si Si1 0.375417 0.338252 0.832503
Si Si2 0.782075 0.722866 0.334862
Si Si3 0.661795 0.098274 0.838711
Si Si4 0.631973 0.015577 0.329003
Si Si5 0.789499 0.314755 0.341863
Si Si6 0.916346 0.879506 0.337478
Si Si7 0.983345 0.678075 0.163582
Si Si8 0.882493 0.974241 0.329079
O O1 0.332102 0.296461 0.750631
O O2 0.282393 0.375799 0.806688
O O3 0.501429 0.353387 0.770166
O O4 0.388775 0.326944 0.000000
O O5 0.772669 0.708130 0.500000
O O6 0.788310 0.772815 0.321208
O O7 0.906000 0.706956 0.267902
O O8 0.648913 0.062897 0.720225
O O9 0.549074 0.129362 0.821705
O O10 0.665422 0.078965 0.000000
O O11 0.630132 0.014019 0.500000
O O12 0.500000 0.000000 0.269815
O O13 0.750875 0.990343 0.270318
O O14 0.853999 0.312890 0.500000
O O15 0.711057 0.356463 0.337272
O O16 0.879381 0.317200 0.209001
O O17 0.971101 0.880450 0.500000
O O18 0.898302 0.926468 0.278623
O O19 0.963568 0.693406 0.000000
O O20 0.880051 0.978034 0.500000
O O21 0.000000 0.000000 0.269086
#
# Coordination Sequence:
#
# PCOD8226806 Si02
#       8
#     8   8   8   8   8   8   8   8
#     4  10  21  38  59  86 116 149 194 239 283 345
#     4  10  21  38  59  84 114 150 195 241 288 342
#     4   9  20  38  57  80 113 151 189 230 281 346
#     4  10  21  34  56  88 114 144 193 245 289 345
#     4  10  23  38  57  84 115 152 193 239 290 345
#     4  10  21  37  59  85 117 154 191 238 297 346
#     4  10  22  39  59  84 115 151 194 238 288 346
#     4   9  18  34  56  84 117 150 188 239 297 354
#
# _framework density 19.523349
#
# number of rings (size 3 to 8) (size 9 to 14) (size 15 to 20)
#    0.000    2.250    0.000    2.625    3.500    5.750 
#    0.000    0.625    0.000    2.250    0.000    0.000 
#    0.000    0.000    0.000    0.000    0.000    0.000 
#
# Total GULP energy -793463.572773 kJ/mol
# GULP energy per Si atom -12397.868325 kJ/mol
# Density = 1.947891 g / cm^3
# Si number density = 19.523349 Si / 1000 Ang^3
#
#
#
# Elastic Constant Matrix: (Units=GPa)
#
#
# Indices 1 2 3 4 5 6 
#
# 1 100.1146 36.0198 34.0556 0.0000 0.0000 0.0000
# 2 36.0198 99.4749 33.5513 0.0000 0.0000 0.0000
# 3 34.0556 33.5513 78.7749 0.0000 0.0000 0.0000
# 4 0.0000 0.0000 0.0000 21.9082 0.0000 0.0000
# 5 0.0000 0.0000 0.0000 0.0000 27.2896 0.0000
# 6 0.0000 0.0000 0.0000 0.0000 0.0000 18.9359
#
#
#
# Elastic Compliance Matrix: (Units=1/GPa)
#
#
# Indices 1 2 3 4 5 6 
#
# 1 0.012507 -0.003159 -0.004061 0.000000 0.000000 0.000000
# 2 -0.003159 0.012537 -0.003974 0.000000 0.000000 0.000000
# 3 -0.004061 -0.003974 0.016143 0.000000 0.000000 0.000000
# 4 0.000000 0.000000 0.000000 0.045645 0.000000 0.000000
# 5 0.000000 0.000000 0.000000 0.000000 0.036644 0.000000
# 6 0.000000 0.000000 0.000000 0.000000 0.000000 0.052810
#
#
# Mechanical properties :
#
#
# Convention : Reuss Voigt Hill
#
# Bulk Modulus (GPa) = 53.19762 53.95753 53.57758
# Shear Modulus (GPa) = 24.39741 25.27591 24.83666
#
# Velocity S-wave (km/s) = 3.53888 3.60203 3.57059
# Velocity P-wave (km/s) = 6.63367 6.70797 6.67093
#
# Compressibility (1/GPa) = 0.01879783
#
# Stress axis : x y z
#
# Youngs Moduli (GPa) = 79.95784 79.76408 61.94697
#
# Poissons Ratio (x) = 0.25196 0.25159
# Poissons Ratio (y) = 0.25257 0.24618
# Poissons Ratio (z) = 0.32474 0.31699
#
# Static dielectric constant tensor:
#      x y z
#    x 3.636260 0.000000 0.000000 
#    y 0.000000 3.552040 0.000000 
#    z 0.000000 0.000000 3.486980 
# 
# 
# High freq. dielectric constant tensor:
#      x y z
#    x 1.759480 0.000000 0.000000 
#    y 0.000000 1.763690 0.000000 
#    z 0.000000 0.000000 1.748720 
# 
# From -- ./inp_files/4691.got.cif
#   From: 2010.03.12/outbox.cif.g09.slc.cpg/sg55_3_cif.got.tgz:4691.got - 2010.04.16 15:19:21.
