data_PCOD8226521
_publ_section_title
;
Structure prediction by ZEFSAII (Michael W. Deem and Ramdas Pophale) SiO2 
 PCOD8226521
Probable space group: P B A M
;
_chemical_formula_sum "Si O2"
_cell_formula_units_Z 64
_cell_length_a 10.014497
_cell_length_b 18.935768
_cell_length_c 17.076244
_cell_angle_alpha 90.000000
_cell_angle_beta 90.000000
_cell_angle_gamma 90.000000
_cell_volume 3238.205578
_symmetry_space_group_name_H-M "P B A M"
_symmetry_group_IT_number 55
_symmetry_cell_setting 'orthorhombic'
loop_
_space_group_symop_operation_xyz
x,y,z
-x,-y,z
1/2+x,1/2-y,-z
1/2-x,1/2+y,-z
-x,-y,-z
x,y,-z
1/2-x,1/2+y,z
1/2+x,1/2-y,z
loop_
_atom_site_type_symbol
_atom_site_label
_atom_site_fract_x
_atom_site_fract_y
_atom_site_fract_z
Si Si1 0.799951 0.688645 0.849303
Si Si2 0.618875 0.446951 0.908836
Si Si3 0.505015 0.699427 0.909021
Si Si4 0.363603 0.794156 0.333053
Si Si5 0.385606 0.952094 0.665127
Si Si6 0.636669 0.030500 0.847707
Si Si7 0.906762 0.210395 0.409433
Si Si8 0.617725 0.546435 0.409918
O O1 0.646391 0.710709 0.865264
O O2 0.906389 0.734866 0.897075
O O3 0.826956 0.702016 0.758028
O O4 0.821663 0.608025 0.879449
O O5 0.500000 0.500000 0.891065
O O6 0.572409 0.370236 0.878042
O O7 0.748665 0.472801 0.862118
O O8 0.656689 0.444985 0.000000
O O9 0.539164 0.690412 0.000000
O O10 0.404918 0.871745 0.363333
O O11 0.239670 0.764098 0.383155
O O12 0.487180 0.743729 0.350266
O O13 0.390842 0.958928 0.757266
O O14 0.244859 0.980813 0.636623
O O15 0.500000 0.000000 0.625995
O O16 0.500000 0.000000 0.886755
O O17 0.932370 0.231521 0.500000
O O18 0.917420 0.127353 0.395536
O O19 0.500000 0.500000 0.374460
O O20 0.642992 0.529494 0.500000
#
# Coordination Sequence:
#
# PCOD8226521 Si02
#       8
#     8   8   8   8   8   8   8   8
#     4  11  23  41  61  86 125 159 197 253 302 362
#     4  10  21  40  62  86 115 152 199 246 292 355
#     4  11  24  41  62  88 119 159 203 246 304 365
#     4  10  21  38  58  84 117 151 196 239 288 347
#     4   9  20  38  56  82 114 150 190 234 287 346
#     4  10  22  40  61  88 119 155 199 247 299 354
#     4  10  20  37  59  83 115 153 193 238 285 342
#     4   9  19  36  56  83 115 147 189 238 286 340
#
# _framework density 19.764032
#
# number of rings (size 3 to 8) (size 9 to 14) (size 15 to 20)
#    0.000    2.000    1.250    1.500    1.750    3.000 
#    6.750    1.250    0.000    0.000    0.000    0.000 
#    0.000    0.000    0.000    0.000    0.000    0.000 
#
# Total GULP energy -793610.101139 kJ/mol
# GULP energy per Si atom -12400.157830 kJ/mol
# Density = 1.971905 g / cm^3
# Si number density = 19.764032 Si / 1000 Ang^3
#
#
#
# Elastic Constant Matrix: (Units=GPa)
#
#
# Indices 1 2 3 4 5 6 
#
# 1 143.5189 72.8571 20.6527 0.0000 0.0000 0.0000
# 2 72.8571 86.9917 22.9692 0.0000 0.0000 0.0000
# 3 20.6527 22.9692 35.4378 0.0000 0.0000 0.0000
# 4 0.0000 0.0000 0.0000 22.1931 0.0000 0.0000
# 5 0.0000 0.0000 0.0000 0.0000 34.3137 0.0000
# 6 0.0000 0.0000 0.0000 0.0000 0.0000 42.8313
#
#
#
# Elastic Compliance Matrix: (Units=1/GPa)
#
#
# Indices 1 2 3 4 5 6 
#
# 1 0.012131 -0.010006 -0.000585 0.000000 0.000000 0.000000
# 2 -0.010006 0.022122 -0.008507 0.000000 0.000000 0.000000
# 3 -0.000585 -0.008507 0.034073 0.000000 0.000000 0.000000
# 4 0.000000 0.000000 0.000000 0.045059 0.000000 0.000000
# 5 0.000000 0.000000 0.000000 0.000000 0.029143 0.000000
# 6 0.000000 0.000000 0.000000 0.000000 0.000000 0.023347
#
#
# Mechanical properties :
#
#
# Convention : Reuss Voigt Hill
#
# Bulk Modulus (GPa) = 33.18832 55.43404 44.31118
# Shear Modulus (GPa) = 23.35209 29.83225 26.59217
#
# Velocity S-wave (km/s) = 3.44109 3.88934 3.67206
# Velocity P-wave (km/s) = 5.71112 6.94825 6.35984
#
# Compressibility (1/GPa) = 0.03013108
#
# Stress axis : x y z
#
# Youngs Moduli (GPa) = 82.43150 45.20483 29.34872
#
# Poissons Ratio (x) = 0.45231 0.01716
# Poissons Ratio (y) = 0.82479 0.24967
# Poissons Ratio (z) = 0.04820 0.38455
#
# Static dielectric constant tensor:
#      x y z
#    x 3.766900 0.000000 0.000000 
#    y 0.000000 3.806210 0.000000 
#    z 0.000000 0.000000 3.441960 
# 
# 
# High freq. dielectric constant tensor:
#      x y z
#    x 1.783220 0.000000 0.000000 
#    y 0.000000 1.772370 0.000000 
#    z 0.000000 0.000000 1.761760 
# 
# From -- ./inp_files/21114.got.cif
#   From: 2010.03.12/outbox.cif.g09.slc.cpg/sg55_11_cif.got.tgz:21114.got - 2010.04.16 15:19:21.
