data_PCOD8226134
_publ_section_title
;
Structure prediction by ZEFSAII (Michael W. Deem and Ramdas Pophale) SiO2 
 PCOD8226134
Probable space group: P B A M
;
_chemical_formula_sum "Si O2"
_cell_formula_units_Z 56
_cell_length_a 18.983942
_cell_length_b 18.987359
_cell_length_c 8.678237
_cell_angle_alpha 90.000000
_cell_angle_beta 90.000000
_cell_angle_gamma 90.000000
_cell_volume 3128.113241
_symmetry_space_group_name_H-M "P B A M"
_symmetry_group_IT_number 55
_symmetry_cell_setting 'orthorhombic'
loop_
_space_group_symop_operation_xyz
x,y,z
-x,-y,z
1/2+x,1/2-y,-z
1/2-x,1/2+y,-z
-x,-y,-z
x,y,-z
1/2-x,1/2+y,z
1/2+x,1/2-y,z
loop_
_atom_site_type_symbol
_atom_site_label
_atom_site_fract_x
_atom_site_fract_y
_atom_site_fract_z
Si Si1 0.055242 0.440075 0.679109
Si Si2 0.700030 0.022384 0.823290
Si Si3 0.240069 0.617949 0.676375
Si Si4 0.522191 0.208587 0.179241
Si Si5 0.125417 0.735389 0.677860
Si Si6 0.344892 0.736811 0.678938
Si Si7 0.767377 0.166350 0.822761
O O1 0.049437 0.420152 0.500000
O O2 0.132818 0.468610 0.714109
O O3 0.037174 0.371795 0.777556
O O4 0.000000 0.500000 0.724992
O O5 0.757382 0.083364 0.793187
O O6 0.738196 0.949054 0.786815
O O7 0.674633 0.023669 0.000000
O O8 0.237608 0.592616 0.500000
O O9 0.174093 0.668208 0.712867
O O10 0.312227 0.659938 0.711947
O O11 0.443051 0.230003 0.217934
O O12 0.573713 0.261558 0.271505
O O13 0.535754 0.219065 0.000000
O O14 0.103286 0.738312 0.500000
O O15 0.167865 0.806234 0.719997
O O16 0.335625 0.756027 0.500000
O O17 0.305495 0.796398 0.776875
O O18 0.784032 0.183221 0.000000
#
# Coordination Sequence:
#
# PCOD8226134 Si02
#       7
#     8   8   8   8   8   8   8
#     4  11  23  36  52  76 111 151 186 221 266 328
#     4  11  22  34  53  81 111 144 180 222 275 327
#     4   9  20  36  55  79 107 141 184 225 268 322
#     4  12  23  35  54  81 111 144 180 227 280 328
#     4  10  21  37  56  79 107 144 186 226 271 328
#     4  10  20  36  57  79 105 144 188 228 269 326
#     4  10  20  35  54  80 109 140 182 228 273 325
#
# _framework density 17.902166000000001
#
# number of rings (size 3 to 8) (size 9 to 14) (size 15 to 20)
#    0.000    1.571    1.429    5.143    0.000    9.714 
#    0.000    0.000    0.000    0.857    0.000    6.000 
#    0.000    0.000    0.000    0.000    0.000    0.000 
#
# Total GULP energy -694679.949770 kJ/mol
# GULP energy per Si atom -12404.999103 kJ/mol
# Density = 1.786142 g / cm^3
# Si number density = 17.902166 Si / 1000 Ang^3
#
#
#
# Elastic Constant Matrix: (Units=GPa)
#
#
# Indices 1 2 3 4 5 6 
#
# 1 75.5245 55.1818 24.8317 0.0000 0.0000 0.0000
# 2 55.1818 92.7663 32.8313 0.0000 0.0000 0.0000
# 3 24.8317 32.8313 55.5172 0.0000 0.0000 0.0000
# 4 0.0000 0.0000 0.0000 29.0904 0.0000 0.0000
# 5 0.0000 0.0000 0.0000 0.0000 30.1617 0.0000
# 6 0.0000 0.0000 0.0000 0.0000 0.0000 23.5245
#
#
#
# Elastic Compliance Matrix: (Units=1/GPa)
#
#
# Indices 1 2 3 4 5 6 
#
# 1 0.023776 -0.013127 -0.002872 0.000000 0.000000 0.000000
# 2 -0.013127 0.020880 -0.006477 0.000000 0.000000 0.000000
# 3 -0.002872 -0.006477 0.023127 0.000000 0.000000 0.000000
# 4 0.000000 0.000000 0.000000 0.034376 0.000000 0.000000
# 5 0.000000 0.000000 0.000000 0.000000 0.033155 0.000000
# 6 0.000000 0.000000 0.000000 0.000000 0.000000 0.042509
#
#
# Mechanical properties :
#
#
# Convention : Reuss Voigt Hill
#
# Bulk Modulus (GPa) = 43.79624 49.94417 46.87020
# Shear Modulus (GPa) = 21.70291 23.95287 22.82789
#
# Velocity S-wave (km/s) = 3.48560 3.66182 3.57479
# Velocity P-wave (km/s) = 6.38095 6.77034 6.57853
#
# Compressibility (1/GPa) = 0.02283301
#
# Stress axis : x y z
#
# Youngs Moduli (GPa) = 42.05932 47.89185 43.23942
#
# Poissons Ratio (x) = 0.62866 0.12417
# Poissons Ratio (y) = 0.55210 0.28005
# Poissons Ratio (z) = 0.12078 0.31018
#
# Static dielectric constant tensor:
#      x y z
#    x 3.300630 0.000000 0.000000 
#    y 0.000000 3.259100 0.000000 
#    z 0.000000 0.000000 3.361770 
# 
# 
# High freq. dielectric constant tensor:
#      x y z
#    x 1.684200 0.000000 0.000000 
#    y 0.000000 1.682080 0.000000 
#    z 0.000000 0.000000 1.707090 
# 
# From -- ./inp_files/8911.got.cif
#   From: 2010.03.12/outbox.cif.g09.slc.cpg/sg55_5_cif.got.tgz:8911.got - 2010.04.16 15:19:21.
