data_PCOD8226170
_publ_section_title
;
Structure prediction by ZEFSAII (Michael W. Deem and Ramdas Pophale) SiO2 
 PCOD8226170
Probable space group: P B A M
;
_chemical_formula_sum "Si O2"
_cell_formula_units_Z 64
_cell_length_a 20.164536
_cell_length_b 19.622792
_cell_length_c 8.548896
_cell_angle_alpha 90.000000
_cell_angle_beta 90.000000
_cell_angle_gamma 90.000000
_cell_volume 3382.665603
_symmetry_space_group_name_H-M "P B A M"
_symmetry_group_IT_number 55
_symmetry_cell_setting 'orthorhombic'
loop_
_space_group_symop_operation_xyz
x,y,z
-x,-y,z
1/2+x,1/2-y,-z
1/2-x,1/2+y,-z
-x,-y,-z
x,y,-z
1/2-x,1/2+y,z
1/2+x,1/2-y,z
loop_
_atom_site_type_symbol
_atom_site_label
_atom_site_fract_x
_atom_site_fract_y
_atom_site_fract_z
Si Si1 0.184116 0.420822 0.182709
Si Si2 0.926007 0.170257 0.819684
Si Si3 0.434593 0.172867 0.815935
Si Si4 0.822386 0.426792 0.815630
Si Si5 0.322513 0.429258 0.319202
Si Si6 0.074952 0.325869 0.681148
Si Si7 0.326503 0.574450 0.817186
Si Si8 0.564529 0.329859 0.680821
O O1 0.160997 0.496163 0.238136
O O2 0.250555 0.399516 0.274139
O O3 0.126640 0.367603 0.216226
O O4 0.201334 0.421320 0.000000
O O5 0.915676 0.249477 0.778482
O O6 0.876226 0.128787 0.711605
O O7 0.001215 0.147926 0.782666
O O8 0.910604 0.154871 0.000000
O O9 0.376068 0.125568 0.745476
O O10 0.501143 0.151075 0.726863
O O11 0.446028 0.161910 0.000000
O O12 0.748122 0.407050 0.761662
O O13 0.826021 0.421198 0.000000
O O14 0.323822 0.449875 0.500000
O O15 0.340560 0.495237 0.216301
O O16 0.087503 0.341320 0.500000
O O17 0.085980 0.246836 0.723306
O O18 0.374992 0.620781 0.716919
O O19 0.337355 0.588692 0.000000
O O20 0.544559 0.335227 0.500000
#
# Coordination Sequence:
#
# PCOD8226170 Si02
#       8
#     8   8   8   8   8   8   8   8
#     4  10  20  36  57  79 106 142 184 225 265 315
#     4  10  20  35  56  81 107 139 180 222 264 319
#     4   9  18  35  57  79 105 139 179 221 266 316
#     4   8  17  34  55  79 105 135 174 221 266 310
#     4  11  22  37  56  79 110 143 175 218 272 324
#     4  10  21  36  53  78 112 144 177 220 269 320
#     4  10  20  36  57  81 108 139 179 223 266 319
#     4  10  21  37  55  78 109 143 178 220 271 321
#
# _framework density 18.919989999999999
#
# number of rings (size 3 to 8) (size 9 to 14) (size 15 to 20)
#    0.000    2.250    0.000    3.750    0.000    4.000 
#    0.000   10.000    0.000    0.000    0.000    0.000 
#    0.000    0.000    0.000    0.000    0.000    0.000 
#
# Total GULP energy -793796.574321 kJ/mol
# GULP energy per Si atom -12403.071474 kJ/mol
# Density = 1.887693 g / cm^3
# Si number density = 18.919990 Si / 1000 Ang^3
#
#
#
# Elastic Constant Matrix: (Units=GPa)
#
#
# Indices 1 2 3 4 5 6 
#
# 1 117.4314 71.9270 18.9902 0.0000 0.0000 0.0000
# 2 71.9270 82.9246 16.0370 0.0000 0.0000 0.0000
# 3 18.9902 16.0370 45.9377 0.0000 0.0000 0.0000
# 4 0.0000 0.0000 0.0000 25.6925 0.0000 0.0000
# 5 0.0000 0.0000 0.0000 0.0000 25.6241 0.0000
# 6 0.0000 0.0000 0.0000 0.0000 0.0000 37.7074
#
#
#
# Elastic Compliance Matrix: (Units=1/GPa)
#
#
# Indices 1 2 3 4 5 6 
#
# 1 0.018369 -0.015511 -0.002178 0.000000 0.000000 0.000000
# 2 -0.015511 0.026031 -0.002675 0.000000 0.000000 0.000000
# 3 -0.002178 -0.002675 0.023603 0.000000 0.000000 0.000000
# 4 0.000000 0.000000 0.000000 0.038922 0.000000 0.000000
# 5 0.000000 0.000000 0.000000 0.000000 0.039026 0.000000
# 6 0.000000 0.000000 0.000000 0.000000 0.000000 0.026520
#
#
# Mechanical properties :
#
#
# Convention : Reuss Voigt Hill
#
# Bulk Modulus (GPa) = 36.66672 51.13358 43.90015
# Shear Modulus (GPa) = 22.49311 27.09409 24.79360
#
# Velocity S-wave (km/s) = 3.45172 3.78833 3.62393
# Velocity P-wave (km/s) = 5.94203 6.79854 6.38467
#
# Compressibility (1/GPa) = 0.02727269
#
# Stress axis : x y z
#
# Youngs Moduli (GPa) = 54.44096 38.41633 42.36738
#
# Poissons Ratio (x) = 0.59588 0.09229
# Poissons Ratio (y) = 0.84444 0.11334
# Poissons Ratio (z) = 0.11859 0.10277
#
# Static dielectric constant tensor:
#      x y z
#    x 3.552850 0.000000 0.000000 
#    y 0.000000 3.481720 0.000000 
#    z 0.000000 0.000000 3.343250 
# 
# 
# High freq. dielectric constant tensor:
#      x y z
#    x 1.739740 0.000000 0.000000 
#    y 0.000000 1.731860 0.000000 
#    z 0.000000 0.000000 1.732530 
# 
# From -- ./inp_files/9018.got.cif
#   From: 2010.03.12/outbox.cif.g09.slc.cpg/sg55_5_cif.got.tgz:9018.got - 2010.04.16 15:19:21.
