data_PCOD8226873
_publ_section_title
;
Structure prediction by ZEFSAII (Michael W. Deem and Ramdas Pophale) SiO2 
 PCOD8226873
Probable space group: P B A M
;
_chemical_formula_sum "Si O2"
_cell_formula_units_Z 64
_cell_length_a 19.887035
_cell_length_b 20.252754
_cell_length_c 9.023943
_cell_angle_alpha 90.000000
_cell_angle_beta 90.000000
_cell_angle_gamma 90.000000
_cell_volume 3634.548505
_symmetry_space_group_name_H-M "P B A M"
_symmetry_group_IT_number 55
_symmetry_cell_setting 'orthorhombic'
loop_
_space_group_symop_operation_xyz
x,y,z
-x,-y,z
1/2+x,1/2-y,-z
1/2-x,1/2+y,-z
-x,-y,-z
x,y,-z
1/2-x,1/2+y,z
1/2+x,1/2-y,z
loop_
_atom_site_type_symbol
_atom_site_label
_atom_site_fract_x
_atom_site_fract_y
_atom_site_fract_z
Si Si1 0.807868 0.507091 0.323818
Si Si2 0.505352 0.162602 0.668015
Si Si3 0.174494 0.219834 0.829206
Si Si4 0.162573 0.347433 0.671612
Si Si5 0.691162 0.425928 0.175082
Si Si6 0.449868 0.555242 0.670473
Si Si7 0.041088 0.199583 0.666453
Si Si8 0.561272 0.951746 0.827379
O O1 0.806544 0.500792 0.500000
O O2 0.806814 0.583473 0.271628
O O3 0.743378 0.472900 0.255099
O O4 0.874742 0.472487 0.266035
O O5 0.492124 0.138171 0.500000
O O6 0.583525 0.153037 0.710195
O O7 0.487004 0.240974 0.685941
O O8 0.459152 0.122149 0.780441
O O9 0.201510 0.285184 0.745550
O O10 0.211262 0.150565 0.788047
O O11 0.096942 0.208820 0.790658
O O12 0.182215 0.235692 0.000000
O O13 0.175412 0.339572 0.500000
O O14 0.617602 0.444213 0.234301
O O15 0.692429 0.438138 0.000000
O O16 0.500000 0.500000 0.734556
O O17 0.431031 0.539703 0.500000
O O18 0.489040 0.625939 0.683112
O O19 0.073121 0.207249 0.500000
O O20 0.500000 0.000000 0.788362
O O21 0.579555 0.952828 0.000000
#
# Coordination Sequence:
#
# PCOD8226873 Si02
#       8
#     8   8   8   8   8   8   8   8
#     4  11  22  36  55  76 102 139 179 217 260 308
#     4   9  16  29  48  70 100 134 171 214 253 297
#     4   9  17  29  49  74 100 130 165 207 254 305
#     4   9  18  31  50  76 101 129 171 217 255 298
#     4  10  21  36  53  78 109 138 171 213 262 317
#     4   9  17  32  57  84 107 134 172 216 259 308
#     4   8  15  28  47  74 103 131 166 209 252 296
#     4  11  22  33  48  74 106 139 174 215 260 306
#
# _framework density 17.608789000000002
#
# number of rings (size 3 to 8) (size 9 to 14) (size 15 to 20)
#    0.000    2.500    1.250    2.250    0.000    5.250 
#    0.000    0.000    2.750    0.000    0.000    0.000 
#    0.000    0.000    0.000    0.000    0.000    0.000 
#
# Total GULP energy -793132.761954 kJ/mol
# GULP energy per Si atom -12392.699406 kJ/mol
# Density = 1.756871 g / cm^3
# Si number density = 17.608789 Si / 1000 Ang^3
#
#
#
# Elastic Constant Matrix: (Units=GPa)
#
#
# Indices 1 2 3 4 5 6 
#
# 1 60.3682 58.4993 34.4114 0.0000 0.0000 0.0000
# 2 58.4993 174.0569 55.1361 0.0000 0.0000 0.0000
# 3 34.4114 55.1361 60.3370 0.0000 0.0000 0.0000
# 4 0.0000 0.0000 0.0000 27.2725 0.0000 0.0000
# 5 0.0000 0.0000 0.0000 0.0000 15.7902 0.0000
# 6 0.0000 0.0000 0.0000 0.0000 0.0000 23.1454
#
#
#
# Elastic Compliance Matrix: (Units=1/GPa)
#
#
# Indices 1 2 3 4 5 6 
#
# 1 0.028715 -0.006282 -0.010637 0.000000 0.000000 0.000000
# 2 -0.006282 0.009460 -0.005062 0.000000 0.000000 0.000000
# 3 -0.010637 -0.005062 0.027266 0.000000 0.000000 0.000000
# 4 0.000000 0.000000 0.000000 0.036667 0.000000 0.000000
# 5 0.000000 0.000000 0.000000 0.000000 0.063331 0.000000
# 6 0.000000 0.000000 0.000000 0.000000 0.000000 0.043205
#
#
# Mechanical properties :
#
#
# Convention : Reuss Voigt Hill
#
# Bulk Modulus (GPa) = 46.55464 65.65062 56.10263
# Shear Modulus (GPa) = 19.24818 23.02262 21.13540
#
# Velocity S-wave (km/s) = 3.30979 3.61979 3.46826
# Velocity P-wave (km/s) = 6.41108 7.40502 6.92591
#
# Compressibility (1/GPa) = 0.02148014
#
# Stress axis : x y z
#
# Youngs Moduli (GPa) = 34.82445 105.70892 36.67618
#
# Poissons Ratio (x) = 0.66402 0.39012
# Poissons Ratio (y) = 0.21875 0.18565
# Poissons Ratio (z) = 0.37042 0.53510
#
# Static dielectric constant tensor:
#      x y z
#    x 2.909450 0.000000 0.000000 
#    y 0.000000 3.833430 0.000000 
#    z 0.000000 0.000000 3.277270 
# 
# 
# High freq. dielectric constant tensor:
#      x y z
#    x 1.624380 0.000000 0.000000 
#    y 0.000000 1.704650 0.000000 
#    z 0.000000 0.000000 1.685030 
# 
# From -- ./inp_files/8934.got.cif
#   From: 2010.03.12/outbox.cif.g09.slc.cpg/sg55_5_cif.got.tgz:8934.got - 2010.04.16 15:19:21.
