data_PCOD8226447
_publ_section_title
;
Structure prediction by ZEFSAII (Michael W. Deem and Ramdas Pophale) SiO2 
 PCOD8226447
Probable space group: P B A M
;
_chemical_formula_sum "Si O2"
_cell_formula_units_Z 48
_cell_length_a 15.537637
_cell_length_b 8.668302
_cell_length_c 16.308827
_cell_angle_alpha 90.000000
_cell_angle_beta 90.000000
_cell_angle_gamma 90.000000
_cell_volume 2196.553221
_symmetry_space_group_name_H-M "P B A M"
_symmetry_group_IT_number 55
_symmetry_cell_setting 'orthorhombic'
loop_
_space_group_symop_operation_xyz
x,y,z
-x,-y,z
1/2+x,1/2-y,-z
1/2-x,1/2+y,-z
-x,-y,-z
x,y,-z
1/2-x,1/2+y,z
1/2+x,1/2-y,z
loop_
_atom_site_type_symbol
_atom_site_label
_atom_site_fract_x
_atom_site_fract_y
_atom_site_fract_z
Si Si1 0.869582 0.897626 0.000000
Si Si2 0.836740 0.805372 0.666965
Si Si3 0.478228 0.321560 0.314006
Si Si4 0.811096 0.120734 0.593071
Si Si5 0.953283 0.231635 0.000000
Si Si6 0.211233 0.042228 0.831954
Si Si7 0.625869 0.786833 0.833973
O O1 0.811956 0.877738 0.918784
O O2 0.943121 0.766879 0.000000
O O3 0.916761 0.060177 0.000000
O O4 0.765429 0.673860 0.654136
O O5 0.839493 0.874531 0.758611
O O6 0.934089 0.741956 0.651784
O O7 0.815119 0.936990 0.600649
O O8 0.500000 0.500000 0.294083
O O9 0.402359 0.305619 0.380774
O O10 0.448960 0.232379 0.232545
O O11 0.790875 0.168036 0.500000
O O12 0.919870 0.319222 0.920014
O O13 0.313413 0.065588 0.816041
O O14 0.188193 0.862578 0.833264
#
# Coordination Sequence:
#
# PCOD8226447 Si02
#       7
#     4   8   8   8   4   8   8
#     4   9  19  30  55  85 115 154 200 241 285 330
#     4  11  21  39  62  85 118 154 192 240 292 348
#     4  10  20  36  61  86 114 151 196 234 282 351
#     4  11  23  39  61  88 115 149 194 243 295 350
#     4   9  19  30  51  85 116 151 202 247 273 340
#     4  11  19  35  57  85 119 156 196 242 286 348
#     4  11  20  35  58  86 118 155 199 241 290 342
#
# _framework density 21.852419999999999
#
# number of rings (size 3 to 8) (size 9 to 14) (size 15 to 20)
#    0.000    1.500    5.000    2.000    2.333    3.667 
#    0.000    0.833    0.000    6.000    0.000    0.000 
#    0.000    0.000    0.000    0.000    0.000    0.000 
#
# Total GULP energy -595195.046647 kJ/mol
# GULP energy per Si atom -12399.896805 kJ/mol
# Density = 2.180268 g / cm^3
# Si number density = 21.852420 Si / 1000 Ang^3
#
#
#
# Elastic Constant Matrix: (Units=GPa)
#
#
# Indices 1 2 3 4 5 6 
#
# 1 150.4376 25.0848 21.3424 0.0000 0.0000 0.0000
# 2 25.0848 21.9661 8.9729 0.0000 0.0000 0.0000
# 3 21.3424 8.9729 117.1857 0.0000 0.0000 0.0000
# 4 0.0000 0.0000 0.0000 16.8768 0.0000 0.0000
# 5 0.0000 0.0000 0.0000 0.0000 30.4985 0.0000
# 6 0.0000 0.0000 0.0000 0.0000 0.0000 32.5831
#
#
#
# Elastic Compliance Matrix: (Units=1/GPa)
#
#
# Indices 1 2 3 4 5 6 
#
# 1 0.008285 -0.009130 -0.000810 0.000000 0.000000 0.000000
# 2 -0.009130 0.057056 -0.002706 0.000000 0.000000 0.000000
# 3 -0.000810 -0.002706 0.008888 0.000000 0.000000 0.000000
# 4 0.000000 0.000000 0.000000 0.059253 0.000000 0.000000
# 5 0.000000 0.000000 0.000000 0.000000 0.032789 0.000000
# 6 0.000000 0.000000 0.000000 0.000000 0.000000 0.030691
#
#
# Mechanical properties :
#
#
# Convention : Reuss Voigt Hill
#
# Bulk Modulus (GPa) = 20.43421 44.48772 32.46097
# Shear Modulus (GPa) = 20.95864 31.60430 26.28147
#
# Velocity S-wave (km/s) = 3.10029 3.80710 3.47173
# Velocity P-wave (km/s) = 4.71031 6.30300 5.56394
#
# Compressibility (1/GPa) = 0.04893754
#
# Stress axis : x y z
#
# Youngs Moduli (GPa) = 120.70688 17.52655 112.50954
#
# Poissons Ratio (x) = 0.16002 0.09110
# Poissons Ratio (y) = 1.10205 0.30445
# Poissons Ratio (z) = 0.09774 0.04743
#
# Static dielectric constant tensor:
#      x y z
#    x 4.252300 0.000000 0.000000 
#    y 0.000000 3.438270 0.000000 
#    z 0.000000 0.000000 3.900030 
# 
# 
# High freq. dielectric constant tensor:
#      x y z
#    x 1.873260 0.000000 0.000000 
#    y 0.000000 1.811570 0.000000 
#    z 0.000000 0.000000 1.861900 
# 
# From -- ./inp_files/21536.got.cif
#   From: 2010.03.12/outbox.cif.g09.slc.cpg/sg55_11_cif.got.tgz:21536.got - 2010.04.16 15:19:21.
