data_PCOD8226258
_publ_section_title
;
Structure prediction by ZEFSAII (Michael W. Deem and Ramdas Pophale) SiO2 
 PCOD8226258
Probable space group: P B A M
;
_chemical_formula_sum "Si O2"
_cell_formula_units_Z 36
_cell_length_a 10.759260
_cell_length_b 14.208132
_cell_length_c 12.308080
_cell_angle_alpha 90.000000
_cell_angle_beta 90.000000
_cell_angle_gamma 90.000000
_cell_volume 1881.523713
_symmetry_space_group_name_H-M "P B A M"
_symmetry_group_IT_number 55
_symmetry_cell_setting 'orthorhombic'
loop_
_space_group_symop_operation_xyz
x,y,z
-x,-y,z
1/2+x,1/2-y,-z
1/2-x,1/2+y,-z
-x,-y,-z
x,y,-z
1/2-x,1/2+y,z
1/2+x,1/2-y,z
loop_
_atom_site_type_symbol
_atom_site_label
_atom_site_fract_x
_atom_site_fract_y
_atom_site_fract_z
Si Si1 0.319057 0.772485 0.755404
Si Si2 0.000000 0.000000 0.209033
Si Si3 0.564307 0.695045 0.874836
Si Si4 0.669175 0.401258 0.381811
Si Si5 0.879454 0.548784 0.379586
O O1 0.446002 0.744969 0.817996
O O2 0.196030 0.766882 0.829943
O O3 0.296258 0.704109 0.653565
O O4 0.328803 0.876359 0.706137
O O5 0.092842 0.053019 0.286565
O O6 0.937835 0.081071 0.135514
O O7 0.557813 0.723325 0.000000
O O8 0.599881 0.396989 0.500000
O O9 0.789677 0.462126 0.395724
O O10 0.904687 0.593571 0.500000
O O11 0.000000 0.500000 0.328642
#
# Coordination Sequence:
#
# PCOD8226258 Si02
#       5
#     8   4   8   8   8
#     4  11  22  39  62  89 122 159 200 251 304 361
#     4  10  20  38  60  84 116 158 202 250 290 362
#     4  11  23  40  62  86 118 160 209 256 301 347
#     4  10  20  35  58  90 120 153 191 239 298 366
#     4  10  20  36  58  87 124 160 193 240 301 365
#
# _framework density 19.133430000000001
#
# number of rings (size 3 to 8) (size 9 to 14) (size 15 to 20)
#    0.000    1.556    2.222    3.333    0.000    0.000 
#    0.000    2.222    0.000    2.667    0.000    0.000 
#    0.000    0.000    0.000    0.000    0.000    0.000 
#
# Total GULP energy -446124.534219 kJ/mol
# GULP energy per Si atom -12392.348173 kJ/mol
# Density = 1.908988 g / cm^3
# Si number density = 19.133430 Si / 1000 Ang^3
#
#
#
# Elastic Constant Matrix: (Units=GPa)
#
#
# Indices 1 2 3 4 5 6 
#
# 1 97.5744 46.6418 45.0412 0.0000 0.0000 0.0000
# 2 46.6418 67.7229 31.0937 0.0000 0.0000 0.0000
# 3 45.0412 31.0937 110.0015 0.0000 0.0000 0.0000
# 4 0.0000 0.0000 0.0000 24.3697 0.0000 0.0000
# 5 0.0000 0.0000 0.0000 0.0000 27.5829 0.0000
# 6 0.0000 0.0000 0.0000 0.0000 0.0000 27.1688
#
#
#
# Elastic Compliance Matrix: (Units=1/GPa)
#
#
# Indices 1 2 3 4 5 6 
#
# 1 0.016773 -0.009651 -0.004140 0.000000 0.000000 0.000000
# 2 -0.009651 0.022521 -0.002414 0.000000 0.000000 0.000000
# 3 -0.004140 -0.002414 0.011468 0.000000 0.000000 0.000000
# 4 0.000000 0.000000 0.000000 0.041034 0.000000 0.000000
# 5 0.000000 0.000000 0.000000 0.000000 0.036254 0.000000
# 6 0.000000 0.000000 0.000000 0.000000 0.000000 0.036807
#
#
# Mechanical properties :
#
#
# Convention : Reuss Voigt Hill
#
# Bulk Modulus (GPa) = 54.48923 57.87247 56.18085
# Shear Modulus (GPa) = 24.58380 25.99243 25.28811
#
# Velocity S-wave (km/s) = 3.58838 3.68976 3.63942
# Velocity P-wave (km/s) = 6.76085 6.96167 6.86199
#
# Compressibility (1/GPa) = 0.01835225
#
# Stress axis : x y z
#
# Youngs Moduli (GPa) = 59.62009 44.40235 87.19677
#
# Poissons Ratio (x) = 0.42853 0.36098
# Poissons Ratio (y) = 0.57539 0.21052
# Poissons Ratio (z) = 0.24682 0.10720
#
# Static dielectric constant tensor:
#      x y z
#    x 3.447730 0.000000 0.000000 
#    y 0.000000 3.806200 0.000000 
#    z 0.000000 0.000000 4.471400 
# 
# 
# High freq. dielectric constant tensor:
#      x y z
#    x 1.745850 0.000000 0.000000 
#    y 0.000000 1.750000 0.000000 
#    z 0.000000 0.000000 1.745800 
# 
# From -- ./inp_files/12945.got.cif
#   From: 2010.03.12/outbox.cif.g09.slc.cpg/sg55_7_cif.got.tgz:12945.got - 2010.04.16 15:19:21.
