data_PCOD8226912
_publ_section_title
;
Structure prediction by ZEFSAII (Michael W. Deem and Ramdas Pophale) SiO2 
 PCOD8226912
Probable space group: P B A M
;
_chemical_formula_sum "Si O2"
_cell_formula_units_Z 56
_cell_length_a 14.877707
_cell_length_b 5.231602
_cell_length_c 34.224593
_cell_angle_alpha 90.000000
_cell_angle_beta 90.000000
_cell_angle_gamma 90.000000
_cell_volume 2663.845244
_symmetry_space_group_name_H-M "P B A M"
_symmetry_group_IT_number 55
_symmetry_cell_setting 'orthorhombic'
loop_
_space_group_symop_operation_xyz
x,y,z
-x,-y,z
1/2+x,1/2-y,-z
1/2-x,1/2+y,-z
-x,-y,-z
x,y,-z
1/2-x,1/2+y,z
1/2+x,1/2-y,z
loop_
_atom_site_type_symbol
_atom_site_label
_atom_site_fract_x
_atom_site_fract_y
_atom_site_fract_z
Si Si1 0.191503 0.274377 0.302778
Si Si2 0.351980 0.706318 0.154480
Si Si3 0.303350 0.716916 0.610024
Si Si4 0.056938 0.245220 0.543413
Si Si5 0.940520 0.248491 0.043750
Si Si6 0.059903 0.250409 0.233374
Si Si7 0.350023 0.206268 0.879038
O O1 0.240574 0.542210 0.294439
O O2 0.153848 0.261464 0.347118
O O3 0.104714 0.256530 0.275711
O O4 0.359996 0.741329 0.201133
O O5 0.250560 0.677927 0.138025
O O6 0.400735 0.443046 0.141853
O O7 0.400582 0.944909 0.133263
O O8 0.277992 0.419119 0.605897
O O9 0.368151 0.792070 0.575299
O O10 0.098255 0.197199 0.500000
O O11 0.000000 0.500000 0.542483
O O12 0.000000 0.000000 0.556395
O O13 0.856683 0.259312 0.074042
O O14 0.000000 0.500000 0.048828
O O15 0.899846 0.234132 0.000000
O O16 0.000000 0.000000 0.052632
O O17 0.000000 0.500000 0.226833
O O18 0.000000 0.000000 0.229516
#
# Coordination Sequence:
#
# PCOD8226912 Si02
#       7
#     8   8   8   8   8   8   8
#     4  10  23  41  65  86 120 163 197 249 305 371
#     4  10  23  38  58  85 117 151 196 239 290 352
#     4  10  21  38  59  89 116 155 208 247 304 362
#     4  10  21  36  56  85 121 162 202 250 312 366
#     4  10  21  37  60  89 121 155 192 241 292 336
#     4  12  26  41  62  93 120 152 202 253 302 355
#     4  10  21  39  60  85 115 162 195 231 291 354
#
# _framework density 21.022243
#
# number of rings (size 3 to 8) (size 9 to 14) (size 15 to 20)
#    0.000    1.714    0.000    3.429    4.000    5.143 
#    0.000    2.857    0.000    0.000    0.000    0.000 
#    0.000    0.000    0.000    0.000    0.000    0.000 
#
# Total GULP energy -694080.588010 kJ/mol
# GULP energy per Si atom -12394.296214 kJ/mol
# Density = 2.097440 g / cm^3
# Si number density = 21.022243 Si / 1000 Ang^3
#
#
#
# Elastic Constant Matrix: (Units=GPa)
#
#
# Indices 1 2 3 4 5 6 
#
# 1 46.1202 1.9443 47.3251 0.0000 0.0000 0.0000
# 2 1.9443 159.0497 18.7361 0.0000 0.0000 0.0000
# 3 47.3251 18.7361 144.8302 0.0000 0.0000 0.0000
# 4 0.0000 0.0000 0.0000 33.9772 0.0000 0.0000
# 5 0.0000 0.0000 0.0000 0.0000 49.1407 0.0000
# 6 0.0000 0.0000 0.0000 0.0000 0.0000 10.1539
#
#
#
# Elastic Compliance Matrix: (Units=1/GPa)
#
#
# Indices 1 2 3 4 5 6 
#
# 1 0.032739 0.000873 -0.010811 0.000000 0.000000 0.000000
# 2 0.000873 0.006408 -0.001114 0.000000 0.000000 0.000000
# 3 -0.010811 -0.001114 0.010581 0.000000 0.000000 0.000000
# 4 0.000000 0.000000 0.000000 0.029431 0.000000 0.000000
# 5 0.000000 0.000000 0.000000 0.000000 0.020350 0.000000
# 6 0.000000 0.000000 0.000000 0.000000 0.000000 0.098484
#
#
# Mechanical properties :
#
#
# Convention : Reuss Voigt Hill
#
# Bulk Modulus (GPa) = 36.19973 54.00124 45.10049
# Shear Modulus (GPa) = 21.80495 37.45399 29.62947
#
# Velocity S-wave (km/s) = 3.22410 4.22552 3.75832
# Velocity P-wave (km/s) = 5.57825 7.03919 6.35087
#
# Compressibility (1/GPa) = 0.02762451
#
# Stress axis : x y z
#
# Youngs Moduli (GPa) = 30.54468 156.05643 94.50569
#
# Poissons Ratio (x) = -0.13629 1.02169
# Poissons Ratio (y) = -0.02668 0.10531
# Poissons Ratio (z) = 0.33021 0.17390
#
# Static dielectric constant tensor:
#      x y z
#    x 3.304870 0.000000 0.000000 
#    y 0.000000 5.001390 0.000000 
#    z 0.000000 0.000000 4.133470 
# 
# 
# High freq. dielectric constant tensor:
#      x y z
#    x 1.780920 0.000000 0.000000 
#    y 0.000000 1.864400 0.000000 
#    z 0.000000 0.000000 1.838940 
# 
# From -- ./inp_files/24180.got.cif
#   From: 2010.03.12/outbox.cif.g09.slc.cpg/sg55_13_cif.got.tgz:24180.got - 2010.04.16 15:19:21.
