data_PCOD8226701
_publ_section_title
;
Structure prediction by ZEFSAII (Michael W. Deem and Ramdas Pophale) SiO2 
 PCOD8226701
Probable space group: P B A M
;
_chemical_formula_sum "Si O2"
_cell_formula_units_Z 40
_cell_length_a 12.284320
_cell_length_b 18.673906
_cell_length_c 8.801781
_cell_angle_alpha 90.000000
_cell_angle_beta 90.000000
_cell_angle_gamma 90.000000
_cell_volume 2019.095440
_symmetry_space_group_name_H-M "P B A M"
_symmetry_group_IT_number 55
_symmetry_cell_setting 'orthorhombic'
loop_
_space_group_symop_operation_xyz
x,y,z
-x,-y,z
1/2+x,1/2-y,-z
1/2-x,1/2+y,-z
-x,-y,-z
x,y,-z
1/2-x,1/2+y,z
1/2+x,1/2-y,z
loop_
_atom_site_type_symbol
_atom_site_label
_atom_site_fract_x
_atom_site_fract_y
_atom_site_fract_z
Si Si1 0.109550 0.318731 0.176931
Si Si2 0.030668 0.162734 0.822170
Si Si3 0.435890 0.067873 0.179337
Si Si4 0.318723 0.387583 0.678426
Si Si5 0.196511 0.041447 0.819627
O O1 0.094467 0.235663 0.214566
O O2 0.207805 0.349465 0.274075
O O3 0.998464 0.359558 0.224081
O O4 0.136081 0.331930 0.000000
O O5 0.106132 0.097781 0.765565
O O6 0.918383 0.162248 0.730457
O O7 0.003551 0.157401 0.000000
O O8 0.313246 0.068352 0.244479
O O9 0.500000 0.000000 0.249202
O O10 0.429067 0.059245 0.000000
O O11 0.320008 0.397716 0.500000
O O12 0.333314 0.464477 0.754982
O O13 0.198077 0.035789 0.000000
#
# Coordination Sequence:
#
# PCOD8226701 Si02
#       5
#     8   8   8   8   8
#     4  10  21  39  64  91 120 153 200 256 305 354
#     4  10  23  39  64  92 118 155 204 259 303 350
#     4   9  16  31  59  90 117 147 188 249 304 344
#     4  12  25  40  59  85 125 167 199 239 299 368
#     4  10  20  38  63  91 117 151 205 257 303 352
#
# _framework density 19.810853000000002
#
# number of rings (size 3 to 8) (size 9 to 14) (size 15 to 20)
#    0.000    1.800    2.000    2.400    2.800    4.000 
#    0.000    2.000    0.000    0.000    0.000    0.000 
#    0.000    0.000    0.000    0.000    0.000    0.000 
#
# Total GULP energy -496111.454091 kJ/mol
# GULP energy per Si atom -12402.786352 kJ/mol
# Density = 1.976576 g / cm^3
# Si number density = 19.810853 Si / 1000 Ang^3
#
#
#
# Elastic Constant Matrix: (Units=GPa)
#
#
# Indices 1 2 3 4 5 6 
#
# 1 78.2448 21.9083 18.2010 0.0000 0.0000 0.0000
# 2 21.9083 105.6121 13.7422 0.0000 0.0000 0.0000
# 3 18.2010 13.7422 24.5646 0.0000 0.0000 0.0000
# 4 0.0000 0.0000 0.0000 2.4329 0.0000 0.0000
# 5 0.0000 0.0000 0.0000 0.0000 14.0475 0.0000
# 6 0.0000 0.0000 0.0000 0.0000 0.0000 32.9085
#
#
#
# Elastic Compliance Matrix: (Units=1/GPa)
#
#
# Indices 1 2 3 4 5 6 
#
# 1 0.015784 -0.001890 -0.010638 0.000000 0.000000 0.000000
# 2 -0.001890 0.010438 -0.004439 0.000000 0.000000 0.000000
# 3 -0.010638 -0.004439 0.051074 0.000000 0.000000 0.000000
# 4 0.000000 0.000000 0.000000 0.411035 0.000000 0.000000
# 5 0.000000 0.000000 0.000000 0.000000 0.071187 0.000000
# 6 0.000000 0.000000 0.000000 0.000000 0.000000 0.030387
#
#
# Mechanical properties :
#
#
# Convention : Reuss Voigt Hill
#
# Bulk Modulus (GPa) = 23.06120 35.12493 29.09307
# Shear Modulus (GPa) = 7.83338 20.18246 14.00792
#
# Velocity S-wave (km/s) = 1.99064 3.19526 2.66199
# Velocity P-wave (km/s) = 4.11698 5.60192 4.91585
#
# Compressibility (1/GPa) = 0.04336287
#
# Stress axis : x y z
#
# Youngs Moduli (GPa) = 63.35473 95.80108 19.57934
#
# Poissons Ratio (x) = 0.18107 0.20828
# Poissons Ratio (y) = 0.11975 0.08691
# Poissons Ratio (z) = 0.67395 0.42527
#
# Static dielectric constant tensor:
#      x y z
#    x 3.851240 0.000000 0.000000 
#    y 0.000000 3.701900 0.000000 
#    z 0.000000 0.000000 3.227020 
# 
# 
# High freq. dielectric constant tensor:
#      x y z
#    x 1.789410 0.000000 0.000000 
#    y 0.000000 1.782100 0.000000 
#    z 0.000000 0.000000 1.730790 
# 
# From -- ./inp_files/3610.got.cif
#   From: 2010.03.12/outbox.cif.g09.slc.cpg/sg55_2_cif.got.tgz:3610.got - 2010.04.16 15:19:21.
