data_PCOD8226370
_publ_section_title
;
Structure prediction by ZEFSAII (Michael W. Deem and Ramdas Pophale) SiO2 
 PCOD8226370
Probable space group: P B A M
;
_chemical_formula_sum "Si O2"
_cell_formula_units_Z 64
_cell_length_a 23.992823
_cell_length_b 15.333918
_cell_length_c 8.841906
_cell_angle_alpha 90.000000
_cell_angle_beta 90.000000
_cell_angle_gamma 90.000000
_cell_volume 3252.972412
_symmetry_space_group_name_H-M "P B A M"
_symmetry_group_IT_number 55
_symmetry_cell_setting 'orthorhombic'
loop_
_space_group_symop_operation_xyz
x,y,z
-x,-y,z
1/2+x,1/2-y,-z
1/2-x,1/2+y,-z
-x,-y,-z
x,y,-z
1/2-x,1/2+y,z
1/2+x,1/2-y,z
loop_
_atom_site_type_symbol
_atom_site_label
_atom_site_fract_x
_atom_site_fract_y
_atom_site_fract_z
Si Si1 0.572724 0.243662 0.679256
Si Si2 0.749771 0.336457 0.821795
Si Si3 0.946994 0.249989 0.320836
Si Si4 0.372995 0.108284 0.173942
Si Si5 0.752405 0.652161 0.320548
Si Si6 0.145893 0.092649 0.322602
Si Si7 0.131565 0.900016 0.677587
Si Si8 0.640531 0.089143 0.175285
O O1 0.574822 0.233506 0.500000
O O2 0.509864 0.251714 0.741317
O O3 0.605146 0.330452 0.731551
O O4 0.599468 0.158330 0.750595
O O5 0.810438 0.369727 0.772206
O O6 0.733929 0.249270 0.732817
O O7 0.703776 0.406370 0.769221
O O8 0.745906 0.320871 0.000000
O O9 0.947890 0.245886 0.500000
O O10 0.917081 0.338754 0.272300
O O11 0.914387 0.165720 0.252745
O O12 0.385569 0.006433 0.199096
O O13 0.380632 0.134923 0.000000
O O14 0.755877 0.647036 0.500000
O O15 0.692357 0.623513 0.255998
O O16 0.798862 0.588657 0.251975
O O17 0.159551 0.099173 0.500000
O O18 0.116224 0.000162 0.284732
O O19 0.133884 0.884062 0.500000
O O20 0.647937 0.111564 0.000000
#
# Coordination Sequence:
#
# PCOD8226370 Si02
#       8
#     8   8   8   8   8   8   8   8
#     4  10  22  38  58  84 114 150 194 240 283 332
#     4  11  21  35  57  85 116 149 187 229 282 342
#     4  10  21  39  60  83 113 150 194 241 285 332
#     4  10  23  40  58  84 115 151 191 234 286 342
#     4  11  20  34  58  87 117 147 185 230 282 340
#     4  10  20  36  58  85 117 150 186 228 280 339
#     4   9  19  35  58  87 115 147 186 230 281 337
#     4  11  23  39  59  83 116 153 189 232 286 343
#
# _framework density 19.674313999999999
#
# number of rings (size 3 to 8) (size 9 to 14) (size 15 to 20)
#    0.000    1.750    2.500    1.875    0.000    3.000 
#    0.000    6.250    0.000    0.000    0.000    2.625 
#    0.000    0.000    0.000    0.000    0.000    0.000 
#
# Total GULP energy -793758.048067 kJ/mol
# GULP energy per Si atom -12402.469501 kJ/mol
# Density = 1.962953 g / cm^3
# Si number density = 19.674314 Si / 1000 Ang^3
#
#
#
# Elastic Constant Matrix: (Units=GPa)
#
#
# Indices 1 2 3 4 5 6 
#
# 1 150.5031 55.1183 32.5610 0.0000 0.0000 0.0000
# 2 55.1183 114.5548 18.8183 0.0000 0.0000 0.0000
# 3 32.5610 18.8183 31.8301 0.0000 0.0000 0.0000
# 4 0.0000 0.0000 0.0000 21.5762 0.0000 0.0000
# 5 0.0000 0.0000 0.0000 0.0000 19.4837 0.0000
# 6 0.0000 0.0000 0.0000 0.0000 0.0000 17.1686
#
#
#
# Elastic Compliance Matrix: (Units=1/GPa)
#
#
# Indices 1 2 3 4 5 6 
#
# 1 0.009546 -0.003310 -0.007808 0.000000 0.000000 0.000000
# 2 -0.003310 0.010816 -0.003008 0.000000 0.000000 0.000000
# 3 -0.007808 -0.003008 0.041183 0.000000 0.000000 0.000000
# 4 0.000000 0.000000 0.000000 0.046347 0.000000 0.000000
# 5 0.000000 0.000000 0.000000 0.000000 0.051325 0.000000
# 6 0.000000 0.000000 0.000000 0.000000 0.000000 0.058246
#
#
# Mechanical properties :
#
#
# Convention : Reuss Voigt Hill
#
# Bulk Modulus (GPa) = 30.03765 56.65367 43.34566
# Shear Modulus (GPa) = 19.46934 24.33840 21.90387
#
# Velocity S-wave (km/s) = 3.14917 3.52101 3.34027
# Velocity P-wave (km/s) = 5.34075 6.73708 6.07914
#
# Compressibility (1/GPa) = 0.03329155
#
# Stress axis : x y z
#
# Youngs Moduli (GPa) = 104.75581 92.45166 24.28201
#
# Poissons Ratio (x) = 0.30606 0.18960
# Poissons Ratio (y) = 0.34679 0.07305
# Poissons Ratio (z) = 0.81794 0.27813
#
# Static dielectric constant tensor:
#      x y z
#    x 3.757470 0.000000 0.000000 
#    y 0.000000 3.662220 0.000000 
#    z 0.000000 0.000000 3.364830 
# 
# 
# High freq. dielectric constant tensor:
#      x y z
#    x 1.766940 0.000000 0.000000 
#    y 0.000000 1.778560 0.000000 
#    z 0.000000 0.000000 1.747230 
# 
# From -- ./inp_files/6720.got.cif
#   From: 2010.03.12/outbox.cif.g09.slc.cpg/sg55_4_cif.got.tgz:6720.got - 2010.04.16 15:19:21.
