data_PCOD8226951
_publ_section_title
;
Structure prediction by ZEFSAII (Michael W. Deem and Ramdas Pophale) SiO2 
 PCOD8226951
Probable space group: P B A M
;
_chemical_formula_sum "Si O2"
_cell_formula_units_Z 64
_cell_length_a 18.509238
_cell_length_b 12.201513
_cell_length_c 14.019833
_cell_angle_alpha 90.000000
_cell_angle_beta 90.000000
_cell_angle_gamma 90.000000
_cell_volume 3166.249012
_symmetry_space_group_name_H-M "P B A M"
_symmetry_group_IT_number 55
_symmetry_cell_setting 'orthorhombic'
loop_
_space_group_symop_operation_xyz
x,y,z
-x,-y,z
1/2+x,1/2-y,-z
1/2-x,1/2+y,-z
-x,-y,-z
x,y,-z
1/2-x,1/2+y,z
1/2+x,1/2-y,z
loop_
_atom_site_type_symbol
_atom_site_label
_atom_site_fract_x
_atom_site_fract_y
_atom_site_fract_z
Si Si1 0.044608 0.304992 0.797502
Si Si2 0.663592 0.040318 0.889751
Si Si3 0.104440 0.348297 0.605251
Si Si4 0.076645 0.058026 0.217669
Si Si5 0.832251 0.415048 0.609007
Si Si6 0.667724 0.381550 0.606926
Si Si7 0.173801 0.892118 0.889225
Si Si8 0.118004 0.675545 0.795061
O O1 0.102192 0.382188 0.847588
O O2 0.042878 0.328341 0.683749
O O3 0.065197 0.180405 0.821701
O O4 0.964199 0.331655 0.832687
O O5 0.741644 0.091518 0.871045
O O6 0.663542 0.921596 0.841809
O O7 0.647238 0.024680 0.000000
O O8 0.068042 0.351229 0.500000
O O9 0.145693 0.460001 0.626902
O O10 0.162098 0.250147 0.613027
O O11 0.113042 0.057845 0.321900
O O12 0.127987 0.998006 0.141866
O O13 0.000000 0.000000 0.227527
O O14 0.846626 0.377343 0.500000
O O15 0.748510 0.410864 0.636177
O O16 0.876709 0.335737 0.679958
O O17 0.649677 0.422984 0.500000
O O18 0.151072 0.790612 0.824689
O O19 0.157593 0.868596 0.000000
#
# Coordination Sequence:
#
# PCOD8226951 Si02
#       8
#     8   8   8   8   8   8   8   8
#     4  11  24  42  66  98 130 170 212 265 332 383
#     4  11  26  44  68  97 125 167 218 272 331 385
#     4   9  19  37  60  88 129 170 209 256 314 382
#     4  11  23  44  65  94 129 173 219 262 322 388
#     4  10  21  36  62  97 129 169 214 259 317 382
#     4   9  20  37  62  93 128 170 216 263 315 374
#     4  11  27  47  68  94 126 172 221 269 325 389
#     4  12  24  43  67  97 135 167 212 270 323 385
#
# _framework density 20.213193
#
# number of rings (size 3 to 8) (size 9 to 14) (size 15 to 20)
#    0.000    1.500    2.500    1.500    5.250    3.000 
#    0.000    1.875    0.000    0.000    0.000    0.000 
#    0.000    0.000    0.000    0.000    0.000    0.000 
#
# Total GULP energy -793751.907914 kJ/mol
# GULP energy per Si atom -12402.373561 kJ/mol
# Density = 2.016719 g / cm^3
# Si number density = 20.213193 Si / 1000 Ang^3
#
#
#
# Elastic Constant Matrix: (Units=GPa)
#
#
# Indices 1 2 3 4 5 6 
#
# 1 100.6119 23.1674 44.6778 0.0000 0.0000 0.0000
# 2 23.1674 86.3410 48.2238 0.0000 0.0000 0.0000
# 3 44.6778 48.2238 104.9090 0.0000 0.0000 0.0000
# 4 0.0000 0.0000 0.0000 26.1811 0.0000 0.0000
# 5 0.0000 0.0000 0.0000 0.0000 18.2254 0.0000
# 6 0.0000 0.0000 0.0000 0.0000 0.0000 25.2165
#
#
#
# Elastic Compliance Matrix: (Units=1/GPa)
#
#
# Indices 1 2 3 4 5 6 
#
# 1 0.012273 -0.000503 -0.004996 0.000000 0.000000 0.000000
# 2 -0.000503 0.015603 -0.006958 0.000000 0.000000 0.000000
# 3 -0.004996 -0.006958 0.014858 0.000000 0.000000 0.000000
# 4 0.000000 0.000000 0.000000 0.038195 0.000000 0.000000
# 5 0.000000 0.000000 0.000000 0.000000 0.054869 0.000000
# 6 0.000000 0.000000 0.000000 0.000000 0.000000 0.039657
#
#
# Mechanical properties :
#
#
# Convention : Reuss Voigt Hill
#
# Bulk Modulus (GPa) = 56.11357 58.22219 57.16788
# Shear Modulus (GPa) = 24.23544 25.64412 24.93978
#
# Velocity S-wave (km/s) = 3.46640 3.56572 3.51641
# Velocity P-wave (km/s) = 6.62136 6.76898 6.69558
#
# Compressibility (1/GPa) = 0.01782100
#
# Stress axis : x y z
#
# Youngs Moduli (GPa) = 81.47707 64.08909 67.30354
#
# Poissons Ratio (x) = 0.03224 0.33623
# Poissons Ratio (y) = 0.04099 0.46831
# Poissons Ratio (z) = 0.40703 0.44594
#
# Static dielectric constant tensor:
#      x y z
#    x 3.623450 0.000000 0.000000 
#    y 0.000000 3.800650 0.000000 
#    z 0.000000 0.000000 3.928870 
# 
# 
# High freq. dielectric constant tensor:
#      x y z
#    x 1.789970 0.000000 0.000000 
#    y 0.000000 1.794620 0.000000 
#    z 0.000000 0.000000 1.799790 
# 
# From -- ./inp_files/19502.got.cif
#   From: 2010.03.12/outbox.cif.g09.slc.cpg/sg55_10_cif.got.tgz:19502.got - 2010.04.16 15:19:21.
