data_PCOD8226515
_publ_section_title
;
Structure prediction by ZEFSAII (Michael W. Deem and Ramdas Pophale) SiO2 
 PCOD8226515
Probable space group: P B A M
;
_chemical_formula_sum "Si O2"
_cell_formula_units_Z 56
_cell_length_a 14.420032
_cell_length_b 8.684078
_cell_length_c 23.569743
_cell_angle_alpha 90.000000
_cell_angle_beta 90.000000
_cell_angle_gamma 90.000000
_cell_volume 2951.513587
_symmetry_space_group_name_H-M "P B A M"
_symmetry_group_IT_number 55
_symmetry_cell_setting 'orthorhombic'
loop_
_space_group_symop_operation_xyz
x,y,z
-x,-y,z
1/2+x,1/2-y,-z
1/2-x,1/2+y,-z
-x,-y,-z
x,y,-z
1/2-x,1/2+y,z
1/2+x,1/2-y,z
loop_
_atom_site_type_symbol
_atom_site_label
_atom_site_fract_x
_atom_site_fract_y
_atom_site_fract_z
Si Si1 0.005880 0.679045 0.933524
Si Si2 0.366957 0.837111 0.435676
Si Si3 0.846574 0.178149 0.144741
Si Si4 0.006792 0.818645 0.235113
Si Si5 0.825089 0.313813 0.435026
Si Si6 0.520596 0.679939 0.637107
Si Si7 0.142559 0.186675 0.853630
O O1 0.915116 0.761044 0.908406
O O2 0.000000 0.500000 0.918095
O O3 0.101174 0.750879 0.909518
O O4 0.005917 0.708998 0.000000
O O5 0.403082 0.832121 0.500000
O O6 0.282549 0.721246 0.426620
O O7 0.449709 0.784473 0.396674
O O8 0.338334 0.008979 0.418853
O O9 0.741981 0.234845 0.147908
O O10 0.901901 0.234141 0.200744
O O11 0.846193 0.995109 0.141318
O O12 0.016002 0.755228 0.298766
O O13 0.913853 0.760239 0.202938
O O14 0.000000 0.000000 0.237258
O O15 0.855279 0.277771 0.500000
O O16 0.879604 0.206014 0.391099
O O17 0.500000 0.500000 0.633216
#
# Coordination Sequence:
#
# PCOD8226515 Si02
#       7
#     8   8   8   8   8   8   8
#     4  10  21  37  57  84 115 144 180 224 266 312
#     4  10  21  37  55  77 106 139 177 220 267 321
#     4  10  20  37  59  81 109 145 183 221 266 316
#     4   8  19  37  54  77 108 141 179 224 266 312
#     4  10  21  37  55  77 106 139 177 220 267 321
#     4  11  21  35  56  81 109 139 175 219 270 323
#     4  10  20  37  59  81 109 145 183 221 266 316
#
# _framework density 18.973316000000001
#
# number of rings (size 3 to 8) (size 9 to 14) (size 15 to 20)
#    0.000    2.143    0.000    3.857    0.000    6.286 
#    0.000   11.429    0.000    0.000    0.000    0.000 
#    0.000    0.000    0.000    0.000    0.000    0.000 
#
# Total GULP energy -694430.937630 kJ/mol
# GULP energy per Si atom -12400.552458 kJ/mol
# Density = 1.893013 g / cm^3
# Si number density = 18.973316 Si / 1000 Ang^3
#
#
#
# Elastic Constant Matrix: (Units=GPa)
#
#
# Indices 1 2 3 4 5 6 
#
# 1 123.9048 24.8021 50.0986 0.0000 0.0000 0.0000
# 2 24.8021 73.1385 34.5144 0.0000 0.0000 0.0000
# 3 50.0986 34.5144 112.6034 0.0000 0.0000 0.0000
# 4 0.0000 0.0000 0.0000 25.6598 0.0000 0.0000
# 5 0.0000 0.0000 0.0000 0.0000 41.5828 0.0000
# 6 0.0000 0.0000 0.0000 0.0000 0.0000 37.7530
#
#
#
# Elastic Compliance Matrix: (Units=1/GPa)
#
#
# Indices 1 2 3 4 5 6 
#
# 1 0.009981 -0.001507 -0.003979 0.000000 0.000000 0.000000
# 2 -0.001507 0.016212 -0.004299 0.000000 0.000000 0.000000
# 3 -0.003979 -0.004299 0.011969 0.000000 0.000000 0.000000
# 4 0.000000 0.000000 0.000000 0.038971 0.000000 0.000000
# 5 0.000000 0.000000 0.000000 0.000000 0.024048 0.000000
# 6 0.000000 0.000000 0.000000 0.000000 0.000000 0.026488
#
#
# Mechanical properties :
#
#
# Convention : Reuss Voigt Hill
#
# Bulk Modulus (GPa) = 53.78436 58.71963 56.25200
# Shear Modulus (GPa) = 32.58671 34.34790 33.46731
#
# Velocity S-wave (km/s) = 4.14877 4.25941 4.20445
# Velocity P-wave (km/s) = 7.16650 7.43006 7.29947
#
# Compressibility (1/GPa) = 0.01859276
#
# Stress axis : x y z
#
# Youngs Moduli (GPa) = 100.18898 61.68125 83.55219
#
# Poissons Ratio (x) = 0.09296 0.33244
# Poissons Ratio (y) = 0.15100 0.35917
# Poissons Ratio (z) = 0.39863 0.26515
#
# Static dielectric constant tensor:
#      x y z
#    x 3.546090 0.000000 0.000000 
#    y 0.000000 3.514380 0.000000 
#    z 0.000000 0.000000 3.736380 
# 
# 
# High freq. dielectric constant tensor:
#      x y z
#    x 1.744380 0.000000 0.000000 
#    y 0.000000 1.741620 0.000000 
#    z 0.000000 0.000000 1.736380 
# 
# From -- ./inp_files/22966.got.cif
#   From: 2010.03.12/outbox.cif.g09.slc.cpg/sg55_12_cif.got.tgz:22966.got - 2010.04.16 15:19:21.
