data_PCOD8226688
_publ_section_title
;
Structure prediction by ZEFSAII (Michael W. Deem and Ramdas Pophale) SiO2 
 PCOD8226688
Probable space group: P B A M
;
_chemical_formula_sum "Si O2"
_cell_formula_units_Z 32
_cell_length_a 4.984818
_cell_length_b 23.203423
_cell_length_c 12.587415
_cell_angle_alpha 90.000000
_cell_angle_beta 90.000000
_cell_angle_gamma 90.000000
_cell_volume 1455.921350
_symmetry_space_group_name_H-M "P B A M"
_symmetry_group_IT_number 55
_symmetry_cell_setting 'orthorhombic'
loop_
_space_group_symop_operation_xyz
x,y,z
-x,-y,z
1/2+x,1/2-y,-z
1/2-x,1/2+y,-z
-x,-y,-z
x,y,-z
1/2-x,1/2+y,z
1/2+x,1/2-y,z
loop_
_atom_site_type_symbol
_atom_site_label
_atom_site_fract_x
_atom_site_fract_y
_atom_site_fract_z
Si Si1 0.745037 0.958829 0.000000
Si Si2 0.629048 0.708561 0.500000
Si Si3 0.512898 0.712311 0.117704
Si Si4 0.111649 0.564255 0.229269
Si Si5 0.415949 0.372238 0.296971
O O1 0.719649 0.922419 0.109121
O O2 0.500000 0.000000 0.000000
O O3 0.000000 0.000000 0.000000
O O4 0.412172 0.759268 0.500000
O O5 0.604506 0.666586 0.400432
O O6 0.315757 0.766124 0.133700
O O7 0.447641 0.664820 0.204201
O O8 0.476495 0.685178 0.000000
O O9 0.367010 0.575391 0.308181
O O10 0.000000 0.500000 0.243872
O O11 0.875685 0.607186 0.261865
#
# Coordination Sequence:
#
# PCOD8226688 Si02
#       5
#     4   4   8   8   8
#     4  10  20  38  62  92 132 180 216 262 318 378
#     4  12  26  48  73  98 129 170 230 286 332 400
#     4  10  21  37  58  88 125 159 204 267 333 392
#     4  11  24  41  64  97 138 173 223 269 324 395
#     4  12  24  41  68  95 128 176 226 264 341 388
#
# _framework density 21.979208
#
# number of rings (size 3 to 8) (size 9 to 14) (size 15 to 20)
#    0.000    1.000    0.000    8.250    3.500    0.000 
#    0.000    3.750    0.000    0.000    0.000    0.000 
#    0.000    0.000    0.000    0.000    0.000    0.000 
#
# Total GULP energy -396696.556984 kJ/mol
# GULP energy per Si atom -12396.767406 kJ/mol
# Density = 2.192918 g / cm^3
# Si number density = 21.979208 Si / 1000 Ang^3
#
#
#
# Elastic Constant Matrix: (Units=GPa)
#
#
# Indices 1 2 3 4 5 6 
#
# 1 131.2980 24.6878 45.0705 0.0000 0.0000 0.0000
# 2 24.6878 76.7837 74.6282 0.0000 0.0000 0.0000
# 3 45.0705 74.6282 131.9905 0.0000 0.0000 0.0000
# 4 0.0000 0.0000 0.0000 50.5864 0.0000 0.0000
# 5 0.0000 0.0000 0.0000 0.0000 32.9001 0.0000
# 6 0.0000 0.0000 0.0000 0.0000 0.0000 50.3411
#
#
#
# Elastic Compliance Matrix: (Units=1/GPa)
#
#
# Indices 1 2 3 4 5 6 
#
# 1 0.008629 0.000198 -0.003059 0.000000 0.000000 0.000000
# 2 0.000198 0.028916 -0.016417 0.000000 0.000000 0.000000
# 3 -0.003059 -0.016417 0.017903 0.000000 0.000000 0.000000
# 4 0.000000 0.000000 0.000000 0.019768 0.000000 0.000000
# 5 0.000000 0.000000 0.000000 0.000000 0.030395 0.000000
# 6 0.000000 0.000000 0.000000 0.000000 0.000000 0.019864
#
#
# Mechanical properties :
#
#
# Convention : Reuss Voigt Hill
#
# Bulk Modulus (GPa) = 59.19492 69.87170 64.53331
# Shear Modulus (GPa) = 29.47047 39.81121 34.64084
#
# Velocity S-wave (km/s) = 3.66571 4.26057 3.97429
# Velocity P-wave (km/s) = 6.70129 7.48747 7.10526
#
# Compressibility (1/GPa) = 0.01689334
#
# Stress axis : x y z
#
# Youngs Moduli (GPa) = 115.88957 34.58295 55.85641
#
# Poissons Ratio (x) = -0.00686 0.17085
# Poissons Ratio (y) = -0.02300 0.91700
# Poissons Ratio (z) = 0.35447 0.56775
#
# Static dielectric constant tensor:
#      x y z
#    x 4.119080 0.000000 0.000000 
#    y 0.000000 3.902490 0.000000 
#    z 0.000000 0.000000 3.673200 
# 
# 
# High freq. dielectric constant tensor:
#      x y z
#    x 1.890960 0.000000 0.000000 
#    y 0.000000 1.864720 0.000000 
#    z 0.000000 0.000000 1.851670 
# 
# From -- ./inp_files/11220.got.cif
#   From: 2010.03.12/outbox.cif.g09.slc.cpg/sg55_6_cif.got.tgz:11220.got - 2010.04.16 15:19:21.
