data_PCOD8226379
_publ_section_title
;
Structure prediction by ZEFSAII (Michael W. Deem and Ramdas Pophale) SiO2 
 PCOD8226379
Probable space group: P B A M
;
_chemical_formula_sum "Si O2"
_cell_formula_units_Z 64
_cell_length_a 24.243041
_cell_length_b 15.158174
_cell_length_c 8.728926
_cell_angle_alpha 90.000000
_cell_angle_beta 90.000000
_cell_angle_gamma 90.000000
_cell_volume 3207.707767
_symmetry_space_group_name_H-M "P B A M"
_symmetry_group_IT_number 55
_symmetry_cell_setting 'orthorhombic'
loop_
_space_group_symop_operation_xyz
x,y,z
-x,-y,z
1/2+x,1/2-y,-z
1/2-x,1/2+y,-z
-x,-y,-z
x,y,-z
1/2-x,1/2+y,z
1/2+x,1/2-y,z
loop_
_atom_site_type_symbol
_atom_site_label
_atom_site_fract_x
_atom_site_fract_y
_atom_site_fract_z
Si Si1 0.646812 0.681591 0.820718
Si Si2 0.952230 0.682304 0.176718
Si Si3 0.932224 0.324382 0.321616
Si Si4 0.718406 0.973159 0.673367
Si Si5 0.642203 0.320417 0.821991
Si Si6 0.342403 0.498163 0.680508
Si Si7 0.392044 0.998552 0.177555
Si Si8 0.255369 0.226705 0.325587
O O1 0.605592 0.758422 0.773575
O O2 0.628533 0.591130 0.737200
O O3 0.709360 0.705067 0.773984
O O4 0.643617 0.666044 0.000000
O O5 0.911419 0.762601 0.210764
O O6 0.923079 0.590912 0.219560
O O7 0.004485 0.696119 0.284774
O O8 0.971150 0.681573 0.000000
O O9 0.920441 0.309802 0.500000
O O10 0.918632 0.424674 0.278398
O O11 0.706886 0.004002 0.500000
O O12 0.672435 0.014848 0.783470
O O13 0.715057 0.867660 0.685266
O O14 0.778111 0.005731 0.728782
O O15 0.629096 0.418467 0.761717
O O16 0.693203 0.276590 0.734007
O O17 0.657385 0.323524 0.000000
O O18 0.349012 0.510673 0.500000
O O19 0.398540 0.022924 0.000000
O O20 0.254325 0.260640 0.500000
#
# Coordination Sequence:
#
# PCOD8226379 Si02
#       8
#     8   8   8   8   8   8   8   8
#     4  12  24  39  63  91 121 161 207 255 310 369
#     4  10  24  43  62  88 122 161 207 256 307 362
#     4  12  25  42  63  89 122 160 207 258 310 367
#     4   9  19  35  56  85 123 162 198 242 297 357
#     4  10  21  40  63  90 124 162 206 255 306 365
#     4  10  22  40  61  89 127 164 201 254 309 366
#     4  11  22  37  60  89 124 165 204 249 302 363
#     4  10  20  36  58  87 124 162 200 248 305 362
#
# _framework density 19.951941999999999
#
# number of rings (size 3 to 8) (size 9 to 14) (size 15 to 20)
#    0.000    1.500    1.250    4.875    1.750    6.000 
#    0.000    0.625    0.000    3.750    0.000    0.000 
#    0.000    0.000    0.000    0.000    0.000    0.000 
#
# Total GULP energy -793965.307187 kJ/mol
# GULP energy per Si atom -12405.707925 kJ/mol
# Density = 1.990653 g / cm^3
# Si number density = 19.951942 Si / 1000 Ang^3
#
#
#
# Elastic Constant Matrix: (Units=GPa)
#
#
# Indices 1 2 3 4 5 6 
#
# 1 49.0176 28.0649 25.6924 0.0000 0.0000 0.0000
# 2 28.0649 104.4977 19.0536 0.0000 0.0000 0.0000
# 3 25.6924 19.0536 72.8414 0.0000 0.0000 0.0000
# 4 0.0000 0.0000 0.0000 28.7578 0.0000 0.0000
# 5 0.0000 0.0000 0.0000 0.0000 34.6970 0.0000
# 6 0.0000 0.0000 0.0000 0.0000 0.0000 17.1821
#
#
#
# Elastic Compliance Matrix: (Units=1/GPa)
#
#
# Indices 1 2 3 4 5 6 
#
# 1 0.028267 -0.006063 -0.008384 0.000000 0.000000 0.000000
# 2 -0.006063 0.011349 -0.000830 0.000000 0.000000 0.000000
# 3 -0.008384 -0.000830 0.016903 0.000000 0.000000 0.000000
# 4 0.000000 0.000000 0.000000 0.034773 0.000000 0.000000
# 5 0.000000 0.000000 0.000000 0.000000 0.028821 0.000000
# 6 0.000000 0.000000 0.000000 0.000000 0.000000 0.058200
#
#
# Mechanical properties :
#
#
# Convention : Reuss Voigt Hill
#
# Bulk Modulus (GPa) = 38.51456 41.33095 39.92275
# Shear Modulus (GPa) = 22.98614 26.36377 24.67496
#
# Velocity S-wave (km/s) = 3.39791 3.63900 3.52052
# Velocity P-wave (km/s) = 5.89406 6.19812 6.04800
#
# Compressibility (1/GPa) = 0.02596421
#
# Stress axis : x y z
#
# Youngs Moduli (GPa) = 35.37732 88.11147 59.16146
#
# Poissons Ratio (x) = 0.53420 0.49602
# Poissons Ratio (y) = 0.21449 0.04912
# Poissons Ratio (z) = 0.29661 0.07315
#
# Static dielectric constant tensor:
#      x y z
#    x 3.539730 0.000000 0.000000 
#    y 0.000000 3.683660 0.000000 
#    z 0.000000 0.000000 3.654580 
# 
# 
# High freq. dielectric constant tensor:
#      x y z
#    x 1.767900 0.000000 0.000000 
#    y 0.000000 1.783340 0.000000 
#    z 0.000000 0.000000 1.785460 
# 
# From -- ./inp_files/9717.got.cif
#   From: 2010.03.12/outbox.cif.g09.slc.cpg/sg55_5_cif.got.tgz:9717.got - 2010.04.16 15:19:21.
