data_PCOD8226506
_publ_section_title
;
Structure prediction by ZEFSAII (Michael W. Deem and Ramdas Pophale) SiO2 
 PCOD8226506
Probable space group: P B A M
;
_chemical_formula_sum "Si O2"
_cell_formula_units_Z 56
_cell_length_a 20.892350
_cell_length_b 14.796032
_cell_length_c 9.001096
_cell_angle_alpha 90.000000
_cell_angle_beta 90.000000
_cell_angle_gamma 90.000000
_cell_volume 2782.453712
_symmetry_space_group_name_H-M "P B A M"
_symmetry_group_IT_number 55
_symmetry_cell_setting 'orthorhombic'
loop_
_space_group_symop_operation_xyz
x,y,z
-x,-y,z
1/2+x,1/2-y,-z
1/2-x,1/2+y,-z
-x,-y,-z
x,y,-z
1/2-x,1/2+y,z
1/2+x,1/2-y,z
loop_
_atom_site_type_symbol
_atom_site_label
_atom_site_fract_x
_atom_site_fract_y
_atom_site_fract_z
Si Si1 0.453382 0.927831 0.168668
Si Si2 0.639608 0.923639 0.832039
Si Si3 0.233787 0.808344 0.323655
Si Si4 0.468747 0.728725 0.823122
Si Si5 0.405051 0.241760 0.323316
Si Si6 0.755803 0.987447 0.331183
Si Si7 0.155087 0.171704 0.669777
O O1 0.452422 0.829135 0.240500
O O2 0.500000 0.000000 0.249655
O O3 0.383056 0.971847 0.174900
O O4 0.478392 0.914657 0.000000
O O5 0.590114 0.860146 0.741309
O O6 0.708891 0.922319 0.759402
O O7 0.643170 0.887738 0.000000
O O8 0.232479 0.805542 0.500000
O O9 0.163974 0.777042 0.266424
O O10 0.291372 0.743053 0.266797
O O11 0.240953 0.911375 0.264873
O O12 0.536702 0.700067 0.749054
O O13 0.409557 0.669453 0.766104
O O14 0.473214 0.719992 0.000000
O O15 0.411761 0.243669 0.500000
O O16 0.730918 0.992126 0.500000
O O17 0.822230 0.932807 0.321792
O O18 0.139519 0.198222 0.500000
#
# Coordination Sequence:
#
# PCOD8226506 Si02
#       7
#     8   8   8   8   8   8   8
#     4   9  17  31  49  73 109 144 177 218 272 335
#     4  11  20  33  55  82 113 148 185 229 282 343
#     4   9  19  37  61  86 112 146 193 240 282 334
#     4  11  22  37  56  81 114 153 190 234 287 340
#     4  11  21  37  58  83 114 150 190 236 284 337
#     4  10  20  37  60  83 111 146 187 237 287 334
#     4  10  20  37  58  84 115 147 185 234 286 339
#
# _framework density 20.126123
#
# number of rings (size 3 to 8) (size 9 to 14) (size 15 to 20)
#    0.000    1.857    2.857    2.143    0.000    0.571 
#    0.000    5.000    0.000    4.286    0.000    0.000 
#    0.000    0.000    0.000    0.000    0.000    0.000 
#
# Total GULP energy -694045.655991 kJ/mol
# GULP energy per Si atom -12393.672428 kJ/mol
# Density = 2.008031 g / cm^3
# Si number density = 20.126123 Si / 1000 Ang^3
#
#
#
# Elastic Constant Matrix: (Units=GPa)
#
#
# Indices 1 2 3 4 5 6 
#
# 1 117.8482 8.8076 41.7949 0.0000 0.0000 0.0000
# 2 8.8076 58.6007 11.6744 0.0000 0.0000 0.0000
# 3 41.7949 11.6744 75.9923 0.0000 0.0000 0.0000
# 4 0.0000 0.0000 0.0000 17.9450 0.0000 0.0000
# 5 0.0000 0.0000 0.0000 0.0000 26.7184 0.0000
# 6 0.0000 0.0000 0.0000 0.0000 0.0000 25.4430
#
#
#
# Elastic Compliance Matrix: (Units=1/GPa)
#
#
# Indices 1 2 3 4 5 6 
#
# 1 0.010553 -0.000443 -0.005736 0.000000 0.000000 0.000000
# 2 -0.000443 0.017622 -0.002463 0.000000 0.000000 0.000000
# 3 -0.005736 -0.002463 0.016692 0.000000 0.000000 0.000000
# 4 0.000000 0.000000 0.000000 0.055726 0.000000 0.000000
# 5 0.000000 0.000000 0.000000 0.000000 0.037427 0.000000
# 6 0.000000 0.000000 0.000000 0.000000 0.000000 0.039304
#
#
# Mechanical properties :
#
#
# Convention : Reuss Voigt Hill
#
# Bulk Modulus (GPa) = 36.25548 41.88835 39.07191
# Shear Modulus (GPa) = 24.53347 26.69888 25.61618
#
# Velocity S-wave (km/s) = 3.49519 3.64617 3.57148
# Velocity P-wave (km/s) = 5.86018 6.21162 6.03846
#
# Compressibility (1/GPa) = 0.02758204
#
# Stress axis : x y z
#
# Youngs Moduli (GPa) = 94.76120 56.74715 59.90778
#
# Poissons Ratio (x) = 0.02516 0.34362
# Poissons Ratio (y) = 0.04202 0.14757
# Poissons Ratio (z) = 0.54353 0.13979
#
# Static dielectric constant tensor:
#      x y z
#    x 3.675710 0.000000 0.000000 
#    y 0.000000 3.633210 0.000000 
#    z 0.000000 0.000000 3.316960 
# 
# 
# High freq. dielectric constant tensor:
#      x y z
#    x 1.791070 0.000000 0.000000 
#    y 0.000000 1.769940 0.000000 
#    z 0.000000 0.000000 1.756380 
# 
# From -- ./inp_files/8697.got.cif
#   From: 2010.03.12/outbox.cif.g09.slc.cpg/sg55_5_cif.got.tgz:8697.got - 2010.04.16 15:19:21.
