data_PCOD8226293
_publ_section_title
;
Structure prediction by ZEFSAII (Michael W. Deem and Ramdas Pophale) SiO2 
 PCOD8226293
Probable space group: P B A M
;
_chemical_formula_sum "Si O2"
_cell_formula_units_Z 32
_cell_length_a 19.140681
_cell_length_b 4.963842
_cell_length_c 16.024853
_cell_angle_alpha 90.000000
_cell_angle_beta 90.000000
_cell_angle_gamma 90.000000
_cell_volume 1522.542376
_symmetry_space_group_name_H-M "P B A M"
_symmetry_group_IT_number 55
_symmetry_cell_setting 'orthorhombic'
loop_
_space_group_symop_operation_xyz
x,y,z
-x,-y,z
1/2+x,1/2-y,-z
1/2-x,1/2+y,-z
-x,-y,-z
x,y,-z
1/2-x,1/2+y,z
1/2+x,1/2-y,z
loop_
_atom_site_type_symbol
_atom_site_label
_atom_site_fract_x
_atom_site_fract_y
_atom_site_fract_z
Si Si1 0.799568 0.305706 0.680742
Si Si2 0.411327 0.579411 0.092526
Si Si3 0.071879 0.593606 0.199044
Si Si4 0.706574 0.904684 0.500000
Si Si5 0.708093 0.642375 0.000000
O O1 0.760332 0.026049 0.696873
O O2 0.867514 0.323621 0.738054
O O3 0.831915 0.327854 0.586560
O O4 0.400212 0.856747 0.140353
O O5 0.334585 0.441362 0.082981
O O6 0.454170 0.348807 0.142985
O O7 0.444018 0.631407 0.000000
O O8 0.000000 0.500000 0.245382
O O9 0.722339 0.223509 0.500000
O O10 0.778885 0.463085 0.000000
#
# Coordination Sequence:
#
# PCOD8226293 Si02
#       5
#     8   8   8   4   4
#     4  10  21  38  62  88 116 151 190 234 286 343
#     4  10  24  39  55  81 106 157 197 240 280 335
#     4  12  24  39  58  87 118 151 194 241 287 343
#     4   8  16  34  59  86 113 146 188 228 276 346
#     4  10  20  36  55  78 107 140 184 240 288 326
#
# _framework density 21.017475999999998
#
# number of rings (size 3 to 8) (size 9 to 14) (size 15 to 20)
#    0.750    1.000    0.000    4.500    0.000    9.000 
#    0.000    0.625    0.000    0.000    0.000   14.000 
#    0.000    0.000    0.000    0.000    0.000    0.000 
#
# Total GULP energy -396466.622812 kJ/mol
# GULP energy per Si atom -12389.581963 kJ/mol
# Density = 2.096964 g / cm^3
# Si number density = 21.017476 Si / 1000 Ang^3
#
#
#
# Elastic Constant Matrix: (Units=GPa)
#
#
# Indices 1 2 3 4 5 6 
#
# 1 59.7338 -5.9723 24.0592 0.0000 0.0000 0.0000
# 2 -5.9723 94.5796 23.0101 0.0000 0.0000 0.0000
# 3 24.0592 23.0101 108.0202 0.0000 0.0000 0.0000
# 4 0.0000 0.0000 0.0000 62.6067 0.0000 0.0000
# 5 0.0000 0.0000 0.0000 0.0000 0.9296 0.0000
# 6 0.0000 0.0000 0.0000 0.0000 0.0000 32.6449
#
#
#
# Elastic Compliance Matrix: (Units=1/GPa)
#
#
# Indices 1 2 3 4 5 6 
#
# 1 0.018867 0.002335 -0.004700 0.000000 0.000000 0.000000
# 2 0.002335 0.011440 -0.002957 0.000000 0.000000 0.000000
# 3 -0.004700 -0.002957 0.010934 0.000000 0.000000 0.000000
# 4 0.000000 0.000000 0.000000 0.015973 0.000000 0.000000
# 5 0.000000 0.000000 0.000000 0.000000 1.075787 0.000000
# 6 0.000000 0.000000 0.000000 0.000000 0.000000 0.030633
#
#
# Mechanical properties :
#
#
# Convention : Reuss Voigt Hill
#
# Bulk Modulus (GPa) = 32.68215 38.28085 35.48150
# Shear Modulus (GPa) = 4.22128 33.98535 19.10331
#
# Velocity S-wave (km/s) = 1.41874 4.02556 3.01811
# Velocity P-wave (km/s) = 4.27405 6.31350 5.39109
#
# Compressibility (1/GPa) = 0.03059774
#
# Stress axis : x y z
#
# Youngs Moduli (GPa) = 53.00188 87.41328 91.45675
#
# Poissons Ratio (x) = -0.20409 0.42981
# Poissons Ratio (y) = -0.12375 0.27043
# Poissons Ratio (z) = 0.24909 0.25847
#
# Static dielectric constant tensor:
#      x y z
#    x 3.510390 0.000000 0.000000 
#    y 0.000000 3.931090 0.000000 
#    z 0.000000 0.000000 3.829330 
# 
# 
# High freq. dielectric constant tensor:
#      x y z
#    x 1.805310 0.000000 0.000000 
#    y 0.000000 1.850090 0.000000 
#    z 0.000000 0.000000 1.806020 
# 
# From -- ./inp_files/19189.got.cif
#   From: 2010.03.12/outbox.cif.g09.slc.cpg/sg55_10_cif.got.tgz:19189.got - 2010.04.16 15:19:21.
