data_PCOD8226884
_publ_section_title
;
Structure prediction by ZEFSAII (Michael W. Deem and Ramdas Pophale) SiO2 
 PCOD8226884
Probable space group: P B A M
;
_chemical_formula_sum "Si O2"
_cell_formula_units_Z 48
_cell_length_a 5.266604
_cell_length_b 17.445744
_cell_length_c 24.503338
_cell_angle_alpha 90.000000
_cell_angle_beta 90.000000
_cell_angle_gamma 90.000000
_cell_volume 2251.362411
_symmetry_space_group_name_H-M "P B A M"
_symmetry_group_IT_number 55
_symmetry_cell_setting 'orthorhombic'
loop_
_space_group_symop_operation_xyz
x,y,z
-x,-y,z
1/2+x,1/2-y,-z
1/2-x,1/2+y,-z
-x,-y,-z
x,y,-z
1/2-x,1/2+y,z
1/2+x,1/2-y,z
loop_
_atom_site_type_symbol
_atom_site_label
_atom_site_fract_x
_atom_site_fract_y
_atom_site_fract_z
Si Si1 0.250052 0.047557 0.436721
Si Si2 0.750769 0.295897 0.627551
Si Si3 0.756096 0.703241 0.936244
Si Si4 0.249989 0.531153 0.778424
Si Si5 0.250785 0.204115 0.243872
Si Si6 0.249989 0.465278 0.100423
O O1 0.250380 0.070890 0.500000
O O2 0.249763 0.123302 0.401370
O O3 0.500000 0.000000 0.421398
O O4 0.000000 0.000000 0.421499
O O5 0.501286 0.249738 0.609149
O O6 0.750547 0.310714 0.691857
O O7 0.510083 0.751951 0.919643
O O8 0.749692 0.625933 0.901799
O O9 0.753816 0.682785 0.000000
O O10 0.500000 0.500000 0.746430
O O11 0.249944 0.622294 0.785832
O O12 0.249985 0.490099 0.836852
O O13 0.000000 0.500000 0.746422
O O14 0.501199 0.249794 0.225153
O O15 0.500000 0.500000 0.070913
O O16 0.000000 0.500000 0.070891
#
# Coordination Sequence:
#
# PCOD8226884 Si02
#       6
#     8   8   8   8   8   8
#     4  10  21  36  54  80 113 147 183 223 273 331
#     4  10  21  36  56  82 109 142 185 229 276 325
#     4  10  21  38  60  85 113 147 185 225 272 323
#     4  10  21  38  56  81 112 143 184 225 272 329
#     4  10  21  38  58  81 110 143 183 231 277 326
#     4  10  21  38  56  83 115 144 182 225 270 324
#
# _framework density 21.320423000000002
#
# number of rings (size 3 to 8) (size 9 to 14) (size 15 to 20)
#    0.000    2.000    0.000    3.000    0.000    2.667 
#    0.000   20.000    0.000    0.000    0.000    0.000 
#    0.000    0.000    0.000    0.000    0.000    0.000 
#
# Total GULP energy -595244.572753 kJ/mol
# GULP energy per Si atom -12400.928599 kJ/mol
# Density = 2.127190 g / cm^3
# Si number density = 21.320423 Si / 1000 Ang^3
#
#
#
# Elastic Constant Matrix: (Units=GPa)
#
#
# Indices 1 2 3 4 5 6 
#
# 1 201.4035 45.7295 7.7618 0.0000 0.0000 0.0000
# 2 45.7295 135.9952 28.1157 0.0000 0.0000 0.0000
# 3 7.7618 28.1157 29.3163 0.0000 0.0000 0.0000
# 4 0.0000 0.0000 0.0000 61.1416 0.0000 0.0000
# 5 0.0000 0.0000 0.0000 0.0000 -15.8450 0.0000
# 6 0.0000 0.0000 0.0000 0.0000 0.0000 42.8858
#
#
#
# Elastic Compliance Matrix: (Units=1/GPa)
#
#
# Indices 1 2 3 4 5 6 
#
# 1 0.005379 -0.001889 0.000387 0.000000 0.000000 0.000000
# 2 -0.001889 0.009835 -0.008932 0.000000 0.000000 0.000000
# 3 0.000387 -0.008932 0.042574 0.000000 0.000000 0.000000
# 4 0.000000 0.000000 0.000000 0.016355 0.000000 0.000000
# 5 0.000000 0.000000 0.000000 0.000000 -0.063111 0.000000
# 6 0.000000 0.000000 0.000000 0.000000 0.000000 0.023318
#
#
# Mechanical properties :
#
#
# Convention : Reuss Voigt Hill
#
# Bulk Modulus (GPa) = 27.08467 58.88102 42.98284
# Shear Modulus (GPa) = 74.04697 36.64369 55.34533
#
# Velocity S-wave (km/s) = 5.89966 4.15023 5.10051
# Velocity P-wave (km/s) = 7.69020 7.11639 7.40885
#
# Compressibility (1/GPa) = 0.03692125
#
# Stress axis : x y z
#
# Youngs Moduli (GPa) = 185.90476 101.67806 23.48827
#
# Poissons Ratio (x) = 0.19205 -0.00910
# Poissons Ratio (y) = 0.35114 0.20980
# Poissons Ratio (z) = -0.07200 0.90820
#
# Static dielectric constant tensor:
#      x y z
#    x 6.459420 0.000000 0.000000 
#    y 0.000000 3.751210 0.000000 
#    z 0.000000 0.000000 3.467630 
# 
# 
# High freq. dielectric constant tensor:
#      x y z
#    x 1.873020 0.000000 0.000000 
#    y 0.000000 1.846390 0.000000 
#    z 0.000000 0.000000 1.803210 
# 
# From -- ./inp_files/23808.got.cif
#   From: 2010.03.12/outbox.cif.g09.slc.cpg/sg55_12_cif.got.tgz:23808.got - 2010.04.16 15:19:21.
