data_PCOD8226663
_publ_section_title
;
Structure prediction by ZEFSAII (Michael W. Deem and Ramdas Pophale) SiO2 
 PCOD8226663
Probable space group: P B A M
;
_chemical_formula_sum "Si O2"
_cell_formula_units_Z 64
_cell_length_a 30.450188
_cell_length_b 11.977462
_cell_length_c 8.865162
_cell_angle_alpha 90.000000
_cell_angle_beta 90.000000
_cell_angle_gamma 90.000000
_cell_volume 3233.266155
_symmetry_space_group_name_H-M "P B A M"
_symmetry_group_IT_number 55
_symmetry_cell_setting 'orthorhombic'
loop_
_space_group_symop_operation_xyz
x,y,z
-x,-y,z
1/2+x,1/2-y,-z
1/2-x,1/2+y,-z
-x,-y,-z
x,y,-z
1/2-x,1/2+y,z
1/2+x,1/2-y,z
loop_
_atom_site_type_symbol
_atom_site_label
_atom_site_fract_x
_atom_site_fract_y
_atom_site_fract_z
Si Si1 0.449211 0.000872 0.677448
Si Si2 0.695774 0.000066 0.322549
Si Si3 0.924503 0.742646 0.330083
Si Si4 0.622289 0.848895 0.178979
Si Si5 0.045592 0.046302 0.821705
Si Si6 0.627536 0.594108 0.178951
Si Si7 0.324142 0.750075 0.670076
Si Si8 0.712192 0.456679 0.822891
O O1 0.443106 0.020257 0.500000
O O2 0.428635 0.883423 0.730125
O O3 0.500000 0.000000 0.725420
O O4 0.423165 0.098981 0.761448
O O5 0.691450 0.979506 0.500000
O O6 0.680263 0.123037 0.276479
O O7 0.665049 0.911562 0.239699
O O8 0.745540 0.990269 0.270886
O O9 0.943196 0.747959 0.500000
O O10 0.874746 0.783620 0.323533
O O11 0.952406 0.824757 0.226126
O O12 0.625279 0.721252 0.236648
O O13 0.622412 0.854926 0.000000
O O14 0.085954 0.973980 0.754021
O O15 0.046347 0.039628 0.000000
O O16 0.000000 0.000000 0.756125
O O17 0.672691 0.536422 0.233737
O O18 0.625778 0.589352 0.000000
O O19 0.305613 0.734623 0.500000
O O20 0.298231 0.672079 0.786119
O O21 0.721233 0.468967 0.000000
#
# Coordination Sequence:
#
# PCOD8226663 Si02
#       8
#     8   8   8   8   8   8   8   8
#     4  10  22  41  62  87 122 162 200 245 303 357
#     4  11  24  43  63  88 123 159 201 246 300 360
#     4  10  20  38  61  86 117 151 198 250 293 347
#     4  11  23  40  62  89 122 158 201 248 299 355
#     4  10  21  38  61  87 118 157 197 240 297 355
#     4   9  21  40  57  84 123 156 190 244 299 351
#     4  10  21  40  63  86 117 155 198 251 299 351
#     4  11  23  40  63  90 121 156 200 247 302 361
#
# _framework density 19.794226999999999
#
# number of rings (size 3 to 8) (size 9 to 14) (size 15 to 20)
#    0.000    1.750    2.500    1.125    3.500    2.000 
#    0.000    3.125    0.000    0.000    0.000    0.000 
#    0.000    0.000    0.000    0.000    0.000    0.000 
#
# Total GULP energy -793768.883618 kJ/mol
# GULP energy per Si atom -12402.638807 kJ/mol
# Density = 1.974917 g / cm^3
# Si number density = 19.794227 Si / 1000 Ang^3
#
#
#
# Elastic Constant Matrix: (Units=GPa)
#
#
# Indices 1 2 3 4 5 6 
#
# 1 117.3775 42.1199 26.7780 0.0000 0.0000 0.0000
# 2 42.1199 121.2638 34.1677 0.0000 0.0000 0.0000
# 3 26.7780 34.1677 39.5160 0.0000 0.0000 0.0000
# 4 0.0000 0.0000 0.0000 31.5336 0.0000 0.0000
# 5 0.0000 0.0000 0.0000 0.0000 25.4917 0.0000
# 6 0.0000 0.0000 0.0000 0.0000 0.0000 34.1219
#
#
#
# Elastic Compliance Matrix: (Units=1/GPa)
#
#
# Indices 1 2 3 4 5 6 
#
# 1 0.010492 -0.002170 -0.005234 0.000000 0.000000 0.000000
# 2 -0.002170 0.011351 -0.008345 0.000000 0.000000 0.000000
# 3 -0.005234 -0.008345 0.036068 0.000000 0.000000 0.000000
# 4 0.000000 0.000000 0.000000 0.031712 0.000000 0.000000
# 5 0.000000 0.000000 0.000000 0.000000 0.039228 0.000000
# 6 0.000000 0.000000 0.000000 0.000000 0.000000 0.029307
#
#
# Mechanical properties :
#
#
# Convention : Reuss Voigt Hill
#
# Bulk Modulus (GPa) = 37.85715 53.80984 45.83350
# Shear Modulus (GPa) = 25.19386 29.90222 27.54804
#
# Velocity S-wave (km/s) = 3.57149 3.89093 3.73462
# Velocity P-wave (km/s) = 6.01450 6.88690 6.46543
#
# Compressibility (1/GPa) = 0.02641509
#
# Stress axis : x y z
#
# Youngs Moduli (GPa) = 95.30950 88.09553 27.72507
#
# Poissons Ratio (x) = 0.19113 0.14511
# Poissons Ratio (y) = 0.20678 0.23136
# Poissons Ratio (z) = 0.49886 0.73514
#
# Static dielectric constant tensor:
#      x y z
#    x 4.188780 0.000000 0.000000 
#    y 0.000000 3.720530 0.000000 
#    z 0.000000 0.000000 3.385130 
# 
# 
# High freq. dielectric constant tensor:
#      x y z
#    x 1.781230 0.000000 0.000000 
#    y 0.000000 1.783030 0.000000 
#    z 0.000000 0.000000 1.753530 
# 
# From -- ./inp_files/4622.got.cif
#   From: 2010.03.12/outbox.cif.g09.slc.cpg/sg55_3_cif.got.tgz:4622.got - 2010.04.16 15:19:21.
