data_PCOD8226915
_publ_section_title
;
Structure prediction by ZEFSAII (Michael W. Deem and Ramdas Pophale) SiO2 
 PCOD8226915
Probable space group: P B A M
;
_chemical_formula_sum "Si O2"
_cell_formula_units_Z 48
_cell_length_a 9.659879
_cell_length_b 19.832423
_cell_length_c 12.423334
_cell_angle_alpha 90.000000
_cell_angle_beta 90.000000
_cell_angle_gamma 90.000000
_cell_volume 2380.047500
_symmetry_space_group_name_H-M "P B A M"
_symmetry_group_IT_number 55
_symmetry_cell_setting 'orthorhombic'
loop_
_space_group_symop_operation_xyz
x,y,z
-x,-y,z
1/2+x,1/2-y,-z
1/2-x,1/2+y,-z
-x,-y,-z
x,y,-z
1/2-x,1/2+y,z
1/2+x,1/2-y,z
loop_
_atom_site_type_symbol
_atom_site_label
_atom_site_fract_x
_atom_site_fract_y
_atom_site_fract_z
Si Si1 0.164169 0.925809 0.000000
Si Si2 0.346325 0.001841 0.373182
Si Si3 0.837298 0.186365 0.835937
Si Si4 0.846715 0.810274 0.836648
Si Si5 0.339150 0.577122 0.000000
Si Si6 0.344194 0.380832 0.378236
Si Si7 0.342404 0.624439 0.378881
O O1 0.209661 0.883093 0.894382
O O2 0.001220 0.935116 0.000000
O O3 0.231328 0.001850 0.000000
O O4 0.358895 0.997595 0.500000
O O5 0.255183 0.939257 0.334342
O O6 0.500000 0.000000 0.320830
O O7 0.268309 0.069615 0.340423
O O8 0.742648 0.247330 0.877281
O O9 0.824199 0.179778 0.706295
O O10 0.994559 0.203833 0.868776
O O11 0.795749 0.879325 0.894590
O O12 0.830009 0.815669 0.707288
O O13 0.306450 0.356937 0.500000
O O14 0.502949 0.407121 0.374958
O O15 0.310673 0.651221 0.500000
#
# Coordination Sequence:
#
# PCOD8226915 Si02
#       7
#     4   8   8   8   4   8   8
#     4   9  19  36  59  83 104 135 184 230 267 316
#     4   9  17  29  47  74 107 142 178 221 270 311
#     4  10  21  36  57  81 109 145 180 222 270 319
#     4  10  21  36  57  81 109 145 180 222 270 319
#     4   9  19  36  59  83 104 135 184 230 267 316
#     4   9  18  32  51  77 108 143 182 219 261 318
#     4   9  18  32  51  77 108 143 182 219 261 318
#
# _framework density 20.167666000000001
#
# number of rings (size 3 to 8) (size 9 to 14) (size 15 to 20)
#    0.000    2.667    0.000    1.000    2.333    4.000 
#    0.000    0.000    0.000    1.000    0.000    0.000 
#    0.000    0.000    0.000    0.000    0.000    0.000 
#
# Total GULP energy -594825.061563 kJ/mol
# GULP energy per Si atom -12392.188783 kJ/mol
# Density = 2.012176 g / cm^3
# Si number density = 20.167666 Si / 1000 Ang^3
#
#
#
# Elastic Constant Matrix: (Units=GPa)
#
#
# Indices 1 2 3 4 5 6 
#
# 1 65.7470 29.4031 21.8564 0.0000 0.0000 0.0000
# 2 29.4031 111.9402 47.0629 0.0000 0.0000 0.0000
# 3 21.8564 47.0629 106.7369 0.0000 0.0000 0.0000
# 4 0.0000 0.0000 0.0000 14.6684 0.0000 0.0000
# 5 0.0000 0.0000 0.0000 0.0000 11.2665 0.0000
# 6 0.0000 0.0000 0.0000 0.0000 0.0000 21.4478
#
#
#
# Elastic Compliance Matrix: (Units=1/GPa)
#
#
# Indices 1 2 3 4 5 6 
#
# 1 0.017548 -0.003804 -0.001916 0.000000 0.000000 0.000000
# 2 -0.003804 0.011791 -0.004420 0.000000 0.000000 0.000000
# 3 -0.001916 -0.004420 0.011710 0.000000 0.000000 0.000000
# 4 0.000000 0.000000 0.000000 0.068174 0.000000 0.000000
# 5 0.000000 0.000000 0.000000 0.000000 0.088759 0.000000
# 6 0.000000 0.000000 0.000000 0.000000 0.000000 0.046625
#
#
# Mechanical properties :
#
#
# Convention : Reuss Voigt Hill
#
# Bulk Modulus (GPa) = 48.14830 53.45210 50.80020
# Shear Modulus (GPa) = 18.39531 21.88332 20.13932
#
# Velocity S-wave (km/s) = 3.02341 3.29761 3.16348
# Velocity P-wave (km/s) = 6.00948 6.40784 6.21185
#
# Compressibility (1/GPa) = 0.02076916
#
# Stress axis : x y z
#
# Youngs Moduli (GPa) = 56.98700 84.81248 85.39672
#
# Poissons Ratio (x) = 0.32260 0.16363
# Poissons Ratio (y) = 0.21676 0.37745
# Poissons Ratio (z) = 0.10919 0.37487
#
# Static dielectric constant tensor:
#      x y z
#    x 3.717870 0.000000 0.000000 
#    y 0.000000 3.435890 0.000000 
#    z 0.000000 0.000000 3.662560 
# 
# 
# High freq. dielectric constant tensor:
#      x y z
#    x 1.763770 0.000000 0.000000 
#    y 0.000000 1.764360 0.000000 
#    z 0.000000 0.000000 1.791930 
# 
# From -- ./inp_files/17414.got.cif
#   From: 2010.03.12/outbox.cif.g09.slc.cpg/sg55_9_cif.got.tgz:17414.got - 2010.04.16 15:19:21.
