data_PCOD8226272
_publ_section_title
;
Structure prediction by ZEFSAII (Michael W. Deem and Ramdas Pophale) SiO2 
 PCOD8226272
Probable space group: P B A M
;
_chemical_formula_sum "Si O2"
_cell_formula_units_Z 40
_cell_length_a 13.403664
_cell_length_b 9.734546
_cell_length_c 13.622509
_cell_angle_alpha 90.000000
_cell_angle_beta 90.000000
_cell_angle_gamma 90.000000
_cell_volume 1777.445682
_symmetry_space_group_name_H-M "P B A M"
_symmetry_group_IT_number 55
_symmetry_cell_setting 'orthorhombic'
loop_
_space_group_symop_operation_xyz
x,y,z
-x,-y,z
1/2+x,1/2-y,-z
1/2-x,1/2+y,-z
-x,-y,-z
x,y,-z
1/2-x,1/2+y,z
1/2+x,1/2-y,z
loop_
_atom_site_type_symbol
_atom_site_label
_atom_site_fract_x
_atom_site_fract_y
_atom_site_fract_z
Si Si1 0.918812 0.614717 0.387345
Si Si2 0.525945 0.658674 0.277847
Si Si3 0.236089 0.143443 0.109472
Si Si4 0.756074 0.114043 0.239277
Si Si5 0.971202 0.352252 0.891899
O O1 0.885227 0.613856 0.500000
O O2 0.821160 0.577053 0.324516
O O3 0.000000 0.500000 0.363660
O O4 0.967065 0.763496 0.364415
O O5 0.500000 0.500000 0.280879
O O6 0.645389 0.680427 0.289202
O O7 0.489466 0.727669 0.175408
O O8 0.200605 0.283074 0.163301
O O9 0.353677 0.152729 0.099169
O O10 0.204788 0.017046 0.178315
O O11 0.188590 0.130242 0.000000
O O12 0.000000 0.500000 0.844819
O O13 0.020404 0.336665 0.000000
#
# Coordination Sequence:
#
# PCOD8226272 Si02
#       5
#     8   8   8   8   8
#     4  11  25  46  69  89 115 161 218 265 310 373
#     4  11  23  39  61  94 129 157 196 259 323 373
#     4  10  20  35  59  90 126 167 204 245 302 369
#     4  11  22  40  64  91 127 166 205 253 311 370
#     4   9  18  34  58  87 123 169 214 250 294 366
#
# _framework density 22.504204000000001
#
# number of rings (size 3 to 8) (size 9 to 14) (size 15 to 20)
#    0.000    1.600    0.000    6.000    0.000    2.400 
#    0.000   10.000    0.000    1.800    0.000    0.000 
#    0.000    0.000    0.000    0.000    0.000    0.000 
#
# Total GULP energy -496079.268522 kJ/mol
# GULP energy per Si atom -12401.981713 kJ/mol
# Density = 2.245298 g / cm^3
# Si number density = 22.504204 Si / 1000 Ang^3
#
#
#
# Elastic Constant Matrix: (Units=GPa)
#
#
# Indices 1 2 3 4 5 6 
#
# 1 58.6291 6.5489 41.3131 0.0000 0.0000 0.0000
# 2 6.5489 152.4654 40.9243 0.0000 0.0000 0.0000
# 3 41.3131 40.9243 134.6323 0.0000 0.0000 0.0000
# 4 0.0000 0.0000 0.0000 28.0779 0.0000 0.0000
# 5 0.0000 0.0000 0.0000 0.0000 28.3424 0.0000
# 6 0.0000 0.0000 0.0000 0.0000 0.0000 33.2211
#
#
#
# Elastic Compliance Matrix: (Units=1/GPa)
#
#
# Indices 1 2 3 4 5 6 
#
# 1 0.021885 0.000939 -0.007001 0.000000 0.000000 0.000000
# 2 0.000939 0.007182 -0.002471 0.000000 0.000000 0.000000
# 3 -0.007001 -0.002471 0.010327 0.000000 0.000000 0.000000
# 4 0.000000 0.000000 0.000000 0.035615 0.000000 0.000000
# 5 0.000000 0.000000 0.000000 0.000000 0.035283 0.000000
# 6 0.000000 0.000000 0.000000 0.000000 0.000000 0.030101
#
#
# Mechanical properties :
#
#
# Convention : Reuss Voigt Hill
#
# Bulk Modulus (GPa) = 44.78776 58.14440 51.46608
# Shear Modulus (GPa) = 30.32109 35.05767 32.68938
#
# Velocity S-wave (km/s) = 3.67461 3.95121 3.81542
# Velocity P-wave (km/s) = 6.16026 6.83442 6.50608
#
# Compressibility (1/GPa) = 0.02232753
#
# Stress axis : x y z
#
# Youngs Moduli (GPa) = 45.69395 139.23981 96.83212
#
# Poissons Ratio (x) = -0.13077 0.67792
# Poissons Ratio (y) = -0.04291 0.23930
# Poissons Ratio (z) = 0.31990 0.34410
#
# Static dielectric constant tensor:
#      x y z
#    x 3.963570 0.000000 0.000000 
#    y 0.000000 4.077500 0.000000 
#    z 0.000000 0.000000 4.156090 
# 
# 
# High freq. dielectric constant tensor:
#      x y z
#    x 1.893780 0.000000 0.000000 
#    y 0.000000 1.889740 0.000000 
#    z 0.000000 0.000000 1.874420 
# 
# From -- ./inp_files/17075.got.cif
#   From: 2010.03.12/outbox.cif.g09.slc.cpg/sg55_9_cif.got.tgz:17075.got - 2010.04.16 15:19:21.
