data_PCOD8226117
_publ_section_title
;
Structure prediction by ZEFSAII (Michael W. Deem and Ramdas Pophale) SiO2 
 PCOD8226117
Probable space group: P B A M
;
_chemical_formula_sum "Si O2"
_cell_formula_units_Z 40
_cell_length_a 28.608938
_cell_length_b 9.571469
_cell_length_c 7.764454
_cell_angle_alpha 90.000000
_cell_angle_beta 90.000000
_cell_angle_gamma 90.000000
_cell_volume 2126.137047
_symmetry_space_group_name_H-M "P B A M"
_symmetry_group_IT_number 55
_symmetry_cell_setting 'orthorhombic'
loop_
_space_group_symop_operation_xyz
x,y,z
-x,-y,z
1/2+x,1/2-y,-z
1/2-x,1/2+y,-z
-x,-y,-z
x,y,-z
1/2-x,1/2+y,z
1/2+x,1/2-y,z
loop_
_atom_site_type_symbol
_atom_site_label
_atom_site_fract_x
_atom_site_fract_y
_atom_site_fract_z
Si Si1 0.865386 0.657347 0.301717
Si Si2 0.948932 0.859234 0.698075
Si Si3 0.864424 0.337092 0.309122
Si Si4 0.297847 0.171648 0.000000
Si Si5 0.203922 0.344606 0.000000
Si Si6 0.949270 0.166181 0.806265
O O1 0.850164 0.686482 0.500000
O O2 0.910608 0.745909 0.248541
O O3 0.879088 0.496515 0.272247
O O4 0.823668 0.699042 0.173155
O O5 0.944784 0.901793 0.500000
O O6 0.999789 0.794267 0.733914
O O7 0.941075 0.999687 0.806155
O O8 0.842035 0.323196 0.500000
O O9 0.910669 0.243538 0.306747
O O10 0.826967 0.285558 0.169467
O O11 0.251558 0.261362 0.000000
O O12 0.284884 0.008844 0.000000
O O13 0.944757 0.221397 0.000000
#
# Coordination Sequence:
#
# PCOD8226117 Si02
#       6
#     8   8   8   4   4   8
#     4   9  21  38  59  83 109 146 185 224 273 326
#     4  10  20  35  53  80 114 151 189 224 271 320
#     4  10  20  39  59  80 113 145 182 228 270 324
#     4  10  22  40  55  88 103 145 178 225 279 334
#     4  10  22  38  61  78 117 135 180 229 279 326
#     4  11  21  33  52  83 115 149 189 224 270 322
#
# _framework density 18.813462000000001
#
# number of rings (size 3 to 8) (size 9 to 14) (size 15 to 20)
#    0.000    2.000    1.000    3.600    2.800    3.200 
#    0.000    4.000    0.000    0.000    0.000    0.000 
#    0.000    0.000    0.000    0.000    0.000    0.000 
#
# Total GULP energy -496094.118523 kJ/mol
# GULP energy per Si atom -12402.352963 kJ/mol
# Density = 1.877064 g / cm^3
# Si number density = 18.813462 Si / 1000 Ang^3
#
#
#
# Elastic Constant Matrix: (Units=GPa)
#
#
# Indices 1 2 3 4 5 6 
#
# 1 192.2184 85.7731 94.2853 0.0000 0.0000 0.0000
# 2 85.7731 68.8553 45.5573 0.0000 0.0000 0.0000
# 3 94.2853 45.5573 138.9788 0.0000 0.0000 0.0000
# 4 0.0000 0.0000 0.0000 22.4661 0.0000 0.0000
# 5 0.0000 0.0000 0.0000 0.0000 26.0426 0.0000
# 6 0.0000 0.0000 0.0000 0.0000 0.0000 41.1677
#
#
#
# Elastic Compliance Matrix: (Units=1/GPa)
#
#
# Indices 1 2 3 4 5 6 
#
# 1 0.013807 -0.014049 -0.004762 0.000000 0.000000 0.000000
# 2 -0.014049 0.032841 -0.001234 0.000000 0.000000 0.000000
# 3 -0.004762 -0.001234 0.010830 0.000000 0.000000 0.000000
# 4 0.000000 0.000000 0.000000 0.044511 0.000000 0.000000
# 5 0.000000 0.000000 0.000000 0.000000 0.038399 0.000000
# 6 0.000000 0.000000 0.000000 0.000000 0.000000 0.024291
#
#
# Mechanical properties :
#
#
# Convention : Reuss Voigt Hill
#
# Bulk Modulus (GPa) = 57.50952 94.58709 76.04831
# Shear Modulus (GPa) = 23.74563 29.56439 26.65501
#
# Velocity S-wave (km/s) = 3.55655 3.96845 3.76813
# Velocity P-wave (km/s) = 6.89202 8.44888 7.70985
#
# Compressibility (1/GPa) = 0.01738842
#
# Stress axis : x y z
#
# Youngs Moduli (GPa) = 72.42615 30.45001 92.33370
#
# Poissons Ratio (x) = 0.42779 0.43966
# Poissons Ratio (y) = 1.01752 0.11395
# Poissons Ratio (z) = 0.34487 0.03758
#
# Static dielectric constant tensor:
#      x y z
#    x 3.291430 0.000000 0.000000 
#    y 0.000000 3.323580 0.000000 
#    z 0.000000 0.000000 3.679910 
# 
# 
# High freq. dielectric constant tensor:
#      x y z
#    x 1.717930 0.000000 0.000000 
#    y 0.000000 1.722370 0.000000 
#    z 0.000000 0.000000 1.751820 
# 
# From -- ./inp_files/9327.got.cif
#   From: 2010.03.12/outbox.cif.g09.slc.cpg/sg55_5_cif.got.tgz:9327.got - 2010.04.16 15:19:21.
