data_PCOD8226303
_publ_section_title
;
Structure prediction by ZEFSAII (Michael W. Deem and Ramdas Pophale) SiO2 
 PCOD8226303
Probable space group: P B A M
;
_chemical_formula_sum "Si O2"
_cell_formula_units_Z 48
_cell_length_a 9.193945
_cell_length_b 13.666731
_cell_length_c 17.766280
_cell_angle_alpha 90.000000
_cell_angle_beta 90.000000
_cell_angle_gamma 90.000000
_cell_volume 2232.353924
_symmetry_space_group_name_H-M "P B A M"
_symmetry_group_IT_number 55
_symmetry_cell_setting 'orthorhombic'
loop_
_space_group_symop_operation_xyz
x,y,z
-x,-y,z
1/2+x,1/2-y,-z
1/2-x,1/2+y,-z
-x,-y,-z
x,y,-z
1/2-x,1/2+y,z
1/2+x,1/2-y,z
loop_
_atom_site_type_symbol
_atom_site_label
_atom_site_fract_x
_atom_site_fract_y
_atom_site_fract_z
Si Si1 0.270254 0.617037 0.838199
Si Si2 0.525654 0.215972 0.179754
Si Si3 0.244699 0.866628 0.413868
Si Si4 0.023787 0.240675 0.646693
Si Si5 0.652469 0.455885 0.316595
Si Si6 0.651612 0.055067 0.083106
O O1 0.421626 0.676144 0.847189
O O2 0.249649 0.570061 0.755407
O O3 0.272245 0.526816 0.896332
O O4 0.134704 0.691616 0.851419
O O5 0.528717 0.214624 0.269697
O O6 0.644069 0.139970 0.145825
O O7 0.202623 0.886250 0.500000
O O8 0.407586 0.823502 0.407307
O O9 0.139929 0.784234 0.377523
O O10 0.237006 0.969199 0.370175
O O11 0.119332 0.142544 0.637198
O O12 0.500000 0.500000 0.287378
O O13 0.500000 0.000000 0.082758
O O14 0.686572 0.098245 0.000000
#
# Coordination Sequence:
#
# PCOD8226303 Si02
#       6
#     8   8   8   8   8   8
#     4  10  20  36  60  85 112 147 191 240 287 341
#     4  10  20  36  60  86 113 150 196 242 284 337
#     4  11  22  36  56  81 111 145 184 235 291 347
#     4  10  20  36  56  80 109 145 188 232 284 341
#     4   9  20  36  57  81 108 146 190 233 282 347
#     4   9  19  35  55  82 118 155 187 228 285 341
#
# _framework density 21.501964999999998
#
# number of rings (size 3 to 8) (size 9 to 14) (size 15 to 20)
#    0.000    2.167    0.000    3.500    0.000    7.000 
#    0.000    2.500    0.000    8.500    0.000    0.000 
#    0.000    0.000    0.000    0.000    0.000    0.000 
#
# Total GULP energy -595057.237212 kJ/mol
# GULP energy per Si atom -12397.025775 kJ/mol
# Density = 2.145303 g / cm^3
# Si number density = 21.501965 Si / 1000 Ang^3
#
#
#
# Elastic Constant Matrix: (Units=GPa)
#
#
# Indices 1 2 3 4 5 6 
#
# 1 35.5948 17.9442 9.4853 0.0000 0.0000 0.0000
# 2 17.9442 84.2385 37.7325 0.0000 0.0000 0.0000
# 3 9.4853 37.7325 92.5085 0.0000 0.0000 0.0000
# 4 0.0000 0.0000 0.0000 27.0095 0.0000 0.0000
# 5 0.0000 0.0000 0.0000 0.0000 14.5579 0.0000
# 6 0.0000 0.0000 0.0000 0.0000 0.0000 39.1465
#
#
#
# Elastic Compliance Matrix: (Units=1/GPa)
#
#
# Indices 1 2 3 4 5 6 
#
# 1 0.031501 -0.006440 -0.000603 0.000000 0.000000 0.000000
# 2 -0.006440 0.015841 -0.005801 0.000000 0.000000 0.000000
# 3 -0.000603 -0.005801 0.013238 0.000000 0.000000 0.000000
# 4 0.000000 0.000000 0.000000 0.037024 0.000000 0.000000
# 5 0.000000 0.000000 0.000000 0.000000 0.068691 0.000000
# 6 0.000000 0.000000 0.000000 0.000000 0.000000 0.025545
#
#
# Mechanical properties :
#
#
# Convention : Reuss Voigt Hill
#
# Bulk Modulus (GPa) = 28.66003 38.07395 33.36699
# Shear Modulus (GPa) = 21.81883 25.95478 23.88681
#
# Velocity S-wave (km/s) = 3.18895 3.47809 3.33665
# Velocity P-wave (km/s) = 5.18817 5.82023 5.51327
#
# Compressibility (1/GPa) = 0.03489180
#
# Stress axis : x y z
#
# Youngs Moduli (GPa) = 31.74471 63.12596 75.54126
#
# Poissons Ratio (x) = 0.40654 0.04556
# Poissons Ratio (y) = 0.20444 0.43822
# Poissons Ratio (z) = 0.01915 0.36620
#
# Static dielectric constant tensor:
#      x y z
#    x 3.708550 0.000000 0.000000 
#    y 0.000000 4.080630 0.000000 
#    z 0.000000 0.000000 3.781620 
# 
# 
# High freq. dielectric constant tensor:
#      x y z
#    x 1.824440 0.000000 0.000000 
#    y 0.000000 1.852450 0.000000 
#    z 0.000000 0.000000 1.826140 
# 
# From -- ./inp_files/20767.got.cif
#   From: 2010.03.12/outbox.cif.g09.slc.cpg/sg55_11_cif.got.tgz:20767.got - 2010.04.16 15:19:21.
