data_PCOD8226822
_publ_section_title
;
Structure prediction by ZEFSAII (Michael W. Deem and Ramdas Pophale) SiO2 
 PCOD8226822
Probable space group: P B A M
;
_chemical_formula_sum "Si O2"
_cell_formula_units_Z 56
_cell_length_a 10.629255
_cell_length_b 18.281124
_cell_length_c 15.226323
_cell_angle_alpha 90.000000
_cell_angle_beta 90.000000
_cell_angle_gamma 90.000000
_cell_volume 2958.698823
_symmetry_space_group_name_H-M "P B A M"
_symmetry_group_IT_number 55
_symmetry_cell_setting 'orthorhombic'
loop_
_space_group_symop_operation_xyz
x,y,z
-x,-y,z
1/2+x,1/2-y,-z
1/2-x,1/2+y,-z
-x,-y,-z
x,y,-z
1/2-x,1/2+y,z
1/2+x,1/2-y,z
loop_
_atom_site_type_symbol
_atom_site_label
_atom_site_fract_x
_atom_site_fract_y
_atom_site_fract_z
Si Si1 0.249647 0.663868 0.898329
Si Si2 0.000054 0.582150 0.103652
Si Si3 0.643042 0.420422 0.253038
Si Si4 0.646254 0.687734 0.599594
Si Si5 0.249576 0.336157 0.101668
Si Si6 0.643129 0.579524 0.253038
Si Si7 0.853972 0.812213 0.599594
O O1 0.119092 0.628969 0.865478
O O2 0.352320 0.625244 0.837717
O O3 0.249977 0.750013 0.881225
O O4 0.279272 0.646471 0.000000
O O5 0.000000 0.500000 0.144348
O O6 0.881038 0.629004 0.134486
O O7 0.000109 0.575759 0.000000
O O8 0.711604 0.499960 0.244608
O O9 0.499965 0.435510 0.273930
O O10 0.696408 0.375437 0.335637
O O11 0.651725 0.658436 0.500000
O O12 0.696556 0.624492 0.664368
O O13 0.750154 0.749951 0.613494
O O14 0.500126 0.712270 0.621182
O O15 0.352196 0.374826 0.162277
O O16 0.279197 0.353566 0.000000
O O17 0.848466 0.841510 0.500000
#
# Coordination Sequence:
#
# PCOD8226822 Si02
#       7
#     8   8   8   8   8   8   8
#     4  10  21  35  54  77 105 141 183 229 273 319
#     4   9  18  34  54  74 100 138 184 227 270 328
#     4  10  21  35  52  78 110 141 176 218 267 327
#     4   9  18  35  59  83 108 140 178 222 271 322
#     4  10  21  35  54  77 105 141 183 229 273 319
#     4  10  21  35  52  78 110 141 176 218 267 327
#     4   9  18  35  59  83 108 140 178 222 271 322
#
# _framework density 18.927239
#
# number of rings (size 3 to 8) (size 9 to 14) (size 15 to 20)
#    0.000    2.429    0.000    1.714    2.000    2.857 
#    2.571    4.286    0.000    0.000    0.000    4.000 
#    0.000    0.000    0.000    0.000    0.000    0.000 
#
# Total GULP energy -693908.279610 kJ/mol
# GULP energy per Si atom -12391.219279 kJ/mol
# Density = 1.888416 g / cm^3
# Si number density = 18.927239 Si / 1000 Ang^3
#
#
#
# Elastic Constant Matrix: (Units=GPa)
#
#
# Indices 1 2 3 4 5 6 
#
# 1 54.5797 38.2607 24.0653 0.0000 0.0000 0.0000
# 2 38.2607 157.8824 80.6787 0.0000 0.0000 0.0000
# 3 24.0653 80.6787 115.8593 0.0000 0.0000 0.0000
# 4 0.0000 0.0000 0.0000 -17.1250 0.0000 0.0000
# 5 0.0000 0.0000 0.0000 0.0000 23.9801 0.0000
# 6 0.0000 0.0000 0.0000 0.0000 0.0000 26.8174
#
#
#
# Elastic Compliance Matrix: (Units=1/GPa)
#
#
# Indices 1 2 3 4 5 6 
#
# 1 0.022205 -0.004695 -0.001343 0.000000 0.000000 0.000000
# 2 -0.004695 0.010825 -0.006563 0.000000 0.000000 0.000000
# 3 -0.001343 -0.006563 0.013480 0.000000 0.000000 0.000000
# 4 0.000000 0.000000 0.000000 -0.058394 0.000000 0.000000
# 5 0.000000 0.000000 0.000000 0.000000 0.041701 0.000000
# 6 0.000000 0.000000 0.000000 0.000000 0.000000 0.037289
#
#
# Mechanical properties :
#
#
# Convention : Reuss Voigt Hill
#
# Bulk Modulus (GPa) = 46.92862 68.25897 57.59380
# Shear Modulus (GPa) = 50.29594 19.08896 34.69245
#
# Velocity S-wave (km/s) = 5.16052 3.17920 4.28593
# Velocity P-wave (km/s) = 7.76892 7.04405 7.41534
#
# Compressibility (1/GPa) = 0.02130896
#
# Stress axis : x y z
#
# Youngs Moduli (GPa) = 45.03470 92.37616 74.18240
#
# Poissons Ratio (x) = 0.43369 0.09963
# Poissons Ratio (y) = 0.21143 0.48686
# Poissons Ratio (z) = 0.06048 0.60627
#
# Static dielectric constant tensor:
#      x y z
#    x 3.466290 0.000000 0.000000 
#    y 0.000000 3.944000 0.000000 
#    z 0.000000 0.000000 3.433480 
# 
# 
# High freq. dielectric constant tensor:
#      x y z
#    x 1.722660 0.000000 0.000000 
#    y 0.000000 1.740820 0.000000 
#    z 0.000000 0.000000 1.731440 
# 
# From -- ./inp_files/18353.got.cif
#   From: 2010.03.12/outbox.cif.g09.slc.cpg/sg55_10_cif.got.tgz:18353.got - 2010.04.16 15:19:21.
