data_PCOD8226084
_publ_section_title
;
Structure prediction by ZEFSAII (Michael W. Deem and Ramdas Pophale) SiO2 
 PCOD8226084
Probable space group: P B A M
;
_chemical_formula_sum "Si O2"
_cell_formula_units_Z 60
_cell_length_a 19.201143
_cell_length_b 11.820185
_cell_length_c 13.378416
_cell_angle_alpha 90.000000
_cell_angle_beta 90.000000
_cell_angle_gamma 90.000000
_cell_volume 3036.379510
_symmetry_space_group_name_H-M "P B A M"
_symmetry_group_IT_number 55
_symmetry_cell_setting 'orthorhombic'
loop_
_space_group_symop_operation_xyz
x,y,z
-x,-y,z
1/2+x,1/2-y,-z
1/2-x,1/2+y,-z
-x,-y,-z
x,y,-z
1/2-x,1/2+y,z
1/2+x,1/2-y,z
loop_
_atom_site_type_symbol
_atom_site_label
_atom_site_fract_x
_atom_site_fract_y
_atom_site_fract_z
Si Si1 0.178416 0.032346 0.394534
Si Si2 0.863457 0.357585 0.274440
Si Si3 0.325037 0.937045 0.387752
Si Si4 0.000000 0.000000 0.234937
Si Si5 0.584910 0.321170 0.117640
Si Si6 0.295651 0.718236 0.743108
Si Si7 0.524115 0.875090 0.883885
Si Si8 0.076300 0.843008 0.614325
O O1 0.148620 0.078441 0.500000
O O2 0.158386 0.122139 0.311434
O O3 0.260647 0.020514 0.403187
O O4 0.148077 0.909996 0.372013
O O5 0.874116 0.484357 0.318977
O O6 0.784979 0.316855 0.247067
O O7 0.903752 0.347034 0.170477
O O8 0.903106 0.283495 0.357333
O O9 0.354178 0.905926 0.500000
O O10 0.303180 0.829116 0.323833
O O11 0.976883 0.101589 0.307951
O O12 0.058807 0.059132 0.165440
O O13 0.662461 0.279044 0.152217
O O14 0.532996 0.218777 0.145474
O O15 0.589502 0.341714 0.000000
O O16 0.500000 0.000000 0.851853
O O17 0.541480 0.869826 0.000000
O O18 0.047561 0.846382 0.500000
#
# Coordination Sequence:
#
# PCOD8226084 Si02
#       8
#     8   8   8   4   8   8   8   8
#     4   9  18  32  53  82 118 158 195 231 286 362
#     4  11  22  38  64  92 127 161 207 261 307 366
#     4  10  20  34  56  88 122 161 200 238 297 369
#     4  12  22  42  64  86 122 164 210 260 312 370
#     4  11  24  41  63  89 119 159 209 263 318 370
#     4  11  21  36  60  90 124 158 199 256 311 358
#     4  10  22  43  67  85 113 166 217 257 313 381
#     4  11  21  37  61  91 125 162 203 248 300 367
#
# _framework density 19.760376000000001
#
# number of rings (size 3 to 8) (size 9 to 14) (size 15 to 20)
#    0.000    1.467    4.000    2.000    0.000    1.600 
#    0.000    0.000    0.000    2.400    0.000    0.000 
#    0.000    0.000    0.000    0.000    0.000    0.000 
#
# Total GULP energy -743341.455121 kJ/mol
# GULP energy per Si atom -12389.024252 kJ/mol
# Density = 1.971540 g / cm^3
# Si number density = 19.760376 Si / 1000 Ang^3
#
#
#
# Elastic Constant Matrix: (Units=GPa)
#
#
# Indices 1 2 3 4 5 6 
#
# 1 78.4099 28.5553 60.1630 0.0000 0.0000 0.0000
# 2 28.5553 96.0440 45.5757 0.0000 0.0000 0.0000
# 3 60.1630 45.5757 115.7256 0.0000 0.0000 0.0000
# 4 0.0000 0.0000 0.0000 25.8176 0.0000 0.0000
# 5 0.0000 0.0000 0.0000 0.0000 25.3897 0.0000
# 6 0.0000 0.0000 0.0000 0.0000 0.0000 27.8605
#
#
#
# Elastic Compliance Matrix: (Units=1/GPa)
#
#
# Indices 1 2 3 4 5 6 
#
# 1 0.021354 -0.001329 -0.010578 0.000000 0.000000 0.000000
# 2 -0.001329 0.012888 -0.004384 0.000000 0.000000 0.000000
# 3 -0.010578 -0.004384 0.015867 0.000000 0.000000 0.000000
# 4 0.000000 0.000000 0.000000 0.038733 0.000000 0.000000
# 5 0.000000 0.000000 0.000000 0.000000 0.039386 0.000000
# 6 0.000000 0.000000 0.000000 0.000000 0.000000 0.035893
#
#
# Mechanical properties :
#
#
# Convention : Reuss Voigt Hill
#
# Bulk Modulus (GPa) = 57.06019 62.08530 59.57275
# Shear Modulus (GPa) = 24.68578 26.20593 25.44586
#
# Velocity S-wave (km/s) = 3.53832 3.64563 3.59238
# Velocity P-wave (km/s) = 6.75512 7.01485 6.88621
#
# Compressibility (1/GPa) = 0.01752535
#
# Stress axis : x y z
#
# Youngs Moduli (GPa) = 46.82998 77.59365 63.02395
#
# Poissons Ratio (x) = 0.10315 0.66666
# Poissons Ratio (y) = 0.06225 0.27632
# Poissons Ratio (z) = 0.49536 0.34020
#
# Static dielectric constant tensor:
#      x y z
#    x 3.460830 0.000000 0.000000 
#    y 0.000000 3.648480 0.000000 
#    z 0.000000 0.000000 3.695630 
# 
# 
# High freq. dielectric constant tensor:
#      x y z
#    x 1.753140 0.000000 0.000000 
#    y 0.000000 1.778840 0.000000 
#    z 0.000000 0.000000 1.775100 
# 
# From -- ./inp_files/15370.got.cif
#   From: 2010.03.12/outbox.cif.g09.slc.cpg/sg55_8_cif.got.tgz:15370.got - 2010.04.16 15:19:21.
