data_PCOD8226999
_publ_section_title
;
Structure prediction by ZEFSAII (Michael W. Deem and Ramdas Pophale) SiO2 
 PCOD8226999
Probable space group: P B A M
;
_chemical_formula_sum "Si O2"
_cell_formula_units_Z 36
_cell_length_a 4.871048
_cell_length_b 15.382980
_cell_length_c 21.783823
_cell_angle_alpha 90.000000
_cell_angle_beta 90.000000
_cell_angle_gamma 90.000000
_cell_volume 1632.288738
_symmetry_space_group_name_H-M "P B A M"
_symmetry_group_IT_number 55
_symmetry_cell_setting 'orthorhombic'
loop_
_space_group_symop_operation_xyz
x,y,z
-x,-y,z
1/2+x,1/2-y,-z
1/2-x,1/2+y,-z
-x,-y,-z
x,y,-z
1/2-x,1/2+y,z
1/2+x,1/2-y,z
loop_
_atom_site_type_symbol
_atom_site_label
_atom_site_fract_x
_atom_site_fract_y
_atom_site_fract_z
Si Si1 0.253310 0.441527 0.066579
Si Si2 0.000302 0.692814 0.699887
Si Si3 0.287048 0.688930 0.500000
Si Si4 0.011165 0.303320 0.842186
Si Si5 0.259499 0.059119 0.608111
O O1 0.500000 0.500000 0.093854
O O2 0.151517 0.375550 0.117325
O O3 0.000000 0.500000 0.050629
O O4 0.342394 0.399102 0.000000
O O5 0.197937 0.773889 0.681600
O O6 0.098466 0.605609 0.666402
O O7 0.981954 0.669087 0.771385
O O8 0.480862 0.773197 0.500000
O O9 0.341781 0.630284 0.440498
O O10 0.193388 0.216681 0.856753
O O11 0.500000 0.000000 0.578281
O O12 0.000000 0.000000 0.628403
#
# Coordination Sequence:
#
# PCOD8226999 Si02
#       5
#     8   8   4   8   8
#     4  10  21  37  57  84 120 158 196 245 308 370
#     4  10  21  40  60  83 118 159 199 242 301 366
#     4  12  24  42  66  90 122 168 204 240 306 372
#     4  10  21  37  59  85 114 152 200 249 292 350
#     4  12  24  40  62  93 125 155 202 258 303 356
#
# _framework density 22.054921
#
# number of rings (size 3 to 8) (size 9 to 14) (size 15 to 20)
#    0.000    1.333    0.000    6.000    0.000    1.778 
#    0.000    2.222    0.000    0.000    0.000    0.000 
#    0.000    0.000    0.000    0.000    0.000    0.000 
#
# Total GULP energy -446182.743010 kJ/mol
# GULP energy per Si atom -12393.965084 kJ/mol
# Density = 2.200472 g / cm^3
# Si number density = 22.054921 Si / 1000 Ang^3
#
#
#
# Elastic Constant Matrix: (Units=GPa)
#
#
# Indices 1 2 3 4 5 6 
#
# 1 103.6889 26.9790 38.6088 0.0000 0.0000 0.0000
# 2 26.9790 96.4280 64.3266 0.0000 0.0000 0.0000
# 3 38.6088 64.3266 115.6161 0.0000 0.0000 0.0000
# 4 0.0000 0.0000 0.0000 33.5899 0.0000 0.0000
# 5 0.0000 0.0000 0.0000 0.0000 29.0040 0.0000
# 6 0.0000 0.0000 0.0000 0.0000 0.0000 57.3653
#
#
#
# Elastic Compliance Matrix: (Units=1/GPa)
#
#
# Indices 1 2 3 4 5 6 
#
# 1 0.011075 -0.001004 -0.003140 0.000000 0.000000 0.000000
# 2 -0.001004 0.016582 -0.008891 0.000000 0.000000 0.000000
# 3 -0.003140 -0.008891 0.014644 0.000000 0.000000 0.000000
# 4 0.000000 0.000000 0.000000 0.029771 0.000000 0.000000
# 5 0.000000 0.000000 0.000000 0.000000 0.034478 0.000000
# 6 0.000000 0.000000 0.000000 0.000000 0.000000 0.017432
#
#
# Mechanical properties :
#
#
# Convention : Reuss Voigt Hill
#
# Bulk Modulus (GPa) = 61.60525 63.95131 62.77828
# Shear Modulus (GPa) = 32.16219 36.37975 34.27097
#
# Velocity S-wave (km/s) = 3.82288 4.06582 3.94622
# Velocity P-wave (km/s) = 6.89052 7.14846 7.02067
#
# Compressibility (1/GPa) = 0.01623238
#
# Stress axis : x y z
#
# Youngs Moduli (GPa) = 90.29738 60.30503 68.28534
#
# Poissons Ratio (x) = 0.06055 0.21439
# Poissons Ratio (y) = 0.09066 0.60711
# Poissons Ratio (z) = 0.28350 0.53616
#
# Static dielectric constant tensor:
#      x y z
#    x 4.355130 0.000000 0.000000 
#    y 0.000000 3.750260 0.000000 
#    z 0.000000 0.000000 3.916080 
# 
# 
# High freq. dielectric constant tensor:
#      x y z
#    x 1.893010 0.000000 0.000000 
#    y 0.000000 1.852410 0.000000 
#    z 0.000000 0.000000 1.867150 
# 
# From -- ./inp_files/23239.got.cif
#   From: 2010.03.12/outbox.cif.g09.slc.cpg/sg55_12_cif.got.tgz:23239.got - 2010.04.16 15:19:21.
