data_PCOD8226761
_publ_section_title
;
Structure prediction by ZEFSAII (Michael W. Deem and Ramdas Pophale) SiO2 
 PCOD8226761
Probable space group: P B A M
;
_chemical_formula_sum "Si O2"
_cell_formula_units_Z 64
_cell_length_a 11.225966
_cell_length_b 17.909288
_cell_length_c 14.095432
_cell_angle_alpha 90.000000
_cell_angle_beta 90.000000
_cell_angle_gamma 90.000000
_cell_volume 2833.873328
_symmetry_space_group_name_H-M "P B A M"
_symmetry_group_IT_number 55
_symmetry_cell_setting 'orthorhombic'
loop_
_space_group_symop_operation_xyz
x,y,z
-x,-y,z
1/2+x,1/2-y,-z
1/2-x,1/2+y,-z
-x,-y,-z
x,y,-z
1/2-x,1/2+y,z
1/2+x,1/2-y,z
loop_
_atom_site_type_symbol
_atom_site_label
_atom_site_fract_x
_atom_site_fract_y
_atom_site_fract_z
Si Si1 0.612491 0.777050 0.607050
Si Si2 0.179963 0.118538 0.394043
Si Si3 0.866335 0.704214 0.107078
Si Si4 0.956602 0.582783 0.611449
Si Si5 0.552753 0.629144 0.718144
Si Si6 0.600890 0.713600 0.112357
Si Si7 0.750569 0.520042 0.295013
Si Si8 0.367535 0.972064 0.106440
O O1 0.571953 0.756322 0.500000
O O2 0.749440 0.803713 0.607107
O O3 0.535873 0.847457 0.645643
O O4 0.604026 0.704426 0.670971
O O5 0.127671 0.105568 0.500000
O O6 0.082463 0.120024 0.312388
O O7 0.266934 0.049850 0.366710
O O8 0.737508 0.738165 0.143720
O O9 0.861827 0.616205 0.117183
O O10 0.993736 0.731878 0.150562
O O11 0.876680 0.730994 0.000000
O O12 0.934478 0.587683 0.500000
O O13 0.834203 0.588685 0.670492
O O14 0.000000 0.500000 0.641674
O O15 0.569326 0.637191 0.831831
O O16 0.618490 0.552723 0.691224
O O17 0.600067 0.698351 0.000000
O O18 0.779915 0.494387 0.186709
O O19 0.500000 0.000000 0.127013
O O20 0.327496 0.996953 0.000000
#
# Coordination Sequence:
#
# PCOD8226761 Si02
#       8
#     8   8   8   8   8   8   8   8
#     4  10  24  43  64  96 131 164 213 280 333 381
#     4  11  26  47  65  92 134 175 223 274 330 411
#     4   9  19  39  64  92 130 172 212 265 328 391
#     4  10  20  39  66  96 125 163 215 269 326 387
#     4  12  27  40  67  96 131 175 221 266 337 392
#     4  10  22  41  66  97 135 174 217 267 328 399
#     4  12  24  41  67  96 127 180 219 265 326 403
#     4  10  22  40  64  98 132 166 215 275 330 388
#
# _framework density 22.583929999999999
#
# number of rings (size 3 to 8) (size 9 to 14) (size 15 to 20)
#    0.000    1.500    2.500    1.500    5.250    2.500 
#    0.000    0.625    0.000    1.500    0.000    0.000 
#    0.000    0.000    0.000    0.000    0.000    0.000 
#
# Total GULP energy -792872.928995 kJ/mol
# GULP energy per Si atom -12388.639516 kJ/mol
# Density = 2.253253 g / cm^3
# Si number density = 22.583930 Si / 1000 Ang^3
#
#
#
# Elastic Constant Matrix: (Units=GPa)
#
#
# Indices 1 2 3 4 5 6 
#
# 1 128.0293 16.8428 20.2284 0.0000 0.0000 0.0000
# 2 16.8428 53.9938 28.4098 0.0000 0.0000 0.0000
# 3 20.2284 28.4098 70.6215 0.0000 0.0000 0.0000
# 4 0.0000 0.0000 0.0000 26.9411 0.0000 0.0000
# 5 0.0000 0.0000 0.0000 0.0000 22.3702 0.0000
# 6 0.0000 0.0000 0.0000 0.0000 0.0000 32.7632
#
#
#
# Elastic Compliance Matrix: (Units=1/GPa)
#
#
# Indices 1 2 3 4 5 6 
#
# 1 0.008302 -0.001698 -0.001695 0.000000 0.000000 0.000000
# 2 -0.001698 0.023841 -0.009104 0.000000 0.000000 0.000000
# 3 -0.001695 -0.009104 0.018308 0.000000 0.000000 0.000000
# 4 0.000000 0.000000 0.000000 0.037118 0.000000 0.000000
# 5 0.000000 0.000000 0.000000 0.000000 0.044702 0.000000
# 6 0.000000 0.000000 0.000000 0.000000 0.000000 0.030522
#
#
# Mechanical properties :
#
#
# Convention : Reuss Voigt Hill
#
# Bulk Modulus (GPa) = 39.28305 42.62295 40.95300
# Shear Modulus (GPa) = 25.47475 28.89247 27.18361
#
# Velocity S-wave (km/s) = 3.36222 3.58066 3.47316
# Velocity P-wave (km/s) = 5.70129 6.00075 5.85293
#
# Compressibility (1/GPa) = 0.02545627
#
# Stress axis : x y z
#
# Youngs Moduli (GPa) = 120.45488 41.94502 54.62096
#
# Poissons Ratio (x) = 0.07122 0.09258
# Poissons Ratio (y) = 0.20452 0.49729
# Poissons Ratio (z) = 0.20416 0.38188
#
# Static dielectric constant tensor:
#      x y z
#    x 1.791500 0.000000 0.000000 
#    y 0.000000 3.899130 0.000000 
#    z 0.000000 0.000000 4.188300 
# 
# 
# High freq. dielectric constant tensor:
#      x y z
#    x 1.897920 0.000000 0.000000 
#    y 0.000000 1.868030 0.000000 
#    z 0.000000 0.000000 1.895340 
# 
# From -- ./inp_files/18585.got.cif
#   From: 2010.03.12/outbox.cif.g09.slc.cpg/sg55_10_cif.got.tgz:18585.got - 2010.04.16 15:19:21.
