data_PCOD8226529
_publ_section_title
;
Structure prediction by ZEFSAII (Michael W. Deem and Ramdas Pophale) SiO2 
 PCOD8226529
Probable space group: P B A M
;
_chemical_formula_sum "Si O2"
_cell_formula_units_Z 48
_cell_length_a 28.805114
_cell_length_b 9.355963
_cell_length_c 8.872449
_cell_angle_alpha 90.000000
_cell_angle_beta 90.000000
_cell_angle_gamma 90.000000
_cell_volume 2391.121286
_symmetry_space_group_name_H-M "P B A M"
_symmetry_group_IT_number 55
_symmetry_cell_setting 'orthorhombic'
loop_
_space_group_symop_operation_xyz
x,y,z
-x,-y,z
1/2+x,1/2-y,-z
1/2-x,1/2+y,-z
-x,-y,-z
x,y,-z
1/2-x,1/2+y,z
1/2+x,1/2-y,z
loop_
_atom_site_type_symbol
_atom_site_label
_atom_site_fract_x
_atom_site_fract_y
_atom_site_fract_z
Si Si1 0.121520 0.788883 0.674933
Si Si2 0.519639 0.645972 0.322526
Si Si3 0.718308 0.206231 0.821658
Si Si4 0.705153 0.513162 0.324203
Si Si5 0.134192 0.497923 0.823210
Si Si6 0.037378 0.377781 0.167496
O O1 0.117392 0.752529 0.500000
O O2 0.070486 0.818498 0.746139
O O3 0.152960 0.928998 0.701717
O O4 0.145159 0.651183 0.750949
O O5 0.500000 0.500000 0.252256
O O6 0.524905 0.632690 0.500000
O O7 0.481296 0.762263 0.283253
O O8 0.761353 0.136581 0.736529
O O9 0.711806 0.368374 0.768395
O O10 0.673142 0.115473 0.776610
O O11 0.727419 0.205601 0.000000
O O12 0.715188 0.484749 0.500000
O O13 0.085075 0.438469 0.763560
O O14 0.132404 0.522475 0.000000
O O15 0.000000 0.500000 0.155083
O O16 0.045751 0.312324 0.000000
#
# Coordination Sequence:
#
# PCOD8226529 Si02
#       6
#     8   8   8   8   8   8
#     4  10  22  39  59  86 118 155 197 243 294 351
#     4  10  22  38  57  84 119 156 198 243 292 347
#     4  11  24  42  64  91 121 155 197 245 299 357
#     4  11  24  42  64  90 122 156 197 245 299 357
#     4  10  22  39  60  87 119 154 195 244 294 350
#     4  10  20  37  59  85 117 154 198 242 289 345
#
# _framework density 20.074265
#
# number of rings (size 3 to 8) (size 9 to 14) (size 15 to 20)
#    0.000    1.667    1.667    2.000    2.333    6.667 
#    0.000    0.000    0.000    0.000    0.000    0.000 
#    0.000    0.000    0.000    0.000    0.000    0.000 
#
# Total GULP energy -595319.893823 kJ/mol
# GULP energy per Si atom -12402.497788 kJ/mol
# Density = 2.002858 g / cm^3
# Si number density = 20.074265 Si / 1000 Ang^3
#
#
#
# Elastic Constant Matrix: (Units=GPa)
#
#
# Indices 1 2 3 4 5 6 
#
# 1 85.7036 30.9761 22.8981 0.0000 0.0000 0.0000
# 2 30.9761 117.3619 22.1924 0.0000 0.0000 0.0000
# 3 22.8981 22.1924 37.4487 0.0000 0.0000 0.0000
# 4 0.0000 0.0000 0.0000 36.0948 0.0000 0.0000
# 5 0.0000 0.0000 0.0000 0.0000 26.7372 0.0000
# 6 0.0000 0.0000 0.0000 0.0000 0.0000 36.2116
#
#
#
# Elastic Compliance Matrix: (Units=1/GPa)
#
#
# Indices 1 2 3 4 5 6 
#
# 1 0.014536 -0.002428 -0.007449 0.000000 0.000000 0.000000
# 2 -0.002428 0.010002 -0.004442 0.000000 0.000000 0.000000
# 3 -0.007449 -0.004442 0.033891 0.000000 0.000000 0.000000
# 4 0.000000 0.000000 0.000000 0.027705 0.000000 0.000000
# 5 0.000000 0.000000 0.000000 0.000000 0.037401 0.000000
# 6 0.000000 0.000000 0.000000 0.000000 0.000000 0.027615
#
#
# Mechanical properties :
#
#
# Convention : Reuss Voigt Hill
#
# Bulk Modulus (GPa) = 33.56947 43.62750 38.59848
# Shear Modulus (GPa) = 26.35487 30.77188 28.56337
#
# Velocity S-wave (km/s) = 3.62728 3.91948 3.77621
# Velocity P-wave (km/s) = 5.85678 6.50102 6.18729
#
# Compressibility (1/GPa) = 0.02978898
#
# Stress axis : x y z
#
# Youngs Moduli (GPa) = 68.79509 99.98490 29.50665
#
# Poissons Ratio (x) = 0.24276 0.21980
# Poissons Ratio (y) = 0.16703 0.13108
# Poissons Ratio (z) = 0.51247 0.44417
#
# Static dielectric constant tensor:
#      x y z
#    x 3.905440 0.000000 0.000000 
#    y 0.000000 3.538040 0.000000 
#    z 0.000000 0.000000 3.566260 
# 
# 
# High freq. dielectric constant tensor:
#      x y z
#    x 1.798930 0.000000 0.000000 
#    y 0.000000 1.789370 0.000000 
#    z 0.000000 0.000000 1.774250 
# 
# From -- ./inp_files/2758.got.cif
#   From: 2010.03.12/outbox.cif.g09.slc.cpg/sg55_2_cif.got.tgz:2758.got - 2010.04.16 15:19:21.
