data_PCOD8226128
_publ_section_title
;
Structure prediction by ZEFSAII (Michael W. Deem and Ramdas Pophale) SiO2 
 PCOD8226128
Probable space group: P B A M
;
_chemical_formula_sum "Si O2"
_cell_formula_units_Z 48
_cell_length_a 9.379992
_cell_length_b 13.537710
_cell_length_c 16.582696
_cell_angle_alpha 90.000000
_cell_angle_beta 90.000000
_cell_angle_gamma 90.000000
_cell_volume 2105.730626
_symmetry_space_group_name_H-M "P B A M"
_symmetry_group_IT_number 55
_symmetry_cell_setting 'orthorhombic'
loop_
_space_group_symop_operation_xyz
x,y,z
-x,-y,z
1/2+x,1/2-y,-z
1/2-x,1/2+y,-z
-x,-y,-z
x,y,-z
1/2-x,1/2+y,z
1/2+x,1/2-y,z
loop_
_atom_site_type_symbol
_atom_site_label
_atom_site_fract_x
_atom_site_fract_y
_atom_site_fract_z
Si Si1 0.211968 0.477033 0.209069
Si Si2 0.785268 0.866844 0.676217
Si Si3 0.043451 0.334212 0.325710
Si Si4 0.195831 0.135103 0.500000
Si Si5 0.734093 0.179574 0.091747
Si Si6 0.006574 0.311780 0.500000
Si Si7 0.089743 0.631806 0.908068
O O1 0.319680 0.547578 0.258625
O O2 0.113206 0.418437 0.272071
O O3 0.301835 0.401092 0.153090
O O4 0.110631 0.538153 0.148628
O O5 0.624481 0.828916 0.693525
O O6 0.889574 0.774120 0.689181
O O7 0.802391 0.919728 0.587158
O O8 0.064196 0.366588 0.419684
O O9 0.054732 0.199369 0.500000
O O10 0.336967 0.202631 0.500000
O O11 0.564293 0.180719 0.106631
O O12 0.791623 0.287090 0.114043
O O13 0.775422 0.152025 0.000000
O O14 0.106360 0.595316 0.000000
#
# Coordination Sequence:
#
# PCOD8226128 Si02
#       7
#     8   8   8   4   8   4   8
#     4  12  22  34  56  83 108 137 174 216 262 312
#     4  10  20  35  54  77 106 139 176 216 259 307
#     4  10  20  35  54  77 106 139 176 216 259 307
#     4   8  16  31  51  73 100 136 174 213 255 301
#     4  10  21  38  58  79 105 138 175 214 258 310
#     4   8  16  31  51  73 100 136 174 213 255 301
#     4  10  21  38  58  79 105 138 175 214 258 310
#
# _framework density 22.794937999999998
#
# number of rings (size 3 to 8) (size 9 to 14) (size 15 to 20)
#    0.000    2.000    0.000    4.500    0.000    2.000 
#    0.000    5.833    0.000    4.000    0.000   11.667 
#    0.000    0.000    0.000    0.000    0.000    0.000 
#
# Total GULP energy -594786.319119 kJ/mol
# GULP energy per Si atom -12391.381648 kJ/mol
# Density = 2.274306 g / cm^3
# Si number density = 22.794938 Si / 1000 Ang^3
#
#
#
# Elastic Constant Matrix: (Units=GPa)
#
#
# Indices 1 2 3 4 5 6 
#
# 1 19.1219 4.4077 3.0645 0.0000 0.0000 0.0000
# 2 4.4077 73.2573 43.9806 0.0000 0.0000 0.0000
# 3 3.0645 43.9806 117.8709 0.0000 0.0000 0.0000
# 4 0.0000 0.0000 0.0000 34.0673 0.0000 0.0000
# 5 0.0000 0.0000 0.0000 0.0000 18.7861 0.0000
# 6 0.0000 0.0000 0.0000 0.0000 0.0000 16.3440
#
#
#
# Elastic Compliance Matrix: (Units=1/GPa)
#
#
# Indices 1 2 3 4 5 6 
#
# 1 0.053037 -0.003045 -0.000243 0.000000 0.000000 0.000000
# 2 -0.003045 0.017766 -0.006550 0.000000 0.000000 0.000000
# 3 -0.000243 -0.006550 0.010934 0.000000 0.000000 0.000000
# 4 0.000000 0.000000 0.000000 0.029354 0.000000 0.000000
# 5 0.000000 0.000000 0.000000 0.000000 0.053231 0.000000
# 6 0.000000 0.000000 0.000000 0.000000 0.000000 0.061185
#
#
# Mechanical properties :
#
#
# Convention : Reuss Voigt Hill
#
# Bulk Modulus (GPa) = 16.11311 34.79507 25.45409
# Shear Modulus (GPa) = 18.80628 24.42596 21.61612
#
# Velocity S-wave (km/s) = 2.87543 3.27701 3.08277
# Velocity P-wave (km/s) = 4.25537 5.44205 4.88488
#
# Compressibility (1/GPa) = 0.06206128
#
# Stress axis : x y z
#
# Youngs Moduli (GPa) = 18.85482 56.28744 91.45748
#
# Poissons Ratio (x) = 0.17142 0.02218
# Poissons Ratio (y) = 0.05742 0.59902
# Poissons Ratio (z) = 0.00457 0.36867
#
# Static dielectric constant tensor:
#      x y z
#    x 3.844540 0.000000 0.000000 
#    y 0.000000 4.066730 0.000000 
#    z 0.000000 0.000000 5.010640 
# 
# 
# High freq. dielectric constant tensor:
#      x y z
#    x 1.870750 0.000000 0.000000 
#    y 0.000000 1.876680 0.000000 
#    z 0.000000 0.000000 1.939730 
# 
# From -- ./inp_files/20856.got.cif
#   From: 2010.03.12/outbox.cif.g09.slc.cpg/sg55_11_cif.got.tgz:20856.got - 2010.04.16 15:19:21.
