data_PCOD8226062
_publ_section_title
;
Structure prediction by ZEFSAII (Michael W. Deem and Ramdas Pophale) SiO2 
 PCOD8226062
Probable space group: P B A M
;
_chemical_formula_sum "Si O2"
_cell_formula_units_Z 64
_cell_length_a 18.503809
_cell_length_b 19.002288
_cell_length_c 9.269372
_cell_angle_alpha 90.000000
_cell_angle_beta 90.000000
_cell_angle_gamma 90.000000
_cell_volume 3259.247526
_symmetry_space_group_name_H-M "P B A M"
_symmetry_group_IT_number 55
_symmetry_cell_setting 'orthorhombic'
loop_
_space_group_symop_operation_xyz
x,y,z
-x,-y,z
1/2+x,1/2-y,-z
1/2-x,1/2+y,-z
-x,-y,-z
x,y,-z
1/2-x,1/2+y,z
1/2+x,1/2-y,z
loop_
_atom_site_type_symbol
_atom_site_label
_atom_site_fract_x
_atom_site_fract_y
_atom_site_fract_z
Si Si1 0.859926 0.659588 0.328481
Si Si2 0.335394 0.592855 0.164821
Si Si3 0.581991 0.007182 0.670960
Si Si4 0.066421 0.220832 0.168925
Si Si5 0.715468 0.738905 0.670587
Si Si6 0.428846 0.334501 0.667657
Si Si7 0.699926 0.897380 0.670854
Si Si8 0.082961 0.992021 0.345296
O O1 0.867529 0.667561 0.500000
O O2 0.876318 0.578878 0.280261
O O3 0.921578 0.706129 0.252215
O O4 0.781711 0.689256 0.273436
O O5 0.362816 0.672252 0.194691
O O6 0.269457 0.564937 0.262339
O O7 0.398976 0.540817 0.210341
O O8 0.314510 0.582094 0.000000
O O9 0.577280 0.007211 0.500000
O O10 0.500000 0.000000 0.734139
O O11 0.628051 0.938928 0.724123
O O12 0.996878 0.182761 0.233694
O O13 0.053772 0.234599 0.000000
O O14 0.722328 0.741580 0.500000
O O15 0.638650 0.710527 0.720890
O O16 0.710643 0.818297 0.732635
O O17 0.449273 0.321040 0.500000
O O18 0.399645 0.412328 0.694649
O O19 0.702710 0.899443 0.500000
O O20 0.121308 0.012118 0.500000
O O21 0.000000 0.000000 0.374503
#
# Coordination Sequence:
#
# PCOD8226062 Si02
#       8
#     8   8   8   8   8   8   8   8
#     4  10  20  37  61  86 116 150 193 244 296 351
#     4  11  23  37  55  80 115 155 193 232 281 344
#     4   9  20  36  60  92 119 149 192 245 300 349
#     4  11  23  38  56  82 116 155 197 238 288 346
#     4   9  19  34  57  89 113 142 190 244 295 340
#     4  10  21  36  58  86 116 148 191 241 293 349
#     4  10  20  37  61  85 111 144 191 242 289 344
#     4  10  20  34  55  84 116 149 187 231 281 339
#
# _framework density 19.636434000000001
#
# number of rings (size 3 to 8) (size 9 to 14) (size 15 to 20)
#    0.000    2.000    2.500    0.750    3.500    1.750 
#    0.000    1.875    0.000    0.750    0.000    0.000 
#    0.000    0.000    0.000    0.000    0.000    0.000 
#
# Total GULP energy -793045.491702 kJ/mol
# GULP energy per Si atom -12391.335808 kJ/mol
# Density = 1.959174 g / cm^3
# Si number density = 19.636434 Si / 1000 Ang^3
#
#
#
# Elastic Constant Matrix: (Units=GPa)
#
#
# Indices 1 2 3 4 5 6 
#
# 1 105.3008 54.6383 30.4096 0.0000 0.0000 0.0000
# 2 54.6383 113.8430 34.7298 0.0000 0.0000 0.0000
# 3 30.4096 34.7298 40.6591 0.0000 0.0000 0.0000
# 4 0.0000 0.0000 0.0000 16.7188 0.0000 0.0000
# 5 0.0000 0.0000 0.0000 0.0000 12.5567 0.0000
# 6 0.0000 0.0000 0.0000 0.0000 0.0000 28.8643
#
#
#
# Elastic Compliance Matrix: (Units=1/GPa)
#
#
# Indices 1 2 3 4 5 6 
#
# 1 0.013737 -0.004678 -0.006279 0.000000 0.000000 0.000000
# 2 -0.004678 0.013472 -0.008009 0.000000 0.000000 0.000000
# 3 -0.006279 -0.008009 0.036132 0.000000 0.000000 0.000000
# 4 0.000000 0.000000 0.000000 0.059813 0.000000 0.000000
# 5 0.000000 0.000000 0.000000 0.000000 0.079639 0.000000
# 6 0.000000 0.000000 0.000000 0.000000 0.000000 0.034645
#
#
# Mechanical properties :
#
#
# Convention : Reuss Voigt Hill
#
# Bulk Modulus (GPa) = 39.35415 55.48425 47.41920
# Shear Modulus (GPa) = 17.61564 20.96297 19.28930
#
# Velocity S-wave (km/s) = 2.99839 3.27089 3.13760
# Velocity P-wave (km/s) = 5.66322 6.52549 6.10959
#
# Compressibility (1/GPa) = 0.02541028
#
# Stress axis : x y z
#
# Youngs Moduli (GPa) = 72.79680 74.22614 27.67633
#
# Poissons Ratio (x) = 0.34719 0.17377
# Poissons Ratio (y) = 0.34051 0.22167
# Poissons Ratio (z) = 0.45707 0.59450
#
# Static dielectric constant tensor:
#      x y z
#    x 3.684870 0.000000 0.000000 
#    y 0.000000 3.647660 0.000000 
#    z 0.000000 0.000000 3.175470 
# 
# 
# High freq. dielectric constant tensor:
#      x y z
#    x 1.768850 0.000000 0.000000 
#    y 0.000000 1.772240 0.000000 
#    z 0.000000 0.000000 1.725980 
# 
# From -- ./inp_files/8096.got.cif
#   From: 2010.03.12/outbox.cif.g09.slc.cpg/sg55_5_cif.got.tgz:8096.got - 2010.04.16 15:19:21.
