data_PCOD8226598
_publ_section_title
;
Structure prediction by ZEFSAII (Michael W. Deem and Ramdas Pophale) SiO2 
 PCOD8226598
Probable space group: P B A M
;
_chemical_formula_sum "Si O2"
_cell_formula_units_Z 64
_cell_length_a 13.094005
_cell_length_b 16.157740
_cell_length_c 14.380883
_cell_angle_alpha 90.000000
_cell_angle_beta 90.000000
_cell_angle_gamma 90.000000
_cell_volume 3042.556634
_symmetry_space_group_name_H-M "P B A M"
_symmetry_group_IT_number 55
_symmetry_cell_setting 'orthorhombic'
loop_
_space_group_symop_operation_xyz
x,y,z
-x,-y,z
1/2+x,1/2-y,-z
1/2-x,1/2+y,-z
-x,-y,-z
x,y,-z
1/2-x,1/2+y,z
1/2+x,1/2-y,z
loop_
_atom_site_type_symbol
_atom_site_label
_atom_site_fract_x
_atom_site_fract_y
_atom_site_fract_z
Si Si1 0.492548 0.400407 0.796020
Si Si2 0.686418 0.346822 0.101675
Si Si3 0.851650 0.482125 0.891981
Si Si4 0.323690 0.281341 0.805231
Si Si5 0.720432 0.958813 0.608320
Si Si6 0.167849 0.394321 0.267812
Si Si7 0.061423 0.628457 0.739751
Si Si8 0.950663 0.912431 0.599003
O O1 0.500000 0.500000 0.813192
O O2 0.590226 0.350625 0.831627
O O3 0.389514 0.361311 0.841836
O O4 0.489055 0.375227 0.686679
O O5 0.746075 0.432586 0.111863
O O6 0.763218 0.269713 0.116320
O O7 0.639852 0.336776 0.000000
O O8 0.832500 0.567484 0.837054
O O9 0.934934 0.427670 0.834253
O O10 0.886374 0.496514 0.000000
O O11 0.236776 0.312173 0.733900
O O12 0.405909 0.222120 0.757087
O O13 0.693351 0.965823 0.500000
O O14 0.634953 0.905656 0.660047
O O15 0.830989 0.918986 0.625121
O O16 0.719971 0.048778 0.654756
O O17 0.053256 0.372267 0.298699
O O18 0.962461 0.862604 0.500000
O O19 0.000000 0.000000 0.579749
#
# Coordination Sequence:
#
# PCOD8226598 Si02
#       8
#     8   8   8   8   8   8   8   8
#     4  11  21  38  65  90 118 161 211 261 308 364
#     4  10  22  39  58  84 121 159 199 252 313 374
#     4   9  18  35  59  85 111 143 189 243 295 350
#     4  11  23  39  57  82 121 161 197 243 302 362
#     4  10  20  37  62  89 118 151 192 244 298 354
#     4  11  21  36  59  85 113 148 195 244 292 358
#     4  10  22  37  56  83 115 152 191 238 299 358
#     4   9  17  31  55  88 121 154 194 241 296 355
#
# _framework density 21.034939999999999
#
# number of rings (size 3 to 8) (size 9 to 14) (size 15 to 20)
#    0.000    1.875    0.000    6.750    0.000    3.250 
#    0.000    3.750    0.000    3.000    0.000    0.000 
#    0.000    0.000    0.000    0.000    0.000    0.000 
#
# Total GULP energy -793015.475165 kJ/mol
# GULP energy per Si atom -12390.866799 kJ/mol
# Density = 2.098706 g / cm^3
# Si number density = 21.034940 Si / 1000 Ang^3
#
#
#
# Elastic Constant Matrix: (Units=GPa)
#
#
# Indices 1 2 3 4 5 6 
#
# 1 94.8707 22.2661 15.8521 0.0000 0.0000 0.0000
# 2 22.2661 81.0404 19.1227 0.0000 0.0000 0.0000
# 3 15.8521 19.1227 94.7959 0.0000 0.0000 0.0000
# 4 0.0000 0.0000 0.0000 15.2822 0.0000 0.0000
# 5 0.0000 0.0000 0.0000 0.0000 20.2953 0.0000
# 6 0.0000 0.0000 0.0000 0.0000 0.0000 35.3722
#
#
#
# Elastic Compliance Matrix: (Units=1/GPa)
#
#
# Indices 1 2 3 4 5 6 
#
# 1 0.011427 -0.002823 -0.001341 0.000000 0.000000 0.000000
# 2 -0.002823 0.013654 -0.002282 0.000000 0.000000 0.000000
# 3 -0.001341 -0.002282 0.011234 0.000000 0.000000 0.000000
# 4 0.000000 0.000000 0.000000 0.065436 0.000000 0.000000
# 5 0.000000 0.000000 0.000000 0.000000 0.049273 0.000000
# 6 0.000000 0.000000 0.000000 0.000000 0.000000 0.028271
#
#
# Mechanical properties :
#
#
# Convention : Reuss Voigt Hill
#
# Bulk Modulus (GPa) = 42.69636 42.79875 42.74755
# Shear Modulus (GPa) = 25.00070 28.42100 26.71085
#
# Velocity S-wave (km/s) = 3.45125 3.67976 3.56734
# Velocity P-wave (km/s) = 6.01859 6.20039 6.11017
#
# Compressibility (1/GPa) = 0.02342120
#
# Stress axis : x y z
#
# Youngs Moduli (GPa) = 87.50893 73.24007 89.01803
#
# Poissons Ratio (x) = 0.20677 0.11941
# Poissons Ratio (y) = 0.24705 0.20316
# Poissons Ratio (z) = 0.11739 0.16715
#
# Static dielectric constant tensor:
#      x y z
#    x 3.888070 0.000000 0.000000 
#    y 0.000000 3.888860 0.000000 
#    z 0.000000 0.000000 3.913390 
# 
# 
# High freq. dielectric constant tensor:
#      x y z
#    x 1.840970 0.000000 0.000000 
#    y 0.000000 1.806480 0.000000 
#    z 0.000000 0.000000 1.810490 
# 
# From -- ./inp_files/18544.got.cif
#   From: 2010.03.12/outbox.cif.g09.slc.cpg/sg55_10_cif.got.tgz:18544.got - 2010.04.16 15:19:21.
