data_PCOD8226243
_publ_section_title
;
Structure prediction by ZEFSAII (Michael W. Deem and Ramdas Pophale) SiO2 
 PCOD8226243
Probable space group: P B A M
;
_chemical_formula_sum "Si O2"
_cell_formula_units_Z 56
_cell_length_a 19.915284
_cell_length_b 16.308737
_cell_length_c 8.673394
_cell_angle_alpha 90.000000
_cell_angle_beta 90.000000
_cell_angle_gamma 90.000000
_cell_volume 2817.058777
_symmetry_space_group_name_H-M "P B A M"
_symmetry_group_IT_number 55
_symmetry_cell_setting 'orthorhombic'
loop_
_space_group_symop_operation_xyz
x,y,z
-x,-y,z
1/2+x,1/2-y,-z
1/2-x,1/2+y,-z
-x,-y,-z
x,y,-z
1/2-x,1/2+y,z
1/2+x,1/2-y,z
loop_
_atom_site_type_symbol
_atom_site_label
_atom_site_fract_x
_atom_site_fract_y
_atom_site_fract_z
Si Si1 0.376113 0.305229 0.819486
Si Si2 0.865019 0.858591 0.179810
Si Si3 0.518798 0.233454 0.178988
Si Si4 0.692608 0.990643 0.681967
Si Si5 0.770229 0.311979 0.318736
Si Si6 0.944338 0.562183 0.682402
Si Si7 0.160320 0.970074 0.681817
O O1 0.445011 0.261862 0.770512
O O2 0.315115 0.265023 0.726715
O O3 0.380196 0.400230 0.771984
O O4 0.363057 0.296723 0.000000
O O5 0.930755 0.806565 0.219163
O O6 0.800677 0.805751 0.231821
O O7 0.871261 0.942468 0.275216
O O8 0.859651 0.879453 0.000000
O O9 0.538330 0.154381 0.275749
O O10 0.522105 0.210481 0.000000
O O11 0.689127 0.995946 0.500000
O O12 0.691853 0.895318 0.732595
O O13 0.628126 0.036647 0.754297
O O14 0.761785 0.032649 0.737509
O O15 0.755570 0.310942 0.500000
O O16 0.941889 0.553888 0.500000
O O17 0.000000 0.500000 0.750375
O O18 0.153634 0.956449 0.500000
#
# Coordination Sequence:
#
# PCOD8226243 Si02
#       7
#     8   8   8   8   8   8   8
#     4  11  23  39  58  83 117 156 198 243 298 355
#     4  10  21  40  61  85 118 156 198 243 299 357
#     4  10  24  41  57  83 119 158 198 242 293 356
#     4   8  17  34  55  82 113 145 184 234 290 344
#     4  10  20  37  61  87 118 153 194 246 297 349
#     4  10  20  35  58  86 117 153 192 237 292 354
#     4  10  21  38  59  86 116 150 198 248 297 349
#
# _framework density 19.878888
#
# number of rings (size 3 to 8) (size 9 to 14) (size 15 to 20)
#    0.000    2.143    0.000    3.429    2.000    4.286 
#    0.000    6.429    0.000    0.000    0.000    0.000 
#    0.000    0.000    0.000    0.000    0.000    0.000 
#
# Total GULP energy -694548.540818 kJ/mol
# GULP energy per Si atom -12402.652515 kJ/mol
# Density = 1.983364 g / cm^3
# Si number density = 19.878888 Si / 1000 Ang^3
#
#
#
# Elastic Constant Matrix: (Units=GPa)
#
#
# Indices 1 2 3 4 5 6 
#
# 1 46.0614 18.7820 24.0925 0.0000 0.0000 0.0000
# 2 18.7820 73.9909 20.3197 0.0000 0.0000 0.0000
# 3 24.0925 20.3197 34.8558 0.0000 0.0000 0.0000
# 4 0.0000 0.0000 0.0000 31.9809 0.0000 0.0000
# 5 0.0000 0.0000 0.0000 0.0000 23.3603 0.0000
# 6 0.0000 0.0000 0.0000 0.0000 0.0000 36.5563
#
#
#
# Elastic Compliance Matrix: (Units=1/GPa)
#
#
# Indices 1 2 3 4 5 6 
#
# 1 0.034426 -0.002624 -0.022266 0.000000 0.000000 0.000000
# 2 -0.002624 0.016291 -0.007684 0.000000 0.000000 0.000000
# 3 -0.022266 -0.007684 0.048559 0.000000 0.000000 0.000000
# 4 0.000000 0.000000 0.000000 0.031269 0.000000 0.000000
# 5 0.000000 0.000000 0.000000 0.000000 0.042808 0.000000
# 6 0.000000 0.000000 0.000000 0.000000 0.000000 0.027355
#
#
# Mechanical properties :
#
#
# Convention : Reuss Voigt Hill
#
# Bulk Modulus (GPa) = 29.29986 31.25516 30.27751
# Shear Modulus (GPa) = 18.03547 24.49378 21.26463
#
# Velocity S-wave (km/s) = 3.01536 3.51401 3.27419
# Velocity P-wave (km/s) = 5.18598 5.67638 5.43671
#
# Compressibility (1/GPa) = 0.03412986
#
# Stress axis : x y z
#
# Youngs Moduli (GPa) = 29.04754 61.38227 20.59350
#
# Poissons Ratio (x) = 0.16107 0.45853
# Poissons Ratio (y) = 0.07622 0.15823
# Poissons Ratio (z) = 0.64677 0.47163
#
# Static dielectric constant tensor:
#      x y z
#    x 3.889960 0.000000 0.000000 
#    y 0.000000 3.595150 0.000000 
#    z 0.000000 0.000000 3.437840 
# 
# 
# High freq. dielectric constant tensor:
#      x y z
#    x 1.781630 0.000000 0.000000 
#    y 0.000000 1.781050 0.000000 
#    z 0.000000 0.000000 1.762410 
# 
# From -- ./inp_files/8683.got.cif
#   From: 2010.03.12/outbox.cif.g09.slc.cpg/sg55_5_cif.got.tgz:8683.got - 2010.04.16 15:19:21.
