data_PCOD8226064
_publ_section_title
;
Structure prediction by ZEFSAII (Michael W. Deem and Ramdas Pophale) SiO2 
 PCOD8226064
Probable space group: P B A M
;
_chemical_formula_sum "Si O2"
_cell_formula_units_Z 64
_cell_length_a 11.888490
_cell_length_b 16.706854
_cell_length_c 16.026450
_cell_angle_alpha 90.000000
_cell_angle_beta 90.000000
_cell_angle_gamma 90.000000
_cell_volume 3183.161747
_symmetry_space_group_name_H-M "P B A M"
_symmetry_group_IT_number 55
_symmetry_cell_setting 'orthorhombic'
loop_
_space_group_symop_operation_xyz
x,y,z
-x,-y,z
1/2+x,1/2-y,-z
1/2-x,1/2+y,-z
-x,-y,-z
x,y,-z
1/2-x,1/2+y,z
1/2+x,1/2-y,z
loop_
_atom_site_type_symbol
_atom_site_label
_atom_site_fract_x
_atom_site_fract_y
_atom_site_fract_z
Si Si1 0.409166 0.930808 0.904402
Si Si2 0.342986 0.226146 0.331000
Si Si3 0.604116 0.816435 0.905713
Si Si4 0.484760 0.088927 0.593358
Si Si5 0.232371 0.369565 0.408028
Si Si6 0.718318 0.545285 0.764819
Si Si7 0.796956 0.864675 0.791846
Si Si8 0.953166 0.173706 0.805345
O O1 0.478565 0.849316 0.887940
O O2 0.316794 0.936743 0.831613
O O3 0.500000 0.000000 0.894513
O O4 0.359072 0.932088 0.000000
O O5 0.391929 0.141357 0.360268
O O6 0.293876 0.283303 0.403034
O O7 0.236147 0.203013 0.274767
O O8 0.437416 0.274955 0.279602
O O9 0.700395 0.868622 0.861470
O O10 0.605350 0.723793 0.879301
O O11 0.639249 0.823992 0.000000
O O12 0.439746 0.074291 0.500000
O O13 0.598200 0.140727 0.593922
O O14 0.500000 0.000000 0.635407
O O15 0.266030 0.405759 0.500000
O O16 0.261134 0.424921 0.329491
O O17 0.693369 0.452429 0.752736
O O18 0.607436 0.588359 0.799655
O O19 0.917175 0.839462 0.828035
#
# Coordination Sequence:
#
# PCOD8226064 Si02
#       8
#     8   8   8   8   8   8   8   8
#     4  10  21  39  63  94 125 159 206 249 301 372
#     4  10  21  37  59  82 114 159 205 250 306 371
#     4  10  23  40  61  90 122 159 204 254 306 371
#     4  10  20  34  55  85 115 144 192 257 314 365
#     4  10  22  38  59  88 124 163 207 261 319 379
#     4  11  23  39  65  89 126 165 206 260 314 371
#     4  11  22  39  61  88 120 163 206 253 312 373
#     4  10  24  39  57  88 120 160 205 250 306 368
#
# _framework density 20.105796999999999
#
# number of rings (size 3 to 8) (size 9 to 14) (size 15 to 20)
#    0.000    1.750    1.250    2.250    8.750    1.500 
#    0.000    0.625    0.000    9.750    0.000    0.000 
#    0.000    0.000    0.000    0.000    0.000    0.000 
#
# Total GULP energy -793209.029803 kJ/mol
# GULP energy per Si atom -12393.891091 kJ/mol
# Density = 2.006004 g / cm^3
# Si number density = 20.105797 Si / 1000 Ang^3
#
#
#
# Elastic Constant Matrix: (Units=GPa)
#
#
# Indices 1 2 3 4 5 6 
#
# 1 85.9785 31.3015 32.2858 0.0000 0.0000 0.0000
# 2 31.3015 99.4457 39.6071 0.0000 0.0000 0.0000
# 3 32.2858 39.6071 95.8588 0.0000 0.0000 0.0000
# 4 0.0000 0.0000 0.0000 24.0131 0.0000 0.0000
# 5 0.0000 0.0000 0.0000 0.0000 23.6091 0.0000
# 6 0.0000 0.0000 0.0000 0.0000 0.0000 34.2185
#
#
#
# Elastic Compliance Matrix: (Units=1/GPa)
#
#
# Indices 1 2 3 4 5 6 
#
# 1 0.014041 -0.003036 -0.003475 0.000000 0.000000 0.000000
# 2 -0.003036 0.012693 -0.004222 0.000000 0.000000 0.000000
# 3 -0.003475 -0.004222 0.013347 0.000000 0.000000 0.000000
# 4 0.000000 0.000000 0.000000 0.041644 0.000000 0.000000
# 5 0.000000 0.000000 0.000000 0.000000 0.042356 0.000000
# 6 0.000000 0.000000 0.000000 0.000000 0.000000 0.029224
#
#
# Mechanical properties :
#
#
# Convention : Reuss Voigt Hill
#
# Bulk Modulus (GPa) = 53.71833 54.18577 53.95205
# Shear Modulus (GPa) = 27.62819 28.24071 27.93445
#
# Velocity S-wave (km/s) = 3.71096 3.75187 3.73147
# Velocity P-wave (km/s) = 6.71844 6.76591 6.74222
#
# Compressibility (1/GPa) = 0.01861562
#
# Stress axis : x y z
#
# Youngs Moduli (GPa) = 71.22121 78.78512 74.92436
#
# Poissons Ratio (x) = 0.23916 0.26035
# Poissons Ratio (y) = 0.21619 0.31633
# Poissons Ratio (z) = 0.24748 0.33263
#
# Static dielectric constant tensor:
#      x y z
#    x 3.599770 0.000000 0.000000 
#    y 0.000000 3.802660 0.000000 
#    z 0.000000 0.000000 3.715910 
# 
# 
# High freq. dielectric constant tensor:
#      x y z
#    x 1.774900 0.000000 0.000000 
#    y 0.000000 1.792620 0.000000 
#    z 0.000000 0.000000 1.782650 
# 
# From -- ./inp_files/21343.got.cif
#   From: 2010.03.12/outbox.cif.g09.slc.cpg/sg55_11_cif.got.tgz:21343.got - 2010.04.16 15:19:21.
