data_PCOD8226533
_publ_section_title
;
Structure prediction by ZEFSAII (Michael W. Deem and Ramdas Pophale) SiO2 
 PCOD8226533
Probable space group: P B A M
;
_chemical_formula_sum "Si O2"
_cell_formula_units_Z 48
_cell_length_a 21.070784
_cell_length_b 12.149263
_cell_length_c 9.007092
_cell_angle_alpha 90.000000
_cell_angle_beta 90.000000
_cell_angle_gamma 90.000000
_cell_volume 2305.765981
_symmetry_space_group_name_H-M "P B A M"
_symmetry_group_IT_number 55
_symmetry_cell_setting 'orthorhombic'
loop_
_space_group_symop_operation_xyz
x,y,z
-x,-y,z
1/2+x,1/2-y,-z
1/2-x,1/2+y,-z
-x,-y,-z
x,y,-z
1/2-x,1/2+y,z
1/2+x,1/2-y,z
loop_
_atom_site_type_symbol
_atom_site_label
_atom_site_fract_x
_atom_site_fract_y
_atom_site_fract_z
Si Si1 0.308541 0.427583 0.669404
Si Si2 0.669066 0.145388 0.671320
Si Si3 0.149624 0.141317 0.832861
Si Si4 0.996154 0.875648 0.832191
Si Si5 0.573207 0.988043 0.824228
Si Si6 0.901839 0.263952 0.327079
O O1 0.325155 0.458551 0.500000
O O2 0.233334 0.423232 0.693553
O O3 0.337189 0.519165 0.775859
O O4 0.340429 0.310465 0.709346
O O5 0.649255 0.150889 0.500000
O O6 0.683208 0.268264 0.730025
O O7 0.612194 0.091471 0.763354
O O8 0.075233 0.166542 0.829243
O O9 0.175995 0.150696 0.000000
O O10 0.034908 0.798573 0.722519
O O11 0.023998 0.868606 0.000000
O O12 0.000000 0.000000 0.772625
O O13 0.604717 0.877752 0.760414
O O14 0.500000 0.000000 0.774051
O O15 0.578906 0.986029 0.000000
O O16 0.906827 0.291880 0.500000
#
# Coordination Sequence:
#
# PCOD8226533 Si02
#       6
#     8   8   8   8   8   8
#     4  10  24  43  62  90 127 167 207 256 315 372
#     4  11  25  44  66  91 127 169 211 260 316 377
#     4  11  23  40  65  94 125 162 208 258 310 371
#     4  10  20  37  59  89 128 164 201 254 314 365
#     4  11  25  45  67  94 129 167 212 266 322 379
#     4  11  23  39  64  95 128 167 213 260 315 378
#
# _framework density 20.817377
#
# number of rings (size 3 to 8) (size 9 to 14) (size 15 to 20)
#    0.000    1.333    1.667    3.000    2.333    9.000 
#    0.000    0.000    0.000    0.000    0.000    0.000 
#    0.000    0.000    0.000    0.000    0.000    0.000 
#
# Total GULP energy -595503.440596 kJ/mol
# GULP energy per Si atom -12406.321679 kJ/mol
# Density = 2.077000 g / cm^3
# Si number density = 20.817377 Si / 1000 Ang^3
#
#
#
# Elastic Constant Matrix: (Units=GPa)
#
#
# Indices 1 2 3 4 5 6 
#
# 1 81.7066 22.8220 47.4061 0.0000 0.0000 0.0000
# 2 22.8220 108.4869 51.1480 0.0000 0.0000 0.0000
# 3 47.4061 51.1480 106.1655 0.0000 0.0000 0.0000
# 4 0.0000 0.0000 0.0000 42.6171 0.0000 0.0000
# 5 0.0000 0.0000 0.0000 0.0000 24.3456 0.0000
# 6 0.0000 0.0000 0.0000 0.0000 0.0000 26.9964
#
#
#
# Elastic Compliance Matrix: (Units=1/GPa)
#
#
# Indices 1 2 3 4 5 6 
#
# 1 0.016518 0.000003 -0.007378 0.000000 0.000000 0.000000
# 2 0.000003 0.011927 -0.005748 0.000000 0.000000 0.000000
# 3 -0.007378 -0.005748 0.015483 0.000000 0.000000 0.000000
# 4 0.000000 0.000000 0.000000 0.023465 0.000000 0.000000
# 5 0.000000 0.000000 0.000000 0.000000 0.041075 0.000000
# 6 0.000000 0.000000 0.000000 0.000000 0.000000 0.037042
#
#
# Mechanical properties :
#
#
# Convention : Reuss Voigt Hill
#
# Bulk Modulus (GPa) = 56.54739 59.90124 58.22432
# Shear Modulus (GPa) = 28.14554 30.45736 29.30145
#
# Velocity S-wave (km/s) = 3.68097 3.82916 3.75580
# Velocity P-wave (km/s) = 6.72968 6.95608 6.84382
#
# Compressibility (1/GPa) = 0.01768428
#
# Stress axis : x y z
#
# Youngs Moduli (GPa) = 60.53832 83.84494 64.58856
#
# Poissons Ratio (x) = -0.00028 0.47651
# Poissons Ratio (y) = -0.00020 0.37123
# Poissons Ratio (z) = 0.44663 0.48190
#
# Static dielectric constant tensor:
#      x y z
#    x 3.734470 0.000000 0.000000 
#    y 0.000000 3.822950 0.000000 
#    z 0.000000 0.000000 3.821130 
# 
# 
# High freq. dielectric constant tensor:
#      x y z
#    x 1.813560 0.000000 0.000000 
#    y 0.000000 1.825050 0.000000 
#    z 0.000000 0.000000 1.820510 
# 
# From -- ./inp_files/9446.got.cif
#   From: 2010.03.12/outbox.cif.g09.slc.cpg/sg55_5_cif.got.tgz:9446.got - 2010.04.16 15:19:21.
