data_PCOD8226581
_publ_section_title
;
Structure prediction by ZEFSAII (Michael W. Deem and Ramdas Pophale) SiO2 
 PCOD8226581
Probable space group: P B A M
;
_chemical_formula_sum "Si O2"
_cell_formula_units_Z 48
_cell_length_a 11.778616
_cell_length_b 23.604784
_cell_length_c 8.995582
_cell_angle_alpha 90.000000
_cell_angle_beta 90.000000
_cell_angle_gamma 90.000000
_cell_volume 2501.056834
_symmetry_space_group_name_H-M "P B A M"
_symmetry_group_IT_number 55
_symmetry_cell_setting 'orthorhombic'
loop_
_space_group_symop_operation_xyz
x,y,z
-x,-y,z
1/2+x,1/2-y,-z
1/2-x,1/2+y,-z
-x,-y,-z
x,y,-z
1/2-x,1/2+y,z
1/2+x,1/2-y,z
loop_
_atom_site_type_symbol
_atom_site_label
_atom_site_fract_x
_atom_site_fract_y
_atom_site_fract_z
Si Si1 0.852650 0.784889 0.172258
Si Si2 0.595549 0.169365 0.673017
Si Si3 0.275629 0.425817 0.671213
Si Si4 0.293879 0.541944 0.827175
Si Si5 0.975138 0.884605 0.673369
Si Si6 0.633027 0.855931 0.830883
O O1 0.858634 0.722310 0.235775
O O2 0.943063 0.825063 0.253106
O O3 0.725569 0.807200 0.197259
O O4 0.885689 0.784670 0.000000
O O5 0.599865 0.184612 0.500000
O O6 0.674605 0.116440 0.711939
O O7 0.468070 0.153747 0.716993
O O8 0.270992 0.445069 0.500000
O O9 0.258277 0.480176 0.773877
O O10 0.393330 0.394842 0.706960
O O11 0.404880 0.563047 0.740287
O O12 0.188117 0.583245 0.796387
O O13 0.325499 0.541509 0.000000
O O14 0.948282 0.881050 0.500000
O O15 0.587845 0.853249 0.000000
#
# Coordination Sequence:
#
# PCOD8226581 Si02
#       6
#     8   8   8   8   8   8
#     4  10  22  40  61  86 116 151 195 244 294 348
#     4  11  24  39  58  86 118 155 197 241 291 349
#     4  10  23  39  56  86 122 154 193 239 290 346
#     4  10  21  38  61  88 117 153 196 242 292 344
#     4  10  20  37  61  88 118 155 194 239 293 347
#     4   9  21  41  60  83 115 152 194 239 291 349
#
# _framework density 19.191886
#
# number of rings (size 3 to 8) (size 9 to 14) (size 15 to 20)
#    0.000    2.000    0.000    3.500    2.333    9.333 
#    0.000    3.333    0.000    0.000    0.000    0.000 
#    0.000    0.000    0.000    0.000    0.000    0.000 
#
# Total GULP energy -595476.354297 kJ/mol
# GULP energy per Si atom -12405.757381 kJ/mol
# Density = 1.914820 g / cm^3
# Si number density = 19.191886 Si / 1000 Ang^3
#
#
#
# Elastic Constant Matrix: (Units=GPa)
#
#
# Indices 1 2 3 4 5 6 
#
# 1 104.0350 44.4946 60.5843 0.0000 0.0000 0.0000
# 2 44.4946 72.0816 65.8216 0.0000 0.0000 0.0000
# 3 60.5843 65.8216 114.2587 0.0000 0.0000 0.0000
# 4 0.0000 0.0000 0.0000 40.1266 0.0000 0.0000
# 5 0.0000 0.0000 0.0000 0.0000 28.1707 0.0000
# 6 0.0000 0.0000 0.0000 0.0000 0.0000 16.8016
#
#
#
# Elastic Compliance Matrix: (Units=1/GPa)
#
#
# Indices 1 2 3 4 5 6 
#
# 1 0.014447 -0.004057 -0.005323 0.000000 0.000000 0.000000
# 2 -0.004057 0.030410 -0.015367 0.000000 0.000000 0.000000
# 3 -0.005323 -0.015367 0.020428 0.000000 0.000000 0.000000
# 4 0.000000 0.000000 0.000000 0.024921 0.000000 0.000000
# 5 0.000000 0.000000 0.000000 0.000000 0.035498 0.000000
# 6 0.000000 0.000000 0.000000 0.000000 0.000000 0.059518
#
#
# Mechanical properties :
#
#
# Convention : Reuss Voigt Hill
#
# Bulk Modulus (GPa) = 63.33316 70.24179 66.78748
# Shear Modulus (GPa) = 20.83499 24.98478 22.90989
#
# Velocity S-wave (km/s) = 3.29844 3.61202 3.45878
# Velocity P-wave (km/s) = 6.89767 7.35355 7.12926
#
# Compressibility (1/GPa) = 0.01578952
#
# Stress axis : x y z
#
# Youngs Moduli (GPa) = 69.21696 32.88363 48.95361
#
# Poissons Ratio (x) = 0.13341 0.26060
# Poissons Ratio (y) = 0.28081 0.75229
# Poissons Ratio (z) = 0.36847 0.50534
#
# Static dielectric constant tensor:
#      x y z
#    x 3.435800 0.000000 0.000000 
#    y 0.000000 3.551040 0.000000 
#    z 0.000000 0.000000 3.592390 
# 
# 
# High freq. dielectric constant tensor:
#      x y z
#    x 1.746460 0.000000 0.000000 
#    y 0.000000 1.754740 0.000000 
#    z 0.000000 0.000000 1.757690 
# 
# From -- ./inp_files/4030.got.cif
#   From: 2010.03.12/outbox.cif.g09.slc.cpg/sg55_3_cif.got.tgz:4030.got - 2010.04.16 15:19:21.
