data_PCOD8226810
_publ_section_title
;
Structure prediction by ZEFSAII (Michael W. Deem and Ramdas Pophale) SiO2 
 PCOD8226810
Probable space group: P B A M
;
_chemical_formula_sum "Si O2"
_cell_formula_units_Z 32
_cell_length_a 10.084652
_cell_length_b 20.102173
_cell_length_c 8.896436
_cell_angle_alpha 90.000000
_cell_angle_beta 90.000000
_cell_angle_gamma 90.000000
_cell_volume 1803.515924
_symmetry_space_group_name_H-M "P B A M"
_symmetry_group_IT_number 55
_symmetry_cell_setting 'orthorhombic'
loop_
_space_group_symop_operation_xyz
x,y,z
-x,-y,z
1/2+x,1/2-y,-z
1/2-x,1/2+y,-z
-x,-y,-z
x,y,-z
1/2-x,1/2+y,z
1/2+x,1/2-y,z
loop_
_atom_site_type_symbol
_atom_site_label
_atom_site_fract_x
_atom_site_fract_y
_atom_site_fract_z
Si Si1 0.906545 0.692995 0.177712
Si Si2 0.611055 0.053573 0.323955
Si Si3 0.107339 0.801563 0.175994
Si Si4 0.114068 0.950203 0.178544
O O1 0.937061 0.623178 0.255448
O O2 0.758146 0.717781 0.216268
O O3 0.007239 0.747636 0.247148
O O4 0.924043 0.682747 0.000000
O O5 0.632587 0.062375 0.500000
O O6 0.747601 0.027779 0.251304
O O7 0.500000 0.000000 0.284553
O O8 0.076136 0.875962 0.235097
O O9 0.082720 0.800487 0.000000
O O10 0.132342 0.951922 0.000000
O O11 0.000000 0.000000 0.233746
#
# Coordination Sequence:
#
# PCOD8226810 Si02
#       4
#     8   8   8   8
#     4   9  17  31  50  70  95 126 160 200 244 288
#     4  10  21  35  49  69 100 134 167 203 242 287
#     4   8  15  28  47  72  97 120 151 195 242 283
#     4   9  18  33  54  78 100 125 162 204 246 295
#
# _framework density 17.743120999999999
#
# number of rings (size 3 to 8) (size 9 to 14) (size 15 to 20)
#    0.000    3.000    0.000    2.250    0.000    4.500 
#    0.000   10.000    0.000    0.000    0.000    0.000 
#    0.000    0.000    0.000    0.000    0.000    0.000 
#
# Total GULP energy -396722.009430 kJ/mol
# GULP energy per Si atom -12397.562795 kJ/mol
# Density = 1.770274 g / cm^3
# Si number density = 17.743121 Si / 1000 Ang^3
#
#
#
# Elastic Constant Matrix: (Units=GPa)
#
#
# Indices 1 2 3 4 5 6 
#
# 1 149.9578 111.1106 44.9920 0.0000 0.0000 0.0000
# 2 111.1106 128.1600 41.7955 0.0000 0.0000 0.0000
# 3 44.9920 41.7955 37.4719 0.0000 0.0000 0.0000
# 4 0.0000 0.0000 0.0000 14.8658 0.0000 0.0000
# 5 0.0000 0.0000 0.0000 0.0000 16.1688 0.0000
# 6 0.0000 0.0000 0.0000 0.0000 0.0000 42.7658
#
#
#
# Elastic Compliance Matrix: (Units=1/GPa)
#
#
# Indices 1 2 3 4 5 6 
#
# 1 0.019836 -0.014822 -0.007286 0.000000 0.000000 0.000000
# 2 -0.014822 0.023338 -0.008235 0.000000 0.000000 0.000000
# 3 -0.007286 -0.008235 0.044620 0.000000 0.000000 0.000000
# 4 0.000000 0.000000 0.000000 0.067269 0.000000 0.000000
# 5 0.000000 0.000000 0.000000 0.000000 0.061848 0.000000
# 6 0.000000 0.000000 0.000000 0.000000 0.000000 0.023383
#
#
# Mechanical properties :
#
#
# Convention : Reuss Voigt Hill
#
# Bulk Modulus (GPa) = 36.88689 79.04288 57.96488
# Shear Modulus (GPa) = 16.12829 22.60618 19.36723
#
# Velocity S-wave (km/s) = 3.01821 3.57330 3.30742
# Velocity P-wave (km/s) = 5.74288 7.85301 6.87933
#
# Compressibility (1/GPa) = 0.02710991
#
# Stress axis : x y z
#
# Youngs Moduli (GPa) = 50.41231 42.84838 22.41169
#
# Poissons Ratio (x) = 0.63508 0.16328
# Poissons Ratio (y) = 0.74719 0.18456
# Poissons Ratio (z) = 0.36729 0.35285
#
# Static dielectric constant tensor:
#      x y z
#    x 3.473030 0.000000 0.000000 
#    y 0.000000 3.523040 0.000000 
#    z 0.000000 0.000000 2.997980 
# 
# 
# High freq. dielectric constant tensor:
#      x y z
#    x 1.691380 0.000000 0.000000 
#    y 0.000000 1.690960 0.000000 
#    z 0.000000 0.000000 1.656570 
# 
# From -- ./inp_files/2000.got.cif
#   From: 2010.03.12/outbox.cif.g09.slc.cpg/sg55_1_cif.got.tgz:2000.got - 2010.04.16 15:19:21.
