data_PCOD8226436
_publ_section_title
;
Structure prediction by ZEFSAII (Michael W. Deem and Ramdas Pophale) SiO2 
 PCOD8226436
Probable space group: P B A M
;
_chemical_formula_sum "Si O2"
_cell_formula_units_Z 64
_cell_length_a 14.480408
_cell_length_b 23.953166
_cell_length_c 8.552803
_cell_angle_alpha 90.000000
_cell_angle_beta 90.000000
_cell_angle_gamma 90.000000
_cell_volume 2966.553547
_symmetry_space_group_name_H-M "P B A M"
_symmetry_group_IT_number 55
_symmetry_cell_setting 'orthorhombic'
loop_
_space_group_symop_operation_xyz
x,y,z
-x,-y,z
1/2+x,1/2-y,-z
1/2-x,1/2+y,-z
-x,-y,-z
x,y,-z
1/2-x,1/2+y,z
1/2+x,1/2-y,z
loop_
_atom_site_type_symbol
_atom_site_label
_atom_site_fract_x
_atom_site_fract_y
_atom_site_fract_z
Si Si1 0.863808 0.919995 0.681114
Si Si2 0.638317 0.161553 0.185631
Si Si3 0.435910 0.178729 0.182421
Si Si4 0.823681 0.219555 0.181236
Si Si5 0.381528 0.465695 0.179028
Si Si6 0.844710 0.423691 0.679435
Si Si7 0.962172 0.137821 0.323901
Si Si8 0.686820 0.047248 0.318487
O O1 0.862783 0.938914 0.500000
O O2 0.759272 0.908814 0.735595
O O3 0.926276 0.863936 0.705041
O O4 0.906748 0.970236 0.784008
O O5 0.542302 0.192669 0.230564
O O6 0.726496 0.196883 0.253294
O O7 0.629065 0.101425 0.269406
O O8 0.647496 0.152573 0.000000
O O9 0.362244 0.222697 0.258981
O O10 0.413690 0.114956 0.223565
O O11 0.427347 0.187128 0.000000
O O12 0.906634 0.175513 0.202754
O O13 0.804903 0.228022 0.000000
O O14 0.434708 0.426323 0.299796
O O15 0.273827 0.454521 0.205141
O O16 0.407037 0.451961 0.000000
O O17 0.858239 0.407435 0.500000
O O18 0.869097 0.489089 0.707601
O O19 0.938717 0.157308 0.500000
O O20 0.716763 0.051224 0.500000
#
# Coordination Sequence:
#
# PCOD8226436 Si02
#       8
#     8   8   8   8   8   8   8   8
#     4   9  20  36  53  79 118 158 193 238 294 349
#     4  10  21  39  62  88 119 154 193 242 299 356
#     4  10  23  41  61  87 118 154 197 245 301 357
#     4  10  22  40  60  84 117 155 198 246 294 351
#     4  11  20  31  51  83 120 156 195 239 289 349
#     4   9  20  39  59  83 118 156 196 245 297 352
#     4  11  21  34  55  82 114 154 200 244 291 345
#     4  10  20  36  60  88 119 156 198 244 299 353
#
# _framework density 21.573854999999998
#
# number of rings (size 3 to 8) (size 9 to 14) (size 15 to 20)
#    0.000    2.000    1.250    3.000    0.000    7.500 
#    0.000    3.750    0.000    0.000    0.000    0.000 
#    0.000    0.000    0.000    0.000    0.000    0.000 
#
# Total GULP energy -793152.316044 kJ/mol
# GULP energy per Si atom -12393.004938 kJ/mol
# Density = 2.152475 g / cm^3
# Si number density = 21.573855 Si / 1000 Ang^3
#
#
#
# Elastic Constant Matrix: (Units=GPa)
#
#
# Indices 1 2 3 4 5 6 
#
# 1 100.0685 70.3079 10.4297 0.0000 0.0000 0.0000
# 2 70.3079 105.9461 17.5515 0.0000 0.0000 0.0000
# 3 10.4297 17.5515 26.6504 0.0000 0.0000 0.0000
# 4 0.0000 0.0000 0.0000 22.5893 0.0000 0.0000
# 5 0.0000 0.0000 0.0000 0.0000 23.8549 0.0000
# 6 0.0000 0.0000 0.0000 0.0000 0.0000 30.4875
#
#
#
# Elastic Compliance Matrix: (Units=1/GPa)
#
#
# Indices 1 2 3 4 5 6 
#
# 1 0.018745 -0.012599 0.000961 0.000000 0.000000 0.000000
# 2 -0.012599 0.019062 -0.007624 0.000000 0.000000 0.000000
# 3 0.000961 -0.007624 0.042167 0.000000 0.000000 0.000000
# 4 0.000000 0.000000 0.000000 0.044269 0.000000 0.000000
# 5 0.000000 0.000000 0.000000 0.000000 0.041920 0.000000
# 6 0.000000 0.000000 0.000000 0.000000 0.000000 0.032800
#
#
# Mechanical properties :
#
#
# Convention : Reuss Voigt Hill
#
# Bulk Modulus (GPa) = 24.12376 47.69368 35.90872
# Shear Modulus (GPa) = 19.89629 24.34474 22.12051
#
# Velocity S-wave (km/s) = 3.04014 3.36287 3.20557
# Velocity P-wave (km/s) = 4.85072 6.10194 5.51195
#
# Compressibility (1/GPa) = 0.04145290
#
# Stress axis : x y z
#
# Youngs Moduli (GPa) = 53.34834 52.45921 23.71498
#
# Poissons Ratio (x) = 0.66091 -0.02280
# Poissons Ratio (y) = 0.67212 0.18080
# Poissons Ratio (z) = -0.05129 0.39993
#
# Static dielectric constant tensor:
#      x y z
#    x 4.060410 0.000000 0.000000 
#    y 0.000000 3.876890 0.000000 
#    z 0.000000 0.000000 3.580050 
# 
# 
# High freq. dielectric constant tensor:
#      x y z
#    x 1.851960 0.000000 0.000000 
#    y 0.000000 1.832710 0.000000 
#    z 0.000000 0.000000 1.825540 
# 
# From -- ./inp_files/6488.got.cif
#   From: 2010.03.12/outbox.cif.g09.slc.cpg/sg55_4_cif.got.tgz:6488.got - 2010.04.16 15:19:21.
