data_PCOD8226017
_publ_section_title
;
Structure prediction by ZEFSAII (Michael W. Deem and Ramdas Pophale) SiO2 
 PCOD8226017
Probable space group: P B A M
;
_chemical_formula_sum "Si O2"
_cell_formula_units_Z 56
_cell_length_a 20.266190
_cell_length_b 16.195536
_cell_length_c 9.090223
_cell_angle_alpha 90.000000
_cell_angle_beta 90.000000
_cell_angle_gamma 90.000000
_cell_volume 2983.609444
_symmetry_space_group_name_H-M "P B A M"
_symmetry_group_IT_number 55
_symmetry_cell_setting 'orthorhombic'
loop_
_space_group_symop_operation_xyz
x,y,z
-x,-y,z
1/2+x,1/2-y,-z
1/2-x,1/2+y,-z
-x,-y,-z
x,y,-z
1/2-x,1/2+y,z
1/2+x,1/2-y,z
loop_
_atom_site_type_symbol
_atom_site_label
_atom_site_fract_x
_atom_site_fract_y
_atom_site_fract_z
Si Si1 0.847288 0.654711 0.172582
Si Si2 0.615547 0.803748 0.829066
Si Si3 0.185521 0.002856 0.328000
Si Si4 0.555485 0.435694 0.826100
Si Si5 0.815734 0.471088 0.831670
Si Si6 0.526194 0.251223 0.174112
Si Si7 0.215250 0.815922 0.327665
O O1 0.850665 0.557426 0.209086
O O2 0.913585 0.696467 0.236142
O O3 0.786039 0.697395 0.253213
O O4 0.838982 0.671552 0.000000
O O5 0.630404 0.900217 0.804800
O O6 0.542414 0.786211 0.767117
O O7 0.666150 0.751077 0.735542
O O8 0.621933 0.778379 0.000000
O O9 0.180399 0.019654 0.500000
O O10 0.186605 0.905998 0.289546
O O11 0.124035 0.044016 0.249467
O O12 0.252150 0.045449 0.269209
O O13 0.500000 0.500000 0.773562
O O14 0.532683 0.345486 0.772816
O O15 0.566053 0.439909 0.000000
O O16 0.791149 0.472024 0.000000
O O17 0.527020 0.246326 0.000000
O O18 0.223676 0.802876 0.500000
#
# Coordination Sequence:
#
# PCOD8226017 Si02
#       7
#     8   8   8   8   8   8   8
#     4   9  18  35  56  79 108 141 179 225 272 319
#     4  10  20  35  56  81 108 140 179 221 271 327
#     4  10  21  36  54  77 107 142 180 225 270 319
#     4  10  20  34  54  79 110 145 181 223 272 326
#     4   9  19  34  55  81 106 138 179 222 270 322
#     4   9  19  34  54  81 109 140 180 224 271 322
#     4  10  21  36  54  78 109 143 181 223 269 321
#
# _framework density 18.769213000000001
#
# number of rings (size 3 to 8) (size 9 to 14) (size 15 to 20)
#    0.000    2.429    0.000    1.714    2.000    4.286 
#    0.000    4.286    0.000    0.000    0.000    5.000 
#    0.000    0.000    0.000    0.000    0.000    0.000 
#
# Total GULP energy -694562.238688 kJ/mol
# GULP energy per Si atom -12402.897119 kJ/mol
# Density = 1.872649 g / cm^3
# Si number density = 18.769213 Si / 1000 Ang^3
#
#
#
# Elastic Constant Matrix: (Units=GPa)
#
#
# Indices 1 2 3 4 5 6 
#
# 1 170.0271 96.0950 42.7213 0.0000 0.0000 0.0000
# 2 96.0950 110.0330 34.1932 0.0000 0.0000 0.0000
# 3 42.7213 34.1932 43.7394 0.0000 0.0000 0.0000
# 4 0.0000 0.0000 0.0000 19.2947 0.0000 0.0000
# 5 0.0000 0.0000 0.0000 0.0000 -4.3109 0.0000
# 6 0.0000 0.0000 0.0000 0.0000 0.0000 37.9960
#
#
#
# Elastic Compliance Matrix: (Units=1/GPa)
#
#
# Indices 1 2 3 4 5 6 
#
# 1 0.012329 -0.009279 -0.004788 0.000000 0.000000 0.000000
# 2 -0.009279 0.018988 -0.005781 0.000000 0.000000 0.000000
# 3 -0.004788 -0.005781 0.032058 0.000000 0.000000 0.000000
# 4 0.000000 0.000000 0.000000 0.051828 0.000000 0.000000
# 5 0.000000 0.000000 0.000000 0.000000 -0.231970 0.000000
# 6 0.000000 0.000000 0.000000 0.000000 0.000000 0.026319
#
#
# Mechanical properties :
#
#
# Convention : Reuss Voigt Hill
#
# Bulk Modulus (GPa) = 42.23052 74.42427 58.32739
# Shear Modulus (GPa) = -116.66013 20.64865 -48.00574
#
# Velocity S-wave (km/s) = -7.89240 3.32043 -5.06284
# Velocity P-wave (km/s) = 7.77847 7.37826 1.74153
#
# Compressibility (1/GPa) = 0.02367956
#
# Stress axis : x y z
#
# Youngs Moduli (GPa) = 81.11083 52.66353 31.19327
#
# Poissons Ratio (x) = 0.48868 0.14935
# Poissons Ratio (y) = 0.75265 0.18033
# Poissons Ratio (z) = 0.38834 0.30444
#
# Static dielectric constant tensor:
#      x y z
#    x 3.620610 0.000000 0.000000 
#    y 0.000000 3.615320 0.000000 
#    z 0.000000 0.000000 3.251070 
# 
# 
# High freq. dielectric constant tensor:
#      x y z
#    x 1.735070 0.000000 0.000000 
#    y 0.000000 1.736430 0.000000 
#    z 0.000000 0.000000 1.707110 
# 
# From -- ./inp_files/6001.got.cif
#   From: 2010.03.12/outbox.cif.g09.slc.cpg/sg55_4_cif.got.tgz:6001.got - 2010.04.16 15:19:21.
