data_PCOD8226900
_publ_section_title
;
Structure prediction by ZEFSAII (Michael W. Deem and Ramdas Pophale) SiO2 
 PCOD8226900
Probable space group: P B A M
;
_chemical_formula_sum "Si O2"
_cell_formula_units_Z 48
_cell_length_a 10.985777
_cell_length_b 21.444209
_cell_length_c 10.186933
_cell_angle_alpha 90.000000
_cell_angle_beta 90.000000
_cell_angle_gamma 90.000000
_cell_volume 2399.850899
_symmetry_space_group_name_H-M "P B A M"
_symmetry_group_IT_number 55
_symmetry_cell_setting 'orthorhombic'
loop_
_space_group_symop_operation_xyz
x,y,z
-x,-y,z
1/2+x,1/2-y,-z
1/2-x,1/2+y,-z
-x,-y,-z
x,y,-z
1/2-x,1/2+y,z
1/2+x,1/2-y,z
loop_
_atom_site_type_symbol
_atom_site_label
_atom_site_fract_x
_atom_site_fract_y
_atom_site_fract_z
Si Si1 0.167107 0.177279 0.149331
Si Si2 0.291316 0.390894 0.644978
Si Si3 0.041359 0.065786 0.264314
Si Si4 0.093579 0.611829 0.846206
Si Si5 0.651369 0.185376 0.845940
Si Si6 0.798446 0.474996 0.353966
O O1 0.068297 0.121964 0.163142
O O2 0.299225 0.157641 0.203647
O O3 0.126379 0.244273 0.207753
O O4 0.185448 0.192364 0.000000
O O5 0.263230 0.363160 0.500000
O O6 0.432936 0.410320 0.643788
O O7 0.262303 0.341672 0.759690
O O8 0.208323 0.451355 0.670782
O O9 0.163368 0.054746 0.347270
O O10 0.000000 0.000000 0.194863
O O11 0.108187 0.550293 0.756400
O O12 0.967860 0.645349 0.816656
O O13 0.107757 0.593353 0.000000
O O14 0.686625 0.181603 0.000000
O O15 0.849175 0.460466 0.500000
#
# Coordination Sequence:
#
# PCOD8226900 Si02
#       6
#     8   8   8   8   8   8
#     4   9  19  35  57  80 109 146 183 226 277 334
#     4  10  21  36  55  83 115 144 183 230 274 328
#     4   9  18  34  59  86 111 141 182 235 286 328
#     4   9  19  36  55  78 108 141 184 230 274 327
#     4  10  22  37  55  79 110 152 188 223 274 330
#     4   9  18  35  59  82 108 146 183 224 282 332
#
# _framework density 20.001241
#
# number of rings (size 3 to 8) (size 9 to 14) (size 15 to 20)
#    0.000    2.667    0.000    0.500    2.333    5.000 
#    0.000   10.833    0.000    0.000    0.000    0.000 
#    0.000    0.000    0.000    0.000    0.000    0.000 
#
# Total GULP energy -594734.997407 kJ/mol
# GULP energy per Si atom -12390.312446 kJ/mol
# Density = 1.995572 g / cm^3
# Si number density = 20.001241 Si / 1000 Ang^3
#
#
#
# Elastic Constant Matrix: (Units=GPa)
#
#
# Indices 1 2 3 4 5 6 
#
# 1 50.5863 26.6807 25.5187 0.0000 0.0000 0.0000
# 2 26.6807 108.2675 41.0023 0.0000 0.0000 0.0000
# 3 25.5187 41.0023 65.3745 0.0000 0.0000 0.0000
# 4 0.0000 0.0000 0.0000 19.1148 0.0000 0.0000
# 5 0.0000 0.0000 0.0000 0.0000 19.0716 0.0000
# 6 0.0000 0.0000 0.0000 0.0000 0.0000 24.2702
#
#
#
# Elastic Compliance Matrix: (Units=1/GPa)
#
#
# Indices 1 2 3 4 5 6 
#
# 1 0.025481 -0.003295 -0.007880 0.000000 0.000000 0.000000
# 2 -0.003295 0.012540 -0.006579 0.000000 0.000000 0.000000
# 3 -0.007880 -0.006579 0.022498 0.000000 0.000000 0.000000
# 4 0.000000 0.000000 0.000000 0.052316 0.000000 0.000000
# 5 0.000000 0.000000 0.000000 0.000000 0.052434 0.000000
# 6 0.000000 0.000000 0.000000 0.000000 0.000000 0.041203
#
#
# Mechanical properties :
#
#
# Convention : Reuss Voigt Hill
#
# Bulk Modulus (GPa) = 39.98046 45.62575 42.80311
# Shear Modulus (GPa) = 19.97472 21.22641 20.60056
#
# Velocity S-wave (km/s) = 3.16361 3.26122 3.21279
# Velocity P-wave (km/s) = 5.77728 6.08619 5.93375
#
# Compressibility (1/GPa) = 0.02501222
#
# Stress axis : x y z
#
# Youngs Moduli (GPa) = 39.24463 79.74588 44.44776
#
# Poissons Ratio (x) = 0.26278 0.35024
# Poissons Ratio (y) = 0.12932 0.29240
# Poissons Ratio (z) = 0.30924 0.52461
#
# Static dielectric constant tensor:
#      x y z
#    x 3.524820 0.000000 0.000000 
#    y 0.000000 4.045040 0.000000 
#    z 0.000000 0.000000 3.404470 
# 
# 
# High freq. dielectric constant tensor:
#      x y z
#    x 1.777700 0.000000 0.000000 
#    y 0.000000 1.781860 0.000000 
#    z 0.000000 0.000000 1.756480 
# 
# From -- ./inp_files/4048.got.cif
#   From: 2010.03.12/outbox.cif.g09.slc.cpg/sg55_3_cif.got.tgz:4048.got - 2010.04.16 15:19:21.
