data_PCOD8226969
_publ_section_title
;
Structure prediction by ZEFSAII (Michael W. Deem and Ramdas Pophale) SiO2 
 PCOD8226969
Probable space group: P B A M
;
_chemical_formula_sum "Si O2"
_cell_formula_units_Z 56
_cell_length_a 19.291678
_cell_length_b 16.243749
_cell_length_c 9.449911
_cell_angle_alpha 90.000000
_cell_angle_beta 90.000000
_cell_angle_gamma 90.000000
_cell_volume 2961.310816
_symmetry_space_group_name_H-M "P B A M"
_symmetry_group_IT_number 55
_symmetry_cell_setting 'orthorhombic'
loop_
_space_group_symop_operation_xyz
x,y,z
-x,-y,z
1/2+x,1/2-y,-z
1/2-x,1/2+y,-z
-x,-y,-z
x,y,-z
1/2-x,1/2+y,z
1/2+x,1/2-y,z
loop_
_atom_site_type_symbol
_atom_site_label
_atom_site_fract_x
_atom_site_fract_y
_atom_site_fract_z
Si Si1 0.157163 0.537761 0.337064
Si Si2 0.186604 0.994181 0.662111
Si Si3 0.869365 0.306886 0.164256
Si Si4 0.440084 0.561471 0.832532
Si Si5 0.520122 0.256712 0.162994
Si Si6 0.879773 0.645549 0.663019
Si Si7 0.724754 0.689936 0.336859
O O1 0.141130 0.559282 0.500000
O O2 0.239491 0.536540 0.311682
O O3 0.121645 0.604351 0.236130
O O4 0.123971 0.450317 0.296379
O O5 0.163519 0.006078 0.500000
O O6 0.190809 0.897821 0.699408
O O7 0.132357 0.037873 0.763340
O O8 0.806275 0.259102 0.236331
O O9 0.938629 0.254520 0.187598
O O10 0.852118 0.319188 0.000000
O O11 0.500000 0.500000 0.779523
O O12 0.460183 0.652788 0.781842
O O13 0.431159 0.555698 0.000000
O O14 0.560838 0.187069 0.246251
O O15 0.540108 0.246503 0.000000
O O16 0.899736 0.655833 0.500000
O O17 0.806434 0.688483 0.693888
O O18 0.710481 0.713022 0.500000
#
# Coordination Sequence:
#
# PCOD8226969 Si02
#       7
#     8   8   8   8   8   8   8
#     4   9  20  39  59  82 112 144 184 237 288 332
#     4   9  19  36  58  83 110 142 184 233 281 332
#     4  11  23  37  56  83 114 151 191 228 279 339
#     4  10  21  37  56  79 115 155 187 226 279 335
#     4  10  23  39  54  80 117 152 188 233 281 333
#     4   9  20  39  61  83 109 147 190 233 287 340
#     4   9  19  37  59  83 113 146 184 234 283 331
#
# _framework density 18.910544999999999
#
# number of rings (size 3 to 8) (size 9 to 14) (size 15 to 20)
#    0.000    2.429    0.000    3.000    2.000    6.000 
#    0.000    5.714    0.000    0.000    0.000    0.000 
#    0.000    0.000    0.000    0.000    0.000    0.000 
#
# Total GULP energy -694589.988725 kJ/mol
# GULP energy per Si atom -12403.392656 kJ/mol
# Density = 1.886750 g / cm^3
# Si number density = 18.910545 Si / 1000 Ang^3
#
#
#
# Elastic Constant Matrix: (Units=GPa)
#
#
# Indices 1 2 3 4 5 6 
#
# 1 32.3059 16.4591 23.4348 0.0000 0.0000 0.0000
# 2 16.4591 88.7075 40.6367 0.0000 0.0000 0.0000
# 3 23.4348 40.6367 65.3063 0.0000 0.0000 0.0000
# 4 0.0000 0.0000 0.0000 32.7412 0.0000 0.0000
# 5 0.0000 0.0000 0.0000 0.0000 37.3071 0.0000
# 6 0.0000 0.0000 0.0000 0.0000 0.0000 35.8404
#
#
#
# Elastic Compliance Matrix: (Units=1/GPa)
#
#
# Indices 1 2 3 4 5 6 
#
# 1 0.041945 -0.001241 -0.014279 0.000000 0.000000 0.000000
# 2 -0.001241 0.015804 -0.009389 0.000000 0.000000 0.000000
# 3 -0.014279 -0.009389 0.026279 0.000000 0.000000 0.000000
# 4 0.000000 0.000000 0.000000 0.030543 0.000000 0.000000
# 5 0.000000 0.000000 0.000000 0.000000 0.026805 0.000000
# 6 0.000000 0.000000 0.000000 0.000000 0.000000 0.027901
#
#
# Mechanical properties :
#
#
# Convention : Reuss Voigt Hill
#
# Bulk Modulus (GPa) = 29.23199 38.59789 33.91494
# Shear Modulus (GPa) = 21.69217 28.23036 24.96126
#
# Velocity S-wave (km/s) = 3.39055 3.86792 3.63707
# Velocity P-wave (km/s) = 5.55152 6.35632 5.96750
#
# Compressibility (1/GPa) = 0.03420909
#
# Stress axis : x y z
#
# Youngs Moduli (GPa) = 23.84087 63.27400 38.05373
#
# Poissons Ratio (x) = 0.07854 0.54338
# Poissons Ratio (y) = 0.02959 0.35728
# Poissons Ratio (z) = 0.34043 0.59406
#
# Static dielectric constant tensor:
#      x y z
#    x 3.331720 0.000000 0.000000 
#    y 0.000000 3.537500 0.000000 
#    z 0.000000 0.000000 3.357580 
# 
# 
# High freq. dielectric constant tensor:
#      x y z
#    x 1.734040 0.000000 0.000000 
#    y 0.000000 1.745310 0.000000 
#    z 0.000000 0.000000 1.728990 
# 
# From -- ./inp_files/8734.got.cif
#   From: 2010.03.12/outbox.cif.g09.slc.cpg/sg55_5_cif.got.tgz:8734.got - 2010.04.16 15:19:21.
