data_PCOD8226754
_publ_section_title
;
Structure prediction by ZEFSAII (Michael W. Deem and Ramdas Pophale) SiO2 
 PCOD8226754
Probable space group: P B A M
;
_chemical_formula_sum "Si O2"
_cell_formula_units_Z 48
_cell_length_a 9.275513
_cell_length_b 28.697885
_cell_length_c 8.781718
_cell_angle_alpha 90.000000
_cell_angle_beta 90.000000
_cell_angle_gamma 90.000000
_cell_volume 2337.584486
_symmetry_space_group_name_H-M "P B A M"
_symmetry_group_IT_number 55
_symmetry_cell_setting 'orthorhombic'
loop_
_space_group_symop_operation_xyz
x,y,z
-x,-y,z
1/2+x,1/2-y,-z
1/2-x,1/2+y,-z
-x,-y,-z
x,y,-z
1/2-x,1/2+y,z
1/2+x,1/2-y,z
loop_
_atom_site_type_symbol
_atom_site_label
_atom_site_fract_x
_atom_site_fract_y
_atom_site_fract_z
Si Si1 0.300522 0.717764 0.179730
Si Si2 0.891678 0.962061 0.321354
Si Si3 0.160586 0.483217 0.168089
Si Si4 0.691816 0.114317 0.673221
Si Si5 0.513499 0.361989 0.322054
Si Si6 0.012757 0.296544 0.677534
O O1 0.411478 0.677358 0.222963
O O2 0.370617 0.765876 0.233541
O O3 0.147256 0.710114 0.259533
O O4 0.275840 0.718874 0.000000
O O5 0.913334 0.959986 0.500000
O O6 0.925644 0.910919 0.257805
O O7 0.733433 0.979109 0.278746
O O8 0.000000 0.000000 0.248804
O O9 0.172488 0.430299 0.222277
O O10 0.000000 0.500000 0.163148
O O11 0.229839 0.485653 0.000000
O O12 0.693539 0.096195 0.500000
O O13 0.560258 0.149851 0.701299
O O14 0.842472 0.140369 0.707608
O O15 0.550428 0.354353 0.500000
O O16 0.015077 0.282617 0.500000
#
# Coordination Sequence:
#
# PCOD8226754 Si02
#       6
#     8   8   8   8   8   8
#     4  12  26  43  66  98 133 166 203 258 323 381
#     4  10  20  39  65  91 120 162 216 264 304 362
#     4  11  25  40  57  88 130 169 205 255 319 378
#     4  10  22  42  67  92 119 161 214 263 307 364
#     4  10  21  40  66  94 125 163 212 263 312 372
#     4  11  24  44  70  96 125 166 215 260 309 376
#
# _framework density 20.534018
#
# number of rings (size 3 to 8) (size 9 to 14) (size 15 to 20)
#    0.000    1.333    1.667    3.500    2.333    5.667 
#    0.000    0.000    0.000    0.000    0.000    0.000 
#    0.000    0.000    0.000    0.000    0.000    0.000 
#
# Total GULP energy -595312.254499 kJ/mol
# GULP energy per Si atom -12402.338635 kJ/mol
# Density = 2.048728 g / cm^3
# Si number density = 20.534018 Si / 1000 Ang^3
#
#
#
# Elastic Constant Matrix: (Units=GPa)
#
#
# Indices 1 2 3 4 5 6 
#
# 1 93.1446 17.2680 19.8068 0.0000 0.0000 0.0000
# 2 17.2680 73.5755 25.1851 0.0000 0.0000 0.0000
# 3 19.8068 25.1851 48.0807 0.0000 0.0000 0.0000
# 4 0.0000 0.0000 0.0000 44.4769 0.0000 0.0000
# 5 0.0000 0.0000 0.0000 0.0000 29.3886 0.0000
# 6 0.0000 0.0000 0.0000 0.0000 0.0000 37.3112
#
#
#
# Elastic Compliance Matrix: (Units=1/GPa)
#
#
# Indices 1 2 3 4 5 6 
#
# 1 0.011877 -0.001356 -0.004182 0.000000 0.000000 0.000000
# 2 -0.001356 0.016716 -0.008197 0.000000 0.000000 0.000000
# 3 -0.004182 -0.008197 0.026815 0.000000 0.000000 0.000000
# 4 0.000000 0.000000 0.000000 0.022484 0.000000 0.000000
# 5 0.000000 0.000000 0.000000 0.000000 0.034027 0.000000
# 6 0.000000 0.000000 0.000000 0.000000 0.000000 0.026802
#
#
# Mechanical properties :
#
#
# Convention : Reuss Voigt Hill
#
# Bulk Modulus (GPa) = 35.79548 37.70229 36.74889
# Shear Modulus (GPa) = 28.48958 32.40472 30.44715
#
# Velocity S-wave (km/s) = 3.72887 3.97684 3.85485
# Velocity P-wave (km/s) = 6.00078 6.28393 6.14399
#
# Compressibility (1/GPa) = 0.02793649
#
# Stress axis : x y z
#
# Youngs Moduli (GPa) = 84.19837 59.82417 37.29234
#
# Poissons Ratio (x) = 0.08111 0.15597
# Poissons Ratio (y) = 0.11415 0.30570
# Poissons Ratio (z) = 0.35215 0.49040
#
# Static dielectric constant tensor:
#      x y z
#    x 3.786800 0.000000 0.000000 
#    y 0.000000 3.806170 0.000000 
#    z 0.000000 0.000000 3.809240 
# 
# 
# High freq. dielectric constant tensor:
#      x y z
#    x 1.813570 0.000000 0.000000 
#    y 0.000000 1.814980 0.000000 
#    z 0.000000 0.000000 1.797020 
# 
# From -- ./inp_files/2759.got.cif
#   From: 2010.03.12/outbox.cif.g09.slc.cpg/sg55_2_cif.got.tgz:2759.got - 2010.04.16 15:19:21.
