data_PCOD8226304
_publ_section_title
;
Structure prediction by ZEFSAII (Michael W. Deem and Ramdas Pophale) SiO2 
 PCOD8226304
Probable space group: P B A M
;
_chemical_formula_sum "Si O2"
_cell_formula_units_Z 32
_cell_length_a 24.908667
_cell_length_b 5.006926
_cell_length_c 13.705521
_cell_angle_alpha 90.000000
_cell_angle_beta 90.000000
_cell_angle_gamma 90.000000
_cell_volume 1709.295734
_symmetry_space_group_name_H-M "P B A M"
_symmetry_group_IT_number 55
_symmetry_cell_setting 'orthorhombic'
loop_
_space_group_symop_operation_xyz
x,y,z
-x,-y,z
1/2+x,1/2-y,-z
1/2-x,1/2+y,-z
-x,-y,-z
x,y,-z
1/2-x,1/2+y,z
1/2+x,1/2-y,z
loop_
_atom_site_type_symbol
_atom_site_label
_atom_site_fract_x
_atom_site_fract_y
_atom_site_fract_z
Si Si1 0.538195 0.751756 0.500000
Si Si2 0.538188 0.252985 0.000000
Si Si3 0.100826 0.623036 0.308804
Si Si4 0.060221 0.109580 0.793568
Si Si5 0.784727 0.402961 0.612989
O O1 0.500000 0.500000 0.500000
O O2 0.576222 0.748441 0.593997
O O3 0.500000 0.000000 0.500000
O O4 0.500000 0.500000 0.000000
O O5 0.573576 0.272073 0.098523
O O6 0.500000 0.000000 0.000000
O O7 0.162655 0.543662 0.323029
O O8 0.068601 0.355412 0.280449
O O9 0.098514 0.856625 0.227232
O O10 0.000000 0.000000 0.782191
O O11 0.801117 0.427008 0.500000
O O12 0.738974 0.615343 0.639391
#
# Coordination Sequence:
#
# PCOD8226304 Si02
#       5
#     4   4   8   8   8
#     4  12  24  34  48  76 118 152 176 204 259 336
#     4  10  20  36  56  80 110 148 190 232 270 310
#     4  12  22  37  55  83 111 151 186 225 278 334
#     4  11  22  36  57  82 116 148 187 227 272 333
#     4  10  21  38  58  78 106 143 191 243 278 315
#
# _framework density 18.721162
#
# number of rings (size 3 to 8) (size 9 to 14) (size 15 to 20)
#    0.000    1.000    1.250    9.000    0.000    0.000 
#    0.000    0.000    0.000    0.000    0.000   17.500 
#    0.000    0.000    0.000    0.000    0.000    0.000 
#
# Total GULP energy -396846.028935 kJ/mol
# GULP energy per Si atom -12401.438404 kJ/mol
# Density = 1.867855 g / cm^3
# Si number density = 18.721162 Si / 1000 Ang^3
#
#
#
# Elastic Constant Matrix: (Units=GPa)
#
#
# Indices 1 2 3 4 5 6 
#
# 1 86.9173 30.3701 48.9796 0.0000 0.0000 0.0000
# 2 30.3701 129.1965 37.3739 0.0000 0.0000 0.0000
# 3 48.9796 37.3739 93.2264 0.0000 0.0000 0.0000
# 4 0.0000 0.0000 0.0000 26.5749 0.0000 0.0000
# 5 0.0000 0.0000 0.0000 0.0000 15.8354 0.0000
# 6 0.0000 0.0000 0.0000 0.0000 0.0000 19.2911
#
#
#
# Elastic Compliance Matrix: (Units=1/GPa)
#
#
# Indices 1 2 3 4 5 6 
#
# 1 0.016618 -0.001562 -0.008105 0.000000 0.000000 0.000000
# 2 -0.001562 0.008902 -0.002748 0.000000 0.000000 0.000000
# 3 -0.008105 -0.002748 0.016086 0.000000 0.000000 0.000000
# 4 0.000000 0.000000 0.000000 0.037629 0.000000 0.000000
# 5 0.000000 0.000000 0.000000 0.000000 0.063150 0.000000
# 6 0.000000 0.000000 0.000000 0.000000 0.000000 0.051837
#
#
# Mechanical properties :
#
#
# Convention : Reuss Voigt Hill
#
# Bulk Modulus (GPa) = 59.60521 60.30971 59.95746
# Shear Modulus (GPa) = 22.25728 25.18139 23.71934
#
# Velocity S-wave (km/s) = 3.45176 3.67151 3.56333
# Velocity P-wave (km/s) = 6.91330 7.08928 7.00185
#
# Compressibility (1/GPa) = 0.01677706
#
# Stress axis : x y z
#
# Youngs Moduli (GPa) = 60.17539 112.33026 62.16415
#
# Poissons Ratio (x) = 0.17545 0.50382
# Poissons Ratio (y) = 0.09399 0.17085
# Poissons Ratio (z) = 0.48770 0.30872
#
# Static dielectric constant tensor:
#      x y z
#    x 3.189620 0.000000 0.000000 
#    y 0.000000 3.587550 0.000000 
#    z 0.000000 0.000000 3.276980 
# 
# 
# High freq. dielectric constant tensor:
#      x y z
#    x 1.699430 0.000000 0.000000 
#    y 0.000000 1.754130 0.000000 
#    z 0.000000 0.000000 1.715880 
# 
# From -- ./inp_files/19193.got.cif
#   From: 2010.03.12/outbox.cif.g09.slc.cpg/sg55_10_cif.got.tgz:19193.got - 2010.04.16 15:19:21.
