data_PCOD8226796
_publ_section_title
;
Structure prediction by ZEFSAII (Michael W. Deem and Ramdas Pophale) SiO2 
 PCOD8226796
Probable space group: P B A M
;
_chemical_formula_sum "Si O2"
_cell_formula_units_Z 40
_cell_length_a 9.196425
_cell_length_b 27.451983
_cell_length_c 7.796890
_cell_angle_alpha 90.000000
_cell_angle_beta 90.000000
_cell_angle_gamma 90.000000
_cell_volume 1968.403651
_symmetry_space_group_name_H-M "P B A M"
_symmetry_group_IT_number 55
_symmetry_cell_setting 'orthorhombic'
loop_
_space_group_symop_operation_xyz
x,y,z
-x,-y,z
1/2+x,1/2-y,-z
1/2-x,1/2+y,-z
-x,-y,-z
x,y,-z
1/2-x,1/2+y,z
1/2+x,1/2-y,z
loop_
_atom_site_type_symbol
_atom_site_label
_atom_site_fract_x
_atom_site_fract_y
_atom_site_fract_z
Si Si1 0.127156 0.538022 0.688903
Si Si2 0.812411 0.297309 0.000000
Si Si3 0.038595 0.645089 0.696660
Si Si4 0.134587 0.974088 0.192166
Si Si5 0.462875 0.306236 0.000000
Si Si6 0.731787 0.627460 0.190192
O O1 0.197555 0.543817 0.500000
O O2 0.242601 0.515313 0.818324
O O3 0.000000 0.500000 0.678454
O O4 0.071160 0.589899 0.754790
O O5 0.871428 0.321202 0.174454
O O6 0.871910 0.243087 0.000000
O O7 0.636115 0.298522 0.000000
O O8 0.085796 0.656074 0.500000
O O9 0.863815 0.653140 0.707883
O O10 0.183917 0.923377 0.283329
O O11 0.085953 0.959432 0.000000
O O12 0.000000 0.000000 0.289580
O O13 0.408291 0.336324 0.830006
O O14 0.794367 0.615186 0.000000
#
# Coordination Sequence:
#
# PCOD8226796 Si02
#       6
#     8   4   8   8   4   8
#     4  10  21  35  53  84 124 167 207 246 293 357
#     4  12  24  46  72  90 126 162 202 269 329 377
#     4  11  23  39  65  98 129 167 217 260 311 379
#     4  10  21  32  55  88 125 164 209 250 301 369
#     4  10  24  44  72  94 120 163 208 259 329 392
#     4   9  19  39  61  92 124 167 208 257 318 365
#
# _framework density 20.321034999999998
#
# number of rings (size 3 to 8) (size 9 to 14) (size 15 to 20)
#    0.600    1.200    3.000    1.200    4.200    0.800 
#    0.000    5.000    0.000    0.000    0.000    0.000 
#    0.000    0.000    0.000    0.000    0.000    0.000 
#
# Total GULP energy -495549.885397 kJ/mol
# GULP energy per Si atom -12388.747135 kJ/mol
# Density = 2.027478 g / cm^3
# Si number density = 20.321035 Si / 1000 Ang^3
#
#
#
# Elastic Constant Matrix: (Units=GPa)
#
#
# Indices 1 2 3 4 5 6 
#
# 1 154.0005 59.7678 30.7477 0.0000 0.0000 0.0000
# 2 59.7678 110.3626 31.1252 0.0000 0.0000 0.0000
# 3 30.7477 31.1252 64.5545 0.0000 0.0000 0.0000
# 4 0.0000 0.0000 0.0000 4.1075 0.0000 0.0000
# 5 0.0000 0.0000 0.0000 0.0000 10.1154 0.0000
# 6 0.0000 0.0000 0.0000 0.0000 0.0000 39.8678
#
#
#
# Elastic Compliance Matrix: (Units=1/GPa)
#
#
# Indices 1 2 3 4 5 6 
#
# 1 0.008462 -0.003988 -0.002108 0.000000 0.000000 0.000000
# 2 -0.003988 0.012367 -0.004063 0.000000 0.000000 0.000000
# 3 -0.002108 -0.004063 0.018454 0.000000 0.000000 0.000000
# 4 0.000000 0.000000 0.000000 0.243455 0.000000 0.000000
# 5 0.000000 0.000000 0.000000 0.000000 0.098859 0.000000
# 6 0.000000 0.000000 0.000000 0.000000 0.000000 0.025083
#
#
# Mechanical properties :
#
#
# Convention : Reuss Voigt Hill
#
# Bulk Modulus (GPa) = 52.72953 63.57766 58.15359
# Shear Modulus (GPa) = 11.53883 24.63660 18.08772
#
# Velocity S-wave (km/s) = 2.38550 3.48569 2.98669
# Velocity P-wave (km/s) = 5.79586 6.89598 6.36972
#
# Compressibility (1/GPa) = 0.01896471
#
# Stress axis : x y z
#
# Youngs Moduli (GPa) = 118.17293 80.86123 54.18977
#
# Poissons Ratio (x) = 0.32250 0.11421
# Poissons Ratio (y) = 0.47132 0.22018
# Poissons Ratio (z) = 0.24906 0.32854
#
# Static dielectric constant tensor:
#      x y z
#    x 3.552550 0.000000 0.000000 
#    y 0.000000 3.478290 0.000000 
#    z 0.000000 0.000000 3.508550 
# 
# 
# High freq. dielectric constant tensor:
#      x y z
#    x 1.793150 0.000000 0.000000 
#    y 0.000000 1.792970 0.000000 
#    z 0.000000 0.000000 1.765480 
# 
# From -- ./inp_files/2549.got.cif
#   From: 2010.03.12/outbox.cif.g09.slc.cpg/sg55_2_cif.got.tgz:2549.got - 2010.04.16 15:19:21.
