data_PCOD8226509
_publ_section_title
;
Structure prediction by ZEFSAII (Michael W. Deem and Ramdas Pophale) SiO2 
 PCOD8226509
Probable space group: P B A M
;
_chemical_formula_sum "Si O2"
_cell_formula_units_Z 32
_cell_length_a 15.150157
_cell_length_b 9.005048
_cell_length_c 13.397845
_cell_angle_alpha 90.000000
_cell_angle_beta 90.000000
_cell_angle_gamma 90.000000
_cell_volume 1827.839737
_symmetry_space_group_name_H-M "P B A M"
_symmetry_group_IT_number 55
_symmetry_cell_setting 'orthorhombic'
loop_
_space_group_symop_operation_xyz
x,y,z
-x,-y,z
1/2+x,1/2-y,-z
1/2-x,1/2+y,-z
-x,-y,-z
x,y,-z
1/2-x,1/2+y,z
1/2+x,1/2-y,z
loop_
_atom_site_type_symbol
_atom_site_label
_atom_site_fract_x
_atom_site_fract_y
_atom_site_fract_z
Si Si1 0.003164 0.830103 0.383696
Si Si2 0.835725 0.334023 0.295261
Si Si3 0.104280 0.515644 0.888388
Si Si4 0.156450 0.337184 0.715907
O O1 0.982081 0.816121 0.500000
O O2 0.931237 0.738653 0.323655
O O3 0.099533 0.765626 0.360899
O O4 0.000000 0.000000 0.348101
O O5 0.868322 0.340968 0.179067
O O6 0.738914 0.266853 0.304209
O O7 0.832392 0.502458 0.338920
O O8 0.144730 0.368273 0.835010
O O9 0.000000 0.500000 0.891508
O O10 0.143068 0.532024 0.000000
#
# Coordination Sequence:
#
# PCOD8226509 Si02
#       4
#     8   8   8   8
#     4  11  23  39  59  82 110 148 195 239 285 337
#     4  10  20  37  58  85 114 153 183 233 280 330
#     4   9  18  36  60  85 114 151 189 226 283 331
#     4  10  20  37  58  85 114 153 183 233 280 330
#
# _framework density 17.507004999999999
#
# number of rings (size 3 to 8) (size 9 to 14) (size 15 to 20)
#    1.500    0.500    2.500    2.250    0.000    4.000 
#    0.000    0.000    0.000    1.500    0.000    0.000 
#    0.000    0.000    0.000    0.000    0.000    0.000 
#
# Total GULP energy -396539.758344 kJ/mol
# GULP energy per Si atom -12391.867448 kJ/mol
# Density = 1.746716 g / cm^3
# Si number density = 17.507005 Si / 1000 Ang^3
#
#
#
# Elastic Constant Matrix: (Units=GPa)
#
#
# Indices 1 2 3 4 5 6 
#
# 1 71.6260 16.1662 -1.6641 0.0000 0.0000 0.0000
# 2 16.1662 99.8430 19.0289 0.0000 0.0000 0.0000
# 3 -1.6641 19.0289 49.9777 0.0000 0.0000 0.0000
# 4 0.0000 0.0000 0.0000 -17.4025 0.0000 0.0000
# 5 0.0000 0.0000 0.0000 0.0000 3.3449 0.0000
# 6 0.0000 0.0000 0.0000 0.0000 0.0000 38.6263
#
#
#
# Elastic Compliance Matrix: (Units=1/GPa)
#
#
# Indices 1 2 3 4 5 6 
#
# 1 0.014594 -0.002648 0.001494 0.000000 0.000000 0.000000
# 2 -0.002648 0.011280 -0.004383 0.000000 0.000000 0.000000
# 3 0.001494 -0.004383 0.021727 0.000000 0.000000 0.000000
# 4 0.000000 0.000000 0.000000 -0.057463 0.000000 0.000000
# 5 0.000000 0.000000 0.000000 0.000000 0.298962 0.000000
# 6 0.000000 0.000000 0.000000 0.000000 0.000000 0.025889
#
#
# Mechanical properties :
#
#
# Convention : Reuss Voigt Hill
#
# Bulk Modulus (GPa) = 27.37643 32.05652 29.71647
# Shear Modulus (GPa) = 14.78249 17.44145 16.11197
#
# Velocity S-wave (km/s) = 2.90897 3.15978 3.03696
# Velocity P-wave (km/s) = 5.19174 5.62696 5.41372
#
# Compressibility (1/GPa) = 0.03652778
#
# Stress axis : x y z
#
# Youngs Moduli (GPa) = 68.52263 88.65429 46.02473
#
# Poissons Ratio (x) = 0.23473 -0.06876
# Poissons Ratio (y) = 0.18143 0.20172
# Poissons Ratio (z) = -0.10238 0.38856
#
# Static dielectric constant tensor:
#      x y z
#    x 3.161670 0.000000 0.000000 
#    y 0.000000 3.248070 0.000000 
#    z 0.000000 0.000000 3.282820 
# 
# 
# High freq. dielectric constant tensor:
#      x y z
#    x 1.683920 0.000000 0.000000 
#    y 0.000000 1.671860 0.000000 
#    z 0.000000 0.000000 1.663890 
# 
# From -- ./inp_files/13758.got.cif
#   From: 2010.03.12/outbox.cif.g09.slc.cpg/sg55_7_cif.got.tgz:13758.got - 2010.04.16 15:19:21.
