data_PCOD8226199
_publ_section_title
;
Structure prediction by ZEFSAII (Michael W. Deem and Ramdas Pophale) SiO2 
 PCOD8226199
Probable space group: P B A M
;
_chemical_formula_sum "Si O2"
_cell_formula_units_Z 64
_cell_length_a 28.491809
_cell_length_b 9.406496
_cell_length_c 13.594393
_cell_angle_alpha 90.000000
_cell_angle_beta 90.000000
_cell_angle_gamma 90.000000
_cell_volume 3643.407267
_symmetry_space_group_name_H-M "P B A M"
_symmetry_group_IT_number 55
_symmetry_cell_setting 'orthorhombic'
loop_
_space_group_symop_operation_xyz
x,y,z
-x,-y,z
1/2+x,1/2-y,-z
1/2-x,1/2+y,-z
-x,-y,-z
x,y,-z
1/2-x,1/2+y,z
1/2+x,1/2-y,z
loop_
_atom_site_type_symbol
_atom_site_label
_atom_site_fract_x
_atom_site_fract_y
_atom_site_fract_z
Si Si1 0.067668 0.116206 0.388435
Si Si2 0.787520 0.312770 0.116218
Si Si3 0.539273 0.889052 0.216123
Si Si4 0.516942 0.352167 0.114880
Si Si5 0.962210 0.199384 0.388625
Si Si6 0.618266 0.311920 0.799964
Si Si7 0.870721 0.516438 0.882699
Si Si8 0.199021 0.008453 0.882597
O O1 0.080648 0.158886 0.500000
O O2 0.107287 0.180786 0.316748
O O3 0.016830 0.178454 0.359194
O O4 0.066366 0.946306 0.377538
O O5 0.832949 0.399975 0.151382
O O6 0.740795 0.390010 0.155648
O O7 0.790314 0.151351 0.154724
O O8 0.785440 0.312452 0.000000
O O9 0.518124 0.770589 0.145915
O O10 0.559606 0.816788 0.315579
O O11 0.500000 0.000000 0.249349
O O12 0.578798 0.968610 0.154748
O O13 0.500000 0.500000 0.164970
O O14 0.570091 0.321089 0.141459
O O15 0.512852 0.365511 0.000000
O O16 0.958239 0.255538 0.500000
O O17 0.643230 0.164388 0.830057
O O18 0.651176 0.442292 0.831208
O O19 0.871192 0.538218 0.000000
O O20 0.192977 0.014206 0.000000
#
# Coordination Sequence:
#
# PCOD8226199 Si02
#       8
#     8   8   8   8   8   8   8   8
#     4   9  18  34  55  78 103 136 182 235 281 318
#     4   9  20  37  55  79 109 143 179 224 270 313
#     4  12  22  34  50  75 109 152 185 220 268 323
#     4  11  23  34  47  71 108 147 186 221 255 315
#     4   9  18  34  54  74 102 140 185 236 278 314
#     4  12  21  34  55  80 104 144 184 225 270 328
#     4  11  23  36  51  75 115 154 184 221 265 321
#     4  10  20  35  57  82 108 138 178 224 268 321
#
# _framework density 17.565974000000001
#
# number of rings (size 3 to 8) (size 9 to 14) (size 15 to 20)
#    0.000    1.625    2.500    3.750    3.500    2.750 
#    0.000    0.625    0.000    0.000    0.000    4.375 
#    0.000    0.000    0.000    0.000    0.000    0.000 
#
# Total GULP energy -793681.995522 kJ/mol
# GULP energy per Si atom -12401.281180 kJ/mol
# Density = 1.752599 g / cm^3
# Si number density = 17.565974 Si / 1000 Ang^3
#
#
#
# Elastic Constant Matrix: (Units=GPa)
#
#
# Indices 1 2 3 4 5 6 
#
# 1 62.6554 30.8195 25.9199 0.0000 0.0000 0.0000
# 2 30.8195 100.5330 31.2975 0.0000 0.0000 0.0000
# 3 25.9199 31.2975 80.2904 0.0000 0.0000 0.0000
# 4 0.0000 0.0000 0.0000 23.1981 0.0000 0.0000
# 5 0.0000 0.0000 0.0000 0.0000 10.6793 0.0000
# 6 0.0000 0.0000 0.0000 0.0000 0.0000 33.2644
#
#
#
# Elastic Compliance Matrix: (Units=1/GPa)
#
#
# Indices 1 2 3 4 5 6 
#
# 1 0.020231 -0.004745 -0.004682 0.000000 0.000000 0.000000
# 2 -0.004745 0.012433 -0.003315 0.000000 0.000000 0.000000
# 3 -0.004682 -0.003315 0.015258 0.000000 0.000000 0.000000
# 4 0.000000 0.000000 0.000000 0.043107 0.000000 0.000000
# 5 0.000000 0.000000 0.000000 0.000000 0.093639 0.000000
# 6 0.000000 0.000000 0.000000 0.000000 0.000000 0.030062
#
#
# Mechanical properties :
#
#
# Convention : Reuss Voigt Hill
#
# Bulk Modulus (GPa) = 44.56244 46.61696 45.58970
# Shear Modulus (GPa) = 20.18625 23.79114 21.98870
#
# Velocity S-wave (km/s) = 3.39362 3.68419 3.54189
# Velocity P-wave (km/s) = 6.38586 6.68532 6.53731
#
# Compressibility (1/GPa) = 0.02244042
#
# Stress axis : x y z
#
# Youngs Moduli (GPa) = 49.42947 80.42806 65.53791
#
# Poissons Ratio (x) = 0.38159 0.30682
# Poissons Ratio (y) = 0.23452 0.21726
# Poissons Ratio (z) = 0.23141 0.26662
#
# Static dielectric constant tensor:
#      x y z
#    x 3.114660 0.000000 0.000000 
#    y 0.000000 3.453390 0.000000 
#    z 0.000000 0.000000 3.158190 
# 
# 
# High freq. dielectric constant tensor:
#      x y z
#    x 1.657470 0.000000 0.000000 
#    y 0.000000 1.694550 0.000000 
#    z 0.000000 0.000000 1.658790 
# 
# From -- ./inp_files/20220.got.cif
#   From: 2010.03.12/outbox.cif.g09.slc.cpg/sg55_11_cif.got.tgz:20220.got - 2010.04.16 15:19:21.
