data_PCOD8226354
_publ_section_title
;
Structure prediction by ZEFSAII (Michael W. Deem and Ramdas Pophale) SiO2 
 PCOD8226354
Probable space group: P B A M
;
_chemical_formula_sum "Si O2"
_cell_formula_units_Z 64
_cell_length_a 15.066591
_cell_length_b 24.464495
_cell_length_c 9.267837
_cell_angle_alpha 90.000000
_cell_angle_beta 90.000000
_cell_angle_gamma 90.000000
_cell_volume 3416.092653
_symmetry_space_group_name_H-M "P B A M"
_symmetry_group_IT_number 55
_symmetry_cell_setting 'orthorhombic'
loop_
_space_group_symop_operation_xyz
x,y,z
-x,-y,z
1/2+x,1/2-y,-z
1/2-x,1/2+y,-z
-x,-y,-z
x,y,-z
1/2-x,1/2+y,z
1/2+x,1/2-y,z
loop_
_atom_site_type_symbol
_atom_site_label
_atom_site_fract_x
_atom_site_fract_y
_atom_site_fract_z
Si Si1 0.524373 0.772182 0.837835
Si Si2 0.305543 0.655110 0.665074
Si Si3 0.330101 0.365128 0.169255
Si Si4 0.686365 0.045150 0.167653
Si Si5 0.002964 0.835145 0.333865
Si Si6 0.994944 0.606303 0.832532
Si Si7 0.275070 0.247396 0.162077
Si Si8 0.833698 0.434774 0.671861
O O1 0.493982 0.726230 0.726704
O O2 0.479281 0.829813 0.797050
O O3 0.629699 0.781773 0.829011
O O4 0.497747 0.753954 0.000000
O O5 0.282398 0.666718 0.500000
O O6 0.407395 0.635662 0.684206
O O7 0.293778 0.712703 0.745373
O O8 0.240198 0.608485 0.725364
O O9 0.268746 0.416088 0.207152
O O10 0.424271 0.371197 0.249850
O O11 0.282092 0.309372 0.221586
O O12 0.350672 0.360231 0.000000
O O13 0.595467 0.075680 0.205368
O O14 0.696998 0.992697 0.266956
O O15 0.688460 0.028370 0.000000
O O16 0.031391 0.831242 0.500000
O O17 0.070755 0.580719 0.733791
O O18 0.021608 0.598532 0.000000
O O19 0.237741 0.248438 0.000000
O O20 0.839484 0.437944 0.500000
#
# Coordination Sequence:
#
# PCOD8226354 Si02
#       8
#     8   8   8   8   8   8   8   8
#     4   9  18  33  54  82 113 144 180 221 271 330
#     4  10  22  37  53  79 114 150 186 226 275 328
#     4   9  20  39  58  82 112 143 184 236 283 329
#     4  10  22  39  60  82 110 147 189 235 283 334
#     4  10  21  36  55  80 113 150 185 226 278 333
#     4  10  20  36  58  83 112 148 184 223 275 334
#     4   9  17  31  55  82 108 140 179 223 271 326
#     4  11  23  39  57  80 115 150 188 234 276 327
#
# _framework density 18.734856000000001
#
# number of rings (size 3 to 8) (size 9 to 14) (size 15 to 20)
#    0.000    2.250    1.250    1.875    1.750    6.500 
#    0.000    0.625    0.000    3.750    0.000    0.000 
#    0.000    0.000    0.000    0.000    0.000    0.000 
#
# Total GULP energy -793679.431603 kJ/mol
# GULP energy per Si atom -12401.241119 kJ/mol
# Density = 1.869221 g / cm^3
# Si number density = 18.734856 Si / 1000 Ang^3
#
#
#
# Elastic Constant Matrix: (Units=GPa)
#
#
# Indices 1 2 3 4 5 6 
#
# 1 91.1820 27.5858 39.0460 0.0000 0.0000 0.0000
# 2 27.5858 58.7358 28.0168 0.0000 0.0000 0.0000
# 3 39.0460 28.0168 65.6961 0.0000 0.0000 0.0000
# 4 0.0000 0.0000 0.0000 23.1625 0.0000 0.0000
# 5 0.0000 0.0000 0.0000 0.0000 27.4229 0.0000
# 6 0.0000 0.0000 0.0000 0.0000 0.0000 19.3650
#
#
#
# Elastic Compliance Matrix: (Units=1/GPa)
#
#
# Indices 1 2 3 4 5 6 
#
# 1 0.015286 -0.003572 -0.007562 0.000000 0.000000 0.000000
# 2 -0.003572 0.022208 -0.007348 0.000000 0.000000 0.000000
# 3 -0.007562 -0.007348 0.022849 0.000000 0.000000 0.000000
# 4 0.000000 0.000000 0.000000 0.043173 0.000000 0.000000
# 5 0.000000 0.000000 0.000000 0.000000 0.036466 0.000000
# 6 0.000000 0.000000 0.000000 0.000000 0.000000 0.051639
#
#
# Mechanical properties :
#
#
# Convention : Reuss Voigt Hill
#
# Bulk Modulus (GPa) = 42.77159 44.99012 43.88085
# Shear Modulus (GPa) = 21.15255 22.05443 21.60349
#
# Velocity S-wave (km/s) = 3.36378 3.43474 3.39944
# Velocity P-wave (km/s) = 6.16167 6.30842 6.23548
#
# Compressibility (1/GPa) = 0.02338001
#
# Stress axis : x y z
#
# Youngs Moduli (GPa) = 65.42003 45.02887 43.76503
#
# Poissons Ratio (x) = 0.16086 0.33093
# Poissons Ratio (y) = 0.23370 0.32157
# Poissons Ratio (z) = 0.49468 0.33086
#
# Static dielectric constant tensor:
#      x y z
#    x 3.421470 0.000000 0.000000 
#    y 0.000000 3.378720 0.000000 
#    z 0.000000 0.000000 3.365730 
# 
# 
# High freq. dielectric constant tensor:
#      x y z
#    x 1.729850 0.000000 0.000000 
#    y 0.000000 1.718180 0.000000 
#    z 0.000000 0.000000 1.721690 
# 
# From -- ./inp_files/6560.got.cif
#   From: 2010.03.12/outbox.cif.g09.slc.cpg/sg55_4_cif.got.tgz:6560.got - 2010.04.16 15:19:21.
