data_PCOD8226459
_publ_section_title
;
Structure prediction by ZEFSAII (Michael W. Deem and Ramdas Pophale) SiO2 
 PCOD8226459
Probable space group: P B A M
;
_chemical_formula_sum "Si O2"
_cell_formula_units_Z 40
_cell_length_a 27.669168
_cell_length_b 8.126881
_cell_length_c 7.843983
_cell_angle_alpha 90.000000
_cell_angle_beta 90.000000
_cell_angle_gamma 90.000000
_cell_volume 1763.829673
_symmetry_space_group_name_H-M "P B A M"
_symmetry_group_IT_number 55
_symmetry_cell_setting 'orthorhombic'
loop_
_space_group_symop_operation_xyz
x,y,z
-x,-y,z
1/2+x,1/2-y,-z
1/2-x,1/2+y,-z
-x,-y,-z
x,y,-z
1/2-x,1/2+y,z
1/2+x,1/2-y,z
loop_
_atom_site_type_symbol
_atom_site_label
_atom_site_fract_x
_atom_site_fract_y
_atom_site_fract_z
Si Si1 0.721116 0.141317 0.000000
Si Si2 0.178882 0.998421 0.000000
Si Si3 0.374372 0.358550 0.689530
Si Si4 0.030063 0.743319 0.807239
Si Si5 0.336358 0.993742 0.310182
Si Si6 0.431656 0.875535 0.807200
O O1 0.779194 0.139436 0.000000
O O2 0.703512 0.050990 0.171329
O O3 0.704533 0.327442 0.000000
O O4 0.146303 0.982774 0.169556
O O5 0.359504 0.417939 0.500000
O O6 0.433084 0.354649 0.698386
O O7 0.353656 0.178059 0.728855
O O8 0.047504 0.557326 0.802347
O O9 0.974216 0.747118 0.738212
O O10 0.030883 0.809690 0.000000
O O11 0.313903 0.979043 0.500000
O O12 0.382435 0.869017 0.301743
O O13 0.417420 0.826887 0.000000
#
# Coordination Sequence:
#
# PCOD8226459 Si02
#       6
#     4   4   8   8   8   8
#     4  12  26  44  65  84 111 149 190 243 297 354
#     4  12  26  44  65  84 111 149 190 243 297 354
#     4  10  20  36  61  91 122 154 192 239 288 341
#     4   8  13  24  48  83 121 157 192 232 276 325
#     4  10  20  36  61  91 122 154 192 239 288 341
#     4   8  13  24  48  83 121 157 192 232 276 325
#
# _framework density 22.677927
#
# number of rings (size 3 to 8) (size 9 to 14) (size 15 to 20)
#    0.000    2.400    2.000    3.000    0.000    2.400 
#    0.000    4.000    0.000    2.400    0.000    2.800 
#    0.000    0.000    0.000    0.000    0.000    0.000 
#
# Total GULP energy -495688.817713 kJ/mol
# GULP energy per Si atom -12392.220443 kJ/mol
# Density = 2.262631 g / cm^3
# Si number density = 22.677927 Si / 1000 Ang^3
#
#
#
# Elastic Constant Matrix: (Units=GPa)
#
#
# Indices 1 2 3 4 5 6 
#
# 1 19.2029 -23.9838 3.8097 0.0000 0.0000 0.0000
# 2 -23.9838 29.0392 7.2908 0.0000 0.0000 0.0000
# 3 3.8097 7.2908 109.3595 0.0000 0.0000 0.0000
# 4 0.0000 0.0000 0.0000 13.5143 0.0000 0.0000
# 5 0.0000 0.0000 0.0000 0.0000 16.3066 0.0000
# 6 0.0000 0.0000 0.0000 0.0000 0.0000 14.2226
#
#
#
# Elastic Compliance Matrix: (Units=1/GPa)
#
#
# Indices 1 2 3 4 5 6 
#
# 1 -0.664684 -0.564229 0.060771 0.000000 0.000000 0.000000
# 2 -0.564229 -0.443933 0.049252 0.000000 0.000000 0.000000
# 3 0.060771 0.049252 0.003744 0.000000 0.000000 0.000000
# 4 0.000000 0.000000 0.000000 0.073996 0.000000 0.000000
# 5 0.000000 0.000000 0.000000 0.000000 0.061325 0.000000
# 6 0.000000 0.000000 0.000000 0.000000 0.000000 0.070310
#
#
# Mechanical properties :
#
#
# Convention : Reuss Voigt Hill
#
# Bulk Modulus (GPa) = -0.49670 14.64833 7.07581
# Shear Modulus (GPa) = -7.55371 20.17435 6.31032
#
# Velocity S-wave (km/s) = -1.82705 2.98586 1.66992
# Velocity P-wave (km/s) = 2.16109 4.28491 2.61631
#
# Compressibility (1/GPa) = -2.01328484
#
# Stress axis : x y z
#
# Youngs Moduli (GPa) = -1.50447 -2.25259 267.12548
#
# Poissons Ratio (x) = -1.27098 -16.23357
# Poissons Ratio (y) = -0.84887 -13.15645
# Poissons Ratio (z) = 0.09143 0.11094
#
# Static dielectric constant tensor:
#      x y z
#    x 4.455710 0.000000 0.000000 
#    y 0.000000 3.593300 0.000000 
#    z 0.000000 0.000000 3.952350 
# 
# 
# High freq. dielectric constant tensor:
#      x y z
#    x 1.895430 0.000000 0.000000 
#    y 0.000000 1.855660 0.000000 
#    z 0.000000 0.000000 1.881250 
# 
# From -- ./inp_files/10394.got.cif
#   From: 2010.03.12/outbox.cif.g09.slc.cpg/sg55_6_cif.got.tgz:10394.got - 2010.04.16 15:19:21.
