data_PCOD8226414
_publ_section_title
;
Structure prediction by ZEFSAII (Michael W. Deem and Ramdas Pophale) SiO2 
 PCOD8226414
Probable space group: P B A M
;
_chemical_formula_sum "Si O2"
_cell_formula_units_Z 64
_cell_length_a 11.735660
_cell_length_b 18.882721
_cell_length_c 14.063971
_cell_angle_alpha 90.000000
_cell_angle_beta 90.000000
_cell_angle_gamma 90.000000
_cell_volume 3116.592759
_symmetry_space_group_name_H-M "P B A M"
_symmetry_group_IT_number 55
_symmetry_cell_setting 'orthorhombic'
loop_
_space_group_symop_operation_xyz
x,y,z
-x,-y,z
1/2+x,1/2-y,-z
1/2-x,1/2+y,-z
-x,-y,-z
x,y,-z
1/2-x,1/2+y,z
1/2+x,1/2-y,z
loop_
_atom_site_type_symbol
_atom_site_label
_atom_site_fract_x
_atom_site_fract_y
_atom_site_fract_z
Si Si1 0.260438 0.382545 0.739025
Si Si2 0.966711 0.786254 0.896312
Si Si3 0.873036 0.011681 0.388442
Si Si4 0.079231 0.935358 0.108715
Si Si5 0.000027 0.582777 0.735520
Si Si6 0.286646 0.119318 0.387123
Si Si7 0.221782 0.225960 0.757363
Si Si8 0.621196 0.843922 0.895311
O O1 0.326605 0.413340 0.648443
O O2 0.304474 0.428281 0.829882
O O3 0.291824 0.299462 0.750004
O O4 0.126356 0.388183 0.719581
O O5 0.899728 0.756669 0.804385
O O6 0.005383 0.865536 0.876376
O O7 0.073495 0.734966 0.904959
O O8 0.901527 0.783084 0.000000
O O9 0.879560 0.017667 0.500000
O O10 0.787121 0.949168 0.357535
O O11 0.000000 0.000000 0.346461
O O12 0.117669 0.946566 0.000000
O O13 0.000000 0.000000 0.143890
O O14 0.086804 0.616592 0.658445
O O15 0.036448 0.601622 0.843154
O O16 0.000000 0.500000 0.719800
O O17 0.297927 0.127365 0.500000
O O18 0.220451 0.188533 0.345966
O O19 0.267718 0.166218 0.830900
O O20 0.649991 0.874872 0.000000
#
# Coordination Sequence:
#
# PCOD8226414 Si02
#       8
#     8   8   8   8   8   8   8   8
#     4  12  23  38  64  91 124 162 207 260 304 365
#     4  10  20  36  59  87 123 166 205 247 302 364
#     4  10  23  43  68  95 118 153 202 257 325 380
#     4  10  23  39  60  93 128 166 210 257 311 363
#     4  11  23  41  63  94 123 167 212 253 309 370
#     4  10  24  45  66  90 126 164 204 259 318 381
#     4  11  23  37  62  91 124 160 212 255 312 364
#     4  10  21  38  58  87 125 165 208 252 301 360
#
# _framework density 20.535246000000001
#
# number of rings (size 3 to 8) (size 9 to 14) (size 15 to 20)
#    0.000    1.500    3.750    0.750    3.500    2.500 
#    0.000    1.250    0.000    0.000    0.000    0.000 
#    0.000    0.000    0.000    0.000    0.000    0.000 
#
# Total GULP energy -793354.736046 kJ/mol
# GULP energy per Si atom -12396.167751 kJ/mol
# Density = 2.048851 g / cm^3
# Si number density = 20.535246 Si / 1000 Ang^3
#
#
#
# Elastic Constant Matrix: (Units=GPa)
#
#
# Indices 1 2 3 4 5 6 
#
# 1 95.8020 7.0996 39.2242 0.0000 0.0000 0.0000
# 2 7.0996 54.5310 36.8621 0.0000 0.0000 0.0000
# 3 39.2242 36.8621 97.9828 0.0000 0.0000 0.0000
# 4 0.0000 0.0000 0.0000 29.8169 0.0000 0.0000
# 5 0.0000 0.0000 0.0000 0.0000 30.3221 0.0000
# 6 0.0000 0.0000 0.0000 0.0000 0.0000 26.2654
#
#
#
# Elastic Compliance Matrix: (Units=1/GPa)
#
#
# Indices 1 2 3 4 5 6 
#
# 1 0.012713 0.002394 -0.005990 0.000000 0.000000 0.000000
# 2 0.002394 0.025043 -0.010380 0.000000 0.000000 0.000000
# 3 -0.005990 -0.010380 0.016509 0.000000 0.000000 0.000000
# 4 0.000000 0.000000 0.000000 0.033538 0.000000 0.000000
# 5 0.000000 0.000000 0.000000 0.000000 0.032979 0.000000
# 6 0.000000 0.000000 0.000000 0.000000 0.000000 0.038073
#
#
# Mechanical properties :
#
#
# Convention : Reuss Voigt Hill
#
# Bulk Modulus (GPa) = 38.00336 46.07639 42.03987
# Shear Modulus (GPa) = 25.56522 28.28953 26.92737
#
# Velocity S-wave (km/s) = 3.53220 3.71564 3.62508
# Velocity P-wave (km/s) = 5.93143 6.39487 6.16751
#
# Compressibility (1/GPa) = 0.02631347
#
# Stress axis : x y z
#
# Youngs Moduli (GPa) = 78.65810 39.93112 60.57396
#
# Poissons Ratio (x) = -0.09559 0.36284
# Poissons Ratio (y) = -0.18830 0.62875
# Poissons Ratio (z) = 0.47116 0.41448
#
# Static dielectric constant tensor:
#      x y z
#    x 3.709020 0.000000 0.000000 
#    y 0.000000 3.718960 0.000000 
#    z 0.000000 0.000000 3.835260 
# 
# 
# High freq. dielectric constant tensor:
#      x y z
#    x 1.796380 0.000000 0.000000 
#    y 0.000000 1.804080 0.000000 
#    z 0.000000 0.000000 1.804510 
# 
# From -- ./inp_files/18581.got.cif
#   From: 2010.03.12/outbox.cif.g09.slc.cpg/sg55_10_cif.got.tgz:18581.got - 2010.04.16 15:19:21.
