data_PCOD8226458
_publ_section_title
;
Structure prediction by ZEFSAII (Michael W. Deem and Ramdas Pophale) SiO2 
 PCOD8226458
Probable space group: P B A M
;
_chemical_formula_sum "Si O2"
_cell_formula_units_Z 56
_cell_length_a 12.475366
_cell_length_b 10.697331
_cell_length_c 21.071586
_cell_angle_alpha 90.000000
_cell_angle_beta 90.000000
_cell_angle_gamma 90.000000
_cell_volume 2812.068883
_symmetry_space_group_name_H-M "P B A M"
_symmetry_group_IT_number 55
_symmetry_cell_setting 'orthorhombic'
loop_
_space_group_symop_operation_xyz
x,y,z
-x,-y,z
1/2+x,1/2-y,-z
1/2-x,1/2+y,-z
-x,-y,-z
x,y,-z
1/2-x,1/2+y,z
1/2+x,1/2-y,z
loop_
_atom_site_type_symbol
_atom_site_label
_atom_site_fract_x
_atom_site_fract_y
_atom_site_fract_z
Si Si1 0.902067 0.093056 0.427523
Si Si2 0.747465 0.387273 0.869973
Si Si3 0.340386 0.947797 0.571734
Si Si4 0.513256 0.365430 0.173395
Si Si5 0.169742 0.862688 0.073452
Si Si6 0.539785 0.840471 0.629015
Si Si7 0.069222 0.615557 0.771181
O O1 0.900647 0.141979 0.500000
O O2 0.784761 0.040196 0.408479
O O3 0.926827 0.198619 0.376474
O O4 0.000000 0.000000 0.418503
O O5 0.632620 0.342616 0.848085
O O6 0.748206 0.524467 0.903024
O O7 0.784447 0.277099 0.917197
O O8 0.817713 0.392512 0.806217
O O9 0.348740 0.897033 0.500000
O O10 0.411176 0.856124 0.617162
O O11 0.393533 0.084411 0.575729
O O12 0.500000 0.500000 0.209329
O O13 0.441440 0.371755 0.110394
O O14 0.483569 0.250998 0.218441
O O15 0.145949 0.883614 0.000000
O O16 0.579268 0.897605 0.695712
O O17 0.000000 0.500000 0.798477
#
# Coordination Sequence:
#
# PCOD8226458 Si02
#       7
#     8   8   8   8   8   8   8
#     4  10  23  40  62  92 125 156 200 261 319 374
#     4  10  21  38  59  85 120 161 193 247 302 353
#     4  10  21  40  64  88 119 159 202 257 316 368
#     4   9  21  39  57  84 116 159 199 244 300 348
#     4  10  20  36  61  91 119 153 201 247 302 364
#     4  11  22  40  60  90 117 161 209 252 308 376
#     4  11  22  40  59  84 121 159 205 245 295 362
#
# _framework density 19.914164
#
# number of rings (size 3 to 8) (size 9 to 14) (size 15 to 20)
#    0.000    1.857    1.429    3.000    2.000    4.857 
#    7.714    0.000    0.000    4.714    0.000    0.000 
#    0.000    0.000    0.000    0.000    0.000    0.000 
#
# Total GULP energy -694079.350813 kJ/mol
# GULP energy per Si atom -12394.274122 kJ/mol
# Density = 1.986884 g / cm^3
# Si number density = 19.914164 Si / 1000 Ang^3
#
#
#
# Elastic Constant Matrix: (Units=GPa)
#
#
# Indices 1 2 3 4 5 6 
#
# 1 143.2951 49.4910 34.4195 0.0000 0.0000 0.0000
# 2 49.4910 124.2552 34.2740 0.0000 0.0000 0.0000
# 3 34.4195 34.2740 77.6927 0.0000 0.0000 0.0000
# 4 0.0000 0.0000 0.0000 159.9037 0.0000 0.0000
# 5 0.0000 0.0000 0.0000 0.0000 16.0225 0.0000
# 6 0.0000 0.0000 0.0000 0.0000 0.0000 27.4000
#
#
#
# Elastic Compliance Matrix: (Units=1/GPa)
#
#
# Indices 1 2 3 4 5 6 
#
# 1 0.008528 -0.002681 -0.002595 0.000000 0.000000 0.000000
# 2 -0.002681 0.010006 -0.003226 0.000000 0.000000 0.000000
# 3 -0.002595 -0.003226 0.015444 0.000000 0.000000 0.000000
# 4 0.000000 0.000000 0.000000 0.006254 0.000000 0.000000
# 5 0.000000 0.000000 0.000000 0.000000 0.062412 0.000000
# 6 0.000000 0.000000 0.000000 0.000000 0.000000 0.036496
#
#
# Mechanical properties :
#
#
# Convention : Reuss Voigt Hill
#
# Bulk Modulus (GPa) = 58.91769 64.62356 61.77063
# Shear Modulus (GPa) = 30.90178 55.80247 43.35212
#
# Velocity S-wave (km/s) = 3.94350 5.29928 4.67084
# Velocity P-wave (km/s) = 7.09824 8.36448 7.75724
#
# Compressibility (1/GPa) = 0.01697283
#
# Stress axis : x y z
#
# Youngs Moduli (GPa) = 117.26216 99.94355 64.74863
#
# Poissons Ratio (x) = 0.26792 0.16805
# Poissons Ratio (y) = 0.31435 0.20890
# Poissons Ratio (z) = 0.30434 0.32245
#
# Static dielectric constant tensor:
#      x y z
#    x 3.696710 0.000000 0.000000 
#    y 0.000000 3.813760 0.000000 
#    z 0.000000 0.000000 3.384380 
# 
# 
# High freq. dielectric constant tensor:
#      x y z
#    x 1.782280 0.000000 0.000000 
#    y 0.000000 1.788430 0.000000 
#    z 0.000000 0.000000 1.760650 
# 
# From -- ./inp_files/22851.got.cif
#   From: 2010.03.12/outbox.cif.g09.slc.cpg/sg55_12_cif.got.tgz:22851.got - 2010.04.16 15:19:21.
