data_PCOD8226331
_publ_section_title
;
Structure prediction by ZEFSAII (Michael W. Deem and Ramdas Pophale) SiO2 
 PCOD8226331
Probable space group: P B A M
;
_chemical_formula_sum "Si O2"
_cell_formula_units_Z 56
_cell_length_a 21.111259
_cell_length_b 15.000746
_cell_length_c 8.733531
_cell_angle_alpha 90.000000
_cell_angle_beta 90.000000
_cell_angle_gamma 90.000000
_cell_volume 2765.775068
_symmetry_space_group_name_H-M "P B A M"
_symmetry_group_IT_number 55
_symmetry_cell_setting 'orthorhombic'
loop_
_space_group_symop_operation_xyz
x,y,z
-x,-y,z
1/2+x,1/2-y,-z
1/2-x,1/2+y,-z
-x,-y,-z
x,y,-z
1/2-x,1/2+y,z
1/2+x,1/2-y,z
loop_
_atom_site_type_symbol
_atom_site_label
_atom_site_fract_x
_atom_site_fract_y
_atom_site_fract_z
Si Si1 0.570326 0.519626 0.319375
Si Si2 0.411485 0.969691 0.321901
Si Si3 0.186928 0.062241 0.823219
Si Si4 0.212758 0.416015 0.827299
Si Si5 0.979052 0.367620 0.819433
Si Si6 0.100013 0.780912 0.680344
Si Si7 0.269677 0.227071 0.176791
O O1 0.500000 0.500000 0.253790
O O2 0.569499 0.512818 0.500000
O O3 0.619013 0.444658 0.258932
O O4 0.593924 0.616948 0.265089
O O5 0.424112 0.986795 0.500000
O O6 0.338797 0.946267 0.295022
O O7 0.454362 0.888193 0.262442
O O8 0.427395 0.058935 0.228832
O O9 0.229686 0.143339 0.758473
O O10 0.223112 0.969635 0.794019
O O11 0.173245 0.080482 0.000000
O O12 0.225169 0.312236 0.804046
O O13 0.188825 0.435902 0.000000
O O14 0.956024 0.271133 0.765879
O O15 0.989159 0.369536 0.000000
O O16 0.090334 0.771406 0.500000
O O17 0.167273 0.738753 0.724576
O O18 0.289730 0.212202 0.000000
#
# Coordination Sequence:
#
# PCOD8226331 Si02
#       7
#     8   8   8   8   8   8   8
#     4  10  23  42  62  86 122 162 201 251 310 367
#     4  11  22  37  58  87 121 154 197 248 301 360
#     4  10  21  38  61  88 118 155 202 254 301 359
#     4  10  20  36  57  84 121 157 195 245 300 358
#     4  11  22  38  60  84 117 158 198 243 303 364
#     4  11  22  38  61  89 119 157 207 254 306 369
#     4  10  21  37  60  89 119 156 204 251 303 362
#
# _framework density 20.247489999999999
#
# number of rings (size 3 to 8) (size 9 to 14) (size 15 to 20)
#    0.000    1.571    1.429    4.714    0.000    4.857 
#    0.000    2.857    0.000    0.000    0.000    0.000 
#    0.000    0.000    0.000    0.000    0.000    0.000 
#
# Total GULP energy -694635.728224 kJ/mol
# GULP energy per Si atom -12404.209433 kJ/mol
# Density = 2.020141 g / cm^3
# Si number density = 20.247490 Si / 1000 Ang^3
#
#
#
# Elastic Constant Matrix: (Units=GPa)
#
#
# Indices 1 2 3 4 5 6 
#
# 1 112.2076 38.1346 26.3887 0.0000 0.0000 0.0000
# 2 38.1346 97.6192 19.4516 0.0000 0.0000 0.0000
# 3 26.3887 19.4516 61.9474 0.0000 0.0000 0.0000
# 4 0.0000 0.0000 0.0000 24.8417 0.0000 0.0000
# 5 0.0000 0.0000 0.0000 0.0000 36.4998 0.0000
# 6 0.0000 0.0000 0.0000 0.0000 0.0000 32.5442
#
#
#
# Elastic Compliance Matrix: (Units=1/GPa)
#
#
# Indices 1 2 3 4 5 6 
#
# 1 0.010961 -0.003575 -0.003547 0.000000 0.000000 0.000000
# 2 -0.003575 0.012094 -0.002274 0.000000 0.000000 0.000000
# 3 -0.003547 -0.002274 0.018368 0.000000 0.000000 0.000000
# 4 0.000000 0.000000 0.000000 0.040255 0.000000 0.000000
# 5 0.000000 0.000000 0.000000 0.000000 0.027397 0.000000
# 6 0.000000 0.000000 0.000000 0.000000 0.000000 0.030727
#
#
# Mechanical properties :
#
#
# Convention : Reuss Voigt Hill
#
# Bulk Modulus (GPa) = 44.18926 48.85822 46.52374
# Shear Modulus (GPa) = 30.09537 31.29710 30.69623
#
# Velocity S-wave (km/s) = 3.85954 3.93584 3.89787
# Velocity P-wave (km/s) = 6.46013 6.69607 6.57916
#
# Compressibility (1/GPa) = 0.02262993
#
# Stress axis : x y z
#
# Youngs Moduli (GPa) = 91.23069 82.68732 54.44329
#
# Poissons Ratio (x) = 0.29563 0.19309
# Poissons Ratio (y) = 0.32617 0.12383
# Poissons Ratio (z) = 0.32357 0.18807
#
# Static dielectric constant tensor:
#      x y z
#    x 3.651190 0.000000 0.000000 
#    y 0.000000 3.795320 0.000000 
#    z 0.000000 0.000000 3.564550 
# 
# 
# High freq. dielectric constant tensor:
#      x y z
#    x 1.793860 0.000000 0.000000 
#    y 0.000000 1.793610 0.000000 
#    z 0.000000 0.000000 1.783810 
# 
# From -- ./inp_files/6075.got.cif
#   From: 2010.03.12/outbox.cif.g09.slc.cpg/sg55_4_cif.got.tgz:6075.got - 2010.04.16 15:19:21.
