data_PCOD8226671
_publ_section_title
;
Structure prediction by ZEFSAII (Michael W. Deem and Ramdas Pophale) SiO2 
 PCOD8226671
Probable space group: P B A M
;
_chemical_formula_sum "Si O2"
_cell_formula_units_Z 48
_cell_length_a 18.520662
_cell_length_b 14.991213
_cell_length_c 8.720831
_cell_angle_alpha 90.000000
_cell_angle_beta 90.000000
_cell_angle_gamma 90.000000
_cell_volume 2421.314212
_symmetry_space_group_name_H-M "P B A M"
_symmetry_group_IT_number 55
_symmetry_cell_setting 'orthorhombic'
loop_
_space_group_symop_operation_xyz
x,y,z
-x,-y,z
1/2+x,1/2-y,-z
1/2-x,1/2+y,-z
-x,-y,-z
x,y,-z
1/2-x,1/2+y,z
1/2+x,1/2-y,z
loop_
_atom_site_type_symbol
_atom_site_label
_atom_site_fract_x
_atom_site_fract_y
_atom_site_fract_z
Si Si1 0.706146 0.987392 0.322947
Si Si2 0.979527 0.099553 0.821812
Si Si3 0.670276 0.630825 0.676183
Si Si4 0.936479 0.564472 0.819533
Si Si5 0.419841 0.745890 0.319139
Si Si6 0.261713 0.700861 0.681444
O O1 0.681940 0.981515 0.500000
O O2 0.730231 0.891910 0.255106
O O3 0.773788 0.051452 0.303367
O O4 0.640027 0.023395 0.225418
O O5 0.895717 0.113810 0.788410
O O6 0.025611 0.167511 0.721677
O O7 0.995477 0.116207 0.000000
O O8 0.000000 0.000000 0.771187
O O9 0.644007 0.637420 0.500000
O O10 0.707151 0.722017 0.731452
O O11 0.948543 0.661490 0.747840
O O12 0.000000 0.500000 0.758828
O O13 0.940435 0.575159 0.000000
O O14 0.415504 0.757295 0.500000
O O15 0.340996 0.721682 0.250142
O O16 0.269302 0.694945 0.500000
#
# Coordination Sequence:
#
# PCOD8226671 Si02
#       6
#     8   8   8   8   8   8
#     4  10  20  38  64  90 119 154 202 256 303 362
#     4  11  25  42  60  89 130 168 203 248 306 371
#     4  10  20  38  61  90 122 155 203 255 303 359
#     4  11  25  42  59  87 128 167 206 253 309 377
#     4  11  22  42  69  93 121 162 209 259 310 360
#     4   9  19  36  61  92 118 147 196 257 308 353
#
# _framework density 19.823945999999999
#
# number of rings (size 3 to 8) (size 9 to 14) (size 15 to 20)
#    0.000    1.667    1.667    2.500    2.333    4.667 
#    0.000    1.667    0.000    0.000    0.000    0.000 
#    0.000    0.000    0.000    0.000    0.000    0.000 
#
# Total GULP energy -595422.952965 kJ/mol
# GULP energy per Si atom -12404.644853 kJ/mol
# Density = 1.977883 g / cm^3
# Si number density = 19.823946 Si / 1000 Ang^3
#
#
#
# Elastic Constant Matrix: (Units=GPa)
#
#
# Indices 1 2 3 4 5 6 
#
# 1 105.2318 50.7467 23.2299 0.0000 0.0000 0.0000
# 2 50.7467 170.6047 30.5376 0.0000 0.0000 0.0000
# 3 23.2299 30.5376 43.7088 0.0000 0.0000 0.0000
# 4 0.0000 0.0000 0.0000 24.5215 0.0000 0.0000
# 5 0.0000 0.0000 0.0000 0.0000 24.2678 0.0000
# 6 0.0000 0.0000 0.0000 0.0000 0.0000 31.6365
#
#
#
# Elastic Compliance Matrix: (Units=1/GPa)
#
#
# Indices 1 2 3 4 5 6 
#
# 1 0.011778 -0.002724 -0.004357 0.000000 0.000000 0.000000
# 2 -0.002724 0.007329 -0.003673 0.000000 0.000000 0.000000
# 3 -0.004357 -0.003673 0.027760 0.000000 0.000000 0.000000
# 4 0.000000 0.000000 0.000000 0.040781 0.000000 0.000000
# 5 0.000000 0.000000 0.000000 0.000000 0.041207 0.000000
# 6 0.000000 0.000000 0.000000 0.000000 0.000000 0.031609
#
#
# Mechanical properties :
#
#
# Convention : Reuss Voigt Hill
#
# Bulk Modulus (GPa) = 39.43114 58.73040 49.08077
# Shear Modulus (GPa) = 26.25716 30.42057 28.33886
#
# Velocity S-wave (km/s) = 3.64334 3.92157 3.78501
# Velocity P-wave (km/s) = 6.13453 7.08486 6.62675
#
# Compressibility (1/GPa) = 0.02536066
#
# Stress axis : x y z
#
# Youngs Moduli (GPa) = 84.90413 136.44264 36.02253
#
# Poissons Ratio (x) = 0.37161 0.15694
# Poissons Ratio (y) = 0.23124 0.13231
# Poissons Ratio (z) = 0.36991 0.50116
#
# Static dielectric constant tensor:
#      x y z
#    x 3.682590 0.000000 0.000000 
#    y 0.000000 3.989350 0.000000 
#    z 0.000000 0.000000 3.377070 
# 
# 
# High freq. dielectric constant tensor:
#      x y z
#    x 1.782990 0.000000 0.000000 
#    y 0.000000 1.794550 0.000000 
#    z 0.000000 0.000000 1.752540 
# 
# From -- ./inp_files/5651.got.cif
#   From: 2010.03.12/outbox.cif.g09.slc.cpg/sg55_3_cif.got.tgz:5651.got - 2010.04.16 15:19:21.
