data_PCOD8226755
_publ_section_title
;
Structure prediction by ZEFSAII (Michael W. Deem and Ramdas Pophale) SiO2 
 PCOD8226755
Probable space group: P B A M
;
_chemical_formula_sum "Si O2"
_cell_formula_units_Z 64
_cell_length_a 30.214701
_cell_length_b 11.926649
_cell_length_c 8.930109
_cell_angle_alpha 90.000000
_cell_angle_beta 90.000000
_cell_angle_gamma 90.000000
_cell_volume 3218.055271
_symmetry_space_group_name_H-M "P B A M"
_symmetry_group_IT_number 55
_symmetry_cell_setting 'orthorhombic'
loop_
_space_group_symop_operation_xyz
x,y,z
-x,-y,z
1/2+x,1/2-y,-z
1/2-x,1/2+y,-z
-x,-y,-z
x,y,-z
1/2-x,1/2+y,z
1/2+x,1/2-y,z
loop_
_atom_site_type_symbol
_atom_site_label
_atom_site_fract_x
_atom_site_fract_y
_atom_site_fract_z
Si Si1 0.950506 0.539366 0.828025
Si Si2 0.621093 0.654803 0.177726
Si Si3 0.325376 0.732646 0.332616
Si Si4 0.051395 0.000913 0.675117
Si Si5 0.210631 0.465461 0.323927
Si Si6 0.697466 0.486800 0.174828
Si Si7 0.625265 0.897825 0.322060
Si Si8 0.074543 0.247950 0.667422
O O1 0.917961 0.465836 0.727257
O O2 0.950546 0.669166 0.778924
O O3 0.000000 0.500000 0.801969
O O4 0.935781 0.528590 0.000000
O O5 0.576275 0.595442 0.233142
O O6 0.663870 0.583148 0.230263
O O7 0.625003 0.775872 0.249938
O O8 0.618841 0.666016 0.000000
O O9 0.312475 0.690216 0.500000
O O10 0.294366 0.834822 0.280398
O O11 0.322982 0.633236 0.214404
O O12 0.374414 0.783568 0.335663
O O13 0.059629 0.978668 0.500000
O O14 0.070380 0.120994 0.725580
O O15 0.000000 0.000000 0.716717
O O16 0.214023 0.480020 0.500000
O O17 0.255418 0.507811 0.252293
O O18 0.169372 0.538793 0.264506
O O19 0.704808 0.495841 0.000000
O O20 0.624445 0.886589 0.500000
O O21 0.053997 0.257599 0.500000
#
# Coordination Sequence:
#
# PCOD8226755 Si02
#       8
#     8   8   8   8   8   8   8   8
#     4  11  25  42  62  93 130 166 203 248 310 372
#     4  11  25  43  61  90 130 168 205 250 312 375
#     4  10  20  40  66  90 118 155 206 259 305 357
#     4  10  22  40  64  95 124 161 212 259 307 361
#     4  10  23  42  64  91 120 158 208 257 308 361
#     4  11  25  41  61  92 126 162 203 247 307 373
#     4  11  24  44  67  91 121 163 213 259 306 361
#     4  10  20  39  65  91 122 159 209 262 302 357
#
# _framework density 19.887786999999999
#
# number of rings (size 3 to 8) (size 9 to 14) (size 15 to 20)
#    0.000    1.500    2.500    1.500    3.500    5.250 
#    0.000    0.000    0.000    0.000    0.000    0.000 
#    0.000    0.000    0.000    0.000    0.000    0.000 
#
# Total GULP energy -793841.103746 kJ/mol
# GULP energy per Si atom -12403.767246 kJ/mol
# Density = 1.984252 g / cm^3
# Si number density = 19.887787 Si / 1000 Ang^3
#
#
#
# Elastic Constant Matrix: (Units=GPa)
#
#
# Indices 1 2 3 4 5 6 
#
# 1 102.7845 42.3772 42.4979 0.0000 0.0000 0.0000
# 2 42.3772 112.2137 45.4780 0.0000 0.0000 0.0000
# 3 42.4979 45.4780 55.0729 0.0000 0.0000 0.0000
# 4 0.0000 0.0000 0.0000 24.7000 0.0000 0.0000
# 5 0.0000 0.0000 0.0000 0.0000 26.1820 0.0000
# 6 0.0000 0.0000 0.0000 0.0000 0.0000 30.2655
#
#
#
# Elastic Compliance Matrix: (Units=1/GPa)
#
#
# Indices 1 2 3 4 5 6 
#
# 1 0.014434 -0.001408 -0.009976 0.000000 0.000000 0.000000
# 2 -0.001408 0.013532 -0.010087 0.000000 0.000000 0.000000
# 3 -0.009976 -0.010087 0.034186 0.000000 0.000000 0.000000
# 4 0.000000 0.000000 0.000000 0.040486 0.000000 0.000000
# 5 0.000000 0.000000 0.000000 0.000000 0.038194 0.000000
# 6 0.000000 0.000000 0.000000 0.000000 0.000000 0.033041
#
#
# Mechanical properties :
#
#
# Convention : Reuss Voigt Hill
#
# Bulk Modulus (GPa) = 52.05896 58.97526 55.51711
# Shear Modulus (GPa) = 22.39966 25.54405 23.97186
#
# Velocity S-wave (km/s) = 3.35968 3.58775 3.47559
# Velocity P-wave (km/s) = 6.42520 6.84697 6.63943
#
# Compressibility (1/GPa) = 0.01920899
#
# Stress axis : x y z
#
# Youngs Moduli (GPa) = 69.27973 73.90113 29.25209
#
# Poissons Ratio (x) = 0.10406 0.29181
# Poissons Ratio (y) = 0.09756 0.29508
# Poissons Ratio (z) = 0.69111 0.74548
#
# Static dielectric constant tensor:
#      x y z
#    x 3.749570 0.000000 0.000000 
#    y 0.000000 3.720400 0.000000 
#    z 0.000000 0.000000 3.562600 
# 
# 
# High freq. dielectric constant tensor:
#      x y z
#    x 1.782500 0.000000 0.000000 
#    y 0.000000 1.788550 0.000000 
#    z 0.000000 0.000000 1.770370 
# 
# From -- ./inp_files/10817.got.cif
#   From: 2010.03.12/outbox.cif.g09.slc.cpg/sg55_6_cif.got.tgz:10817.got - 2010.04.16 15:19:21.
