data_PCOD8226664
_publ_section_title
;
Structure prediction by ZEFSAII (Michael W. Deem and Ramdas Pophale) SiO2 
 PCOD8226664
Probable space group: P B A M
;
_chemical_formula_sum "Si O2"
_cell_formula_units_Z 56
_cell_length_a 14.086349
_cell_length_b 15.859913
_cell_length_c 13.133197
_cell_angle_alpha 90.000000
_cell_angle_beta 90.000000
_cell_angle_gamma 90.000000
_cell_volume 2934.064816
_symmetry_space_group_name_H-M "P B A M"
_symmetry_group_IT_number 55
_symmetry_cell_setting 'orthorhombic'
loop_
_space_group_symop_operation_xyz
x,y,z
-x,-y,z
1/2+x,1/2-y,-z
1/2-x,1/2+y,-z
-x,-y,-z
x,y,-z
1/2-x,1/2+y,z
1/2+x,1/2-y,z
loop_
_atom_site_type_symbol
_atom_site_label
_atom_site_fract_x
_atom_site_fract_y
_atom_site_fract_z
Si Si1 0.896753 0.990898 0.788430
Si Si2 0.439939 0.639039 0.385450
Si Si3 0.375022 0.325199 0.725771
Si Si4 0.572851 0.072797 0.758436
Si Si5 0.681288 0.195957 0.616896
Si Si6 0.932302 0.314073 0.117346
Si Si7 0.209328 0.538417 0.114112
O O1 0.910359 0.938498 0.685139
O O2 0.820392 0.946208 0.861004
O O3 0.853503 0.081386 0.763833
O O4 0.000000 0.000000 0.842797
O O5 0.440710 0.604170 0.500000
O O6 0.543255 0.675378 0.358978
O O7 0.365859 0.713611 0.372797
O O8 0.279321 0.290909 0.676318
O O9 0.410335 0.270749 0.821648
O O10 0.612730 0.123746 0.662187
O O11 0.522276 0.136630 0.836545
O O12 0.500000 0.000000 0.720827
O O13 0.662088 0.030739 0.813728
O O14 0.700134 0.170879 0.500000
O O15 0.839333 0.371366 0.126324
O O16 0.955176 0.291426 0.000000
O O17 0.198343 0.504187 0.000000
#
# Coordination Sequence:
#
# PCOD8226664 Si02
#       7
#     8   8   8   8   8   8   8
#     4  10  22  37  58  82 114 160 197 244 282 344
#     4  10  22  40  60  84 115 157 199 239 294 350
#     4  11  21  38  61  85 121 151 195 244 289 348
#     4  10  20  39  64  89 118 152 194 251 298 355
#     4  11  22  38  62  90 119 154 194 244 302 354
#     4  10  21  38  63  91 118 153 195 241 300 352
#     4  10  20  38  61  86 118 155 196 242 297 351
#
# _framework density 19.08615
#
# number of rings (size 3 to 8) (size 9 to 14) (size 15 to 20)
#    0.000    1.714    2.857    1.714    0.000    6.000 
#    0.000    2.143    0.000    0.000    0.000    0.000 
#    0.000    0.000    0.000    0.000    0.000    0.000 
#
# Total GULP energy -694440.581324 kJ/mol
# GULP energy per Si atom -12400.724667 kJ/mol
# Density = 1.904271 g / cm^3
# Si number density = 19.086150 Si / 1000 Ang^3
#
#
#
# Elastic Constant Matrix: (Units=GPa)
#
#
# Indices 1 2 3 4 5 6 
#
# 1 100.5903 26.2730 21.5995 0.0000 0.0000 0.0000
# 2 26.2730 88.0972 44.7063 0.0000 0.0000 0.0000
# 3 21.5995 44.7063 70.7711 0.0000 0.0000 0.0000
# 4 0.0000 0.0000 0.0000 23.4214 0.0000 0.0000
# 5 0.0000 0.0000 0.0000 0.0000 26.2078 0.0000
# 6 0.0000 0.0000 0.0000 0.0000 0.0000 25.2490
#
#
#
# Elastic Compliance Matrix: (Units=1/GPa)
#
#
# Indices 1 2 3 4 5 6 
#
# 1 0.010949 -0.002310 -0.001882 0.000000 0.000000 0.000000
# 2 -0.002310 0.017194 -0.010157 0.000000 0.000000 0.000000
# 3 -0.001882 -0.010157 0.021120 0.000000 0.000000 0.000000
# 4 0.000000 0.000000 0.000000 0.042696 0.000000 0.000000
# 5 0.000000 0.000000 0.000000 0.000000 0.038157 0.000000
# 6 0.000000 0.000000 0.000000 0.000000 0.000000 0.039606
#
#
# Mechanical properties :
#
#
# Convention : Reuss Voigt Hill
#
# Bulk Modulus (GPa) = 48.62490 49.40178 49.01334
# Shear Modulus (GPa) = 24.35761 26.10096 25.22928
#
# Velocity S-wave (km/s) = 3.57626 3.70203 3.63969
# Velocity P-wave (km/s) = 6.52569 6.64930 6.58778
#
# Compressibility (1/GPa) = 0.02056560
#
# Stress axis : x y z
#
# Youngs Moduli (GPa) = 91.33368 58.15943 47.34740
#
# Poissons Ratio (x) = 0.13435 0.08913
# Poissons Ratio (y) = 0.21098 0.48089
# Poissons Ratio (z) = 0.17192 0.59070
#
# Static dielectric constant tensor:
#      x y z
#    x 3.651800 0.000000 0.000000 
#    y 0.000000 3.435470 0.000000 
#    z 0.000000 0.000000 3.450120 
# 
# 
# High freq. dielectric constant tensor:
#      x y z
#    x 1.757700 0.000000 0.000000 
#    y 0.000000 1.745260 0.000000 
#    z 0.000000 0.000000 1.734660 
# 
# From -- ./inp_files/14220.got.cif
#   From: 2010.03.12/outbox.cif.g09.slc.cpg/sg55_8_cif.got.tgz:14220.got - 2010.04.16 15:19:21.
