data_PCOD8226005
_publ_section_title
;
Structure prediction by ZEFSAII (Michael W. Deem and Ramdas Pophale) SiO2 
 PCOD8226005
Probable space group: P B A M
;
_chemical_formula_sum "Si O2"
_cell_formula_units_Z 56
_cell_length_a 19.560260
_cell_length_b 16.823928
_cell_length_c 9.203409
_cell_angle_alpha 90.000000
_cell_angle_beta 90.000000
_cell_angle_gamma 90.000000
_cell_volume 3028.661569
_symmetry_space_group_name_H-M "P B A M"
_symmetry_group_IT_number 55
_symmetry_cell_setting 'orthorhombic'
loop_
_space_group_symop_operation_xyz
x,y,z
-x,-y,z
1/2+x,1/2-y,-z
1/2-x,1/2+y,-z
-x,-y,-z
x,y,-z
1/2-x,1/2+y,z
1/2+x,1/2-y,z
loop_
_atom_site_type_symbol
_atom_site_label
_atom_site_fract_x
_atom_site_fract_y
_atom_site_fract_z
Si Si1 0.390640 0.320352 0.829929
Si Si2 0.852630 0.849430 0.330580
Si Si3 0.517773 0.244204 0.328109
Si Si4 0.697834 0.091037 0.333682
Si Si5 0.742848 0.241487 0.830741
Si Si6 0.951897 0.567420 0.670042
Si Si7 0.156763 0.971218 0.666990
O O1 0.451739 0.276256 0.752090
O O2 0.322999 0.268772 0.797029
O O3 0.382933 0.409165 0.767490
O O4 0.405239 0.327667 0.000000
O O5 0.836264 0.840748 0.500000
O O6 0.917945 0.798221 0.283228
O O7 0.785197 0.821104 0.244691
O O8 0.867825 0.940910 0.290173
O O9 0.505543 0.247786 0.500000
O O10 0.530623 0.155019 0.269906
O O11 0.695889 0.122002 0.500000
O O12 0.701259 0.167389 0.232163
O O13 0.627243 0.045458 0.296648
O O14 0.761425 0.032605 0.306846
O O15 0.728030 0.246590 0.000000
O O16 0.966454 0.568786 0.500000
O O17 0.000000 0.500000 0.743763
O O18 0.139037 0.951168 0.500000
#
# Coordination Sequence:
#
# PCOD8226005 Si02
#       7
#     8   8   8   8   8   8   8
#     4  10  22  38  54  77 112 148 187 229 271 326
#     4  10  20  35  56  85 112 140 183 229 277 332
#     4  10  20  35  55  79 110 146 180 225 280 330
#     4   9  16  32  54  76 103 135 174 223 270 318
#     4  10  20  34  54  77 103 143 184 224 271 323
#     4   9  17  30  52  81 109 137 175 222 272 325
#     4   9  19  34  56  82 107 140 183 230 276 323
#
# _framework density 18.490017000000002
#
# number of rings (size 3 to 8) (size 9 to 14) (size 15 to 20)
#    0.000    2.429    1.429    0.857    0.000    4.571 
#    0.000    5.714    0.000    1.714    0.000    0.000 
#    0.000    0.000    0.000    0.000    0.000    0.000 
#
# Total GULP energy -694398.791533 kJ/mol
# GULP energy per Si atom -12399.978420 kJ/mol
# Density = 1.844793 g / cm^3
# Si number density = 18.490017 Si / 1000 Ang^3
#
#
#
# Elastic Constant Matrix: (Units=GPa)
#
#
# Indices 1 2 3 4 5 6 
#
# 1 108.3385 67.8841 40.8290 0.0000 0.0000 0.0000
# 2 67.8841 114.4530 33.8421 0.0000 0.0000 0.0000
# 3 40.8290 33.8421 54.1582 0.0000 0.0000 0.0000
# 4 0.0000 0.0000 0.0000 14.8921 0.0000 0.0000
# 5 0.0000 0.0000 0.0000 0.0000 24.2657 0.0000
# 6 0.0000 0.0000 0.0000 0.0000 0.0000 30.2559
#
#
#
# Elastic Compliance Matrix: (Units=1/GPa)
#
#
# Indices 1 2 3 4 5 6 
#
# 1 0.017148 -0.007787 -0.008061 0.000000 0.000000 0.000000
# 2 -0.007787 0.014254 -0.003036 0.000000 0.000000 0.000000
# 3 -0.008061 -0.003036 0.026439 0.000000 0.000000 0.000000
# 4 0.000000 0.000000 0.000000 0.067150 0.000000 0.000000
# 5 0.000000 0.000000 0.000000 0.000000 0.041210 0.000000
# 6 0.000000 0.000000 0.000000 0.000000 0.000000 0.033051
#
#
# Mechanical properties :
#
#
# Convention : Reuss Voigt Hill
#
# Bulk Modulus (GPa) = 49.82312 62.45113 56.13713
# Shear Modulus (GPa) = 20.51604 22.84236 21.67920
#
# Velocity S-wave (km/s) = 3.33464 3.51862 3.42787
# Velocity P-wave (km/s) = 6.46768 7.09623 6.78924
#
# Compressibility (1/GPa) = 0.02007100
#
# Stress axis : x y z
#
# Youngs Moduli (GPa) = 58.31711 70.15804 37.82272
#
# Poissons Ratio (x) = 0.54631 0.30491
# Poissons Ratio (y) = 0.45411 0.11484
# Poissons Ratio (z) = 0.47012 0.21302
#
# Static dielectric constant tensor:
#      x y z
#    x 3.498270 0.000000 0.000000 
#    y 0.000000 3.489980 0.000000 
#    z 0.000000 0.000000 3.232470 
# 
# 
# High freq. dielectric constant tensor:
#      x y z
#    x 1.723180 0.000000 0.000000 
#    y 0.000000 1.713340 0.000000 
#    z 0.000000 0.000000 1.696210 
# 
# From -- ./inp_files/8684.got.cif
#   From: 2010.03.12/outbox.cif.g09.slc.cpg/sg55_5_cif.got.tgz:8684.got - 2010.04.16 15:19:21.
