data_PCOD8226282
_publ_section_title
;
Structure prediction by ZEFSAII (Michael W. Deem and Ramdas Pophale) SiO2 
 PCOD8226282
Probable space group: P B A M
;
_chemical_formula_sum "Si O2"
_cell_formula_units_Z 56
_cell_length_a 19.680223
_cell_length_b 9.272150
_cell_length_c 14.250730
_cell_angle_alpha 90.000000
_cell_angle_beta 90.000000
_cell_angle_gamma 90.000000
_cell_volume 2600.444419
_symmetry_space_group_name_H-M "P B A M"
_symmetry_group_IT_number 55
_symmetry_cell_setting 'orthorhombic'
loop_
_space_group_symop_operation_xyz
x,y,z
-x,-y,z
1/2+x,1/2-y,-z
1/2-x,1/2+y,-z
-x,-y,-z
x,y,-z
1/2-x,1/2+y,z
1/2+x,1/2-y,z
loop_
_atom_site_type_symbol
_atom_site_label
_atom_site_fract_x
_atom_site_fract_y
_atom_site_fract_z
Si Si1 0.896803 0.638180 0.202928
Si Si2 0.861155 0.513536 0.604039
Si Si3 0.628262 0.839379 0.891051
Si Si4 0.520588 0.658183 0.792812
Si Si5 0.282002 0.431434 0.328661
Si Si6 0.766843 0.809001 0.202428
Si Si7 0.413516 0.306858 0.604317
O O1 0.890622 0.619561 0.316011
O O2 0.901906 0.484283 0.153870
O O3 0.831103 0.721503 0.161775
O O4 0.963178 0.728255 0.177760
O O5 0.884124 0.566106 0.500000
O O6 0.779248 0.511663 0.606661
O O7 0.888318 0.354540 0.624168
O O8 0.591355 0.703893 0.841408
O O9 0.709411 0.829058 0.876933
O O10 0.611093 0.837114 0.000000
O O11 0.500000 0.500000 0.828971
O O12 0.529100 0.654707 0.680082
O O13 0.265507 0.272629 0.290783
O O14 0.292176 0.535996 0.239093
O O15 0.351110 0.420084 0.387728
O O16 0.444633 0.321164 0.500000
#
# Coordination Sequence:
#
# PCOD8226282 Si02
#       7
#     8   8   8   8   8   8   8
#     4  11  24  43  70  98 132 176 220 270 332 397
#     4  10  20  35  61  97 130 173 225 268 319 385
#     4  12  26  48  73  97 130 171 222 279 339 409
#     4  12  26  46  68  96 137 178 220 276 335 391
#     4  11  17  38  62  93 133 175 216 269 323 390
#     4  11  21  41  70  96 131 168 216 270 338 395
#     4  11  22  38  63  98 139 182 226 274 327 388
#
# _framework density 21.534780999999999
#
# number of rings (size 3 to 8) (size 9 to 14) (size 15 to 20)
#    0.000    0.857    7.143    1.714    0.000    2.857 
#    0.000    5.000    0.000    0.000    0.000    0.000 
#    0.000    0.000    0.000    0.000    0.000    0.000 
#
# Total GULP energy -694502.877887 kJ/mol
# GULP energy per Si atom -12401.837105 kJ/mol
# Density = 2.148577 g / cm^3
# Si number density = 21.534781 Si / 1000 Ang^3
#
#
#
# Elastic Constant Matrix: (Units=GPa)
#
#
# Indices 1 2 3 4 5 6 
#
# 1 73.3643 31.7717 19.6608 0.0000 0.0000 0.0000
# 2 31.7717 91.8229 25.5362 0.0000 0.0000 0.0000
# 3 19.6608 25.5362 98.2052 0.0000 0.0000 0.0000
# 4 0.0000 0.0000 0.0000 9.5491 0.0000 0.0000
# 5 0.0000 0.0000 0.0000 0.0000 16.9878 0.0000
# 6 0.0000 0.0000 0.0000 0.0000 0.0000 36.1444
#
#
#
# Elastic Compliance Matrix: (Units=1/GPa)
#
#
# Indices 1 2 3 4 5 6 
#
# 1 0.016371 -0.005123 -0.001945 0.000000 0.000000 0.000000
# 2 -0.005123 0.013343 -0.002444 0.000000 0.000000 0.000000
# 3 -0.001945 -0.002444 0.011208 0.000000 0.000000 0.000000
# 4 0.000000 0.000000 0.000000 0.104722 0.000000 0.000000
# 5 0.000000 0.000000 0.000000 0.000000 0.058866 0.000000
# 6 0.000000 0.000000 0.000000 0.000000 0.000000 0.027667
#
#
# Mechanical properties :
#
#
# Convention : Reuss Voigt Hill
#
# Bulk Modulus (GPa) = 45.66978 46.37000 46.01989
# Shear Modulus (GPa) = 19.34242 24.96450 22.15346
#
# Velocity S-wave (km/s) = 3.00024 3.40849 3.21086
# Velocity P-wave (km/s) = 5.76675 6.08849 5.92981
#
# Compressibility (1/GPa) = 0.02189632
#
# Stress axis : x y z
#
# Youngs Moduli (GPa) = 61.08473 74.94594 89.22470
#
# Poissons Ratio (x) = 0.38398 0.17356
# Poissons Ratio (y) = 0.31297 0.21805
# Poissons Ratio (z) = 0.11882 0.18315
#
# Static dielectric constant tensor:
#      x y z
#    x 3.857600 0.000000 0.000000 
#    y 0.000000 3.881400 0.000000 
#    z 0.000000 0.000000 3.603100 
# 
# 
# High freq. dielectric constant tensor:
#      x y z
#    x 1.843710 0.000000 0.000000 
#    y 0.000000 1.850090 0.000000 
#    z 0.000000 0.000000 1.818400 
# 
# From -- ./inp_files/19722.got.cif
#   From: 2010.03.12/outbox.cif.g09.slc.cpg/sg55_10_cif.got.tgz:19722.got - 2010.04.16 15:19:21.
