data_PCOD8226411
_publ_section_title
;
Structure prediction by ZEFSAII (Michael W. Deem and Ramdas Pophale) SiO2 
 PCOD8226411
Probable space group: P B A M
;
_chemical_formula_sum "Si O2"
_cell_formula_units_Z 56
_cell_length_a 18.723451
_cell_length_b 16.995120
_cell_length_c 9.086491
_cell_angle_alpha 90.000000
_cell_angle_beta 90.000000
_cell_angle_gamma 90.000000
_cell_volume 2891.387736
_symmetry_space_group_name_H-M "P B A M"
_symmetry_group_IT_number 55
_symmetry_cell_setting 'orthorhombic'
loop_
_space_group_symop_operation_xyz
x,y,z
-x,-y,z
1/2+x,1/2-y,-z
1/2-x,1/2+y,-z
-x,-y,-z
x,y,-z
1/2-x,1/2+y,z
1/2+x,1/2-y,z
loop_
_atom_site_type_symbol
_atom_site_label
_atom_site_fract_x
_atom_site_fract_y
_atom_site_fract_z
Si Si1 0.716762 0.750613 0.168936
Si Si2 0.581355 0.485743 0.174283
Si Si3 0.194582 0.910286 0.669934
Si Si4 0.633679 0.318962 0.173286
Si Si5 0.847989 0.528968 0.330079
Si Si6 0.061956 0.338435 0.173946
Si Si7 0.097934 0.622727 0.169078
O O1 0.713090 0.675951 0.272812
O O2 0.784180 0.803776 0.217612
O O3 0.645177 0.800080 0.189782
O O4 0.726166 0.722930 0.000000
O O5 0.500000 0.500000 0.221292
O O6 0.628075 0.555232 0.242043
O O7 0.607114 0.401776 0.240589
O O8 0.590958 0.489706 0.000000
O O9 0.173579 0.904143 0.500000
O O10 0.263159 0.965772 0.694007
O O11 0.584237 0.247854 0.232805
O O12 0.624718 0.324935 0.000000
O O13 0.868965 0.536537 0.500000
O O14 0.886119 0.598191 0.243541
O O15 0.873147 0.445454 0.271563
O O16 0.981204 0.355203 0.221614
O O17 0.071889 0.343601 0.000000
O O18 0.098900 0.593730 0.000000
#
# Coordination Sequence:
#
# PCOD8226411 Si02
#       7
#     8   8   8   8   8   8   8
#     4  10  20  37  62  86 112 153 201 246 290 346
#     4  10  22  39  65  94 121 155 198 247 298 354
#     4  11  24  40  58  84 119 157 198 242 292 349
#     4   9  18  35  59  88 116 148 193 243 292 344
#     4  11  23  39  58  83 118 158 198 234 284 353
#     4  10  20  36  59  87 120 150 188 243 295 346
#     4  10  22  36  59  90 117 147 191 244 298 348
#
# _framework density 19.367864000000001
#
# number of rings (size 3 to 8) (size 9 to 14) (size 15 to 20)
#    0.000    1.857    1.429    2.143    2.000    6.000 
#    0.000    1.429    0.000    0.000    0.000    0.000 
#    0.000    0.000    0.000    0.000    0.000    0.000 
#
# Total GULP energy -694597.853168 kJ/mol
# GULP energy per Si atom -12403.533092 kJ/mol
# Density = 1.932378 g / cm^3
# Si number density = 19.367864 Si / 1000 Ang^3
#
#
#
# Elastic Constant Matrix: (Units=GPa)
#
#
# Indices 1 2 3 4 5 6 
#
# 1 120.6005 31.6812 37.7654 0.0000 0.0000 0.0000
# 2 31.6812 69.9655 20.9894 0.0000 0.0000 0.0000
# 3 37.7654 20.9894 38.8584 0.0000 0.0000 0.0000
# 4 0.0000 0.0000 0.0000 4.3179 0.0000 0.0000
# 5 0.0000 0.0000 0.0000 0.0000 21.8532 0.0000
# 6 0.0000 0.0000 0.0000 0.0000 0.0000 25.7186
#
#
#
# Elastic Compliance Matrix: (Units=1/GPa)
#
#
# Indices 1 2 3 4 5 6 
#
# 1 0.012236 -0.002355 -0.010620 0.000000 0.000000 0.000000
# 2 -0.002355 0.017510 -0.007170 0.000000 0.000000 0.000000
# 3 -0.010620 -0.007170 0.039928 0.000000 0.000000 0.000000
# 4 0.000000 0.000000 0.000000 0.231595 0.000000 0.000000
# 5 0.000000 0.000000 0.000000 0.000000 0.045760 0.000000
# 6 0.000000 0.000000 0.000000 0.000000 0.000000 0.038882
#
#
# Mechanical properties :
#
#
# Convention : Reuss Voigt Hill
#
# Bulk Modulus (GPa) = 34.02993 45.58850 39.80922
# Shear Modulus (GPa) = 11.46801 19.64382 15.55592
#
# Velocity S-wave (km/s) = 2.43598 3.18818 2.83712
# Velocity P-wave (km/s) = 5.05178 6.09442 5.59743
#
# Compressibility (1/GPa) = 0.02938590
#
# Stress axis : x y z
#
# Youngs Moduli (GPa) = 81.72617 57.11091 25.04484
#
# Poissons Ratio (x) = 0.13448 0.26598
# Poissons Ratio (y) = 0.19244 0.17956
# Poissons Ratio (z) = 0.86793 0.40946
#
# Static dielectric constant tensor:
#      x y z
#    x 3.728420 0.000000 0.000000 
#    y 0.000000 3.756390 0.000000 
#    z 0.000000 0.000000 3.361250 
# 
# 
# High freq. dielectric constant tensor:
#      x y z
#    x 1.769610 0.000000 0.000000 
#    y 0.000000 1.763860 0.000000 
#    z 0.000000 0.000000 1.729910 
# 
# From -- ./inp_files/8704.got.cif
#   From: 2010.03.12/outbox.cif.g09.slc.cpg/sg55_5_cif.got.tgz:8704.got - 2010.04.16 15:19:21.
