data_PCOD8226344
_publ_section_title
;
Structure prediction by ZEFSAII (Michael W. Deem and Ramdas Pophale) SiO2 
 PCOD8226344
Probable space group: P B A M
;
_chemical_formula_sum "Si O2"
_cell_formula_units_Z 48
_cell_length_a 30.848497
_cell_length_b 9.140759
_cell_length_c 9.071561
_cell_angle_alpha 90.000000
_cell_angle_beta 90.000000
_cell_angle_gamma 90.000000
_cell_volume 2557.986765
_symmetry_space_group_name_H-M "P B A M"
_symmetry_group_IT_number 55
_symmetry_cell_setting 'orthorhombic'
loop_
_space_group_symop_operation_xyz
x,y,z
-x,-y,z
1/2+x,1/2-y,-z
1/2-x,1/2+y,-z
-x,-y,-z
x,y,-z
1/2-x,1/2+y,z
1/2+x,1/2-y,z
loop_
_atom_site_type_symbol
_atom_site_label
_atom_site_fract_x
_atom_site_fract_y
_atom_site_fract_z
Si Si1 0.457556 0.407852 0.172889
Si Si2 0.206326 0.072859 0.170256
Si Si3 0.459318 0.103068 0.670969
Si Si4 0.377761 0.911566 0.327082
Si Si5 0.619281 0.422298 0.674371
Si Si6 0.791562 0.585677 0.169103
O O1 0.500000 0.500000 0.212077
O O2 0.464935 0.244229 0.228683
O O3 0.417364 0.478133 0.255992
O O4 0.447914 0.406578 0.000000
O O5 0.165401 0.020951 0.265885
O O6 0.214787 0.243227 0.191766
O O7 0.248679 0.991339 0.232691
O O8 0.197550 0.032251 0.000000
O O9 0.456316 0.149625 0.500000
O O10 0.500000 0.000000 0.699236
O O11 0.416719 0.015811 0.722482
O O12 0.370674 0.914539 0.500000
O O13 0.388233 0.745803 0.275825
O O14 0.333903 0.971583 0.253902
O O15 0.617926 0.440787 0.500000
O O16 0.798071 0.541527 0.000000
#
# Coordination Sequence:
#
# PCOD8226344 Si02
#       6
#     8   8   8   8   8   8
#     4  11  24  39  56  81 111 142 178 220 265 317
#     4   9  18  33  51  74 105 140 179 220 263 313
#     4  10  21  38  59  82 109 142 180 222 268 319
#     4   9  19  35  55  80 108 139 179 225 269 316
#     4  10  20  36  58  81 107 142 180 220 269 318
#     4   9  18  32  51  74 104 143 180 217 264 316
#
# _framework density 18.764755000000001
#
# number of rings (size 3 to 8) (size 9 to 14) (size 15 to 20)
#    0.000    2.333    0.000    2.000    0.000    6.333 
#    0.000    1.667    0.000    0.000    0.000    0.000 
#    0.000    0.000    0.000    0.000    0.000    0.000 
#
# Total GULP energy -595364.979210 kJ/mol
# GULP energy per Si atom -12403.437067 kJ/mol
# Density = 1.872205 g / cm^3
# Si number density = 18.764755 Si / 1000 Ang^3
#
#
#
# Elastic Constant Matrix: (Units=GPa)
#
#
# Indices 1 2 3 4 5 6 
#
# 1 165.0183 66.3888 57.5655 0.0000 0.0000 0.0000
# 2 66.3888 78.3436 39.2193 0.0000 0.0000 0.0000
# 3 57.5655 39.2193 57.5298 0.0000 0.0000 0.0000
# 4 0.0000 0.0000 0.0000 27.8042 0.0000 0.0000
# 5 0.0000 0.0000 0.0000 0.0000 33.9694 0.0000
# 6 0.0000 0.0000 0.0000 0.0000 0.0000 37.7153
#
#
#
# Elastic Compliance Matrix: (Units=1/GPa)
#
#
# Indices 1 2 3 4 5 6 
#
# 1 0.010737 -0.005647 -0.006893 0.000000 0.000000 0.000000
# 2 -0.005647 0.022348 -0.009584 0.000000 0.000000 0.000000
# 3 -0.006893 -0.009584 0.030814 0.000000 0.000000 0.000000
# 4 0.000000 0.000000 0.000000 0.035966 0.000000 0.000000
# 5 0.000000 0.000000 0.000000 0.000000 0.029438 0.000000
# 6 0.000000 0.000000 0.000000 0.000000 0.000000 0.026514
#
#
# Mechanical properties :
#
#
# Convention : Reuss Voigt Hill
#
# Bulk Modulus (GPa) = 50.89476 69.69322 60.29399
# Shear Modulus (GPa) = 24.19954 29.07899 26.63926
#
# Velocity S-wave (km/s) = 3.59503 3.94084 3.77190
# Velocity P-wave (km/s) = 6.66437 7.61105 7.15339
#
# Compressibility (1/GPa) = 0.01964839
#
# Stress axis : x y z
#
# Youngs Moduli (GPa) = 93.13878 44.74719 32.45329
#
# Poissons Ratio (x) = 0.25271 0.22371
# Poissons Ratio (y) = 0.52600 0.31103
# Poissons Ratio (z) = 0.64204 0.42886
#
# Static dielectric constant tensor:
#      x y z
#    x 3.670720 0.000000 0.000000 
#    y 0.000000 3.419600 0.000000 
#    z 0.000000 0.000000 3.414310 
# 
# 
# High freq. dielectric constant tensor:
#      x y z
#    x 1.744330 0.000000 0.000000 
#    y 0.000000 1.725520 0.000000 
#    z 0.000000 0.000000 1.724040 
# 
# From -- ./inp_files/2771.got.cif
#   From: 2010.03.12/outbox.cif.g09.slc.cpg/sg55_2_cif.got.tgz:2771.got - 2010.04.16 15:19:21.
