data_PCOD8226635
_publ_section_title
;
Structure prediction by ZEFSAII (Michael W. Deem and Ramdas Pophale) SiO2 
 PCOD8226635
Probable space group: P B A M
;
_chemical_formula_sum "Si O2"
_cell_formula_units_Z 64
_cell_length_a 28.586715
_cell_length_b 12.500543
_cell_length_c 8.516502
_cell_angle_alpha 90.000000
_cell_angle_beta 90.000000
_cell_angle_gamma 90.000000
_cell_volume 3043.367392
_symmetry_space_group_name_H-M "P B A M"
_symmetry_group_IT_number 55
_symmetry_cell_setting 'orthorhombic'
loop_
_space_group_symop_operation_xyz
x,y,z
-x,-y,z
1/2+x,1/2-y,-z
1/2-x,1/2+y,-z
-x,-y,-z
x,y,-z
1/2-x,1/2+y,z
1/2+x,1/2-y,z
loop_
_atom_site_type_symbol
_atom_site_label
_atom_site_fract_x
_atom_site_fract_y
_atom_site_fract_z
Si Si1 0.291791 0.440840 0.817669
Si Si2 0.805423 0.505217 0.682029
Si Si3 0.479757 0.882730 0.318113
Si Si4 0.434704 0.250282 0.315584
Si Si5 0.167887 0.726909 0.682711
Si Si6 0.878802 0.660735 0.818046
Si Si7 0.551123 0.515525 0.686226
Si Si8 0.361439 0.613718 0.684492
O O1 0.243833 0.441578 0.721209
O O2 0.316209 0.327682 0.784304
O O3 0.322980 0.542326 0.770930
O O4 0.279916 0.449220 0.000000
O O5 0.817462 0.521752 0.500000
O O6 0.801965 0.378463 0.721921
O O7 0.846914 0.558696 0.780423
O O8 0.469346 0.856915 0.500000
O O9 0.519793 0.806683 0.242008
O O10 0.431964 0.865441 0.225949
O O11 0.500000 0.000000 0.296358
O O12 0.443389 0.246574 0.500000
O O13 0.385597 0.194449 0.273227
O O14 0.429902 0.371087 0.253648
O O15 0.171359 0.760094 0.500000
O O16 0.857158 0.761845 0.725563
O O17 0.876225 0.688122 0.000000
O O18 0.500000 0.500000 0.761999
O O19 0.547287 0.512944 0.500000
O O20 0.587024 0.424121 0.741570
O O21 0.354230 0.596118 0.500000
#
# Coordination Sequence:
#
# PCOD8226635 Si02
#       8
#     8   8   8   8   8   8   8   8
#     4  12  26  43  65  96 135 170 206 263 341 402
#     4  11  25  45  71  96 123 166 226 275 318 389
#     4  10  20  37  64  95 128 172 225 271 316 383
#     4   9  16  31  58  91 123 156 208 269 314 364
#     4  10  21  42  70  97 124 162 218 273 318 379
#     4  12  26  43  63  95 139 177 214 269 340 398
#     4   9  16  28  54  89 119 154 205 264 314 357
#     4  11  22  41  67  91 125 171 224 270 316 386
#
# _framework density 21.029337999999999
#
# number of rings (size 3 to 8) (size 9 to 14) (size 15 to 20)
#    0.000    1.500    1.250    4.500    1.750    5.250 
#    0.000    0.625    0.000    1.500    0.000    0.000 
#    0.000    0.000    0.000    0.000    0.000    0.000 
#
# Total GULP energy -793646.205155 kJ/mol
# GULP energy per Si atom -12400.721956 kJ/mol
# Density = 2.098147 g / cm^3
# Si number density = 21.029338 Si / 1000 Ang^3
#
#
#
# Elastic Constant Matrix: (Units=GPa)
#
#
# Indices 1 2 3 4 5 6 
#
# 1 115.8810 32.4811 18.8896 0.0000 0.0000 0.0000
# 2 32.4811 86.5632 19.3530 0.0000 0.0000 0.0000
# 3 18.8896 19.3530 46.9646 0.0000 0.0000 0.0000
# 4 0.0000 0.0000 0.0000 21.6445 0.0000 0.0000
# 5 0.0000 0.0000 0.0000 0.0000 16.2274 0.0000
# 6 0.0000 0.0000 0.0000 0.0000 0.0000 37.2658
#
#
#
# Elastic Compliance Matrix: (Units=1/GPa)
#
#
# Indices 1 2 3 4 5 6 
#
# 1 0.009948 -0.003126 -0.002713 0.000000 0.000000 0.000000
# 2 -0.003126 0.013707 -0.004391 0.000000 0.000000 0.000000
# 3 -0.002713 -0.004391 0.024193 0.000000 0.000000 0.000000
# 4 0.000000 0.000000 0.000000 0.046201 0.000000 0.000000
# 5 0.000000 0.000000 0.000000 0.000000 0.061624 0.000000
# 6 0.000000 0.000000 0.000000 0.000000 0.000000 0.026834
#
#
# Mechanical properties :
#
#
# Convention : Reuss Voigt Hill
#
# Bulk Modulus (GPa) = 36.51234 43.42846 39.97040
# Shear Modulus (GPa) = 23.57407 26.93987 25.25697
#
# Velocity S-wave (km/s) = 3.35178 3.58307 3.46935
# Velocity P-wave (km/s) = 5.69030 6.14932 5.92425
#
# Compressibility (1/GPa) = 0.02738800
#
# Stress axis : x y z
#
# Youngs Moduli (GPa) = 100.52216 72.95532 41.33391
#
# Poissons Ratio (x) = 0.22808 0.11214
# Poissons Ratio (y) = 0.31426 0.18149
# Poissons Ratio (z) = 0.27271 0.32034
#
# Static dielectric constant tensor:
#      x y z
#    x 3.968440 0.000000 0.000000 
#    y 0.000000 3.882340 0.000000 
#    z 0.000000 0.000000 3.454660 
# 
# 
# High freq. dielectric constant tensor:
#      x y z
#    x 1.838720 0.000000 0.000000 
#    y 0.000000 1.834980 0.000000 
#    z 0.000000 0.000000 1.789150 
# 
# From -- ./inp_files/10836.got.cif
#   From: 2010.03.12/outbox.cif.g09.slc.cpg/sg55_6_cif.got.tgz:10836.got - 2010.04.16 15:19:21.
