data_PCOD8226574
_publ_section_title
;
Structure prediction by ZEFSAII (Michael W. Deem and Ramdas Pophale) SiO2 
 PCOD8226574
Probable space group: P B A M
;
_chemical_formula_sum "Si O2"
_cell_formula_units_Z 56
_cell_length_a 19.967674
_cell_length_b 16.120790
_cell_length_c 8.995003
_cell_angle_alpha 90.000000
_cell_angle_beta 90.000000
_cell_angle_gamma 90.000000
_cell_volume 2895.443606
_symmetry_space_group_name_H-M "P B A M"
_symmetry_group_IT_number 55
_symmetry_cell_setting 'orthorhombic'
loop_
_space_group_symop_operation_xyz
x,y,z
-x,-y,z
1/2+x,1/2-y,-z
1/2-x,1/2+y,-z
-x,-y,-z
x,y,-z
1/2-x,1/2+y,z
1/2+x,1/2-y,z
loop_
_atom_site_type_symbol
_atom_site_label
_atom_site_fract_x
_atom_site_fract_y
_atom_site_fract_z
Si Si1 0.107650 0.180095 0.824682
Si Si2 0.534410 0.745824 0.171546
Si Si3 0.205366 0.323735 0.823301
Si Si4 0.343593 0.338827 0.673004
Si Si5 0.556085 0.935794 0.829176
Si Si6 0.319951 0.993818 0.674844
Si Si7 0.829741 0.971801 0.670316
O O1 0.160794 0.247215 0.766015
O O2 0.126025 0.089266 0.768015
O O3 0.033723 0.204372 0.769452
O O4 0.108946 0.178830 0.000000
O O5 0.593063 0.712755 0.274804
O O6 0.526861 0.844223 0.191174
O O7 0.549175 0.722956 0.000000
O O8 0.279722 0.307433 0.764205
O O9 0.172400 0.406401 0.757329
O O10 0.206409 0.331284 0.000000
O O11 0.329583 0.322466 0.500000
O O12 0.356269 0.435856 0.702935
O O13 0.500000 0.000000 0.772487
O O14 0.622552 0.944421 0.730177
O O15 0.574969 0.954293 0.000000
O O16 0.325563 0.977635 0.500000
O O17 0.248488 0.034909 0.714247
O O18 0.840263 0.947137 0.500000
#
# Coordination Sequence:
#
# PCOD8226574 Si02
#       7
#     8   8   8   8   8   8   8
#     4  10  22  38  59  86 115 148 194 242 290 347
#     4  10  22  39  58  85 117 152 195 241 293 350
#     4  10  20  37  61  87 116 152 193 241 292 344
#     4  10  22  40  59  84 117 154 195 241 293 350
#     4  10  21  38  60  84 117 157 196 242 294 348
#     4  10  21  37  57  86 118 151 192 238 290 350
#     4   9  21  39  57  81 114 150 190 237 290 345
#
# _framework density 19.340731999999999
#
# number of rings (size 3 to 8) (size 9 to 14) (size 15 to 20)
#    0.000    2.143    0.000    3.000    2.000    8.857 
#    0.000    4.286    0.000    0.000    0.000    0.000 
#    0.000    0.000    0.000    0.000    0.000    0.000 
#
# Total GULP energy -694654.986648 kJ/mol
# GULP energy per Si atom -12404.553333 kJ/mol
# Density = 1.929671 g / cm^3
# Si number density = 19.340732 Si / 1000 Ang^3
#
#
#
# Elastic Constant Matrix: (Units=GPa)
#
#
# Indices 1 2 3 4 5 6 
#
# 1 91.8315 33.6860 27.5696 0.0000 0.0000 0.0000
# 2 33.6860 60.3686 19.3120 0.0000 0.0000 0.0000
# 3 27.5696 19.3120 54.4506 0.0000 0.0000 0.0000
# 4 0.0000 0.0000 0.0000 25.5782 0.0000 0.0000
# 5 0.0000 0.0000 0.0000 0.0000 23.2450 0.0000
# 6 0.0000 0.0000 0.0000 0.0000 0.0000 36.4635
#
#
#
# Elastic Compliance Matrix: (Units=1/GPa)
#
#
# Indices 1 2 3 4 5 6 
#
# 1 0.014883 -0.006648 -0.005177 0.000000 0.000000 0.000000
# 2 -0.006648 0.021655 -0.004314 0.000000 0.000000 0.000000
# 3 -0.005177 -0.004314 0.022517 0.000000 0.000000 0.000000
# 4 0.000000 0.000000 0.000000 0.039096 0.000000 0.000000
# 5 0.000000 0.000000 0.000000 0.000000 0.043020 0.000000
# 6 0.000000 0.000000 0.000000 0.000000 0.000000 0.027425
#
#
# Mechanical properties :
#
#
# Convention : Reuss Voigt Hill
#
# Bulk Modulus (GPa) = 37.34900 40.86509 39.10704
# Shear Modulus (GPa) = 23.83231 25.46289 24.64760
#
# Velocity S-wave (km/s) = 3.51413 3.63235 3.57373
# Velocity P-wave (km/s) = 5.98485 6.22631 6.10677
#
# Compressibility (1/GPa) = 0.02677448
#
# Stress axis : x y z
#
# Youngs Moduli (GPa) = 67.19237 46.17912 44.41130
#
# Poissons Ratio (x) = 0.30701 0.22994
# Poissons Ratio (y) = 0.44672 0.19159
# Poissons Ratio (z) = 0.34789 0.19922
#
# Static dielectric constant tensor:
#      x y z
#    x 3.604650 0.000000 0.000000 
#    y 0.000000 3.525590 0.000000 
#    z 0.000000 0.000000 3.484110 
# 
# 
# High freq. dielectric constant tensor:
#      x y z
#    x 1.758580 0.000000 0.000000 
#    y 0.000000 1.756100 0.000000 
#    z 0.000000 0.000000 1.750500 
# 
# From -- ./inp_files/8689.got.cif
#   From: 2010.03.12/outbox.cif.g09.slc.cpg/sg55_5_cif.got.tgz:8689.got - 2010.04.16 15:19:21.
