data_PCOD8226001
_publ_section_title
;
Structure prediction by ZEFSAII (Michael W. Deem and Ramdas Pophale) SiO2 
 PCOD8226001
Probable space group: P B A M
;
_chemical_formula_sum "Si O2"
_cell_formula_units_Z 56
_cell_length_a 13.582170
_cell_length_b 22.829275
_cell_length_c 8.973384
_cell_angle_alpha 90.000000
_cell_angle_beta 90.000000
_cell_angle_gamma 90.000000
_cell_volume 2782.386994
_symmetry_space_group_name_H-M "P B A M"
_symmetry_group_IT_number 55
_symmetry_cell_setting 'orthorhombic'
loop_
_space_group_symop_operation_xyz
x,y,z
-x,-y,z
1/2+x,1/2-y,-z
1/2-x,1/2+y,-z
-x,-y,-z
x,y,-z
1/2-x,1/2+y,z
1/2+x,1/2-y,z
loop_
_atom_site_type_symbol
_atom_site_label
_atom_site_fract_x
_atom_site_fract_y
_atom_site_fract_z
Si Si1 0.205245 0.835776 0.326503
Si Si2 0.405071 0.033427 0.171055
Si Si3 0.388330 0.556256 0.664701
Si Si4 0.807025 0.368233 0.334079
Si Si5 0.791140 0.041442 0.170513
Si Si6 0.982409 0.828298 0.326778
Si Si7 0.696087 0.268466 0.176539
O O1 0.232503 0.833272 0.500000
O O2 0.214388 0.901878 0.272358
O O3 0.281766 0.796711 0.234110
O O4 0.095119 0.811117 0.298695
O O5 0.394608 0.094772 0.258707
O O6 0.500000 0.000000 0.236440
O O7 0.311306 0.991990 0.189988
O O8 0.422340 0.050390 0.000000
O O9 0.415255 0.532610 0.500000
O O10 0.286324 0.590255 0.659052
O O11 0.380466 0.500646 0.774248
O O12 0.469131 0.603334 0.722043
O O13 0.839368 0.348495 0.500000
O O14 0.781153 0.310982 0.238693
O O15 0.811466 0.058855 0.000000
O O16 0.951366 0.822325 0.500000
O O17 0.912775 0.786109 0.231095
O O18 0.698171 0.270307 0.000000
#
# Coordination Sequence:
#
# PCOD8226001 Si02
#       7
#     8   8   8   8   8   8   8
#     4  11  23  40  60  82 115 154 194 239 288 341
#     4   9  18  34  55  81 114 151 191 239 291 342
#     4   8  15  31  55  80 107 139 178 223 275 334
#     4   9  17  32  55  80 107 144 189 232 276 331
#     4  10  20  34  53  81 116 150 186 233 291 342
#     4   9  20  39  62  85 109 146 194 238 281 340
#     4  11  22  38  60  84 113 148 188 238 291 344
#
# _framework density 20.126601999999998
#
# number of rings (size 3 to 8) (size 9 to 14) (size 15 to 20)
#    0.000    2.429    0.000    3.429    0.000    6.000 
#    2.571    2.857    0.000    0.000    0.000    0.000 
#    0.000    0.000    0.000    0.000    0.000    0.000 
#
# Total GULP energy -694390.477826 kJ/mol
# GULP energy per Si atom -12399.829961 kJ/mol
# Density = 2.008079 g / cm^3
# Si number density = 20.126602 Si / 1000 Ang^3
#
#
#
# Elastic Constant Matrix: (Units=GPa)
#
#
# Indices 1 2 3 4 5 6 
#
# 1 34.3630 11.1560 24.9523 0.0000 0.0000 0.0000
# 2 11.1560 81.9505 41.4117 0.0000 0.0000 0.0000
# 3 24.9523 41.4117 123.4494 0.0000 0.0000 0.0000
# 4 0.0000 0.0000 0.0000 37.3364 0.0000 0.0000
# 5 0.0000 0.0000 0.0000 0.0000 19.5579 0.0000
# 6 0.0000 0.0000 0.0000 0.0000 0.0000 26.0973
#
#
#
# Elastic Compliance Matrix: (Units=1/GPa)
#
#
# Indices 1 2 3 4 5 6 
#
# 1 0.034240 -0.001401 -0.006451 0.000000 0.000000 0.000000
# 2 -0.001401 0.014751 -0.004665 0.000000 0.000000 0.000000
# 3 -0.006451 -0.004665 0.010969 0.000000 0.000000 0.000000
# 4 0.000000 0.000000 0.000000 0.026784 0.000000 0.000000
# 5 0.000000 0.000000 0.000000 0.000000 0.051130 0.000000
# 6 0.000000 0.000000 0.000000 0.000000 0.000000 0.038318
#
#
# Mechanical properties :
#
#
# Convention : Reuss Voigt Hill
#
# Bulk Modulus (GPa) = 28.63212 43.86700 36.24956
# Shear Modulus (GPa) = 23.48878 27.41453 25.45166
#
# Velocity S-wave (km/s) = 3.41992 3.69467 3.55995
# Velocity P-wave (km/s) = 5.46364 6.32801 5.91164
#
# Compressibility (1/GPa) = 0.03492581
#
# Stress axis : x y z
#
# Youngs Moduli (GPa) = 29.20554 67.79408 91.16449
#
# Poissons Ratio (x) = 0.09501 0.58807
# Poissons Ratio (y) = 0.04093 0.42527
# Poissons Ratio (z) = 0.18840 0.31625
#
# Static dielectric constant tensor:
#      x y z
#    x 3.601780 0.000000 0.000000 
#    y 0.000000 3.667940 0.000000 
#    z 0.000000 0.000000 3.746550 
# 
# 
# High freq. dielectric constant tensor:
#      x y z
#    x 1.771360 0.000000 0.000000 
#    y 0.000000 1.784050 0.000000 
#    z 0.000000 0.000000 1.785960 
# 
# From -- ./inp_files/5988.got.cif
#   From: 2010.03.12/outbox.cif.g09.slc.cpg/sg55_3_cif.got.tgz:5988.got - 2010.04.16 15:19:21.
