data_PCOD8226040
_publ_section_title
;
Structure prediction by ZEFSAII (Michael W. Deem and Ramdas Pophale) SiO2 
 PCOD8226040
Probable space group: P B A M
;
_chemical_formula_sum "Si O2"
_cell_formula_units_Z 56
_cell_length_a 20.856936
_cell_length_b 14.765068
_cell_length_c 8.663245
_cell_angle_alpha 90.000000
_cell_angle_beta 90.000000
_cell_angle_gamma 90.000000
_cell_volume 2667.881629
_symmetry_space_group_name_H-M "P B A M"
_symmetry_group_IT_number 55
_symmetry_cell_setting 'orthorhombic'
loop_
_space_group_symop_operation_xyz
x,y,z
-x,-y,z
1/2+x,1/2-y,-z
1/2-x,1/2+y,-z
-x,-y,-z
x,y,-z
1/2-x,1/2+y,z
1/2+x,1/2-y,z
loop_
_atom_site_type_symbol
_atom_site_label
_atom_site_fract_x
_atom_site_fract_y
_atom_site_fract_z
Si Si1 0.960029 0.235108 0.676168
Si Si2 0.600211 0.235377 0.319465
Si Si3 0.234175 0.994836 0.678368
Si Si4 0.454069 0.079644 0.826515
Si Si5 0.854921 0.564500 0.827759
Si Si6 0.270457 0.689311 0.181750
Si Si7 0.335393 0.337119 0.180112
O O1 0.942422 0.212076 0.500000
O O2 0.954409 0.342457 0.700618
O O3 0.909452 0.186734 0.787319
O O4 0.034276 0.208233 0.713936
O O5 0.606046 0.215994 0.500000
O O6 0.594078 0.139672 0.229479
O O7 0.662223 0.288811 0.262482
O O8 0.226287 0.019221 0.500000
O O9 0.244647 0.086269 0.774275
O O10 0.295526 0.931273 0.710788
O O11 0.175092 0.932894 0.733762
O O12 0.500000 0.000000 0.770899
O O13 0.383363 0.036216 0.829866
O O14 0.472164 0.114166 0.000000
O O15 0.831379 0.591281 0.000000
O O16 0.213087 0.756874 0.236924
O O17 0.279202 0.696923 0.000000
O O18 0.326365 0.352792 0.000000
#
# Coordination Sequence:
#
# PCOD8226040 Si02
#       7
#     8   8   8   8   8   8   8
#     4  11  24  39  59  90 129 167 208 261 322 379
#     4  11  23  39  61  91 126 165 208 257 315 375
#     4  12  25  41  65  94 128 163 207 266 322 378
#     4  10  20  34  54  83 120 163 207 249 302 371
#     4  11  21  36  59  87 122 163 208 255 308 374
#     4  11  24  43  68  95 126 167 216 265 315 379
#     4  11  24  43  67  94 127 168 215 263 315 379
#
# _framework density 20.990435999999999
#
# number of rings (size 3 to 8) (size 9 to 14) (size 15 to 20)
#    0.000    1.000    2.857    4.286    0.000    8.286 
#    0.000    0.714    0.000    4.286    0.000    0.000 
#    0.000    0.000    0.000    0.000    0.000    0.000 
#
# Total GULP energy -694347.569702 kJ/mol
# GULP energy per Si atom -12399.063745 kJ/mol
# Density = 2.094266 g / cm^3
# Si number density = 20.990436 Si / 1000 Ang^3
#
#
#
# Elastic Constant Matrix: (Units=GPa)
#
#
# Indices 1 2 3 4 5 6 
#
# 1 106.6433 10.6449 32.3150 0.0000 0.0000 0.0000
# 2 10.6449 56.3479 15.0094 0.0000 0.0000 0.0000
# 3 32.3150 15.0094 75.1378 0.0000 0.0000 0.0000
# 4 0.0000 0.0000 0.0000 33.2998 0.0000 0.0000
# 5 0.0000 0.0000 0.0000 0.0000 32.2179 0.0000
# 6 0.0000 0.0000 0.0000 0.0000 0.0000 29.1819
#
#
#
# Elastic Compliance Matrix: (Units=1/GPa)
#
#
# Indices 1 2 3 4 5 6 
#
# 1 0.010821 -0.000850 -0.004484 0.000000 0.000000 0.000000
# 2 -0.000850 0.018811 -0.003392 0.000000 0.000000 0.000000
# 3 -0.004484 -0.003392 0.015915 0.000000 0.000000 0.000000
# 4 0.000000 0.000000 0.000000 0.030030 0.000000 0.000000
# 5 0.000000 0.000000 0.000000 0.000000 0.031039 0.000000
# 6 0.000000 0.000000 0.000000 0.000000 0.000000 0.034268
#
#
# Mechanical properties :
#
#
# Convention : Reuss Voigt Hill
#
# Bulk Modulus (GPa) = 35.59385 39.34083 37.46734
# Shear Modulus (GPa) = 29.81514 30.95055 30.38285
#
# Velocity S-wave (km/s) = 3.77293 3.84410 3.80868
# Velocity P-wave (km/s) = 5.99783 6.20369 6.10163
#
# Compressibility (1/GPa) = 0.02809474
#
# Stress axis : x y z
#
# Youngs Moduli (GPa) = 92.41634 53.16039 62.83405
#
# Poissons Ratio (x) = 0.04517 0.28174
# Poissons Ratio (y) = 0.07853 0.21315
# Poissons Ratio (z) = 0.41439 0.18033
#
# Static dielectric constant tensor:
#      x y z
#    x 3.999880 0.000000 0.000000 
#    y 0.000000 3.674790 0.000000 
#    z 0.000000 0.000000 3.689130 
# 
# 
# High freq. dielectric constant tensor:
#      x y z
#    x 1.832700 0.000000 0.000000 
#    y 0.000000 1.802720 0.000000 
#    z 0.000000 0.000000 1.823690 
# 
# From -- ./inp_files/8801.got.cif
#   From: 2010.03.12/outbox.cif.g09.slc.cpg/sg55_5_cif.got.tgz:8801.got - 2010.04.16 15:19:21.
