data_PCOD8226378
_publ_section_title
;
Structure prediction by ZEFSAII (Michael W. Deem and Ramdas Pophale) SiO2 
 PCOD8226378
Probable space group: P B A M
;
_chemical_formula_sum "Si O2"
_cell_formula_units_Z 64
_cell_length_a 12.466164
_cell_length_b 18.381658
_cell_length_c 14.046959
_cell_angle_alpha 90.000000
_cell_angle_beta 90.000000
_cell_angle_gamma 90.000000
_cell_volume 3218.843282
_symmetry_space_group_name_H-M "P B A M"
_symmetry_group_IT_number 55
_symmetry_cell_setting 'orthorhombic'
loop_
_space_group_symop_operation_xyz
x,y,z
-x,-y,z
1/2+x,1/2-y,-z
1/2-x,1/2+y,-z
-x,-y,-z
x,y,-z
1/2-x,1/2+y,z
1/2+x,1/2-y,z
loop_
_atom_site_type_symbol
_atom_site_label
_atom_site_fract_x
_atom_site_fract_y
_atom_site_fract_z
Si Si1 0.549392 0.924543 0.794095
Si Si2 0.812865 0.108955 0.888690
Si Si3 0.826643 0.891849 0.394371
Si Si4 0.050146 0.156239 0.110060
Si Si5 0.088143 0.634925 0.397788
Si Si6 0.209331 0.046390 0.803095
Si Si7 0.622765 0.194305 0.195246
Si Si8 0.089765 0.259119 0.393908
O O1 0.545816 0.922679 0.679404
O O2 0.674030 0.917693 0.824756
O O3 0.477013 0.858330 0.833516
O O4 0.500000 0.000000 0.831297
O O5 0.727494 0.170931 0.862423
O O6 0.929365 0.137690 0.859762
O O7 0.784825 0.038002 0.827883
O O8 0.806408 0.090154 0.000000
O O9 0.842413 0.928530 0.500000
O O10 0.713938 0.849331 0.389117
O O11 0.828576 0.949627 0.308121
O O12 0.913327 0.827991 0.377662
O O13 0.123676 0.086300 0.130622
O O14 0.091440 0.224094 0.169363
O O15 0.056983 0.176297 0.000000
O O16 0.059982 0.599585 0.500000
O O17 0.033290 0.713978 0.387012
O O18 0.650399 0.196908 0.308780
O O19 0.137776 0.276944 0.500000
#
# Coordination Sequence:
#
# PCOD8226378 Si02
#       8
#     8   8   8   8   8   8   8   8
#     4  10  20  36  58  87 122 158 192 246 309 361
#     4  11  25  44  65  89 123 161 207 260 309 376
#     4   9  17  32  56  87 120 157 200 247 304 363
#     4  11  25  43  66  90 116 160 213 256 303 369
#     4   8  16  28  49  80 115 155 198 240 288 351
#     4  11  21  41  65  89 122 166 202 250 315 368
#     4  11  22  40  63  94 126 157 204 258 310 360
#     4   9  17  32  55  85 122 159 196 241 298 364
#
# _framework density 19.882919999999999
#
# number of rings (size 3 to 8) (size 9 to 14) (size 15 to 20)
#    0.000    2.000    2.500    1.125    1.750    2.250 
#    0.000    3.125    0.000    2.250    0.000    0.000 
#    0.000    0.000    0.000    0.000    0.000    0.000 
#
# Total GULP energy -793174.447929 kJ/mol
# GULP energy per Si atom -12393.350749 kJ/mol
# Density = 1.983767 g / cm^3
# Si number density = 19.882920 Si / 1000 Ang^3
#
#
#
# Elastic Constant Matrix: (Units=GPa)
#
#
# Indices 1 2 3 4 5 6 
#
# 1 97.0373 21.0831 36.1519 0.0000 0.0000 0.0000
# 2 21.0831 64.4995 23.2198 0.0000 0.0000 0.0000
# 3 36.1519 23.2198 77.9661 0.0000 0.0000 0.0000
# 4 0.0000 0.0000 0.0000 28.3425 0.0000 0.0000
# 5 0.0000 0.0000 0.0000 0.0000 24.5420 0.0000
# 6 0.0000 0.0000 0.0000 0.0000 0.0000 31.9835
#
#
#
# Elastic Compliance Matrix: (Units=1/GPa)
#
#
# Indices 1 2 3 4 5 6 
#
# 1 0.012751 -0.002284 -0.005232 0.000000 0.000000 0.000000
# 2 -0.002284 0.017775 -0.004235 0.000000 0.000000 0.000000
# 3 -0.005232 -0.004235 0.016513 0.000000 0.000000 0.000000
# 4 0.000000 0.000000 0.000000 0.035283 0.000000 0.000000
# 5 0.000000 0.000000 0.000000 0.000000 0.040746 0.000000
# 6 0.000000 0.000000 0.000000 0.000000 0.000000 0.031266
#
#
# Mechanical properties :
#
#
# Convention : Reuss Voigt Hill
#
# Bulk Modulus (GPa) = 42.48580 44.49028 43.48804
# Shear Modulus (GPa) = 26.92772 27.57682 27.25227
#
# Velocity S-wave (km/s) = 3.68409 3.72823 3.70623
# Velocity P-wave (km/s) = 6.28579 6.39982 6.34306
#
# Compressibility (1/GPa) = 0.02353728
#
# Stress axis : x y z
#
# Youngs Moduli (GPa) = 78.42596 56.25842 60.55740
#
# Poissons Ratio (x) = 0.12851 0.31684
# Poissons Ratio (y) = 0.17915 0.25643
# Poissons Ratio (z) = 0.41033 0.23823
#
# Static dielectric constant tensor:
#      x y z
#    x 3.674470 0.000000 0.000000 
#    y 0.000000 3.313820 0.000000 
#    z 0.000000 0.000000 3.834740 
# 
# 
# High freq. dielectric constant tensor:
#      x y z
#    x 1.770660 0.000000 0.000000 
#    y 0.000000 1.753670 0.000000 
#    z 0.000000 0.000000 1.785640 
# 
# From -- ./inp_files/18553.got.cif
#   From: 2010.03.12/outbox.cif.g09.slc.cpg/sg55_10_cif.got.tgz:18553.got - 2010.04.16 15:19:21.
