data_PCOD8226485
_publ_section_title
;
Structure prediction by ZEFSAII (Michael W. Deem and Ramdas Pophale) SiO2 
 PCOD8226485
Probable space group: P B A M
;
_chemical_formula_sum "Si O2"
_cell_formula_units_Z 56
_cell_length_a 34.834228
_cell_length_b 5.548807
_cell_length_c 13.114667
_cell_angle_alpha 90.000000
_cell_angle_beta 90.000000
_cell_angle_gamma 90.000000
_cell_volume 2534.913108
_symmetry_space_group_name_H-M "P B A M"
_symmetry_group_IT_number 55
_symmetry_cell_setting 'orthorhombic'
loop_
_space_group_symop_operation_xyz
x,y,z
-x,-y,z
1/2+x,1/2-y,-z
1/2-x,1/2+y,-z
-x,-y,-z
x,y,-z
1/2-x,1/2+y,z
1/2+x,1/2-y,z
loop_
_atom_site_type_symbol
_atom_site_label
_atom_site_fract_x
_atom_site_fract_y
_atom_site_fract_z
Si Si1 0.663854 0.426260 0.740587
Si Si2 0.113929 0.735578 0.385041
Si Si3 0.405178 0.861557 0.226533
Si Si4 0.228276 0.930296 0.880787
Si Si5 0.228154 0.271931 0.380906
Si Si6 0.458059 0.485780 0.306024
Si Si7 0.537774 0.842997 0.114359
O O1 0.646626 0.575978 0.646242
O O2 0.627707 0.326847 0.807779
O O3 0.688446 0.586229 0.819289
O O4 0.689576 0.219575 0.686466
O O5 0.121843 0.650803 0.500000
O O6 0.118153 0.518814 0.307330
O O7 0.070472 0.837686 0.378067
O O8 0.440931 0.749716 0.288630
O O9 0.423071 0.002797 0.130981
O O10 0.252072 0.688880 0.851284
O O11 0.218910 0.926784 0.000000
O O12 0.218234 0.277591 0.500000
O O13 0.251947 0.512928 0.351824
O O14 0.500000 0.500000 0.358560
O O15 0.462346 0.374286 0.193194
O O16 0.500000 0.000000 0.131998
O O17 0.538877 0.737469 0.000000
#
# Coordination Sequence:
#
# PCOD8226485 Si02
#       7
#     8   8   8   8   8   8   8
#     4  11  23  39  65  90 125 169 206 264 321 386
#     4  10  24  41  59  89 122 164 212 262 324 383
#     4  10  23  39  59  89 126 166 207 264 323 389
#     4  10  23  43  70 101 133 173 221 269 325 396
#     4  10  22  38  60  93 125 162 214 268 322 388
#     4  10  20  39  62  87 123 160 209 262 316 382
#     4  10  20  36  63  92 121 160 207 263 322 383
#
# _framework density 22.091488999999999
#
# number of rings (size 3 to 8) (size 9 to 14) (size 15 to 20)
#    0.000    1.857    1.429    1.286    4.000    4.571 
#    0.000    6.429    0.000    0.000    0.000    0.000 
#    0.000    0.000    0.000    0.000    0.000    0.000 
#
# Total GULP energy -694113.064034 kJ/mol
# GULP energy per Si atom -12394.876143 kJ/mol
# Density = 2.204121 g / cm^3
# Si number density = 22.091489 Si / 1000 Ang^3
#
#
#
# Elastic Constant Matrix: (Units=GPa)
#
#
# Indices 1 2 3 4 5 6 
#
# 1 123.4422 17.4256 40.9259 0.0000 0.0000 0.0000
# 2 17.4256 73.6014 18.0655 0.0000 0.0000 0.0000
# 3 40.9259 18.0655 74.6152 0.0000 0.0000 0.0000
# 4 0.0000 0.0000 0.0000 11.7498 0.0000 0.0000
# 5 0.0000 0.0000 0.0000 0.0000 23.2888 0.0000
# 6 0.0000 0.0000 0.0000 0.0000 0.0000 23.4223
#
#
#
# Elastic Compliance Matrix: (Units=1/GPa)
#
#
# Indices 1 2 3 4 5 6 
#
# 1 0.009982 -0.001084 -0.005213 0.000000 0.000000 0.000000
# 2 -0.001084 0.014563 -0.002931 0.000000 0.000000 0.000000
# 3 -0.005213 -0.002931 0.016971 0.000000 0.000000 0.000000
# 4 0.000000 0.000000 0.000000 0.085108 0.000000 0.000000
# 5 0.000000 0.000000 0.000000 0.000000 0.042939 0.000000
# 6 0.000000 0.000000 0.000000 0.000000 0.000000 0.042694
#
#
# Mechanical properties :
#
#
# Convention : Reuss Voigt Hill
#
# Bulk Modulus (GPa) = 43.36515 47.16586 45.26550
# Shear Modulus (GPa) = 20.97315 24.70830 22.84072
#
# Velocity S-wave (km/s) = 3.08454 3.34796 3.21894
# Velocity P-wave (km/s) = 5.68843 6.02841 5.86088
#
# Compressibility (1/GPa) = 0.02305999
#
# Stress axis : x y z
#
# Youngs Moduli (GPa) = 100.17843 68.66801 58.92411
#
# Poissons Ratio (x) = 0.07443 0.30716
# Poissons Ratio (y) = 0.10858 0.17273
# Poissons Ratio (z) = 0.52220 0.20129
#
# Static dielectric constant tensor:
#      x y z
#    x 4.313010 0.000000 0.000000 
#    y 0.000000 4.026400 0.000000 
#    z 0.000000 0.000000 3.797020 
# 
# 
# High freq. dielectric constant tensor:
#      x y z
#    x 1.880530 0.000000 0.000000 
#    y 0.000000 1.868220 0.000000 
#    z 0.000000 0.000000 1.855970 
# 
# From -- ./inp_files/20150.got.cif
#   From: 2010.03.12/outbox.cif.g09.slc.cpg/sg55_11_cif.got.tgz:20150.got - 2010.04.16 15:19:21.
