data_PCOD8226006
_publ_section_title
;
Structure prediction by ZEFSAII (Michael W. Deem and Ramdas Pophale) SiO2 
 PCOD8226006
Probable space group: P B A M
;
_chemical_formula_sum "Si O2"
_cell_formula_units_Z 56
_cell_length_a 19.940715
_cell_length_b 16.488465
_cell_length_c 9.177997
_cell_angle_alpha 90.000000
_cell_angle_beta 90.000000
_cell_angle_gamma 90.000000
_cell_volume 3017.649983
_symmetry_space_group_name_H-M "P B A M"
_symmetry_group_IT_number 55
_symmetry_cell_setting 'orthorhombic'
loop_
_space_group_symop_operation_xyz
x,y,z
-x,-y,z
1/2+x,1/2-y,-z
1/2-x,1/2+y,-z
-x,-y,-z
x,y,-z
1/2-x,1/2+y,z
1/2+x,1/2-y,z
loop_
_atom_site_type_symbol
_atom_site_label
_atom_site_fract_x
_atom_site_fract_y
_atom_site_fract_z
Si Si1 0.047851 0.568115 0.170383
Si Si2 0.247798 0.735729 0.331540
Si Si3 0.196776 0.583601 0.167375
Si Si4 0.521724 0.751741 0.172922
Si Si5 0.375750 0.693709 0.830449
Si Si6 0.664991 0.487393 0.833174
Si Si7 0.868727 0.144515 0.331213
O O1 0.124915 0.543445 0.202432
O O2 0.032012 0.657171 0.233691
O O3 0.000000 0.500000 0.243762
O O4 0.032474 0.571232 0.000000
O O5 0.260731 0.718006 0.500000
O O6 0.205286 0.661708 0.267323
O O7 0.319446 0.745551 0.253436
O O8 0.204646 0.816830 0.306836
O O9 0.254974 0.517936 0.195965
O O10 0.200082 0.613942 0.000000
O O11 0.448214 0.723002 0.221420
O O12 0.575457 0.693853 0.245864
O O13 0.531736 0.746448 0.000000
O O14 0.368547 0.598638 0.794750
O O15 0.364236 0.710401 0.000000
O O16 0.632417 0.553240 0.728189
O O17 0.650323 0.511744 0.000000
O O18 0.888530 0.142985 0.500000
#
# Coordination Sequence:
#
# PCOD8226006 Si02
#       7
#     8   8   8   8   8   8   8
#     4   9  17  30  53  85 114 139 174 222 277 332
#     4  10  20  34  54  77 105 145 185 226 272 324
#     4   9  17  33  56  80 106 138 179 226 274 326
#     4  10  20  36  59  82 109 147 183 226 281 331
#     4   9  20  37  57  83 110 141 185 231 279 332
#     4   9  19  34  53  78 107 141 184 234 278 321
#     4  11  23  36  53  80 112 147 191 228 269 332
#
# _framework density 18.557487999999999
#
# number of rings (size 3 to 8) (size 9 to 14) (size 15 to 20)
#    0.000    2.429    1.429    1.714    0.000    6.286 
#    0.000    5.714    0.000    1.714    0.000    0.000 
#    0.000    0.000    0.000    0.000    0.000    0.000 
#
# Total GULP energy -694413.902894 kJ/mol
# GULP energy per Si atom -12400.248266 kJ/mol
# Density = 1.851525 g / cm^3
# Si number density = 18.557488 Si / 1000 Ang^3
#
#
#
# Elastic Constant Matrix: (Units=GPa)
#
#
# Indices 1 2 3 4 5 6 
#
# 1 142.4421 60.3540 40.4679 0.0000 0.0000 0.0000
# 2 60.3540 74.4262 26.2239 0.0000 0.0000 0.0000
# 3 40.4679 26.2239 56.8832 0.0000 0.0000 0.0000
# 4 0.0000 0.0000 0.0000 18.6248 0.0000 0.0000
# 5 0.0000 0.0000 0.0000 0.0000 19.5331 0.0000
# 6 0.0000 0.0000 0.0000 0.0000 0.0000 28.9876
#
#
#
# Elastic Compliance Matrix: (Units=1/GPa)
#
#
# Indices 1 2 3 4 5 6 
#
# 1 0.011660 -0.007800 -0.004700 0.000000 0.000000 0.000000
# 2 -0.007800 0.021259 -0.004252 0.000000 0.000000 0.000000
# 3 -0.004700 -0.004252 0.022883 0.000000 0.000000 0.000000
# 4 0.000000 0.000000 0.000000 0.053692 0.000000 0.000000
# 5 0.000000 0.000000 0.000000 0.000000 0.051195 0.000000
# 6 0.000000 0.000000 0.000000 0.000000 0.000000 0.034498
#
#
# Mechanical properties :
#
#
# Convention : Reuss Voigt Hill
#
# Bulk Modulus (GPa) = 44.84197 58.64925 51.74561
# Shear Modulus (GPa) = 21.17532 23.20947 22.19240
#
# Velocity S-wave (km/s) = 3.38163 3.54033 3.46189
# Velocity P-wave (km/s) = 6.28200 6.95591 6.62752
#
# Compressibility (1/GPa) = 0.02230054
#
# Stress axis : x y z
#
# Youngs Moduli (GPa) = 85.76029 47.03819 43.69962
#
# Poissons Ratio (x) = 0.36689 0.20537
# Poissons Ratio (y) = 0.66891 0.18581
# Poissons Ratio (z) = 0.40304 0.20000
#
# Static dielectric constant tensor:
#      x y z
#    x 3.627580 0.000000 0.000000 
#    y 0.000000 3.363780 0.000000 
#    z 0.000000 0.000000 3.223010 
# 
# 
# High freq. dielectric constant tensor:
#      x y z
#    x 1.730690 0.000000 0.000000 
#    y 0.000000 1.711310 0.000000 
#    z 0.000000 0.000000 1.699240 
# 
# From -- ./inp_files/8692.got.cif
#   From: 2010.03.12/outbox.cif.g09.slc.cpg/sg55_5_cif.got.tgz:8692.got - 2010.04.16 15:19:21.
