data_PCOD8226925
_publ_section_title
;
Structure prediction by ZEFSAII (Michael W. Deem and Ramdas Pophale) SiO2 
 PCOD8226925
Probable space group: P B A M
;
_chemical_formula_sum "Si O2"
_cell_formula_units_Z 64
_cell_length_a 24.711650
_cell_length_b 14.719489
_cell_length_c 9.011718
_cell_angle_alpha 90.000000
_cell_angle_beta 90.000000
_cell_angle_gamma 90.000000
_cell_volume 3277.948082
_symmetry_space_group_name_H-M "P B A M"
_symmetry_group_IT_number 55
_symmetry_cell_setting 'orthorhombic'
loop_
_space_group_symop_operation_xyz
x,y,z
-x,-y,z
1/2+x,1/2-y,-z
1/2-x,1/2+y,-z
-x,-y,-z
x,y,-z
1/2-x,1/2+y,z
1/2+x,1/2-y,z
loop_
_atom_site_type_symbol
_atom_site_label
_atom_site_fract_x
_atom_site_fract_y
_atom_site_fract_z
Si Si1 0.871847 0.848557 0.323878
Si Si2 0.060822 0.300354 0.172964
Si Si3 0.724286 0.035489 0.331819
Si Si4 0.396609 0.978780 0.673617
Si Si5 0.331278 0.483069 0.825208
Si Si6 0.841878 0.223117 0.825724
Si Si7 0.561111 0.849738 0.171847
Si Si8 0.235005 0.253733 0.330845
O O1 0.879083 0.849118 0.500000
O O2 0.920484 0.791897 0.252124
O O3 0.872990 0.950446 0.258546
O O4 0.814917 0.805404 0.272363
O O5 0.090783 0.386016 0.242871
O O6 0.996932 0.306075 0.199844
O O7 0.075395 0.296403 0.000000
O O8 0.742171 0.012576 0.500000
O O9 0.665724 0.992654 0.295724
O O10 0.769448 0.994511 0.222813
O O11 0.718029 0.142624 0.308711
O O12 0.407186 0.963275 0.500000
O O13 0.434889 0.058315 0.733717
O O14 0.346392 0.381347 0.772277
O O15 0.337128 0.496347 0.000000
O O16 0.894951 0.276599 0.772429
O O17 0.789014 0.271295 0.758556
O O18 0.835152 0.225843 0.000000
O O19 0.569931 0.875184 0.000000
O O20 0.247651 0.229888 0.500000
#
# Coordination Sequence:
#
# PCOD8226925 Si02
#       8
#     8   8   8   8   8   8   8   8
#     4  11  22  38  59  85 118 154 192 240 293 347
#     4  11  23  40  61  84 115 153 198 245 292 347
#     4   9  18  35  54  79 116 153 185 224 279 342
#     4  11  22  37  58  86 119 156 193 235 292 353
#     4  10  21  36  57  86 116 151 193 238 289 346
#     4   9  20  39  59  82 115 150 191 240 290 341
#     4  10  23  41  59  83 115 154 197 247 296 343
#     4   9  18  34  55  79 111 148 184 227 283 342
#
# _framework density 19.524408999999999
#
# number of rings (size 3 to 8) (size 9 to 14) (size 15 to 20)
#    0.000    2.000    1.250    1.875    1.750    5.500 
#    0.000    0.625    0.000    3.750    0.000    0.000 
#    0.000    0.000    0.000    0.000    0.000    0.000 
#
# Total GULP energy -793825.312128 kJ/mol
# GULP energy per Si atom -12403.520502 kJ/mol
# Density = 1.947997 g / cm^3
# Si number density = 19.524409 Si / 1000 Ang^3
#
#
#
# Elastic Constant Matrix: (Units=GPa)
#
#
# Indices 1 2 3 4 5 6 
#
# 1 75.3991 16.5258 30.7370 0.0000 0.0000 0.0000
# 2 16.5258 39.6020 17.1884 0.0000 0.0000 0.0000
# 3 30.7370 17.1884 68.9445 0.0000 0.0000 0.0000
# 4 0.0000 0.0000 0.0000 27.9295 0.0000 0.0000
# 5 0.0000 0.0000 0.0000 0.0000 22.6155 0.0000
# 6 0.0000 0.0000 0.0000 0.0000 0.0000 30.7160
#
#
#
# Elastic Compliance Matrix: (Units=1/GPa)
#
#
# Indices 1 2 3 4 5 6 
#
# 1 0.016815 -0.004220 -0.006444 0.000000 0.000000 0.000000
# 2 -0.004220 0.029374 -0.005442 0.000000 0.000000 0.000000
# 3 -0.006444 -0.005442 0.018734 0.000000 0.000000 0.000000
# 4 0.000000 0.000000 0.000000 0.035804 0.000000 0.000000
# 5 0.000000 0.000000 0.000000 0.000000 0.044217 0.000000
# 6 0.000000 0.000000 0.000000 0.000000 0.000000 0.032556
#
#
# Mechanical properties :
#
#
# Convention : Reuss Voigt Hill
#
# Bulk Modulus (GPa) = 30.57080 34.76087 32.66583
# Shear Modulus (GPa) = 22.66374 24.21851 23.44113
#
# Velocity S-wave (km/s) = 3.41073 3.52578 3.46874
# Velocity P-wave (km/s) = 5.58592 5.86663 5.72799
#
# Compressibility (1/GPa) = 0.03271096
#
# Stress axis : x y z
#
# Youngs Moduli (GPa) = 59.47173 34.04367 53.37842
#
# Poissons Ratio (x) = 0.14365 0.34399
# Poissons Ratio (y) = 0.25095 0.29048
# Poissons Ratio (z) = 0.38326 0.18526
#
# Static dielectric constant tensor:
#      x y z
#    x 3.581530 0.000000 0.000000 
#    y 0.000000 3.620920 0.000000 
#    z 0.000000 0.000000 3.536650 
# 
# 
# High freq. dielectric constant tensor:
#      x y z
#    x 1.752830 0.000000 0.000000 
#    y 0.000000 1.761880 0.000000 
#    z 0.000000 0.000000 1.760540 
# 
# From -- ./inp_files/6688.got.cif
#   From: 2010.03.12/outbox.cif.g09.slc.cpg/sg55_4_cif.got.tgz:6688.got - 2010.04.16 15:19:21.
