data_PCOD8226752
_publ_section_title
;
Structure prediction by ZEFSAII (Michael W. Deem and Ramdas Pophale) SiO2 
 PCOD8226752
Probable space group: P B A M
;
_chemical_formula_sum "Si O2"
_cell_formula_units_Z 56
_cell_length_a 17.675232
_cell_length_b 11.173398
_cell_length_c 13.141218
_cell_angle_alpha 90.000000
_cell_angle_beta 90.000000
_cell_angle_gamma 90.000000
_cell_volume 2595.290706
_symmetry_space_group_name_H-M "P B A M"
_symmetry_group_IT_number 55
_symmetry_cell_setting 'orthorhombic'
loop_
_space_group_symop_operation_xyz
x,y,z
-x,-y,z
1/2+x,1/2-y,-z
1/2-x,1/2+y,-z
-x,-y,-z
x,y,-z
1/2-x,1/2+y,z
1/2+x,1/2-y,z
loop_
_atom_site_type_symbol
_atom_site_label
_atom_site_fract_x
_atom_site_fract_y
_atom_site_fract_z
Si Si1 0.451166 0.611420 0.317962
Si Si2 0.959639 0.771311 0.885405
Si Si3 0.282223 0.618221 0.384320
Si Si4 0.067887 0.588696 0.786307
Si Si5 0.677411 0.089466 0.885915
Si Si6 0.086479 0.756494 0.381591
Si Si7 0.275906 0.369107 0.296287
O O1 0.500000 0.500000 0.353940
O O2 0.446880 0.621147 0.194836
O O3 0.371368 0.608513 0.371031
O O4 0.497053 0.723540 0.365515
O O5 0.883956 0.693592 0.879240
O O6 0.034293 0.695883 0.855410
O O7 0.970440 0.821535 0.000000
O O8 0.257965 0.623367 0.500000
O O9 0.244667 0.495211 0.341250
O O10 0.257600 0.745138 0.338412
O O11 0.137082 0.531042 0.847349
O O12 0.103917 0.633570 0.679019
O O13 0.000000 0.500000 0.760157
O O14 0.752480 0.124633 0.822212
O O15 0.706144 0.068341 0.000000
O O16 0.109489 0.746477 0.500000
O O17 0.134395 0.861588 0.322640
#
# Coordination Sequence:
#
# PCOD8226752 Si02
#       7
#     8   8   8   8   8   8   8
#     4  11  22  40  65  93 127 172 222 271 323 403
#     4   9  18  36  63  94 127 166 210 267 330 387
#     4  12  25  44  69  95 132 177 221 271 333 391
#     4   9  19  37  65  97 129 163 215 274 329 400
#     4  10  20  39  64  91 128 172 212 266 330 394
#     4  11  23  40  62  91 132 174 220 275 331 391
#     4  12  25  43  65  97 131 172 223 273 325 396
#
# _framework density 21.577545000000001
#
# number of rings (size 3 to 8) (size 9 to 14) (size 15 to 20)
#    0.000    1.429    2.857    3.000    0.000    2.857 
#    0.000    7.857    0.000    0.000    0.000    0.000 
#    0.000    0.000    0.000    0.000    0.000    0.000 
#
# Total GULP energy -693924.189716 kJ/mol
# GULP energy per Si atom -12391.503388 kJ/mol
# Density = 2.152843 g / cm^3
# Si number density = 21.577545 Si / 1000 Ang^3
#
#
#
# Elastic Constant Matrix: (Units=GPa)
#
#
# Indices 1 2 3 4 5 6 
#
# 1 49.3465 13.2323 25.5772 0.0000 0.0000 0.0000
# 2 13.2323 99.1561 29.1812 0.0000 0.0000 0.0000
# 3 25.5772 29.1812 168.1451 0.0000 0.0000 0.0000
# 4 0.0000 0.0000 0.0000 28.2268 0.0000 0.0000
# 5 0.0000 0.0000 0.0000 0.0000 21.2368 0.0000
# 6 0.0000 0.0000 0.0000 0.0000 0.0000 24.6057
#
#
#
# Elastic Compliance Matrix: (Units=1/GPa)
#
#
# Indices 1 2 3 4 5 6 
#
# 1 0.022404 -0.002094 -0.003045 0.000000 0.000000 0.000000
# 2 -0.002094 0.010824 -0.001560 0.000000 0.000000 0.000000
# 3 -0.003045 -0.001560 0.006681 0.000000 0.000000 0.000000
# 4 0.000000 0.000000 0.000000 0.035427 0.000000 0.000000
# 5 0.000000 0.000000 0.000000 0.000000 0.047088 0.000000
# 6 0.000000 0.000000 0.000000 0.000000 0.000000 0.040641
#
#
# Mechanical properties :
#
#
# Convention : Reuss Voigt Hill
#
# Bulk Modulus (GPa) = 37.71826 50.29211 44.00519
# Shear Modulus (GPa) = 26.98332 31.39099 29.18715
#
# Velocity S-wave (km/s) = 3.54012 3.81832 3.68185
# Velocity P-wave (km/s) = 5.85049 6.54199 6.20588
#
# Compressibility (1/GPa) = 0.02651236
#
# Stress axis : x y z
#
# Youngs Moduli (GPa) = 44.63408 92.39063 149.67608
#
# Poissons Ratio (x) = 0.19345 0.45571
# Poissons Ratio (y) = 0.09346 0.23348
# Poissons Ratio (z) = 0.13589 0.14412
#
# Static dielectric constant tensor:
#      x y z
#    x 4.260910 0.000000 0.000000 
#    y 0.000000 4.017440 0.000000 
#    z 0.000000 0.000000 3.967520 
# 
# 
# High freq. dielectric constant tensor:
#      x y z
#    x 1.847360 0.000000 0.000000 
#    y 0.000000 1.845930 0.000000 
#    z 0.000000 0.000000 1.844310 
# 
# From -- ./inp_files/15332.got.cif
#   From: 2010.03.12/outbox.cif.g09.slc.cpg/sg55_8_cif.got.tgz:15332.got - 2010.04.16 15:19:21.
