data_PCOD8226034
_publ_section_title
;
Structure prediction by ZEFSAII (Michael W. Deem and Ramdas Pophale) SiO2 
 PCOD8226034
Probable space group: P B A M
;
_chemical_formula_sum "Si O2"
_cell_formula_units_Z 64
_cell_length_a 14.690647
_cell_length_b 24.525794
_cell_length_c 9.244730
_cell_angle_alpha 90.000000
_cell_angle_beta 90.000000
_cell_angle_gamma 90.000000
_cell_volume 3330.874204
_symmetry_space_group_name_H-M "P B A M"
_symmetry_group_IT_number 55
_symmetry_cell_setting 'orthorhombic'
loop_
_space_group_symop_operation_xyz
x,y,z
-x,-y,z
1/2+x,1/2-y,-z
1/2-x,1/2+y,-z
-x,-y,-z
x,y,-z
1/2-x,1/2+y,z
1/2+x,1/2-y,z
loop_
_atom_site_type_symbol
_atom_site_label
_atom_site_fract_x
_atom_site_fract_y
_atom_site_fract_z
Si Si1 0.237955 0.059789 0.330691
Si Si2 0.370495 0.266167 0.670501
Si Si3 0.996654 0.330239 0.330348
Si Si4 0.163018 0.257516 0.669043
Si Si5 0.856010 0.849557 0.835682
Si Si6 0.447226 0.051861 0.669481
Si Si7 0.442116 0.365643 0.839978
Si Si8 0.399309 0.485058 0.166578
O O1 0.219030 0.066722 0.500000
O O2 0.219303 0.117625 0.254436
O O3 0.341243 0.043468 0.298324
O O4 0.175112 0.012671 0.267407
O O5 0.379503 0.266258 0.500000
O O6 0.422665 0.212907 0.733868
O O7 0.265859 0.268103 0.720403
O O8 0.417508 0.321064 0.722765
O O9 0.978179 0.334255 0.500000
O O10 0.099550 0.309939 0.297992
O O11 0.982043 0.390512 0.261862
O O12 0.158251 0.242012 0.500000
O O13 0.124203 0.208373 0.763071
O O14 0.951227 0.882229 0.829734
O O15 0.821724 0.842087 0.000000
O O16 0.468020 0.053416 0.500000
O O17 0.500000 0.000000 0.739240
O O18 0.384375 0.420349 0.814829
O O19 0.422186 0.341772 0.000000
O O20 0.500000 0.500000 0.220627
O O21 0.385260 0.503669 0.000000
#
# Coordination Sequence:
#
# PCOD8226034 Si02
#       8
#     8   8   8   8   8   8   8   8
#     4  11  22  35  58  89 115 146 197 247 283 337
#     4  10  20  34  54  82 115 146 181 232 286 335
#     4   9  17  32  53  78 111 149 182 222 279 333
#     4  10  20  34  56  84 112 148 191 233 282 339
#     4  11  21  36  57  81 113 153 192 231 283 342
#     4   9  19  36  57  82 115 152 188 232 286 338
#     4  10  21  36  55  78 109 150 187 225 278 344
#     4  10  20  38  57  77 113 154 187 225 285 352
#
# _framework density 19.214175999999998
#
# number of rings (size 3 to 8) (size 9 to 14) (size 15 to 20)
#    0.000    2.000    2.500    1.500    0.000    4.750 
#    0.000    2.500    0.000    2.250    0.000    0.000 
#    0.000    0.000    0.000    0.000    0.000    0.000 
#
# Total GULP energy -793577.387864 kJ/mol
# GULP energy per Si atom -12399.646685 kJ/mol
# Density = 1.917044 g / cm^3
# Si number density = 19.214176 Si / 1000 Ang^3
#
#
#
# Elastic Constant Matrix: (Units=GPa)
#
#
# Indices 1 2 3 4 5 6 
#
# 1 120.7098 62.9439 37.6151 0.0000 0.0000 0.0000
# 2 62.9439 130.8910 35.3619 0.0000 0.0000 0.0000
# 3 37.6151 35.3619 52.3375 0.0000 0.0000 0.0000
# 4 0.0000 0.0000 0.0000 18.0854 0.0000 0.0000
# 5 0.0000 0.0000 0.0000 0.0000 12.7950 0.0000
# 6 0.0000 0.0000 0.0000 0.0000 0.0000 32.8250
#
#
#
# Elastic Compliance Matrix: (Units=1/GPa)
#
#
# Indices 1 2 3 4 5 6 
#
# 1 0.012420 -0.004356 -0.005983 0.000000 0.000000 0.000000
# 2 -0.004356 0.010874 -0.004216 0.000000 0.000000 0.000000
# 3 -0.005983 -0.004216 0.026255 0.000000 0.000000 0.000000
# 4 0.000000 0.000000 0.000000 0.055293 0.000000 0.000000
# 5 0.000000 0.000000 0.000000 0.000000 0.078156 0.000000
# 6 0.000000 0.000000 0.000000 0.000000 0.000000 0.030465
#
#
# Mechanical properties :
#
#
# Convention : Reuss Voigt Hill
#
# Bulk Modulus (GPa) = 48.92707 63.97558 56.45133
# Shear Modulus (GPa) = 20.04915 23.94225 21.99570
#
# Velocity S-wave (km/s) = 3.23376 3.53380 3.38711
# Velocity P-wave (km/s) = 6.28190 7.07239 6.68883
#
# Compressibility (1/GPa) = 0.02043858
#
# Stress axis : x y z
#
# Youngs Moduli (GPa) = 80.51252 91.96342 38.08731
#
# Poissons Ratio (x) = 0.40063 0.22788
# Poissons Ratio (y) = 0.35074 0.16058
# Poissons Ratio (z) = 0.48172 0.38772
#
# Static dielectric constant tensor:
#      x y z
#    x 3.570910 0.000000 0.000000 
#    y 0.000000 3.655760 0.000000 
#    z 0.000000 0.000000 3.205740 
# 
# 
# High freq. dielectric constant tensor:
#      x y z
#    x 1.748280 0.000000 0.000000 
#    y 0.000000 1.755540 0.000000 
#    z 0.000000 0.000000 1.715400 
# 
# From -- ./inp_files/6584.got.cif
#   From: 2010.03.12/outbox.cif.g09.slc.cpg/sg55_4_cif.got.tgz:6584.got - 2010.04.16 15:19:21.
