data_PCOD8226543
_publ_section_title
;
Structure prediction by ZEFSAII (Michael W. Deem and Ramdas Pophale) SiO2 
 PCOD8226543
Probable space group: P B A M
;
_chemical_formula_sum "Si O2"
_cell_formula_units_Z 48
_cell_length_a 15.222403
_cell_length_b 18.349036
_cell_length_c 8.648145
_cell_angle_alpha 90.000000
_cell_angle_beta 90.000000
_cell_angle_gamma 90.000000
_cell_volume 2415.568907
_symmetry_space_group_name_H-M "P B A M"
_symmetry_group_IT_number 55
_symmetry_cell_setting 'orthorhombic'
loop_
_space_group_symop_operation_xyz
x,y,z
-x,-y,z
1/2+x,1/2-y,-z
1/2-x,1/2+y,-z
-x,-y,-z
x,y,-z
1/2-x,1/2+y,z
1/2+x,1/2-y,z
loop_
_atom_site_type_symbol
_atom_site_label
_atom_site_fract_x
_atom_site_fract_y
_atom_site_fract_z
Si Si1 0.590940 0.185949 0.318451
Si Si2 0.907973 0.313981 0.818049
Si Si3 0.903864 0.852492 0.681659
Si Si4 0.087629 0.851007 0.182195
Si Si5 0.761845 0.425691 0.817493
Si Si6 0.255972 0.920552 0.682350
O O1 0.579532 0.180386 0.500000
O O2 0.500667 0.157033 0.245207
O O3 0.610356 0.268715 0.266912
O O4 0.670330 0.135943 0.259111
O O5 0.889815 0.231269 0.762709
O O6 0.829628 0.364630 0.755615
O O7 0.911951 0.318050 0.000000
O O8 0.889673 0.863783 0.500000
O O9 0.836113 0.901851 0.774901
O O10 0.000874 0.878467 0.729597
O O11 0.166035 0.903855 0.229343
O O12 0.070947 0.854997 0.000000
O O13 0.787379 0.499303 0.728938
O O14 0.769284 0.438062 0.000000
O O15 0.240763 0.914341 0.500000
#
# Coordination Sequence:
#
# PCOD8226543 Si02
#       6
#     8   8   8   8   8   8
#     4   9  20  37  59  84 111 143 183 227 274 324
#     4   9  20  37  59  84 111 143 183 227 274 324
#     4  10  20  37  60  85 110 142 182 228 276 326
#     4  10  20  37  60  85 110 142 182 228 276 326
#     4  11  23  38  55  81 114 149 185 225 272 326
#     4  11  23  38  55  81 114 149 185 225 272 326
#
# _framework density 19.871096999999999
#
# number of rings (size 3 to 8) (size 9 to 14) (size 15 to 20)
#    0.000    2.000    0.000    3.000    0.000    5.333 
#    0.000    6.667    0.000    0.000    0.000    0.000 
#    0.000    0.000    0.000    0.000    0.000    0.000 
#
# Total GULP energy -595461.038100 kJ/mol
# GULP energy per Si atom -12405.438294 kJ/mol
# Density = 1.982587 g / cm^3
# Si number density = 19.871097 Si / 1000 Ang^3
#
#
#
# Elastic Constant Matrix: (Units=GPa)
#
#
# Indices 1 2 3 4 5 6 
#
# 1 84.6623 20.0006 15.0447 0.0000 0.0000 0.0000
# 2 20.0006 54.9635 15.9067 0.0000 0.0000 0.0000
# 3 15.0447 15.9067 30.5220 0.0000 0.0000 0.0000
# 4 0.0000 0.0000 0.0000 30.8734 0.0000 0.0000
# 5 0.0000 0.0000 0.0000 0.0000 35.6133 0.0000
# 6 0.0000 0.0000 0.0000 0.0000 0.0000 18.3335
#
#
#
# Elastic Compliance Matrix: (Units=1/GPa)
#
#
# Indices 1 2 3 4 5 6 
#
# 1 0.013499 -0.003517 -0.004821 0.000000 0.000000 0.000000
# 2 -0.003517 0.022342 -0.009910 0.000000 0.000000 0.000000
# 3 -0.004821 -0.009910 0.040304 0.000000 0.000000 0.000000
# 4 0.000000 0.000000 0.000000 0.032390 0.000000 0.000000
# 5 0.000000 0.000000 0.000000 0.000000 0.028079 0.000000
# 6 0.000000 0.000000 0.000000 0.000000 0.000000 0.054545
#
#
# Mechanical properties :
#
#
# Convention : Reuss Voigt Hill
#
# Bulk Modulus (GPa) = 25.22117 30.22797 27.72457
# Shear Modulus (GPa) = 20.75790 24.91042 22.83416
#
# Velocity S-wave (km/s) = 3.23558 3.54446 3.39354
# Velocity P-wave (km/s) = 5.16513 5.65650 5.41639
#
# Compressibility (1/GPa) = 0.03964923
#
# Stress axis : x y z
#
# Youngs Moduli (GPa) = 74.07853 44.75940 24.81124
#
# Poissons Ratio (x) = 0.15742 0.11962
# Poissons Ratio (y) = 0.26053 0.24588
# Poissons Ratio (z) = 0.35714 0.44356
#
# Static dielectric constant tensor:
#      x y z
#    x 3.696060 0.000000 0.000000 
#    y 0.000000 3.727910 0.000000 
#    z 0.000000 0.000000 3.495650 
# 
# 
# High freq. dielectric constant tensor:
#      x y z
#    x 1.783140 0.000000 0.000000 
#    y 0.000000 1.771380 0.000000 
#    z 0.000000 0.000000 1.775400 
# 
# From -- ./inp_files/5596.got.cif
#   From: 2010.03.12/outbox.cif.g09.slc.cpg/sg55_3_cif.got.tgz:5596.got - 2010.04.16 15:19:21.
