data_PCOD8226931
_publ_section_title
;
Structure prediction by ZEFSAII (Michael W. Deem and Ramdas Pophale) SiO2 
 PCOD8226931
Probable space group: P B A M
;
_chemical_formula_sum "Si O2"
_cell_formula_units_Z 40
_cell_length_a 11.214317
_cell_length_b 12.428208
_cell_length_c 15.295664
_cell_angle_alpha 90.000000
_cell_angle_beta 90.000000
_cell_angle_gamma 90.000000
_cell_volume 2131.815798
_symmetry_space_group_name_H-M "P B A M"
_symmetry_group_IT_number 55
_symmetry_cell_setting 'orthorhombic'
loop_
_space_group_symop_operation_xyz
x,y,z
-x,-y,z
1/2+x,1/2-y,-z
1/2-x,1/2+y,-z
-x,-y,-z
x,y,-z
1/2-x,1/2+y,z
1/2+x,1/2-y,z
loop_
_atom_site_type_symbol
_atom_site_label
_atom_site_fract_x
_atom_site_fract_y
_atom_site_fract_z
Si Si1 0.155305 0.662168 0.500000
Si Si2 0.966696 0.336772 0.896370
Si Si3 0.680964 0.023968 0.834533
Si Si4 0.619330 0.183469 0.500000
Si Si5 0.574158 0.597578 0.899150
Si Si6 0.133499 0.489523 0.354953
O O1 0.276959 0.728976 0.500000
O O2 0.166007 0.592144 0.412820
O O3 0.022527 0.720923 0.500000
O O4 0.848797 0.405456 0.872182
O O5 0.954449 0.215241 0.859113
O O6 0.075558 0.391053 0.846740
O O7 0.986451 0.340422 0.000000
O O8 0.788198 0.072070 0.889272
O O9 0.715662 0.016862 0.731445
O O10 0.644811 0.116308 0.586940
O O11 0.500000 0.500000 0.853750
O O12 0.538825 0.603890 0.000000
O O13 0.000000 0.500000 0.318468
#
# Coordination Sequence:
#
# PCOD8226931 Si02
#       6
#     4   8   8   4   8   8
#     4   9  19  37  60  82 114 153 191 231 294 355
#     4  10  21  36  58  81 109 154 198 235 291 348
#     4  11  20  37  59  85 112 146 202 244 285 350
#     4   9  19  37  60  84 110 151 187 225 296 353
#     4  10  23  39  55  81 120 158 193 244 300 343
#     4   9  18  37  57  81 113 148 185 231 287 351
#
# _framework density 18.763347
#
# number of rings (size 3 to 8) (size 9 to 14) (size 15 to 20)
#    0.000    2.200    2.000    3.600    2.800    1.600 
#    0.000    2.000    0.000    0.000    0.000    0.000 
#    0.000    0.000    0.000    0.000    0.000    0.000 
#
# Total GULP energy -495697.973421 kJ/mol
# GULP energy per Si atom -12392.449336 kJ/mol
# Density = 1.872064 g / cm^3
# Si number density = 18.763347 Si / 1000 Ang^3
#
#
#
# Elastic Constant Matrix: (Units=GPa)
#
#
# Indices 1 2 3 4 5 6 
#
# 1 81.6549 59.3350 12.0239 0.0000 0.0000 0.0000
# 2 59.3350 157.1185 27.8143 0.0000 0.0000 0.0000
# 3 12.0239 27.8143 79.1596 0.0000 0.0000 0.0000
# 4 0.0000 0.0000 0.0000 7.7284 0.0000 0.0000
# 5 0.0000 0.0000 0.0000 0.0000 14.0304 0.0000
# 6 0.0000 0.0000 0.0000 0.0000 0.0000 30.0400
#
#
#
# Elastic Compliance Matrix: (Units=1/GPa)
#
#
# Indices 1 2 3 4 5 6 
#
# 1 0.016887 -0.006316 -0.000346 0.000000 0.000000 0.000000
# 2 -0.006316 0.009149 -0.002255 0.000000 0.000000 0.000000
# 3 -0.000346 -0.002255 0.013478 0.000000 0.000000 0.000000
# 4 0.000000 0.000000 0.000000 0.129393 0.000000 0.000000
# 5 0.000000 0.000000 0.000000 0.000000 0.071274 0.000000
# 6 0.000000 0.000000 0.000000 0.000000 0.000000 0.033289
#
#
# Mechanical properties :
#
#
# Convention : Reuss Voigt Hill
#
# Bulk Modulus (GPa) = 46.12646 57.36436 51.74541
# Shear Modulus (GPa) = 16.74867 24.94375 20.84621
#
# Velocity S-wave (km/s) = 2.99093 3.65003 3.33679
# Velocity P-wave (km/s) = 6.04683 6.95720 6.51793
#
# Compressibility (1/GPa) = 0.02167953
#
# Stress axis : x y z
#
# Youngs Moduli (GPa) = 59.21620 109.29979 74.19668
#
# Poissons Ratio (x) = 0.69036 0.02566
# Poissons Ratio (y) = 0.37402 0.16734
# Poissons Ratio (z) = 0.02048 0.24651
#
# Static dielectric constant tensor:
#      x y z
#    x 3.305500 0.000000 0.000000 
#    y 0.000000 3.709300 0.000000 
#    z 0.000000 0.000000 3.353510 
# 
# 
# High freq. dielectric constant tensor:
#      x y z
#    x 1.713900 0.000000 0.000000 
#    y 0.000000 1.728810 0.000000 
#    z 0.000000 0.000000 1.725960 
# 
# From -- ./inp_files/18166.got.cif
#   From: 2010.03.12/outbox.cif.g09.slc.cpg/sg55_10_cif.got.tgz:18166.got - 2010.04.16 15:19:21.
