data_PCOD8226747
_publ_section_title
;
Structure prediction by ZEFSAII (Michael W. Deem and Ramdas Pophale) SiO2 
 PCOD8226747
Probable space group: P B A M
;
_chemical_formula_sum "Si O2"
_cell_formula_units_Z 56
_cell_length_a 15.157376
_cell_length_b 22.833856
_cell_length_c 7.622969
_cell_angle_alpha 90.000000
_cell_angle_beta 90.000000
_cell_angle_gamma 90.000000
_cell_volume 2638.319793
_symmetry_space_group_name_H-M "P B A M"
_symmetry_group_IT_number 55
_symmetry_cell_setting 'orthorhombic'
loop_
_space_group_symop_operation_xyz
x,y,z
-x,-y,z
1/2+x,1/2-y,-z
1/2-x,1/2+y,-z
-x,-y,-z
x,y,-z
1/2-x,1/2+y,z
1/2+x,1/2-y,z
loop_
_atom_site_type_symbol
_atom_site_label
_atom_site_fract_x
_atom_site_fract_y
_atom_site_fract_z
Si Si1 0.914278 0.891911 0.703248
Si Si2 0.644449 0.986549 0.000000
Si Si3 0.018175 0.404300 0.000000
Si Si4 0.650676 0.737695 0.298030
Si Si5 0.784482 0.997682 0.705105
Si Si6 0.990195 0.686932 0.301095
Si Si7 0.112606 0.889735 0.291744
Si Si8 0.342517 0.728927 0.803153
O O1 0.915616 0.874502 0.500000
O O2 0.861182 0.950892 0.737745
O O3 0.869018 0.838826 0.805329
O O4 0.013287 0.901437 0.774845
O O5 0.700837 0.981165 0.177717
O O6 0.578727 0.931884 0.000000
O O7 0.593520 0.047387 0.000000
O O8 0.031896 0.367302 0.176876
O O9 0.625929 0.730886 0.500000
O O10 0.575429 0.779975 0.218263
O O11 0.646176 0.672577 0.214440
O O12 0.745009 0.766730 0.274602
O O13 0.756331 0.999161 0.500000
O O14 0.821948 0.059656 0.775118
O O15 0.006843 0.664118 0.500000
O O16 0.908824 0.732043 0.310297
O O17 0.114800 0.891550 0.500000
O O18 0.343137 0.753397 0.000000
#
# Coordination Sequence:
#
# PCOD8226747 Si02
#       8
#     8   4   4   8   8   8   8   8
#     4  10  20  39  63  92 132 173 215 266 326 390
#     4  11  28  50  67  92 132 164 223 286 326 391
#     4  11  28  50  68  92 128 175 216 276 346 387
#     4  10  22  39  64  94 129 175 218 270 332 392
#     4  10  23  41  69  98 126 173 224 269 325 389
#     4  11  24  45  71 101 134 171 222 275 332 401
#     4   9  18  38  63  91 129 168 211 264 323 388
#     4  12  25  38  62  98 139 178 218 273 333 396
#
# _framework density 21.225629999999999
#
# number of rings (size 3 to 8) (size 9 to 14) (size 15 to 20)
#    0.000    1.571    2.143    1.714    6.000    2.857 
#    1.286    2.143    0.000    0.000    0.000    0.000 
#    0.000    0.000    0.000    0.000    0.000    0.000 
#
# Total GULP energy -694569.831069 kJ/mol
# GULP energy per Si atom -12403.032698 kJ/mol
# Density = 2.117732 g / cm^3
# Si number density = 21.225630 Si / 1000 Ang^3
#
#
#
# Elastic Constant Matrix: (Units=GPa)
#
#
# Indices 1 2 3 4 5 6 
#
# 1 94.2878 -5.5202 16.9209 0.0000 0.0000 0.0000
# 2 -5.5202 69.9051 23.4447 0.0000 0.0000 0.0000
# 3 16.9209 23.4447 76.1951 0.0000 0.0000 0.0000
# 4 0.0000 0.0000 0.0000 26.3380 0.0000 0.0000
# 5 0.0000 0.0000 0.0000 0.0000 43.6256 0.0000
# 6 0.0000 0.0000 0.0000 0.0000 0.0000 27.7895
#
#
#
# Elastic Compliance Matrix: (Units=1/GPa)
#
#
# Indices 1 2 3 4 5 6 
#
# 1 0.011275 0.001929 -0.003097 0.000000 0.000000 0.000000
# 2 0.001929 0.016281 -0.005438 0.000000 0.000000 0.000000
# 3 -0.003097 -0.005438 0.015485 0.000000 0.000000 0.000000
# 4 0.000000 0.000000 0.000000 0.037968 0.000000 0.000000
# 5 0.000000 0.000000 0.000000 0.000000 0.022922 0.000000
# 6 0.000000 0.000000 0.000000 0.000000 0.000000 0.035985
#
#
# Mechanical properties :
#
#
# Convention : Reuss Voigt Hill
#
# Bulk Modulus (GPa) = 33.52485 34.45318 33.98902
# Shear Modulus (GPa) = 30.66137 33.25346 31.95742
#
# Velocity S-wave (km/s) = 3.80484 3.96241 3.88442
# Velocity P-wave (km/s) = 5.92716 6.09929 6.01384
#
# Compressibility (1/GPa) = 0.02982862
#
# Stress axis : x y z
#
# Youngs Moduli (GPa) = 88.69475 61.42038 64.57748
#
# Poissons Ratio (x) = -0.11849 0.20002
# Poissons Ratio (y) = -0.17110 0.35117
# Poissons Ratio (z) = 0.27472 0.33401
#
# Static dielectric constant tensor:
#      x y z
#    x 3.807720 0.000000 0.000000 
#    y 0.000000 3.904050 0.000000 
#    z 0.000000 0.000000 3.117560 
# 
# 
# High freq. dielectric constant tensor:
#      x y z
#    x 1.836880 0.000000 0.000000 
#    y 0.000000 1.837390 0.000000 
#    z 0.000000 0.000000 1.824550 
# 
# From -- ./inp_files/6231.got.cif
#   From: 2010.03.12/outbox.cif.g09.slc.cpg/sg55_4_cif.got.tgz:6231.got - 2010.04.16 15:19:21.
