data_PCOD8226242
_publ_section_title
;
Structure prediction by ZEFSAII (Michael W. Deem and Ramdas Pophale) SiO2 
 PCOD8226242
Probable space group: P B A M
;
_chemical_formula_sum "Si O2"
_cell_formula_units_Z 64
_cell_length_a 29.273786
_cell_length_b 12.534478
_cell_length_c 8.730168
_cell_angle_alpha 90.000000
_cell_angle_beta 90.000000
_cell_angle_gamma 90.000000
_cell_volume 3203.374745
_symmetry_space_group_name_H-M "P B A M"
_symmetry_group_IT_number 55
_symmetry_cell_setting 'orthorhombic'
loop_
_space_group_symop_operation_xyz
x,y,z
-x,-y,z
1/2+x,1/2-y,-z
1/2-x,1/2+y,-z
-x,-y,-z
x,y,-z
1/2-x,1/2+y,z
1/2+x,1/2-y,z
loop_
_atom_site_type_symbol
_atom_site_label
_atom_site_fract_x
_atom_site_fract_y
_atom_site_fract_z
Si Si1 0.693403 0.125509 0.820786
Si Si2 0.531698 0.238636 0.319468
Si Si3 0.374003 0.362317 0.818957
Si Si4 0.671119 0.336494 0.671686
Si Si5 0.283203 0.441782 0.672973
Si Si6 0.915818 0.918456 0.177527
Si Si7 0.601120 0.056334 0.679853
Si Si8 0.568410 0.821240 0.679813
O O1 0.698924 0.235179 0.728674
O O2 0.739094 0.061914 0.780362
O O3 0.649030 0.060107 0.767740
O O4 0.690644 0.146839 0.000000
O O5 0.530917 0.236647 0.500000
O O6 0.542664 0.359031 0.263304
O O7 0.481913 0.206445 0.257515
O O8 0.568607 0.152001 0.259914
O O9 0.324821 0.372377 0.739624
O O10 0.407600 0.459661 0.765861
O O11 0.395317 0.250565 0.769851
O O12 0.366611 0.367512 0.000000
O O13 0.651421 0.317542 0.500000
O O14 0.705209 0.434255 0.673076
O O15 0.629570 0.351426 0.788271
O O16 0.273075 0.402141 0.500000
O O17 0.927439 0.915449 0.000000
O O18 0.610559 0.067848 0.500000
O O19 0.577225 0.944489 0.718151
O O20 0.573362 0.797683 0.500000
#
# Coordination Sequence:
#
# PCOD8226242 Si02
#       8
#     8   8   8   8   8   8   8   8
#     4  12  24  37  59  90 121 153 192 239 296 358
#     4  10  20  36  61  89 117 155 202 252 301 350
#     4  10  22  40  59  84 121 160 195 243 304 359
#     4  10  20  37  60  84 112 149 193 241 291 344
#     4  10  22  40  63  87 113 151 198 244 293 350
#     4  10  20  35  58  86 117 152 194 243 297 352
#     4  10  21  39  61  85 118 156 201 251 298 348
#     4  10  22  39  60  87 120 161 205 248 297 355
#
# _framework density 19.978929000000001
#
# number of rings (size 3 to 8) (size 9 to 14) (size 15 to 20)
#    0.000    1.750    1.250    3.000    0.000    7.000 
#    0.000    3.750    0.000    2.250    0.000    0.000 
#    0.000    0.000    0.000    0.000    0.000    0.000 
#
# Total GULP energy -793732.316776 kJ/mol
# GULP energy per Si atom -12402.067450 kJ/mol
# Density = 1.993346 g / cm^3
# Si number density = 19.978929 Si / 1000 Ang^3
#
#
#
# Elastic Constant Matrix: (Units=GPa)
#
#
# Indices 1 2 3 4 5 6 
#
# 1 91.6422 12.2392 13.5152 0.0000 0.0000 0.0000
# 2 12.2392 53.5558 16.6907 0.0000 0.0000 0.0000
# 3 13.5152 16.6907 39.4661 0.0000 0.0000 0.0000
# 4 0.0000 0.0000 0.0000 28.2440 0.0000 0.0000
# 5 0.0000 0.0000 0.0000 0.0000 16.4676 0.0000
# 6 0.0000 0.0000 0.0000 0.0000 0.0000 23.8781
#
#
#
# Elastic Compliance Matrix: (Units=1/GPa)
#
#
# Indices 1 2 3 4 5 6 
#
# 1 0.011615 -0.001630 -0.003288 0.000000 0.000000 0.000000
# 2 -0.001630 0.021735 -0.008634 0.000000 0.000000 0.000000
# 3 -0.003288 -0.008634 0.030116 0.000000 0.000000 0.000000
# 4 0.000000 0.000000 0.000000 0.035406 0.000000 0.000000
# 5 0.000000 0.000000 0.000000 0.000000 0.060725 0.000000
# 6 0.000000 0.000000 0.000000 0.000000 0.000000 0.041879
#
#
# Mechanical properties :
#
#
# Convention : Reuss Voigt Hill
#
# Bulk Modulus (GPa) = 27.50136 29.95048 28.72592
# Shear Modulus (GPa) = 20.77269 23.19919 21.98594
#
# Velocity S-wave (km/s) = 3.22798 3.41131 3.32091
# Velocity P-wave (km/s) = 5.26196 5.52627 5.39573
#
# Compressibility (1/GPa) = 0.03636184
#
# Stress axis : x y z
#
# Youngs Moduli (GPa) = 86.09862 46.00798 33.20524
#
# Poissons Ratio (x) = 0.07497 0.10919
# Poissons Ratio (y) = 0.14030 0.28670
# Poissons Ratio (z) = 0.28312 0.39724
#
# Static dielectric constant tensor:
#      x y z
#    x 3.609490 0.000000 0.000000 
#    y 0.000000 3.697020 0.000000 
#    z 0.000000 0.000000 3.568770 
# 
# 
# High freq. dielectric constant tensor:
#      x y z
#    x 1.778260 0.000000 0.000000 
#    y 0.000000 1.784030 0.000000 
#    z 0.000000 0.000000 1.776160 
# 
# From -- ./inp_files/10830.got.cif
#   From: 2010.03.12/outbox.cif.g09.slc.cpg/sg55_6_cif.got.tgz:10830.got - 2010.04.16 15:19:21.
