data_PCOD8226804
_publ_section_title
;
Structure prediction by ZEFSAII (Michael W. Deem and Ramdas Pophale) SiO2 
 PCOD8226804
Probable space group: P B A M
;
_chemical_formula_sum "Si O2"
_cell_formula_units_Z 64
_cell_length_a 11.224316
_cell_length_b 31.527634
_cell_length_c 9.496261
_cell_angle_alpha 90.000000
_cell_angle_beta 90.000000
_cell_angle_gamma 90.000000
_cell_volume 3360.500061
_symmetry_space_group_name_H-M "P B A M"
_symmetry_group_IT_number 55
_symmetry_cell_setting 'orthorhombic'
loop_
_space_group_symop_operation_xyz
x,y,z
-x,-y,z
1/2+x,1/2-y,-z
1/2-x,1/2+y,-z
-x,-y,-z
x,y,-z
1/2-x,1/2+y,z
1/2+x,1/2-y,z
loop_
_atom_site_type_symbol
_atom_site_label
_atom_site_fract_x
_atom_site_fract_y
_atom_site_fract_z
Si Si1 0.623938 0.978419 0.332933
Si Si2 0.054873 0.816160 0.156363
Si Si3 0.132263 0.616197 0.663979
Si Si4 0.170422 0.179650 0.665544
Si Si5 0.800633 0.098431 0.156873
Si Si6 0.734821 0.728058 0.337990
Si Si7 0.124404 0.356099 0.339151
Si Si8 0.874492 0.023464 0.664660
O O1 0.615537 0.977575 0.500000
O O2 0.628103 0.930773 0.268402
O O3 0.500000 0.000000 0.275454
O O4 0.750591 0.999998 0.288662
O O5 0.136888 0.856745 0.144819
O O6 0.120953 0.778281 0.238496
O O7 0.944945 0.831287 0.247270
O O8 0.019060 0.800194 0.000000
O O9 0.154411 0.609995 0.500000
O O10 0.236741 0.645286 0.725202
O O11 0.014577 0.643339 0.693609
O O12 0.146039 0.174455 0.500000
O O13 0.209518 0.227179 0.702000
O O14 0.679924 0.106900 0.243158
O O15 0.882690 0.065817 0.242640
O O16 0.772721 0.080838 0.000000
O O17 0.691721 0.727192 0.500000
O O18 0.831306 0.691400 0.307610
O O19 0.152403 0.368983 0.500000
O O20 0.868387 0.034740 0.500000
O O21 0.000000 0.000000 0.697093
#
# Coordination Sequence:
#
# PCOD8226804 Si02
#       8
#     8   8   8   8   8   8   8   8
#     4   9  17  31  52  80 110 140 176 225 283 339
#     4  10  22  38  55  77 110 150 188 224 271 334
#     4   9  18  31  53  83 112 140 175 225 284 333
#     4  10  21  34  56  84 113 144 181 234 285 330
#     4  10  21  37  56  78 108 146 186 224 273 330
#     4   9  19  34  56  83 108 139 182 232 277 320
#     4   9  17  33  57  82 106 138 181 226 270 325
#     4  10  21  34  55  84 110 140 185 234 278 337
#
# _framework density 19.044784
#
# number of rings (size 3 to 8) (size 9 to 14) (size 15 to 20)
#    0.000    2.500    0.000    1.500    3.500    4.250 
#    0.000    0.625    0.000    3.375    0.000    0.000 
#    0.000    0.000    0.000    0.000    0.000    0.000 
#
# Total GULP energy -793234.589665 kJ/mol
# GULP energy per Si atom -12394.290464 kJ/mol
# Density = 1.900144 g / cm^3
# Si number density = 19.044784 Si / 1000 Ang^3
#
#
#
# Elastic Constant Matrix: (Units=GPa)
#
#
# Indices 1 2 3 4 5 6 
#
# 1 106.7824 16.3354 25.9264 0.0000 0.0000 0.0000
# 2 16.3354 66.1085 18.6053 0.0000 0.0000 0.0000
# 3 25.9264 18.6053 57.7419 0.0000 0.0000 0.0000
# 4 0.0000 0.0000 0.0000 15.8640 0.0000 0.0000
# 5 0.0000 0.0000 0.0000 0.0000 0.3792 0.0000
# 6 0.0000 0.0000 0.0000 0.0000 0.0000 13.2403
#
#
#
# Elastic Compliance Matrix: (Units=1/GPa)
#
#
# Indices 1 2 3 4 5 6 
#
# 1 0.010629 -0.001411 -0.004318 0.000000 0.000000 0.000000
# 2 -0.001411 0.016823 -0.004787 0.000000 0.000000 0.000000
# 3 -0.004318 -0.004787 0.020800 0.000000 0.000000 0.000000
# 4 0.000000 0.000000 0.000000 0.063036 0.000000 0.000000
# 5 0.000000 0.000000 0.000000 0.000000 2.637169 0.000000
# 6 0.000000 0.000000 0.000000 0.000000 0.000000 0.075527
#
#
# Mechanical properties :
#
#
# Convention : Reuss Voigt Hill
#
# Bulk Modulus (GPa) = 36.73844 39.15190 37.94517
# Shear Modulus (GPa) = 1.75187 17.21442 9.48314
#
# Velocity S-wave (km/s) = 0.96014 3.00974 2.23388
# Velocity P-wave (km/s) = 4.53449 5.71668 5.15956
#
# Compressibility (1/GPa) = 0.02721945
#
# Stress axis : x y z
#
# Youngs Moduli (GPa) = 94.08154 59.44407 48.07804
#
# Poissons Ratio (x) = 0.08389 0.20759
# Poissons Ratio (y) = 0.13277 0.23014
# Poissons Ratio (z) = 0.40622 0.28455
#
# Static dielectric constant tensor:
#      x y z
#    x 3.574670 0.000000 0.000000 
#    y 0.000000 3.599380 0.000000 
#    z 0.000000 0.000000 3.455460 
# 
# 
# High freq. dielectric constant tensor:
#      x y z
#    x 1.745020 0.000000 0.000000 
#    y 0.000000 1.743990 0.000000 
#    z 0.000000 0.000000 1.707170 
# 
# From -- ./inp_files/4635.got.cif
#   From: 2010.03.12/outbox.cif.g09.slc.cpg/sg55_3_cif.got.tgz:4635.got - 2010.04.16 15:19:21.
