data_PCOD8226517
_publ_section_title
;
Structure prediction by ZEFSAII (Michael W. Deem and Ramdas Pophale) SiO2 
 PCOD8226517
Probable space group: P B A M
;
_chemical_formula_sum "Si O2"
_cell_formula_units_Z 64
_cell_length_a 33.097855
_cell_length_b 11.543795
_cell_length_c 8.870518
_cell_angle_alpha 90.000000
_cell_angle_beta 90.000000
_cell_angle_gamma 90.000000
_cell_volume 3389.201861
_symmetry_space_group_name_H-M "P B A M"
_symmetry_group_IT_number 55
_symmetry_cell_setting 'orthorhombic'
loop_
_space_group_symop_operation_xyz
x,y,z
-x,-y,z
1/2+x,1/2-y,-z
1/2-x,1/2+y,-z
-x,-y,-z
x,y,-z
1/2-x,1/2+y,z
1/2+x,1/2-y,z
loop_
_atom_site_type_symbol
_atom_site_label
_atom_site_fract_x
_atom_site_fract_y
_atom_site_fract_z
Si Si1 0.596847 0.807369 0.322328
Si Si2 0.634313 0.281771 0.822065
Si Si3 0.198110 0.061491 0.676995
Si Si4 0.968211 0.163129 0.821508
Si Si5 0.831098 0.172608 0.173734
Si Si6 0.445043 0.590433 0.178178
Si Si7 0.280817 0.104372 0.171499
Si Si8 0.136700 0.484885 0.824814
O O1 0.598599 0.801266 0.500000
O O2 0.552753 0.769587 0.263935
O O3 0.629357 0.719402 0.254861
O O4 0.605256 0.938341 0.269474
O O5 0.673781 0.328052 0.737941
O O6 0.595050 0.348611 0.757336
O O7 0.629192 0.147471 0.781718
O O8 0.640086 0.300094 0.000000
O O9 0.192601 0.050019 0.500000
O O10 0.244968 0.078680 0.714236
O O11 0.181495 0.947333 0.754770
O O12 0.014780 0.157660 0.766510
O O13 0.946216 0.043532 0.772095
O O14 0.965110 0.182071 0.000000
O O15 0.794337 0.262598 0.190511
O O16 0.842467 0.152408 0.000000
O O17 0.444676 0.597386 0.000000
O O18 0.317444 0.019350 0.215739
O O19 0.266508 0.080844 0.000000
O O20 0.128745 0.510862 0.000000
#
# Coordination Sequence:
#
# PCOD8226517 Si02
#       8
#     8   8   8   8   8   8   8   8
#     4  11  21  34  55  83 112 143 181 228 284 335
#     4  10  20  37  59  82 109 146 192 235 276 329
#     4  12  25  36  53  84 116 145 176 222 284 339
#     4   9  16  31  56  83 113 147 184 226 278 336
#     4  10  21  39  60  79 104 141 187 231 268 319
#     4   8  16  31  55  85 111 141 185 236 278 319
#     4   9  20  38  57  77 101 139 189 234 272 322
#     4   9  20  38  59  79 104 146 193 233 276 329
#
# _framework density 18.883503000000001
#
# number of rings (size 3 to 8) (size 9 to 14) (size 15 to 20)
#    0.000    2.250    0.000    4.875    1.750    4.000 
#    0.000    2.500    0.000    3.750    0.000    0.000 
#    0.000    0.000    0.000    0.000    0.000    0.000 
#
# Total GULP energy -793736.613479 kJ/mol
# GULP energy per Si atom -12402.134586 kJ/mol
# Density = 1.884052 g / cm^3
# Si number density = 18.883503 Si / 1000 Ang^3
#
#
#
# Elastic Constant Matrix: (Units=GPa)
#
#
# Indices 1 2 3 4 5 6 
#
# 1 77.7911 34.4072 26.8380 0.0000 0.0000 0.0000
# 2 34.4072 85.1730 35.9563 0.0000 0.0000 0.0000
# 3 26.8380 35.9563 81.3889 0.0000 0.0000 0.0000
# 4 0.0000 0.0000 0.0000 18.1727 0.0000 0.0000
# 5 0.0000 0.0000 0.0000 0.0000 4.4031 0.0000
# 6 0.0000 0.0000 0.0000 0.0000 0.0000 14.5672
#
#
#
# Elastic Compliance Matrix: (Units=1/GPa)
#
#
# Indices 1 2 3 4 5 6 
#
# 1 0.016233 -0.005283 -0.003019 0.000000 0.000000 0.000000
# 2 -0.005283 0.016152 -0.005394 0.000000 0.000000 0.000000
# 3 -0.003019 -0.005394 0.015665 0.000000 0.000000 0.000000
# 4 0.000000 0.000000 0.000000 0.055028 0.000000 0.000000
# 5 0.000000 0.000000 0.000000 0.000000 0.227112 0.000000
# 6 0.000000 0.000000 0.000000 0.000000 0.000000 0.068648
#
#
# Mechanical properties :
#
#
# Convention : Reuss Voigt Hill
#
# Bulk Modulus (GPa) = 48.40540 48.75067 48.57803
# Shear Modulus (GPa) = 11.54426 17.23868 14.39147
#
# Velocity S-wave (km/s) = 2.47521 3.02470 2.76364
# Velocity P-wave (km/s) = 5.81878 6.17017 5.99705
#
# Compressibility (1/GPa) = 0.02065885
#
# Stress axis : x y z
#
# Youngs Moduli (GPa) = 61.60190 61.91180 63.83686
#
# Poissons Ratio (x) = 0.32710 0.19271
# Poissons Ratio (y) = 0.32546 0.34431
# Poissons Ratio (z) = 0.18597 0.33392
#
# Static dielectric constant tensor:
#      x y z
#    x 3.691550 0.000000 0.000000 
#    y 0.000000 3.527250 0.000000 
#    z 0.000000 0.000000 3.231180 
# 
# 
# High freq. dielectric constant tensor:
#      x y z
#    x 1.735920 0.000000 0.000000 
#    y 0.000000 1.734460 0.000000 
#    z 0.000000 0.000000 1.713640 
# 
# From -- ./inp_files/10844.got.cif
#   From: 2010.03.12/outbox.cif.g09.slc.cpg/sg55_6_cif.got.tgz:10844.got - 2010.04.16 15:19:21.
