data_PCOD8226983
_publ_section_title
;
Structure prediction by ZEFSAII (Michael W. Deem and Ramdas Pophale) SiO2 
 PCOD8226983
Probable space group: P B A M
;
_chemical_formula_sum "Si O2"
_cell_formula_units_Z 48
_cell_length_a 18.558432
_cell_length_b 13.897065
_cell_length_c 9.341235
_cell_angle_alpha 90.000000
_cell_angle_beta 90.000000
_cell_angle_gamma 90.000000
_cell_volume 2409.176768
_symmetry_space_group_name_H-M "P B A M"
_symmetry_group_IT_number 55
_symmetry_cell_setting 'orthorhombic'
loop_
_space_group_symop_operation_xyz
x,y,z
-x,-y,z
1/2+x,1/2-y,-z
1/2-x,1/2+y,-z
-x,-y,-z
x,y,-z
1/2-x,1/2+y,z
1/2+x,1/2-y,z
loop_
_atom_site_type_symbol
_atom_site_label
_atom_site_fract_x
_atom_site_fract_y
_atom_site_fract_z
Si Si1 0.723533 0.333286 0.166632
Si Si2 0.136152 0.351805 0.164129
Si Si3 0.866524 0.432622 0.837057
Si Si4 0.611980 0.453122 0.330830
Si Si5 0.965699 0.135321 0.666221
Si Si6 0.511126 0.846414 0.667669
O O1 0.697917 0.225320 0.209845
O O2 0.807465 0.351802 0.205077
O O3 0.681862 0.414833 0.252569
O O4 0.710749 0.352477 0.000000
O O5 0.166689 0.460113 0.182982
O O6 0.067410 0.339719 0.264875
O O7 0.112672 0.333388 0.000000
O O8 0.937801 0.426609 0.738340
O O9 0.892134 0.417294 0.000000
O O10 0.624655 0.442140 0.500000
O O11 0.543893 0.392379 0.270520
O O12 0.598239 0.564432 0.281895
O O13 0.975169 0.114841 0.500000
O O14 0.947669 0.245738 0.699095
O O15 0.502917 0.868217 0.500000
#
# Coordination Sequence:
#
# PCOD8226983 Si02
#       6
#     8   8   8   8   8   8
#     4  10  21  37  57  82 111 147 190 232 276 330
#     4  10  21  39  60  80 110 151 186 224 282 338
#     4  10  23  40  56  79 114 151 184 226 283 337
#     4   9  16  32  55  78 109 147 180 217 275 333
#     4   8  16  30  52  81 111 142 174 219 278 326
#     4  11  21  36  59  87 113 143 189 237 272 323
#
# _framework density 19.923819000000002
#
# number of rings (size 3 to 8) (size 9 to 14) (size 15 to 20)
#    0.000    2.333    1.667    2.000    0.000    4.667 
#    0.000    5.000    0.000    0.000    0.000    0.000 
#    0.000    0.000    0.000    0.000    0.000    0.000 
#
# Total GULP energy -594919.642880 kJ/mol
# GULP energy per Si atom -12394.159227 kJ/mol
# Density = 1.987847 g / cm^3
# Si number density = 19.923819 Si / 1000 Ang^3
#
#
#
# Elastic Constant Matrix: (Units=GPa)
#
#
# Indices 1 2 3 4 5 6 
#
# 1 89.1135 37.4757 45.9846 0.0000 0.0000 0.0000
# 2 37.4757 91.6204 31.7700 0.0000 0.0000 0.0000
# 3 45.9846 31.7700 64.9994 0.0000 0.0000 0.0000
# 4 0.0000 0.0000 0.0000 25.0672 0.0000 0.0000
# 5 0.0000 0.0000 0.0000 0.0000 19.8907 0.0000
# 6 0.0000 0.0000 0.0000 0.0000 0.0000 32.6741
#
#
#
# Elastic Compliance Matrix: (Units=1/GPa)
#
#
# Indices 1 2 3 4 5 6 
#
# 1 0.018648 -0.003676 -0.011396 0.000000 0.000000 0.000000
# 2 -0.003676 0.013867 -0.004177 0.000000 0.000000 0.000000
# 3 -0.011396 -0.004177 0.025489 0.000000 0.000000 0.000000
# 4 0.000000 0.000000 0.000000 0.039893 0.000000 0.000000
# 5 0.000000 0.000000 0.000000 0.000000 0.050275 0.000000
# 6 0.000000 0.000000 0.000000 0.000000 0.000000 0.030605
#
#
# Mechanical properties :
#
#
# Convention : Reuss Voigt Hill
#
# Bulk Modulus (GPa) = 51.26839 52.91044 52.08941
# Shear Modulus (GPa) = 22.34372 24.22660 23.28516
#
# Velocity S-wave (km/s) = 3.35245 3.49085 3.42235
# Velocity P-wave (km/s) = 6.38540 6.54691 6.46666
#
# Compressibility (1/GPa) = 0.01950519
#
# Stress axis : x y z
#
# Youngs Moduli (GPa) = 53.62434 72.11572 39.23306
#
# Poissons Ratio (x) = 0.26510 0.44711
# Poissons Ratio (y) = 0.19713 0.16388
# Poissons Ratio (z) = 0.61111 0.30122
#
# Static dielectric constant tensor:
#      x y z
#    x 3.377280 0.000000 0.000000 
#    y 0.000000 4.058840 0.000000 
#    z 0.000000 0.000000 3.392950 
# 
# 
# High freq. dielectric constant tensor:
#      x y z
#    x 1.758340 0.000000 0.000000 
#    y 0.000000 1.792930 0.000000 
#    z 0.000000 0.000000 1.756040 
# 
# From -- ./inp_files/7426.got.cif
#   From: 2010.03.12/outbox.cif.g09.slc.cpg/sg55_4_cif.got.tgz:7426.got - 2010.04.16 15:19:21.
