data_PCOD8226096
_publ_section_title
;
Structure prediction by ZEFSAII (Michael W. Deem and Ramdas Pophale) SiO2 
 PCOD8226096
Probable space group: P B A M
;
_chemical_formula_sum "Si O2"
_cell_formula_units_Z 48
_cell_length_a 24.499986
_cell_length_b 10.529363
_cell_length_c 9.469645
_cell_angle_alpha 90.000000
_cell_angle_beta 90.000000
_cell_angle_gamma 90.000000
_cell_volume 2442.877181
_symmetry_space_group_name_H-M "P B A M"
_symmetry_group_IT_number 55
_symmetry_cell_setting 'orthorhombic'
loop_
_space_group_symop_operation_xyz
x,y,z
-x,-y,z
1/2+x,1/2-y,-z
1/2-x,1/2+y,-z
-x,-y,-z
x,y,-z
1/2-x,1/2+y,z
1/2+x,1/2-y,z
loop_
_atom_site_type_symbol
_atom_site_label
_atom_site_fract_x
_atom_site_fract_y
_atom_site_fract_z
Si Si1 0.217982 0.131319 0.333082
Si Si2 0.905330 0.236992 0.159299
Si Si3 0.998692 0.143569 0.343069
Si Si4 0.561736 0.014249 0.841503
Si Si5 0.697507 0.654486 0.331847
Si Si6 0.112213 0.273156 0.658756
O O1 0.217081 0.133701 0.500000
O O2 0.266006 0.225705 0.279717
O O3 0.161792 0.191796 0.275111
O O4 0.223735 0.982758 0.285348
O O5 0.964843 0.215753 0.225012
O O6 0.901472 0.388341 0.157524
O O7 0.860328 0.169087 0.255357
O O8 0.901610 0.182425 0.000000
O O9 0.973448 0.164792 0.500000
O O10 0.060805 0.183253 0.340814
O O11 0.000000 0.000000 0.297550
O O12 0.599750 0.104293 0.750176
O O13 0.500000 0.000000 0.777223
O O14 0.555064 0.068799 0.000000
O O15 0.688295 0.657010 0.500000
O O16 0.126860 0.319102 0.500000
#
# Coordination Sequence:
#
# PCOD8226096 Si02
#       6
#     8   8   8   8   8   8
#     4   9  20  38  62  91 118 148 190 243 296 347
#     4  11  23  38  57  83 117 155 196 238 288 349
#     4  10  20  35  57  85 116 149 186 237 295 349
#     4  10  21  38  56  80 118 158 192 233 288 343
#     4  10  21  40  64  88 117 152 194 243 295 347
#     4  10  20  34  57  87 116 146 191 239 285 345
#
# _framework density 19.648959999999999
#
# number of rings (size 3 to 8) (size 9 to 14) (size 15 to 20)
#    0.000    2.000    1.667    1.500    2.333    4.667 
#    0.000    4.167    0.000    0.000    0.000    0.000 
#    0.000    0.000    0.000    0.000    0.000    0.000 
#
# Total GULP energy -594956.748677 kJ/mol
# GULP energy per Si atom -12394.932264 kJ/mol
# Density = 1.960424 g / cm^3
# Si number density = 19.648960 Si / 1000 Ang^3
#
#
#
# Elastic Constant Matrix: (Units=GPa)
#
#
# Indices 1 2 3 4 5 6 
#
# 1 64.7178 17.1853 15.2471 0.0000 0.0000 0.0000
# 2 17.1853 91.1941 30.6161 0.0000 0.0000 0.0000
# 3 15.2471 30.6161 58.5645 0.0000 0.0000 0.0000
# 4 0.0000 0.0000 0.0000 -56.0190 0.0000 0.0000
# 5 0.0000 0.0000 0.0000 0.0000 0.6813 0.0000
# 6 0.0000 0.0000 0.0000 0.0000 0.0000 31.8180
#
#
#
# Elastic Compliance Matrix: (Units=1/GPa)
#
#
# Indices 1 2 3 4 5 6 
#
# 1 0.016773 -0.002056 -0.003292 0.000000 0.000000 0.000000
# 2 -0.002056 0.013552 -0.006549 0.000000 0.000000 0.000000
# 3 -0.003292 -0.006549 0.021356 0.000000 0.000000 0.000000
# 4 0.000000 0.000000 0.000000 -0.017851 0.000000 0.000000
# 5 0.000000 0.000000 0.000000 0.000000 1.467882 0.000000
# 6 0.000000 0.000000 0.000000 0.000000 0.000000 0.031429
#
#
# Mechanical properties :
#
#
# Convention : Reuss Voigt Hill
#
# Bulk Modulus (GPa) = 35.85936 37.84149 36.85042
# Shear Modulus (GPa) = 3.19238 5.39124 4.29181
#
# Velocity S-wave (km/s) = 1.27602 1.65823 1.47952
# Velocity P-wave (km/s) = 4.52334 4.79238 4.65980
#
# Compressibility (1/GPa) = 0.02788672
#
# Stress axis : x y z
#
# Youngs Moduli (GPa) = 59.61906 73.79107 46.82488
#
# Poissons Ratio (x) = 0.15168 0.15416
# Poissons Ratio (y) = 0.12255 0.30667
# Poissons Ratio (z) = 0.19628 0.48329
#
# Static dielectric constant tensor:
#      x y z
#    x 3.468210 0.000000 0.000000 
#    y 0.000000 3.786010 0.000000 
#    z 0.000000 0.000000 3.467700 
# 
# 
# High freq. dielectric constant tensor:
#      x y z
#    x 1.764050 0.000000 0.000000 
#    y 0.000000 1.776120 0.000000 
#    z 0.000000 0.000000 1.739160 
# 
# From -- ./inp_files/15610.got.cif
#   From: 2010.03.12/outbox.cif.g09.slc.cpg/sg55_8_cif.got.tgz:15610.got - 2010.04.16 15:19:21.
