data_PCOD8226464
_publ_section_title
;
Structure prediction by ZEFSAII (Michael W. Deem and Ramdas Pophale) SiO2 
 PCOD8226464
Probable space group: P B A M
;
_chemical_formula_sum "Si O2"
_cell_formula_units_Z 64
_cell_length_a 16.722186
_cell_length_b 21.121674
_cell_length_c 8.797085
_cell_angle_alpha 90.000000
_cell_angle_beta 90.000000
_cell_angle_gamma 90.000000
_cell_volume 3107.135359
_symmetry_space_group_name_H-M "P B A M"
_symmetry_group_IT_number 55
_symmetry_cell_setting 'orthorhombic'
loop_
_space_group_symop_operation_xyz
x,y,z
-x,-y,z
1/2+x,1/2-y,-z
1/2-x,1/2+y,-z
-x,-y,-z
x,y,-z
1/2-x,1/2+y,z
1/2+x,1/2-y,z
loop_
_atom_site_type_symbol
_atom_site_label
_atom_site_fract_x
_atom_site_fract_y
_atom_site_fract_z
Si Si1 0.084938 0.261244 0.321793
Si Si2 0.354291 0.404679 0.677720
Si Si3 0.329254 0.074593 0.322416
Si Si4 0.168943 0.038577 0.821208
Si Si5 0.462941 0.619718 0.323776
Si Si6 0.394321 0.954930 0.169613
Si Si7 0.470029 0.138650 0.176435
Si Si8 0.780717 0.665246 0.827180
O O1 0.093095 0.272338 0.500000
O O2 0.065096 0.189468 0.279594
O O3 0.169631 0.276779 0.243855
O O4 0.012945 0.304412 0.262470
O O5 0.342056 0.417217 0.500000
O O6 0.326586 0.466334 0.768441
O O7 0.444645 0.387314 0.718285
O O8 0.300112 0.345751 0.731714
O O9 0.325429 0.087775 0.500000
O O10 0.240239 0.078284 0.255455
O O11 0.381610 0.129773 0.244261
O O12 0.369403 0.006425 0.292904
O O13 0.084654 0.068577 0.774705
O O14 0.180607 0.040482 0.000000
O O15 0.447520 0.604579 0.500000
O O16 0.483405 0.928273 0.200420
O O17 0.334947 0.896486 0.183035
O O18 0.388919 0.985045 0.000000
O O19 0.466394 0.156782 0.000000
O O20 0.758412 0.682137 0.000000
#
# Coordination Sequence:
#
# PCOD8226464 Si02
#       8
#     8   8   8   8   8   8   8   8
#     4  10  21  41  65  89 122 163 208 253 302 364
#     4  11  22  40  67  95 123 159 206 255 308 370
#     4  12  23  35  56  86 122 161 204 251 303 367
#     4  12  25  41  63  92 126 161 202 256 317 372
#     4  10  24  45  66  91 123 162 206 257 310 364
#     4   9  18  33  54  82 121 159 195 246 304 360
#     4  10  21  37  58  85 121 162 203 252 304 363
#     4  10  20  36  61  92 126 162 203 253 304 363
#
# _framework density 20.597752
#
# number of rings (size 3 to 8) (size 9 to 14) (size 15 to 20)
#    0.000    1.500    1.250    5.250    0.000    7.500 
#    2.250    0.000    0.000    0.000    0.000    0.000 
#    0.000    0.000    0.000    0.000    0.000    0.000 
#
# Total GULP energy -793952.734004 kJ/mol
# GULP energy per Si atom -12405.511469 kJ/mol
# Density = 2.055087 g / cm^3
# Si number density = 20.597752 Si / 1000 Ang^3
#
#
#
# Elastic Constant Matrix: (Units=GPa)
#
#
# Indices 1 2 3 4 5 6 
#
# 1 124.8751 19.4803 32.5051 0.0000 0.0000 0.0000
# 2 19.4803 45.4683 14.6228 0.0000 0.0000 0.0000
# 3 32.5051 14.6228 79.1583 0.0000 0.0000 0.0000
# 4 0.0000 0.0000 0.0000 12.1495 0.0000 0.0000
# 5 0.0000 0.0000 0.0000 0.0000 29.3806 0.0000
# 6 0.0000 0.0000 0.0000 0.0000 0.0000 18.1585
#
#
#
# Elastic Compliance Matrix: (Units=1/GPa)
#
#
# Indices 1 2 3 4 5 6 
#
# 1 0.009321 -0.002937 -0.003285 0.000000 0.000000 0.000000
# 2 -0.002937 0.024308 -0.003284 0.000000 0.000000 0.000000
# 3 -0.003285 -0.003284 0.014589 0.000000 0.000000 0.000000
# 4 0.000000 0.000000 0.000000 0.082308 0.000000 0.000000
# 5 0.000000 0.000000 0.000000 0.000000 0.034036 0.000000
# 6 0.000000 0.000000 0.000000 0.000000 0.000000 0.055071
#
#
# Mechanical properties :
#
#
# Convention : Reuss Voigt Hill
#
# Bulk Modulus (GPa) = 34.24084 42.52423 38.38253
# Shear Modulus (GPa) = 20.13044 24.13062 22.13053
#
# Velocity S-wave (km/s) = 3.12959 3.42646 3.28138
# Velocity P-wave (km/s) = 5.45149 6.02860 5.74730
#
# Compressibility (1/GPa) = 0.02920489
#
# Stress axis : x y z
#
# Youngs Moduli (GPa) = 107.28127 41.13876 68.54674
#
# Poissons Ratio (x) = 0.12083 0.22518
# Poissons Ratio (y) = 0.31510 0.22513
# Poissons Ratio (z) = 0.35243 0.13511
#
# Static dielectric constant tensor:
#      x y z
#    x 3.946380 0.000000 0.000000 
#    y 0.000000 3.521170 0.000000 
#    z 0.000000 0.000000 3.730800 
# 
# 
# High freq. dielectric constant tensor:
#      x y z
#    x 1.818750 0.000000 0.000000 
#    y 0.000000 1.787300 0.000000 
#    z 0.000000 0.000000 1.811400 
# 
# From -- ./inp_files/6618.got.cif
#   From: 2010.03.12/outbox.cif.g09.slc.cpg/sg55_4_cif.got.tgz:6618.got - 2010.04.16 15:19:21.
