data_PCOD8227610
_publ_section_title
;
Structure prediction by ZEFSAII (Michael W. Deem and Ramdas Pophale) SiO2 
 PCOD8227610
Probable space group: P B A M
;
_chemical_formula_sum "Si O2"
_cell_formula_units_Z 32
_cell_length_a 10.200942
_cell_length_b 9.299745
_cell_length_c 14.517426
_cell_angle_alpha 90.000000
_cell_angle_beta 90.000000
_cell_angle_gamma 90.000000
_cell_volume 1377.212448
_symmetry_space_group_name_H-M "P B A M"
_symmetry_group_IT_number 55
_symmetry_cell_setting 'orthorhombic'
loop_
_space_group_symop_operation_xyz
x,y,z
-x,-y,z
1/2+x,1/2-y,-z
1/2-x,1/2+y,-z
-x,-y,-z
x,y,-z
1/2-x,1/2+y,z
1/2+x,1/2-y,z
loop_
_atom_site_type_symbol
_atom_site_label
_atom_site_fract_x
_atom_site_fract_y
_atom_site_fract_z
Si Si1 0.727605 0.492414 0.500000
Si Si2 0.373357 0.306186 0.169992
Si Si3 0.650096 0.383880 0.895871
Si Si4 0.410463 0.121053 0.342544
Si Si5 0.982973 0.200746 0.500000
O O1 0.799978 0.454341 0.594706
O O2 0.585250 0.424345 0.500000
O O3 0.674953 0.658267 0.500000
O O4 0.277417 0.216650 0.103798
O O5 0.331994 0.474805 0.168825
O O6 0.524097 0.292167 0.137652
O O7 0.352320 0.235807 0.270430
O O8 0.626151 0.437866 0.000000
O O9 0.510063 0.203326 0.410194
O O10 0.500000 0.000000 0.291821
#
# Coordination Sequence:
#
# PCOD8227610 Si02
#       5
#     4   8   8   8   4
#     4  10  24  41  69  95 138 182 234 286 339 419
#     4  11  27  43  77 103 147 186 239 302 353 436
#     4  11  25  49  73 108 143 190 240 299 363 431
#     4  11  27  42  66 101 143 180 237 284 356 415
#     4  10  24  41  69  93 136 192 224 287 344 412
#
# _framework density 23.235340000000001
#
# number of rings (size 3 to 8) (size 9 to 14) (size 15 to 20)
#    0.000    1.250    0.000    4.500   17.500    2.000 
#    0.000    2.500    0.000    0.000    0.000    0.000 
#    0.000    0.000    0.000    0.000    0.000    0.000 
#
# Total GULP energy -396628.942536 kJ/mol
# GULP energy per Si atom -12394.654454 kJ/mol
# Density = 2.318246 g / cm^3
# Si number density = 23.235340 Si / 1000 Ang^3
#
#
#
# Elastic Constant Matrix: (Units=GPa)
#
#
# Indices 1 2 3 4 5 6 
#
# 1 119.6010 73.5366 34.5975 0.0000 0.0000 0.0000
# 2 73.5366 123.6666 41.7151 0.0000 0.0000 0.0000
# 3 34.5975 41.7151 103.0568 0.0000 0.0000 0.0000
# 4 0.0000 0.0000 0.0000 25.7352 0.0000 0.0000
# 5 0.0000 0.0000 0.0000 0.0000 38.3549 0.0000
# 6 0.0000 0.0000 0.0000 0.0000 0.0000 48.1303
#
#
#
# Elastic Compliance Matrix: (Units=1/GPa)
#
#
# Indices 1 2 3 4 5 6 
#
# 1 0.013370 -0.007454 -0.001471 0.000000 0.000000 0.000000
# 2 -0.007454 0.013521 -0.002970 0.000000 0.000000 0.000000
# 3 -0.001471 -0.002970 0.011400 0.000000 0.000000 0.000000
# 4 0.000000 0.000000 0.000000 0.038857 0.000000 0.000000
# 5 0.000000 0.000000 0.000000 0.000000 0.026072 0.000000
# 6 0.000000 0.000000 0.000000 0.000000 0.000000 0.020777
#
#
# Mechanical properties :
#
#
# Convention : Reuss Voigt Hill
#
# Bulk Modulus (GPa) = 68.97091 71.78031 70.37561
# Shear Modulus (GPa) = 32.76099 35.54243 34.15171
#
# Velocity S-wave (km/s) = 3.75902 3.91534 3.83798
# Velocity P-wave (km/s) = 6.97054 7.16936 7.07065
#
# Compressibility (1/GPa) = 0.01449887
#
# Stress axis : x y z
#
# Youngs Moduli (GPa) = 74.79591 73.96130 87.72176
#
# Poissons Ratio (x) = 0.55130 0.12906
# Poissons Ratio (y) = 0.55752 0.26058
# Poissons Ratio (z) = 0.11004 0.21970
#
# Static dielectric constant tensor:
#      x y z
#    x 4.104230 0.000000 0.000000 
#    y 0.000000 4.355160 0.000000 
#    z 0.000000 0.000000 3.985760 
# 
# 
# High freq. dielectric constant tensor:
#      x y z
#    x 1.925970 0.000000 0.000000 
#    y 0.000000 1.933330 0.000000 
#    z 0.000000 0.000000 1.904920 
# 
# From -- ./inp_files/18011.got.cif
#   From: 2010.03.12/outbox.cif.g09.slc.cpg/sg55_10_cif.got.tgz:18011.got - 2010.04.16 15:19:21.
