data_PCOD8227963
_publ_section_title
;
Structure prediction by ZEFSAII (Michael W. Deem and Ramdas Pophale) SiO2 
 PCOD8227963
Probable space group: P C C N
;
_chemical_formula_sum "Si O2"
_cell_formula_units_Z 56
_cell_length_a 15.522225
_cell_length_b 12.107192
_cell_length_c 16.203885
_cell_angle_alpha 90.000000
_cell_angle_beta 90.000000
_cell_angle_gamma 90.000000
_cell_volume 3045.205155
_symmetry_space_group_name_H-M "P C C N"
_symmetry_group_IT_number 56
_symmetry_cell_setting 'orthorhombic'
loop_
_space_group_symop_operation_xyz
x,y,z
1/2-x,1/2-y,z
1/2+x,-y,1/2-z
-x,1/2+y,1/2-z
-x,-y,-z
1/2+x,1/2+y,-z
1/2-x,y,1/2+z
x,1/2-y,1/2+z
loop_
_atom_site_type_symbol
_atom_site_label
_atom_site_fract_x
_atom_site_fract_y
_atom_site_fract_z
Si Si1 0.471434 0.198010 0.625615
Si Si2 0.589192 0.127735 0.199698
Si Si3 0.750000 0.250000 0.126137
Si Si4 0.750000 0.750000 0.126137
Si Si5 0.471434 0.698010 0.125615
Si Si6 0.089192 0.127735 0.300302
Si Si7 0.376954 0.622977 0.977651
Si Si8 0.623046 0.622977 0.022349
O O1 0.510127 0.318596 0.648016
O O2 0.429672 0.138668 0.703816
O O3 0.547842 0.121576 0.590893
O O4 0.399500 0.206590 0.553283
O O5 0.678445 0.191275 0.182539
O O6 0.570328 0.138668 0.296184
O O7 0.596685 0.000000 0.174211
O O8 0.710621 0.342015 0.066235
O O9 0.678445 0.808725 0.182539
O O10 0.710621 0.657985 0.066235
O O11 0.510127 0.818596 0.148016
O O12 0.547842 0.621576 0.090893
O O13 0.399500 0.706591 0.053283
O O14 0.365613 0.500000 0.013364
#
# Coordination Sequence:
#
# PCOD8227963 Si02
#       8
#     8   8   4   4   8   8   8   8
#     4   9  19  33  55  76  95 129 177 205 241 303
#     4  10  19  35  53  76 104 131 162 211 254 291
#     4  10  22  32  48  76 106 134 168 202 250 306
#     4  10  22  32  48  76 106 134 168 202 250 306
#     4   9  19  33  55  76  95 129 177 205 241 303
#     4  10  19  35  53  76 104 131 162 211 254 291
#     4  10  18  34  53  73 100 135 170 209 248 296
#     4  10  18  34  53  73 100 135 170 209 248 296
#
# _framework density 18.389567
#
# number of rings (size 3 to 8) (size 9 to 14) (size 15 to 20)
#    0.000    2.286    0.000    4.286    0.000    1.143 
#    0.000   14.286    0.000    0.000    0.000    0.000 
#    0.000    0.000    0.000    0.000    0.000    0.000 
#
# Total GULP energy -694229.750157 kJ/mol
# GULP energy per Si atom -12396.959824 kJ/mol
# Density = 1.834771 g / cm^3
# Si number density = 18.389567 Si / 1000 Ang^3
#
#
#
# Elastic Constant Matrix: (Units=GPa)
#
#
# Indices 1 2 3 4 5 6 
#
# 1 77.2434 38.6219 55.7711 0.0000 0.0000 0.0000
# 2 38.6219 119.8367 45.3741 0.0000 0.0000 0.0000
# 3 55.7711 45.3741 125.6442 0.0000 0.0000 0.0000
# 4 0.0000 0.0000 0.0000 21.0473 0.0000 0.0000
# 5 0.0000 0.0000 0.0000 0.0000 25.8501 0.0000
# 6 0.0000 0.0000 0.0000 0.0000 0.0000 20.3698
#
#
#
# Elastic Compliance Matrix: (Units=1/GPa)
#
#
# Indices 1 2 3 4 5 6 
#
# 1 0.020331 -0.003632 -0.007713 0.000000 0.000000 0.000000
# 2 -0.003632 0.010315 -0.002113 0.000000 0.000000 0.000000
# 3 -0.007713 -0.002113 0.012146 0.000000 0.000000 0.000000
# 4 0.000000 0.000000 0.000000 0.047512 0.000000 0.000000
# 5 0.000000 0.000000 0.000000 0.000000 0.038685 0.000000
# 6 0.000000 0.000000 0.000000 0.000000 0.000000 0.049092
#
#
# Mechanical properties :
#
#
# Convention : Reuss Voigt Hill
#
# Bulk Modulus (GPa) = 62.98790 66.91761 64.95275
# Shear Modulus (GPa) = 23.77681 25.65057 24.71369
#
# Velocity S-wave (km/s) = 3.59966 3.73881 3.66990
# Velocity P-wave (km/s) = 7.18353 7.42335 7.30443
#
# Compressibility (1/GPa) = 0.01587607
#
# Stress axis : x y z
#
# Youngs Moduli (GPa) = 49.18605 96.94334 82.33402
#
# Poissons Ratio (x) = 0.35211 0.63503
# Poissons Ratio (y) = 0.17865 0.17397
# Poissons Ratio (z) = 0.37937 0.20484
#
# Static dielectric constant tensor:
#      x y z
#    x 3.396360 0.000000 0.000000 
#    y 0.000000 3.304000 0.000000 
#    z 0.000000 0.000000 3.453400 
# 
# 
# High freq. dielectric constant tensor:
#      x y z
#    x 1.707160 0.000000 0.000000 
#    y 0.000000 1.703280 0.000000 
#    z 0.000000 0.000000 1.718650 
# 
# From -- ./inp_files/16712.got.cif
#   From: 2010.03.12/outbox.cif.g09.slc.cpg/sg56_9_cif.got.tgz:16712.got - 2010.04.16 15:33:40.
