data_PCOD8227860
_publ_section_title
;
Structure prediction by ZEFSAII (Michael W. Deem and Ramdas Pophale) SiO2 
 PCOD8227860
Probable space group: P C C N
;
_chemical_formula_sum "Si O2"
_cell_formula_units_Z 40
_cell_length_a 34.693302
_cell_length_b 12.400165
_cell_length_c 5.115320
_cell_angle_alpha 90.000000
_cell_angle_beta 90.000000
_cell_angle_gamma 90.000000
_cell_volume 2200.624318
_symmetry_space_group_name_H-M "P C C N"
_symmetry_group_IT_number 56
_symmetry_cell_setting 'orthorhombic'
loop_
_space_group_symop_operation_xyz
x,y,z
1/2-x,1/2-y,z
1/2+x,-y,1/2-z
-x,1/2+y,1/2-z
-x,-y,-z
1/2+x,1/2+y,-z
1/2-x,y,1/2+z
x,1/2-y,1/2+z
loop_
_atom_site_type_symbol
_atom_site_label
_atom_site_fract_x
_atom_site_fract_y
_atom_site_fract_z
Si Si1 0.267046 0.369773 0.341209
Si Si2 0.946629 0.313249 0.291210
Si Si3 0.645942 0.680196 0.646774
Si Si4 0.524534 0.596740 0.121558
Si Si5 0.570706 0.946455 0.149445
O O1 0.250000 0.250000 0.288074
O O2 0.244532 0.430906 0.574196
O O3 0.312425 0.373095 0.391568
O O4 0.931687 0.266315 0.565290
O O5 0.928798 0.431144 0.250313
O O6 0.993644 0.312543 0.296477
O O7 0.641026 0.775889 0.439201
O O8 0.614172 0.589237 0.593404
O O9 0.546752 0.560698 0.382067
O O10 0.500000 0.500000 0.000000
O O11 0.553412 0.630409 0.883715
#
# Coordination Sequence:
#
# PCOD8227860 Si02
#       5
#     8   8   8   8   8
#     4  10  16  31  51  70 100 138 173 192 231 315
#     4  11  21  35  56  70  92 137 181 213 256 302
#     4  12  22  33  51  77 109 146 161 208 263 308
#     4  10  20  37  52  68  97 132 169 223 263 304
#     4  11  23  36  50  79 108 125 174 226 263 305
#
# _framework density 18.176659999999998
#
# number of rings (size 3 to 8) (size 9 to 14) (size 15 to 20)
#    0.000    1.200    4.000    7.200    0.000    4.800 
#    0.000    0.000    0.000    0.000    0.000    0.000 
#    0.000    4.800    0.000    0.000    0.000    0.000 
#
# Total GULP energy -495781.612255 kJ/mol
# GULP energy per Si atom -12394.540306 kJ/mol
# Density = 1.813529 g / cm^3
# Si number density = 18.176660 Si / 1000 Ang^3
#
#
#
# Elastic Constant Matrix: (Units=GPa)
#
#
# Indices 1 2 3 4 5 6 
#
# 1 109.3561 27.6897 25.9191 0.0000 0.0000 0.0000
# 2 27.6897 31.3406 17.0162 0.0000 0.0000 0.0000
# 3 25.9191 17.0162 138.7814 0.0000 0.0000 0.0000
# 4 0.0000 0.0000 0.0000 16.3844 0.0000 0.0000
# 5 0.0000 0.0000 0.0000 0.0000 25.6683 0.0000
# 6 0.0000 0.0000 0.0000 0.0000 0.0000 16.3464
#
#
#
# Elastic Compliance Matrix: (Units=1/GPa)
#
#
# Indices 1 2 3 4 5 6 
#
# 1 0.011908 -0.009977 -0.001001 0.000000 0.000000 0.000000
# 2 -0.009977 0.042543 -0.003353 0.000000 0.000000 0.000000
# 3 -0.001001 -0.003353 0.007804 0.000000 0.000000 0.000000
# 4 0.000000 0.000000 0.000000 0.061034 0.000000 0.000000
# 5 0.000000 0.000000 0.000000 0.000000 0.038959 0.000000
# 6 0.000000 0.000000 0.000000 0.000000 0.000000 0.061176
#
#
# Mechanical properties :
#
#
# Convention : Reuss Voigt Hill
#
# Bulk Modulus (GPa) = 29.76841 46.74759 38.25800
# Shear Modulus (GPa) = 18.99105 25.60336 22.29720
#
# Velocity S-wave (km/s) = 3.23585 3.75718 3.50622
# Velocity P-wave (km/s) = 5.51124 6.67804 6.12250
#
# Compressibility (1/GPa) = 0.03359266
#
# Stress axis : x y z
#
# Youngs Moduli (GPa) = 83.97743 23.50560 128.14683
#
# Poissons Ratio (x) = 0.23453 0.12822
# Poissons Ratio (y) = 0.83788 0.42966
# Poissons Ratio (z) = 0.08403 0.07881
#
# Static dielectric constant tensor:
#      x y z
#    x 3.403850 0.000000 0.000000 
#    y 0.000000 2.919800 0.000000 
#    z 0.000000 0.000000 4.154110 
# 
# 
# High freq. dielectric constant tensor:
#      x y z
#    x 1.686620 0.000000 0.000000 
#    y 0.000000 1.646460 0.000000 
#    z 0.000000 0.000000 1.745880 
# 
# From -- ./inp_files/1313.got.cif
#   From: 2010.03.12/outbox.cif.g09.slc.cpg/sg56_1_cif.got.tgz:1313.got - 2010.04.16 15:33:40.
