data_PCOD8227778
_publ_section_title
;
Structure prediction by ZEFSAII (Michael W. Deem and Ramdas Pophale) SiO2 
 PCOD8227778
Probable space group: P B A M
;
_chemical_formula_sum "Si O2"
_cell_formula_units_Z 40
_cell_length_a 10.452896
_cell_length_b 20.891961
_cell_length_c 8.474609
_cell_angle_alpha 90.000000
_cell_angle_beta 90.000000
_cell_angle_gamma 90.000000
_cell_volume 1850.697788
_symmetry_space_group_name_H-M "P B A M"
_symmetry_group_IT_number 55
_symmetry_cell_setting 'orthorhombic'
loop_
_space_group_symop_operation_xyz
x,y,z
-x,-y,z
1/2+x,1/2-y,-z
1/2-x,1/2+y,-z
-x,-y,-z
x,y,-z
1/2-x,1/2+y,z
1/2+x,1/2-y,z
loop_
_atom_site_type_symbol
_atom_site_label
_atom_site_fract_x
_atom_site_fract_y
_atom_site_fract_z
Si Si1 0.042818 0.202061 0.184930
Si Si2 0.670889 0.047388 0.813645
Si Si3 0.051537 0.932760 0.187907
Si Si4 0.309138 0.221038 0.682101
Si Si5 0.597422 0.907760 0.813004
O O1 0.162289 0.236535 0.270104
O O2 0.031270 0.128127 0.244231
O O3 0.909739 0.237589 0.218706
O O4 0.069462 0.204797 0.000000
O O5 0.803061 0.077081 0.749895
O O6 0.552606 0.092236 0.762958
O O7 0.657150 0.974542 0.754016
O O8 0.669478 0.042563 0.000000
O O9 0.050161 0.935800 0.000000
O O10 0.000000 0.000000 0.257557
O O11 0.329186 0.237089 0.500000
O O12 0.331111 0.146637 0.716853
O O13 0.615913 0.896398 0.000000
#
# Coordination Sequence:
#
# PCOD8227778 Si02
#       5
#     8   8   8   8   8
#     4  11  24  42  67  94 121 165 219 259 306 381
#     4   8  15  29  55  93 124 152 199 264 312 355
#     4   9  17  31  57  92 124 149 195 262 315 358
#     4  12  26  43  61  88 130 168 205 260 323 375
#     4   9  17  33  60  89 121 160 207 254 307 371
#
# _framework density 21.61347
#
# number of rings (size 3 to 8) (size 9 to 14) (size 15 to 20)
#    0.000    2.200    0.000    4.800    2.800    3.200 
#    0.000    2.000    0.000   10.800    0.000    0.000 
#    0.000    0.000    0.000    0.000    0.000    0.000 
#
# Total GULP energy -495869.314952 kJ/mol
# GULP energy per Si atom -12396.732874 kJ/mol
# Density = 2.156428 g / cm^3
# Si number density = 21.613470 Si / 1000 Ang^3
#
#
#
# Elastic Constant Matrix: (Units=GPa)
#
#
# Indices 1 2 3 4 5 6 
#
# 1 133.2110 28.5226 8.1750 0.0000 0.0000 0.0000
# 2 28.5226 68.4349 9.6737 0.0000 0.0000 0.0000
# 3 8.1750 9.6737 39.6884 0.0000 0.0000 0.0000
# 4 0.0000 0.0000 0.0000 8.3204 0.0000 0.0000
# 5 0.0000 0.0000 0.0000 0.0000 20.2128 0.0000
# 6 0.0000 0.0000 0.0000 0.0000 0.0000 36.8074
#
#
#
# Elastic Compliance Matrix: (Units=1/GPa)
#
#
# Indices 1 2 3 4 5 6 
#
# 1 0.008273 -0.003322 -0.000894 0.000000 0.000000 0.000000
# 2 -0.003322 0.016467 -0.003330 0.000000 0.000000 0.000000
# 3 -0.000894 -0.003330 0.026192 0.000000 0.000000 0.000000
# 4 0.000000 0.000000 0.000000 0.120187 0.000000 0.000000
# 5 0.000000 0.000000 0.000000 0.000000 0.049474 0.000000
# 6 0.000000 0.000000 0.000000 0.000000 0.000000 0.027168
#
#
# Mechanical properties :
#
#
# Convention : Reuss Voigt Hill
#
# Bulk Modulus (GPa) = 27.90086 37.11967 32.51027
# Shear Modulus (GPa) = 18.19506 26.06564 22.13035
#
# Velocity S-wave (km/s) = 2.90459 3.47650 3.20334
# Velocity P-wave (km/s) = 4.91792 5.77290 5.36248
#
# Compressibility (1/GPa) = 0.03584118
#
# Stress axis : x y z
#
# Youngs Moduli (GPa) = 120.87530 60.72575 38.17943
#
# Poissons Ratio (x) = 0.20171 0.03415
# Poissons Ratio (y) = 0.40150 0.12712
# Poissons Ratio (z) = 0.10812 0.20219
#
# Static dielectric constant tensor:
#      x y z
#    x 4.395010 0.000000 0.000000 
#    y 0.000000 3.952810 0.000000 
#    z 0.000000 0.000000 3.292090 
# 
# 
# High freq. dielectric constant tensor:
#      x y z
#    x 1.869360 0.000000 0.000000 
#    y 0.000000 1.848510 0.000000 
#    z 0.000000 0.000000 1.790730 
# 
# From -- ./inp_files/3841.got.cif
#   From: 2010.03.12/outbox.cif.g09.slc.cpg/sg55_2_cif.got.tgz:3841.got - 2010.04.16 15:19:21.
