data_PCOD8227508
_publ_section_title
;
Structure prediction by ZEFSAII (Michael W. Deem and Ramdas Pophale) SiO2 
 PCOD8227508
Probable space group: P B A M
;
_chemical_formula_sum "Si O2"
_cell_formula_units_Z 40
_cell_length_a 14.569554
_cell_length_b 16.371601
_cell_length_c 9.101681
_cell_angle_alpha 90.000000
_cell_angle_beta 90.000000
_cell_angle_gamma 90.000000
_cell_volume 2170.995980
_symmetry_space_group_name_H-M "P B A M"
_symmetry_group_IT_number 55
_symmetry_cell_setting 'orthorhombic'
loop_
_space_group_symop_operation_xyz
x,y,z
-x,-y,z
1/2+x,1/2-y,-z
1/2-x,1/2+y,-z
-x,-y,-z
x,y,-z
1/2-x,1/2+y,z
1/2+x,1/2-y,z
loop_
_atom_site_type_symbol
_atom_site_label
_atom_site_fract_x
_atom_site_fract_y
_atom_site_fract_z
Si Si1 0.729377 0.037224 0.171777
Si Si2 0.554945 0.741924 0.666445
Si Si3 0.406467 0.107488 0.828603
Si Si4 0.417016 0.441693 0.327081
Si Si5 0.581090 0.127028 0.332994
O O1 0.829162 0.027198 0.239816
O O2 0.676544 0.113108 0.247920
O O3 0.676176 0.953498 0.206906
O O4 0.736505 0.055206 0.000000
O O5 0.592579 0.745996 0.500000
O O6 0.618874 0.801627 0.766387
O O7 0.557376 0.649789 0.725043
O O8 0.449577 0.776941 0.672368
O O9 0.499443 0.076100 0.747698
O O10 0.427649 0.112792 0.000000
O O11 0.500000 0.500000 0.281488
O O12 0.397214 0.445851 0.500000
O O13 0.591992 0.096252 0.500000
#
# Coordination Sequence:
#
# PCOD8227508 Si02
#       5
#     8   8   8   8   8
#     4  11  22  35  55  86 117 149 188 229 281 340
#     4   8  18  36  56  81 110 143 185 232 277 328
#     4   9  18  33  54  83 119 149 179 228 283 335
#     4  10  22  42  62  79 108 151 196 236 279 331
#     4   9  18  33  57  85 115 144 182 232 283 331
#
# _framework density 18.424723
#
# number of rings (size 3 to 8) (size 9 to 14) (size 15 to 20)
#    1.200    1.400    0.000    1.800    0.000    6.800 
#    3.600    0.000    0.000    0.000    0.000    0.000 
#    0.000    0.000    0.000    0.000    0.000    0.000 
#
# Total GULP energy -495647.685263 kJ/mol
# GULP energy per Si atom -12391.192132 kJ/mol
# Density = 1.838279 g / cm^3
# Si number density = 18.424723 Si / 1000 Ang^3
#
#
#
# Elastic Constant Matrix: (Units=GPa)
#
#
# Indices 1 2 3 4 5 6 
#
# 1 127.1848 45.6035 64.4209 0.0000 0.0000 0.0000
# 2 45.6035 77.5906 30.5699 0.0000 0.0000 0.0000
# 3 64.4209 30.5699 89.8544 0.0000 0.0000 0.0000
# 4 0.0000 0.0000 0.0000 20.6034 0.0000 0.0000
# 5 0.0000 0.0000 0.0000 0.0000 31.1382 0.0000
# 6 0.0000 0.0000 0.0000 0.0000 0.0000 10.9070
#
#
#
# Elastic Compliance Matrix: (Units=1/GPa)
#
#
# Indices 1 2 3 4 5 6 
#
# 1 0.013765 -0.004853 -0.008218 0.000000 0.000000 0.000000
# 2 -0.004853 0.016594 -0.002166 0.000000 0.000000 0.000000
# 3 -0.008218 -0.002166 0.017758 0.000000 0.000000 0.000000
# 4 0.000000 0.000000 0.000000 0.048536 0.000000 0.000000
# 5 0.000000 0.000000 0.000000 0.000000 0.032115 0.000000
# 6 0.000000 0.000000 0.000000 0.000000 0.000000 0.091684
#
#
# Mechanical properties :
#
#
# Convention : Reuss Voigt Hill
#
# Bulk Modulus (GPa) = 56.67969 63.97981 60.32975
# Shear Modulus (GPa) = 19.46997 22.79876 21.13436
#
# Velocity S-wave (km/s) = 3.25427 3.52149 3.39051
# Velocity P-wave (km/s) = 6.70447 7.16483 6.93847
#
# Compressibility (1/GPa) = 0.01764300
#
# Stress axis : x y z
#
# Youngs Moduli (GPa) = 72.64830 60.26357 56.31285
#
# Poissons Ratio (x) = 0.29243 0.46277
# Poissons Ratio (y) = 0.35253 0.12200
# Poissons Ratio (z) = 0.59701 0.13056
#
# Static dielectric constant tensor:
#      x y z
#    x 3.116480 0.000000 0.000000 
#    y 0.000000 3.347340 0.000000 
#    z 0.000000 0.000000 3.388720 
# 
# 
# High freq. dielectric constant tensor:
#      x y z
#    x 1.688310 0.000000 0.000000 
#    y 0.000000 1.706930 0.000000 
#    z 0.000000 0.000000 1.721300 
# 
# From -- ./inp_files/5357.got.cif
#   From: 2010.03.12/outbox.cif.g09.slc.cpg/sg55_3_cif.got.tgz:5357.got - 2010.04.16 15:19:21.
