data_PCOD8227136
_publ_section_title
;
Structure prediction by ZEFSAII (Michael W. Deem and Ramdas Pophale) SiO2 
 PCOD8227136
Probable space group: P B A M
;
_chemical_formula_sum "Si O2"
_cell_formula_units_Z 44
_cell_length_a 13.702673
_cell_length_b 9.704417
_cell_length_c 15.800365
_cell_angle_alpha 90.000000
_cell_angle_beta 90.000000
_cell_angle_gamma 90.000000
_cell_volume 2101.076491
_symmetry_space_group_name_H-M "P B A M"
_symmetry_group_IT_number 55
_symmetry_cell_setting 'orthorhombic'
loop_
_space_group_symop_operation_xyz
x,y,z
-x,-y,z
1/2+x,1/2-y,-z
1/2-x,1/2+y,-z
-x,-y,-z
x,y,-z
1/2-x,1/2+y,z
1/2+x,1/2-y,z
loop_
_atom_site_type_symbol
_atom_site_label
_atom_site_fract_x
_atom_site_fract_y
_atom_site_fract_z
Si Si1 0.000000 0.000000 0.727074
Si Si2 0.825473 0.327600 0.814324
Si Si3 0.699865 0.222002 0.338019
Si Si4 0.046369 0.283835 0.796360
Si Si5 0.212026 0.394234 0.097954
Si Si6 0.340975 0.490807 0.594307
O O1 0.037029 0.119052 0.788919
O O2 0.916293 0.060448 0.665719
O O3 0.778388 0.288089 0.725574
O O4 0.803919 0.204080 0.880581
O O5 0.776222 0.467343 0.847417
O O6 0.941044 0.354992 0.804426
O O7 0.605156 0.165193 0.287227
O O8 0.741038 0.092442 0.389576
O O9 0.672652 0.344520 0.401991
O O10 0.110458 0.317369 0.879172
O O11 0.211768 0.433012 0.000000
O O12 0.379126 0.455292 0.500000
#
# Coordination Sequence:
#
# PCOD8227136 Si02
#       6
#     4   8   8   8   8   8
#     4  10  21  40  61  94 120 162 218 248 297 382
#     4  11  22  42  64  87 123 166 203 255 307 372
#     4  10  21  38  62  90 120 161 214 245 298 380
#     4  10  22  38  66  88 119 168 207 251 305 364
#     4  11  25  40  61  94 123 156 205 256 316 367
#     4  11  21  37  61  90 126 161 200 261 314 353
#
# _framework density 20.941645000000001
#
# number of rings (size 3 to 8) (size 9 to 14) (size 15 to 20)
#    0.000    1.455    1.818    4.091    5.091    2.182 
#    0.000    0.455    0.000    1.091    0.000    0.000 
#    0.000    0.000    0.000    0.000    0.000    0.000 
#
# Total GULP energy -545634.203133 kJ/mol
# GULP energy per Si atom -12400.777344 kJ/mol
# Density = 2.089398 g / cm^3
# Si number density = 20.941645 Si / 1000 Ang^3
#
#
#
# Elastic Constant Matrix: (Units=GPa)
#
#
# Indices 1 2 3 4 5 6 
#
# 1 102.8555 20.3470 9.0106 0.0000 0.0000 0.0000
# 2 20.3470 84.0688 21.8597 0.0000 0.0000 0.0000
# 3 9.0106 21.8597 76.6221 0.0000 0.0000 0.0000
# 4 0.0000 0.0000 0.0000 20.7761 0.0000 0.0000
# 5 0.0000 0.0000 0.0000 0.0000 14.0853 0.0000
# 6 0.0000 0.0000 0.0000 0.0000 0.0000 37.9519
#
#
#
# Elastic Compliance Matrix: (Units=1/GPa)
#
#
# Indices 1 2 3 4 5 6 
#
# 1 0.010232 -0.002337 -0.000537 0.000000 0.000000 0.000000
# 2 -0.002337 0.013382 -0.003543 0.000000 0.000000 0.000000
# 3 -0.000537 -0.003543 0.014125 0.000000 0.000000 0.000000
# 4 0.000000 0.000000 0.000000 0.048132 0.000000 0.000000
# 5 0.000000 0.000000 0.000000 0.000000 0.070996 0.000000
# 6 0.000000 0.000000 0.000000 0.000000 0.000000 0.026349
#
#
# Mechanical properties :
#
#
# Convention : Reuss Voigt Hill
#
# Bulk Modulus (GPa) = 40.15125 40.66454 40.40789
# Shear Modulus (GPa) = 24.46783 28.71795 26.59289
#
# Velocity S-wave (km/s) = 3.42187 3.70717 3.56737
# Velocity P-wave (km/s) = 5.90142 6.14689 6.02541
#
# Compressibility (1/GPa) = 0.02490583
#
# Stress axis : x y z
#
# Youngs Moduli (GPa) = 97.73593 74.72818 70.79687
#
# Poissons Ratio (x) = 0.17463 0.03799
# Poissons Ratio (y) = 0.22839 0.25083
# Poissons Ratio (z) = 0.05244 0.26476
#
# Static dielectric constant tensor:
#      x y z
#    x 3.900880 0.000000 0.000000 
#    y 0.000000 3.794170 0.000000 
#    z 0.000000 0.000000 3.582070 
# 
# 
# High freq. dielectric constant tensor:
#      x y z
#    x 1.818670 0.000000 0.000000 
#    y 0.000000 1.827930 0.000000 
#    z 0.000000 0.000000 1.802340 
# 
# From -- ./inp_files/21464.got.cif
#   From: 2010.03.12/outbox.cif.g09.slc.cpg/sg55_11_cif.got.tgz:21464.got - 2010.04.16 15:19:21.
