data_PCOD8227953
_publ_section_title
;
Structure prediction by ZEFSAII (Michael W. Deem and Ramdas Pophale) SiO2 
 PCOD8227953
Probable space group: P C C N
;
_chemical_formula_sum "Si O2"
_cell_formula_units_Z 60
_cell_length_a 27.558786
_cell_length_b 6.082914
_cell_length_c 19.146441
_cell_angle_alpha 90.000000
_cell_angle_beta 90.000000
_cell_angle_gamma 90.000000
_cell_volume 3209.665815
_symmetry_space_group_name_H-M "P C C N"
_symmetry_group_IT_number 56
_symmetry_cell_setting 'orthorhombic'
loop_
_space_group_symop_operation_xyz
x,y,z
1/2-x,1/2-y,z
1/2+x,-y,1/2-z
-x,1/2+y,1/2-z
-x,-y,-z
1/2+x,1/2+y,-z
1/2-x,y,1/2+z
x,1/2-y,1/2+z
loop_
_atom_site_type_symbol
_atom_site_label
_atom_site_fract_x
_atom_site_fract_y
_atom_site_fract_z
Si Si1 0.204143 0.130072 0.715615
Si Si2 0.951936 0.830308 0.299595
Si Si3 0.482600 0.310113 0.449354
Si Si4 0.443635 0.517682 0.311391
Si Si5 0.377153 0.664120 0.744257
Si Si6 0.939724 0.957665 0.932235
Si Si7 0.661038 0.484535 0.872281
Si Si8 0.750000 0.250000 0.373381
O O1 0.250000 0.250000 0.755029
O O2 0.176128 0.279043 0.658413
O O3 0.164026 0.016635 0.767351
O O4 0.229610 0.939974 0.674071
O O5 0.927463 0.671939 0.242230
O O6 0.954368 0.724501 0.375894
O O7 0.006917 0.885344 0.279300
O O8 0.919438 0.048561 0.300954
O O9 0.500000 0.500000 0.500000
O O10 0.450482 0.418129 0.388268
O O11 0.449294 0.135510 0.490405
O O12 0.529149 0.179592 0.418772
O O13 0.402018 0.708831 0.310303
O O14 0.352834 0.842901 0.694987
O O15 0.882596 0.003392 0.927074
O O16 0.705253 0.363909 0.915107
#
# Coordination Sequence:
#
# PCOD8227953 Si02
#       8
#     8   8   8   8   8   8   8   4
#     4   9  17  32  50  80 118 142 175 230 298 357
#     4  12  21  34  55  79 110 152 199 238 278 343
#     4  11  25  38  51  75 118 160 197 238 282 343
#     4  12  22  33  51  78 110 154 203 241 278 343
#     4  11  20  30  53  81 111 150 185 239 292 340
#     4  11  22  37  55  76 110 164 193 232 294 342
#     4  10  18  33  52  81 111 146 182 232 295 349
#     4   8  18  28  52  80 114 138 168 236 298 348
#
# _framework density 18.693534
#
# number of rings (size 3 to 8) (size 9 to 14) (size 15 to 20)
#    0.000    1.333    5.333    1.600    0.000    0.000 
#    0.000    0.000    0.000    0.000    0.000    0.000 
#    0.000  187.733    0.000    0.000    0.000    0.000 
#
# Total GULP energy -743361.809002 kJ/mol
# GULP energy per Si atom -12389.363483 kJ/mol
# Density = 1.865099 g / cm^3
# Si number density = 18.693534 Si / 1000 Ang^3
#
#
#
# Elastic Constant Matrix: (Units=GPa)
#
#
# Indices 1 2 3 4 5 6 
#
# 1 143.6776 59.1029 32.8274 0.0000 0.0000 0.0000
# 2 59.1029 103.3796 32.8809 0.0000 0.0000 0.0000
# 3 32.8274 32.8809 67.0769 0.0000 0.0000 0.0000
# 4 0.0000 0.0000 0.0000 29.2012 0.0000 0.0000
# 5 0.0000 0.0000 0.0000 0.0000 20.4118 0.0000
# 6 0.0000 0.0000 0.0000 0.0000 0.0000 52.6971
#
#
#
# Elastic Compliance Matrix: (Units=1/GPa)
#
#
# Indices 1 2 3 4 5 6 
#
# 1 0.009397 -0.004632 -0.002329 0.000000 0.000000 0.000000
# 2 -0.004632 0.013743 -0.004470 0.000000 0.000000 0.000000
# 3 -0.002329 -0.004470 0.018239 0.000000 0.000000 0.000000
# 4 0.000000 0.000000 0.000000 0.034245 0.000000 0.000000
# 5 0.000000 0.000000 0.000000 0.000000 0.048991 0.000000
# 6 0.000000 0.000000 0.000000 0.000000 0.000000 0.018976
#
#
# Mechanical properties :
#
#
# Convention : Reuss Voigt Hill
#
# Bulk Modulus (GPa) = 53.99973 62.63960 58.31966
# Shear Modulus (GPa) = 28.96440 33.08353 31.02397
#
# Velocity S-wave (km/s) = 3.94056 4.21144 4.07825
# Velocity P-wave (km/s) = 7.04653 7.56504 7.31038
#
# Compressibility (1/GPa) = 0.01851861
#
# Stress axis : x y z
#
# Youngs Moduli (GPa) = 106.41178 72.76478 54.82772
#
# Poissons Ratio (x) = 0.33705 0.12767
# Poissons Ratio (y) = 0.49290 0.24507
# Poissons Ratio (z) = 0.24778 0.32525
#
# Static dielectric constant tensor:
#      x y z
#    x 4.196490 0.000000 0.000000 
#    y 0.000000 4.053000 0.000000 
#    z 0.000000 0.000000 2.995440 
# 
# 
# High freq. dielectric constant tensor:
#      x y z
#    x 1.739850 0.000000 0.000000 
#    y 0.000000 1.759640 0.000000 
#    z 0.000000 0.000000 1.655520 
# 
# From -- ./inp_files/17114.got.cif
#   From: 2010.03.12/outbox.cif.g09.slc.cpg/sg56_9_cif.got.tgz:17114.got - 2010.04.16 15:33:40.
