data_PCOD8227443
_publ_section_title
;
Structure prediction by ZEFSAII (Michael W. Deem and Ramdas Pophale) SiO2 
 PCOD8227443
Probable space group: P B A M
;
_chemical_formula_sum "Si O2"
_cell_formula_units_Z 48
_cell_length_a 17.565597
_cell_length_b 15.200099
_cell_length_c 8.871673
_cell_angle_alpha 90.000000
_cell_angle_beta 90.000000
_cell_angle_gamma 90.000000
_cell_volume 2368.726164
_symmetry_space_group_name_H-M "P B A M"
_symmetry_group_IT_number 55
_symmetry_cell_setting 'orthorhombic'
loop_
_space_group_symop_operation_xyz
x,y,z
-x,-y,z
1/2+x,1/2-y,-z
1/2-x,1/2+y,-z
-x,-y,-z
x,y,-z
1/2-x,1/2+y,z
1/2+x,1/2-y,z
loop_
_atom_site_type_symbol
_atom_site_label
_atom_site_fract_x
_atom_site_fract_y
_atom_site_fract_z
Si Si1 0.211914 0.902473 0.677881
Si Si2 0.211231 0.222694 0.325463
Si Si3 0.536717 0.906658 0.826406
Si Si4 0.789210 0.437546 0.824700
Si Si5 0.034755 0.243192 0.326042
Si Si6 0.950791 0.083895 0.176799
O O1 0.210490 0.911049 0.500000
O O2 0.237879 0.805140 0.727626
O O3 0.129144 0.923331 0.740470
O O4 0.272515 0.971869 0.740017
O O5 0.225771 0.200679 0.500000
O O6 0.232165 0.138365 0.227608
O O7 0.124019 0.245253 0.293724
O O8 0.625543 0.908436 0.787241
O O9 0.497829 0.837824 0.715849
O O10 0.500000 0.000000 0.790556
O O11 0.522834 0.879705 0.000000
O O12 0.776616 0.454710 0.000000
O O13 0.016574 0.222621 0.500000
O O14 0.995148 0.170971 0.222908
O O15 0.935189 0.085646 0.000000
O O16 0.000000 0.000000 0.226004
#
# Coordination Sequence:
#
# PCOD8227443 Si02
#       6
#     8   8   8   8   8   8
#     4  11  23  40  63  89 119 156 197 243 294 347
#     4  10  23  41  60  86 119 155 195 241 293 348
#     4  10  22  40  61  87 120 157 197 242 293 349
#     4  11  23  38  60  89 119 155 196 240 292 348
#     4  11  23  39  61  88 118 154 196 242 294 350
#     4  11  24  41  61  87 119 155 197 244 294 349
#
# _framework density 20.264057000000001
#
# number of rings (size 3 to 8) (size 9 to 14) (size 15 to 20)
#    0.000    1.333    0.000    5.000    0.000   11.000 
#    0.000    0.000    0.000    0.000    0.000    0.000 
#    0.000    0.000    0.000    0.000    0.000    0.000 
#
# Total GULP energy -595579.939614 kJ/mol
# GULP energy per Si atom -12407.915409 kJ/mol
# Density = 2.021794 g / cm^3
# Si number density = 20.264057 Si / 1000 Ang^3
#
#
#
# Elastic Constant Matrix: (Units=GPa)
#
#
# Indices 1 2 3 4 5 6 
#
# 1 76.7428 23.8996 29.5980 0.0000 0.0000 0.0000
# 2 23.8996 85.7441 24.5318 0.0000 0.0000 0.0000
# 3 29.5980 24.5318 56.1211 0.0000 0.0000 0.0000
# 4 0.0000 0.0000 0.0000 50.9593 0.0000 0.0000
# 5 0.0000 0.0000 0.0000 0.0000 18.2824 0.0000
# 6 0.0000 0.0000 0.0000 0.0000 0.0000 37.5623
#
#
#
# Elastic Compliance Matrix: (Units=1/GPa)
#
#
# Indices 1 2 3 4 5 6 
#
# 1 0.016798 -0.002454 -0.007786 0.000000 0.000000 0.000000
# 2 -0.002454 0.013688 -0.004689 0.000000 0.000000 0.000000
# 3 -0.007786 -0.004689 0.023975 0.000000 0.000000 0.000000
# 4 0.000000 0.000000 0.000000 0.019624 0.000000 0.000000
# 5 0.000000 0.000000 0.000000 0.000000 0.054697 0.000000
# 6 0.000000 0.000000 0.000000 0.000000 0.000000 0.026622
#
#
# Mechanical properties :
#
#
# Convention : Reuss Voigt Hill
#
# Bulk Modulus (GPa) = 40.64788 41.62965 41.13877
# Shear Modulus (GPa) = 25.84457 30.73270 28.28864
#
# Velocity S-wave (km/s) = 3.57513 3.89859 3.74036
# Velocity P-wave (km/s) = 6.09465 6.39168 6.24493
#
# Compressibility (1/GPa) = 0.02460153
#
# Stress axis : x y z
#
# Youngs Moduli (GPa) = 59.53129 73.05515 41.71055
#
# Poissons Ratio (x) = 0.17931 0.32477
# Poissons Ratio (y) = 0.14611 0.19558
# Poissons Ratio (z) = 0.46353 0.34256
#
# Static dielectric constant tensor:
#      x y z
#    x 3.826840 0.000000 0.000000 
#    y 0.000000 3.813340 0.000000 
#    z 0.000000 0.000000 3.749940 
# 
# 
# High freq. dielectric constant tensor:
#      x y z
#    x 1.808350 0.000000 0.000000 
#    y 0.000000 1.806210 0.000000 
#    z 0.000000 0.000000 1.796950 
# 
# From -- ./inp_files/7436.got.cif
#   From: 2010.03.12/outbox.cif.g09.slc.cpg/sg55_4_cif.got.tgz:7436.got - 2010.04.16 15:19:21.
