data_PCOD8227067
_publ_section_title
;
Structure prediction by ZEFSAII (Michael W. Deem and Ramdas Pophale) SiO2 
 PCOD8227067
Probable space group: P B A M
;
_chemical_formula_sum "Si O2"
_cell_formula_units_Z 64
_cell_length_a 15.458628
_cell_length_b 24.053155
_cell_length_c 8.557337
_cell_angle_alpha 90.000000
_cell_angle_beta 90.000000
_cell_angle_gamma 90.000000
_cell_volume 3181.864137
_symmetry_space_group_name_H-M "P B A M"
_symmetry_group_IT_number 55
_symmetry_cell_setting 'orthorhombic'
loop_
_space_group_symop_operation_xyz
x,y,z
-x,-y,z
1/2+x,1/2-y,-z
1/2-x,1/2+y,-z
-x,-y,-z
x,y,-z
1/2-x,1/2+y,z
1/2+x,1/2-y,z
loop_
_atom_site_type_symbol
_atom_site_label
_atom_site_fract_x
_atom_site_fract_y
_atom_site_fract_z
Si Si1 0.843261 0.365325 0.184907
Si Si2 0.002964 0.938034 0.316081
Si Si3 0.151554 0.131883 0.182360
Si Si4 0.595715 0.255692 0.681929
Si Si5 0.647270 0.133176 0.680078
Si Si6 0.157514 0.861211 0.318116
Si Si7 0.501240 0.938218 0.184116
Si Si8 0.409186 0.252636 0.182834
O O1 0.748100 0.385733 0.237272
O O2 0.916955 0.405266 0.257993
O O3 0.859567 0.302342 0.240875
O O4 0.849225 0.366687 0.000000
O O5 0.010620 0.942964 0.500000
O O6 0.087717 0.905665 0.252955
O O7 0.916379 0.904903 0.276110
O O8 0.000000 0.000000 0.241788
O O9 0.142264 0.197067 0.217324
O O10 0.136809 0.121393 0.000000
O O11 0.613340 0.266946 0.500000
O O12 0.633801 0.196541 0.736222
O O13 0.494351 0.258556 0.713982
O O14 0.619884 0.127805 0.500000
O O15 0.746354 0.114644 0.707145
O O16 0.588161 0.092467 0.780282
O O17 0.141000 0.847526 0.500000
O O18 0.151321 0.805069 0.218163
O O19 0.500000 0.000000 0.257168
O O20 0.512766 0.941638 0.000000
O O21 0.433291 0.250122 0.000000
#
# Coordination Sequence:
#
# PCOD8227067 Si02
#       8
#     8   8   8   8   8   8   8   8
#     4   9  20  37  56  84 118 148 184 234 287 337
#     4  10  22  40  59  80 112 154 195 237 288 341
#     4  11  22  37  59  85 115 149 188 237 285 338
#     4  11  21  35  56  84 117 148 183 230 287 345
#     4  10  22  38  58  85 115 151 190 235 287 337
#     4  10  21  38  58  82 117 151 186 236 287 339
#     4  10  21  39  61  83 113 154 195 239 290 338
#     4  11  20  34  59  86 114 150 188 227 282 346
#
# _framework density 20.113994000000002
#
# number of rings (size 3 to 8) (size 9 to 14) (size 15 to 20)
#    0.000    1.750    2.500    1.875    0.000    2.500 
#    0.000    3.125    0.000    0.000    0.000    0.000 
#    0.000    0.000    0.000    0.000    0.000    0.000 
#
# Total GULP energy -793724.203299 kJ/mol
# GULP energy per Si atom -12401.940677 kJ/mol
# Density = 2.006821 g / cm^3
# Si number density = 20.113994 Si / 1000 Ang^3
#
#
#
# Elastic Constant Matrix: (Units=GPa)
#
#
# Indices 1 2 3 4 5 6 
#
# 1 141.8303 60.2291 4.3191 0.0000 0.0000 0.0000
# 2 60.2291 147.7566 8.7963 0.0000 0.0000 0.0000
# 3 4.3191 8.7963 9.6655 0.0000 0.0000 0.0000
# 4 0.0000 0.0000 0.0000 22.3081 0.0000 0.0000
# 5 0.0000 0.0000 0.0000 0.0000 23.3322 0.0000
# 6 0.0000 0.0000 0.0000 0.0000 0.0000 12.2274
#
#
#
# Elastic Compliance Matrix: (Units=1/GPa)
#
#
# Indices 1 2 3 4 5 6 
#
# 1 0.008531 -0.003437 -0.000685 0.000000 0.000000 0.000000
# 2 -0.003437 0.008540 -0.006236 0.000000 0.000000 0.000000
# 3 -0.000685 -0.006236 0.109442 0.000000 0.000000 0.000000
# 4 0.000000 0.000000 0.000000 0.044827 0.000000 0.000000
# 5 0.000000 0.000000 0.000000 0.000000 0.042859 0.000000
# 6 0.000000 0.000000 0.000000 0.000000 0.000000 0.081783
#
#
# Mechanical properties :
#
#
# Convention : Reuss Voigt Hill
#
# Bulk Modulus (GPa) = 9.45195 49.54905 29.50050
# Shear Modulus (GPa) = 14.20601 26.63408 20.42005
#
# Velocity S-wave (km/s) = 2.66047 3.64284 3.18970
# Velocity P-wave (km/s) = 3.76123 6.51010 5.31640
#
# Compressibility (1/GPa) = 0.10579832
#
# Stress axis : x y z
#
# Youngs Moduli (GPa) = 117.22062 117.09586 9.13723
#
# Poissons Ratio (x) = 0.40242 0.00625
# Poissons Ratio (y) = 0.40285 0.05698
# Poissons Ratio (z) = 0.08024 0.73025
#
# Static dielectric constant tensor:
#      x y z
#    x 3.872670 0.000000 0.000000 
#    y 0.000000 3.893460 0.000000 
#    z 0.000000 0.000000 3.366970 
# 
# 
# High freq. dielectric constant tensor:
#      x y z
#    x 1.797840 0.000000 0.000000 
#    y 0.000000 1.783960 0.000000 
#    z 0.000000 0.000000 1.762350 
# 
# From -- ./inp_files/6514.got.cif
#   From: 2010.03.12/outbox.cif.g09.slc.cpg/sg55_4_cif.got.tgz:6514.got - 2010.04.16 15:19:21.
