data_PCOD8227227
_publ_section_title
;
Structure prediction by ZEFSAII (Michael W. Deem and Ramdas Pophale) SiO2 
 PCOD8227227
Probable space group: P B A M
;
_chemical_formula_sum "Si O2"
_cell_formula_units_Z 56
_cell_length_a 14.535790
_cell_length_b 21.481624
_cell_length_c 8.859989
_cell_angle_alpha 90.000000
_cell_angle_beta 90.000000
_cell_angle_gamma 90.000000
_cell_volume 2766.552611
_symmetry_space_group_name_H-M "P B A M"
_symmetry_group_IT_number 55
_symmetry_cell_setting 'orthorhombic'
loop_
_space_group_symop_operation_xyz
x,y,z
-x,-y,z
1/2+x,1/2-y,-z
1/2-x,1/2+y,-z
-x,-y,-z
x,y,-z
1/2-x,1/2+y,z
1/2+x,1/2-y,z
loop_
_atom_site_type_symbol
_atom_site_label
_atom_site_fract_x
_atom_site_fract_y
_atom_site_fract_z
Si Si1 0.668123 0.227731 0.324761
Si Si2 0.968394 0.822429 0.822948
Si Si3 0.597785 0.091544 0.324898
Si Si4 0.877877 0.249759 0.322626
Si Si5 0.076121 0.049537 0.325336
Si Si6 0.284242 0.026409 0.674220
Si Si7 0.914397 0.379948 0.822520
O O1 0.650163 0.243444 0.500000
O O2 0.606106 0.271165 0.222335
O O3 0.646760 0.156391 0.287758
O O4 0.772518 0.240765 0.278326
O O5 0.932891 0.889641 0.775304
O O6 0.065377 0.808362 0.742656
O O7 0.983396 0.820324 0.000000
O O8 0.571144 0.086270 0.500000
O O9 0.668748 0.037993 0.276318
O O10 0.504945 0.082474 0.229125
O O11 0.893119 0.252386 0.500000
O O12 0.918079 0.312705 0.253635
O O13 0.062956 0.067996 0.500000
O O14 0.175866 0.019527 0.295894
O O15 0.000000 0.000000 0.273650
O O16 0.304368 0.042001 0.500000
O O17 0.323615 0.083134 0.772231
O O18 0.913508 0.371181 0.000000
#
# Coordination Sequence:
#
# PCOD8227227 Si02
#       7
#     8   8   8   8   8   8   8
#     4  10  22  40  66  94 122 162 213 265 312 365
#     4  12  25  41  63  94 132 168 202 251 316 379
#     4  10  21  39  64  92 122 159 207 263 313 368
#     4  11  23  40  66  93 122 162 212 260 308 366
#     4  10  23  43  69  94 122 163 215 265 307 364
#     4  10  22  40  64  92 122 163 211 259 313 366
#     4  12  24  39  60  92 129 167 206 251 316 380
#
# _framework density 20.241797999999999
#
# number of rings (size 3 to 8) (size 9 to 14) (size 15 to 20)
#    0.000    1.286    1.429    4.286    2.000    7.714 
#    0.000    0.000    0.000    0.000    0.000    0.000 
#    0.000    0.000    0.000    0.000    0.000    0.000 
#
# Total GULP energy -694822.799701 kJ/mol
# GULP energy per Si atom -12407.549995 kJ/mol
# Density = 2.019573 g / cm^3
# Si number density = 20.241798 Si / 1000 Ang^3
#
#
#
# Elastic Constant Matrix: (Units=GPa)
#
#
# Indices 1 2 3 4 5 6 
#
# 1 99.9669 22.4445 36.9918 0.0000 0.0000 0.0000
# 2 22.4445 84.5094 27.6681 0.0000 0.0000 0.0000
# 3 36.9918 27.6681 92.9316 0.0000 0.0000 0.0000
# 4 0.0000 0.0000 0.0000 -1.8996 0.0000 0.0000
# 5 0.0000 0.0000 0.0000 0.0000 10.3163 0.0000
# 6 0.0000 0.0000 0.0000 0.0000 0.0000 36.0340
#
#
#
# Elastic Compliance Matrix: (Units=1/GPa)
#
#
# Indices 1 2 3 4 5 6 
#
# 1 0.011972 -0.001794 -0.004231 0.000000 0.000000 0.000000
# 2 -0.001794 0.013380 -0.003269 0.000000 0.000000 0.000000
# 3 -0.004231 -0.003269 0.013418 0.000000 0.000000 0.000000
# 4 0.000000 0.000000 0.000000 -0.526434 0.000000 0.000000
# 5 0.000000 0.000000 0.000000 0.000000 0.096934 0.000000
# 6 0.000000 0.000000 0.000000 0.000000 0.000000 0.027752
#
#
# Mechanical properties :
#
#
# Convention : Reuss Voigt Hill
#
# Bulk Modulus (GPa) = 49.55320 50.17962 49.86641
# Shear Modulus (GPa) = -14.80770 21.57704 3.38467
#
# Velocity S-wave (km/s) = -2.70764 3.26845 1.29451
# Velocity P-wave (km/s) = 3.84171 6.25201 5.18876
#
# Compressibility (1/GPa) = 0.02018033
#
# Stress axis : x y z
#
# Youngs Moduli (GPa) = 83.52894 74.73896 74.52548
#
# Poissons Ratio (x) = 0.13410 0.31534
# Poissons Ratio (y) = 0.14987 0.24365
# Poissons Ratio (z) = 0.35343 0.24435
#
# Static dielectric constant tensor:
#      x y z
#    x 3.873530 0.000000 0.000000 
#    y 0.000000 3.779310 0.000000 
#    z 0.000000 0.000000 3.544990 
# 
# 
# High freq. dielectric constant tensor:
#      x y z
#    x 1.806710 0.000000 0.000000 
#    y 0.000000 1.797510 0.000000 
#    z 0.000000 0.000000 1.779270 
# 
# From -- ./inp_files/6182.got.cif
#   From: 2010.03.12/outbox.cif.g09.slc.cpg/sg55_4_cif.got.tgz:6182.got - 2010.04.16 15:19:21.
