data_PCOD8227733
_publ_section_title
;
Structure prediction by ZEFSAII (Michael W. Deem and Ramdas Pophale) SiO2 
 PCOD8227733
Probable space group: P B A M
;
_chemical_formula_sum "Si O2"
_cell_formula_units_Z 40
_cell_length_a 9.646539
_cell_length_b 9.744940
_cell_length_c 20.602206
_cell_angle_alpha 90.000000
_cell_angle_beta 90.000000
_cell_angle_gamma 90.000000
_cell_volume 1936.709216
_symmetry_space_group_name_H-M "P B A M"
_symmetry_group_IT_number 55
_symmetry_cell_setting 'orthorhombic'
loop_
_space_group_symop_operation_xyz
x,y,z
-x,-y,z
1/2+x,1/2-y,-z
1/2-x,1/2+y,-z
-x,-y,-z
x,y,-z
1/2-x,1/2+y,z
1/2+x,1/2-y,z
loop_
_atom_site_type_symbol
_atom_site_label
_atom_site_fract_x
_atom_site_fract_y
_atom_site_fract_z
Si Si1 0.997740 0.338206 0.427037
Si Si2 0.160287 0.966545 0.267524
Si Si3 0.244983 0.219674 0.651319
Si Si4 0.190700 0.911187 0.878103
Si Si5 0.094877 0.188694 0.074332
O O1 0.035809 0.291427 0.500000
O O2 0.097070 0.268379 0.374532
O O3 0.000000 0.500000 0.419906
O O4 0.843005 0.288314 0.411504
O O5 0.239057 0.074609 0.312647
O O6 0.188971 0.818094 0.295747
O O7 0.216988 0.965648 0.194453
O O8 0.000000 0.000000 0.267211
O O9 0.319185 0.817317 0.898835
O O10 0.046578 0.826132 0.884005
O O11 0.183344 0.047706 0.922391
O O12 0.054396 0.216877 0.000000
#
# Coordination Sequence:
#
# PCOD8227733 Si02
#       5
#     8   8   8   8   8
#     4  11  24  43  65  97 133 170 220 271 323 383
#     4  12  24  42  66  94 135 164 218 265 322 390
#     4  12  24  43  67  97 128 177 213 270 326 380
#     4  11  24  42  64  97 128 171 213 266 323 384
#     4  11  22  42  66  93 130 168 213 264 321 384
#
# _framework density 20.653590000000001
#
# number of rings (size 3 to 8) (size 9 to 14) (size 15 to 20)
#    0.000    0.600    6.000    4.200    0.000    0.800 
#    0.000    3.000    0.000    0.000    0.000    0.000 
#    0.000    0.000    0.000    0.000    0.000    0.000 
#
# Total GULP energy -496140.939869 kJ/mol
# GULP energy per Si atom -12403.523497 kJ/mol
# Density = 2.060658 g / cm^3
# Si number density = 20.653590 Si / 1000 Ang^3
#
#
#
# Elastic Constant Matrix: (Units=GPa)
#
#
# Indices 1 2 3 4 5 6 
#
# 1 46.3939 13.7650 34.2547 0.0000 0.0000 0.0000
# 2 13.7650 38.3399 9.2964 0.0000 0.0000 0.0000
# 3 34.2547 9.2964 113.1693 0.0000 0.0000 0.0000
# 4 0.0000 0.0000 0.0000 -898.7936 0.0000 0.0000
# 5 0.0000 0.0000 0.0000 0.0000 7.8718 0.0000
# 6 0.0000 0.0000 0.0000 0.0000 0.0000 36.0898
#
#
#
# Elastic Compliance Matrix: (Units=1/GPa)
#
#
# Indices 1 2 3 4 5 6 
#
# 1 0.030456 -0.008876 -0.008490 0.000000 0.000000 0.000000
# 2 -0.008876 0.029199 0.000288 0.000000 0.000000 0.000000
# 3 -0.008490 0.000288 0.011382 0.000000 0.000000 0.000000
# 4 0.000000 0.000000 0.000000 -0.001113 0.000000 0.000000
# 5 0.000000 0.000000 0.000000 0.000000 0.127036 0.000000
# 6 0.000000 0.000000 0.000000 0.000000 0.000000 0.027709
#
#
# Mechanical properties :
#
#
# Convention : Reuss Voigt Hill
#
# Bulk Modulus (GPa) = 27.11289 34.72613 30.91951
# Shear Modulus (GPa) = 18.44203 -161.59394 -71.57596
#
# Velocity S-wave (km/s) = 2.99142 -8.85494 -5.89327
# Velocity P-wave (km/s) = 5.00873 9.36464 5.59505
#
# Compressibility (1/GPa) = 0.03688282
#
# Stress axis : x y z
#
# Youngs Moduli (GPa) = 32.83392 34.24734 87.85556
#
# Poissons Ratio (x) = 0.30398 0.74585
# Poissons Ratio (y) = 0.29144 -0.02531
# Poissons Ratio (z) = 0.27874 -0.00986
#
# Static dielectric constant tensor:
#      x y z
#    x 3.826310 0.000000 0.000000 
#    y 0.000000 3.799790 0.000000 
#    z 0.000000 0.000000 3.838200 
# 
# 
# High freq. dielectric constant tensor:
#      x y z
#    x 1.805770 0.000000 0.000000 
#    y 0.000000 1.813660 0.000000 
#    z 0.000000 0.000000 1.820390 
# 
# From -- ./inp_files/20612.got.cif
#   From: 2010.03.12/outbox.cif.g09.slc.cpg/sg55_11_cif.got.tgz:20612.got - 2010.04.16 15:19:21.
