data_PCOD8227589
_publ_section_title
;
Structure prediction by ZEFSAII (Michael W. Deem and Ramdas Pophale) SiO2 
 PCOD8227589
Probable space group: P B A M
;
_chemical_formula_sum "Si O2"
_cell_formula_units_Z 40
_cell_length_a 13.656893
_cell_length_b 7.504729
_cell_length_c 13.643977
_cell_angle_alpha 90.000000
_cell_angle_beta 90.000000
_cell_angle_gamma 90.000000
_cell_volume 1398.388680
_symmetry_space_group_name_H-M "P B A M"
_symmetry_group_IT_number 55
_symmetry_cell_setting 'orthorhombic'
loop_
_space_group_symop_operation_xyz
x,y,z
-x,-y,z
1/2+x,1/2-y,-z
1/2-x,1/2+y,-z
-x,-y,-z
x,y,-z
1/2-x,1/2+y,z
1/2+x,1/2-y,z
loop_
_atom_site_type_symbol
_atom_site_label
_atom_site_fract_x
_atom_site_fract_y
_atom_site_fract_z
Si Si1 0.345990 0.122495 0.500000
Si Si2 0.671450 0.564432 0.844404
Si Si3 0.158369 0.425960 0.000000
Si Si4 0.615273 0.846811 0.709129
Si Si5 0.464617 0.280229 0.000000
Si Si6 0.373070 0.713579 0.500000
Si Si7 0.402752 0.752989 0.714824
O O1 0.387235 0.219917 0.596165
O O2 0.230749 0.122310 0.500000
O O3 0.383712 0.923731 0.500000
O O4 0.772429 0.561740 0.905488
O O5 0.691606 0.725940 0.768104
O O6 0.348465 0.619874 0.788094
O O7 0.573767 0.605284 0.907818
O O8 0.088597 0.592855 0.000000
O O9 0.084814 0.251963 0.000000
O O10 0.509353 0.806696 0.756082
O O11 0.652327 0.053083 0.713013
O O12 0.417003 0.660961 0.606821
#
# Coordination Sequence:
#
# PCOD8227589 Si02
#       7
#     4   8   4   8   4   4   8
#     4  10  23  43  68 110 166 223 275 328 410 479
#     4  11  25  52  84 127 150 218 276 345 420 511
#     4  10  26  58  88 113 169 205 269 350 428 523
#     4  10  23  48  76 118 167 218 273 349 404 488
#     4  10  26  60  84 119 158 216 263 345 443 504
#     4  10  23  43  66 108 162 227 271 340 398 490
#     4  10  23  47  79 115 166 218 280 337 410 493
#
# _framework density 28.604351000000001
#
# number of rings (size 3 to 8) (size 9 to 14) (size 15 to 20)
#    0.000    1.800    0.000    1.200    2.800    7.200 
#   32.400    9.000    0.000    7.200    0.000    0.000 
#    0.000    0.000    0.000    0.000    0.000    0.000 
#
# Total GULP energy -495579.203793 kJ/mol
# GULP energy per Si atom -12389.480095 kJ/mol
# Density = 2.853925 g / cm^3
# Si number density = 28.604351 Si / 1000 Ang^3
#
#
#
# Elastic Constant Matrix: (Units=GPa)
#
#
# Indices 1 2 3 4 5 6 
#
# 1 162.3608 64.2092 54.5278 0.0000 0.0000 0.0000
# 2 64.2092 147.7161 99.7213 0.0000 0.0000 0.0000
# 3 54.5278 99.7213 199.7037 0.0000 0.0000 0.0000
# 4 0.0000 0.0000 0.0000 71.2214 0.0000 0.0000
# 5 0.0000 0.0000 0.0000 0.0000 49.2834 0.0000
# 6 0.0000 0.0000 0.0000 0.0000 0.0000 50.8190
#
#
#
# Elastic Compliance Matrix: (Units=1/GPa)
#
#
# Indices 1 2 3 4 5 6 
#
# 1 0.007490 -0.002829 -0.000633 0.000000 0.000000 0.000000
# 2 -0.002829 0.011281 -0.004861 0.000000 0.000000 0.000000
# 3 -0.000633 -0.004861 0.007607 0.000000 0.000000 0.000000
# 4 0.000000 0.000000 0.000000 0.014041 0.000000 0.000000
# 5 0.000000 0.000000 0.000000 0.000000 0.020291 0.000000
# 6 0.000000 0.000000 0.000000 0.000000 0.000000 0.019678
#
#
# Mechanical properties :
#
#
# Convention : Reuss Voigt Hill
#
# Bulk Modulus (GPa) = 102.73027 105.18858 103.95942
# Shear Modulus (GPa) = 49.86227 53.68625 51.77426
#
# Velocity S-wave (km/s) = 4.17966 4.33697 4.25904
# Velocity P-wave (km/s) = 7.69967 7.86972 7.78516
#
# Compressibility (1/GPa) = 0.00973423
#
# Stress axis : x y z
#
# Youngs Moduli (GPa) = 133.50607 88.64706 131.45323
#
# Poissons Ratio (x) = 0.25077 0.08316
# Poissons Ratio (y) = 0.37766 0.63894
# Poissons Ratio (z) = 0.08446 0.43088
#
# Static dielectric constant tensor:
#      x y z
#    x 5.241150 0.000000 0.000000 
#    y 0.000000 5.333110 0.000000 
#    z 0.000000 0.000000 6.028910 
# 
# 
# High freq. dielectric constant tensor:
#      x y z
#    x 2.167060 0.000000 0.000000 
#    y 0.000000 2.159000 0.000000 
#    z 0.000000 0.000000 2.180000 
# 
# From -- ./inp_files/18804.got.cif
#   From: 2010.03.12/outbox.cif.g09.slc.cpg/sg55_10_cif.got.tgz:18804.got - 2010.04.16 15:19:21.
