data_PCOD8227541
_publ_section_title
;
Structure prediction by ZEFSAII (Michael W. Deem and Ramdas Pophale) SiO2 
 PCOD8227541
Probable space group: P B A M
;
_chemical_formula_sum "Si O2"
_cell_formula_units_Z 40
_cell_length_a 13.554418
_cell_length_b 9.353698
_cell_length_c 14.650711
_cell_angle_alpha 90.000000
_cell_angle_beta 90.000000
_cell_angle_gamma 90.000000
_cell_volume 1857.474755
_symmetry_space_group_name_H-M "P B A M"
_symmetry_group_IT_number 55
_symmetry_cell_setting 'orthorhombic'
loop_
_space_group_symop_operation_xyz
x,y,z
-x,-y,z
1/2+x,1/2-y,-z
1/2-x,1/2+y,-z
-x,-y,-z
x,y,-z
1/2-x,1/2+y,z
1/2+x,1/2-y,z
loop_
_atom_site_type_symbol
_atom_site_label
_atom_site_fract_x
_atom_site_fract_y
_atom_site_fract_z
Si Si1 0.958895 0.731289 0.603182
Si Si2 0.146228 0.570149 0.600603
Si Si3 0.636025 0.104686 0.000000
Si Si4 0.429047 0.218275 0.000000
Si Si5 0.811014 0.877131 0.733574
Si Si6 0.703814 0.645861 0.150187
O O1 0.956057 0.799300 0.500000
O O2 0.904256 0.582082 0.599141
O O3 0.911355 0.830047 0.682013
O O4 0.071104 0.695421 0.634432
O O5 0.181370 0.614246 0.500000
O O6 0.242489 0.548606 0.659726
O O7 0.548570 0.224128 0.000000
O O8 0.700060 0.123789 0.910580
O O9 0.596333 0.946392 0.000000
O O10 0.386517 0.290650 0.908525
O O11 0.743562 0.749331 0.771502
O O12 0.835708 0.994973 0.810509
#
# Coordination Sequence:
#
# PCOD8227541 Si02
#       6
#     8   8   4   4   8   8
#     4   9  19  37  61  90 126 175 220 258 310 379
#     4   9  19  37  61  89 126 174 222 256 310 384
#     4  10  22  45  70  89 126 169 208 254 326 397
#     4  10  22  45  70  93 120 174 206 252 327 395
#     4  12  21  39  62  96 133 163 207 276 321 367
#     4  11  24  40  65  99 128 158 214 265 321 390
#
# _framework density 21.534611000000002
#
# number of rings (size 3 to 8) (size 9 to 14) (size 15 to 20)
#    0.000    1.800    4.000    1.800    0.000    1.600 
#    0.000    5.000    0.000    2.400    0.000    0.000 
#    0.000    0.000    0.000    0.000    0.000    0.000 
#
# Total GULP energy -495774.380525 kJ/mol
# GULP energy per Si atom -12394.359513 kJ/mol
# Density = 2.148560 g / cm^3
# Si number density = 21.534611 Si / 1000 Ang^3
#
#
#
# Elastic Constant Matrix: (Units=GPa)
#
#
# Indices 1 2 3 4 5 6 
#
# 1 96.4889 34.6635 50.9472 0.0000 0.0000 0.0000
# 2 34.6635 83.0350 37.5759 0.0000 0.0000 0.0000
# 3 50.9472 37.5759 95.8687 0.0000 0.0000 0.0000
# 4 0.0000 0.0000 0.0000 43.0695 0.0000 0.0000
# 5 0.0000 0.0000 0.0000 0.0000 34.0300 0.0000
# 6 0.0000 0.0000 0.0000 0.0000 0.0000 29.7313
#
#
#
# Elastic Compliance Matrix: (Units=1/GPa)
#
#
# Indices 1 2 3 4 5 6 
#
# 1 0.015094 -0.003247 -0.006748 0.000000 0.000000 0.000000
# 2 -0.003247 0.015338 -0.004286 0.000000 0.000000 0.000000
# 3 -0.006748 -0.004286 0.015697 0.000000 0.000000 0.000000
# 4 0.000000 0.000000 0.000000 0.023218 0.000000 0.000000
# 5 0.000000 0.000000 0.000000 0.000000 0.029386 0.000000
# 6 0.000000 0.000000 0.000000 0.000000 0.000000 0.033635
#
#
# Mechanical properties :
#
#
# Convention : Reuss Voigt Hill
#
# Bulk Modulus (GPa) = 56.92955 57.97395 57.45175
# Shear Modulus (GPa) = 29.97841 31.51325 30.74583
#
# Velocity S-wave (km/s) = 3.73514 3.82956 3.78264
# Velocity P-wave (km/s) = 6.71531 6.82157 6.76865
#
# Compressibility (1/GPa) = 0.01756557
#
# Stress axis : x y z
#
# Youngs Moduli (GPa) = 66.25305 65.19635 63.70531
#
# Poissons Ratio (x) = 0.21169 0.42991
# Poissons Ratio (y) = 0.21513 0.27306
# Poissons Ratio (z) = 0.44711 0.27945
#
# Static dielectric constant tensor:
#      x y z
#    x 4.087100 0.000000 0.000000 
#    y 0.000000 3.775300 0.000000 
#    z 0.000000 0.000000 4.141610 
# 
# 
# High freq. dielectric constant tensor:
#      x y z
#    x 1.841920 0.000000 0.000000 
#    y 0.000000 1.836420 0.000000 
#    z 0.000000 0.000000 1.853450 
# 
# From -- ./inp_files/18767.got.cif
#   From: 2010.03.12/outbox.cif.g09.slc.cpg/sg55_10_cif.got.tgz:18767.got - 2010.04.16 15:19:21.
