data_PCOD8227458
_publ_section_title
;
Structure prediction by ZEFSAII (Michael W. Deem and Ramdas Pophale) SiO2 
 PCOD8227458
Probable space group: P B A M
;
_chemical_formula_sum "Si O2"
_cell_formula_units_Z 56
_cell_length_a 15.021757
_cell_length_b 8.587205
_cell_length_c 19.834252
_cell_angle_alpha 90.000000
_cell_angle_beta 90.000000
_cell_angle_gamma 90.000000
_cell_volume 2558.517489
_symmetry_space_group_name_H-M "P B A M"
_symmetry_group_IT_number 55
_symmetry_cell_setting 'orthorhombic'
loop_
_space_group_symop_operation_xyz
x,y,z
-x,-y,z
1/2+x,1/2-y,-z
1/2-x,1/2+y,-z
-x,-y,-z
x,y,-z
1/2-x,1/2+y,z
1/2+x,1/2-y,z
loop_
_atom_site_type_symbol
_atom_site_label
_atom_site_fract_x
_atom_site_fract_y
_atom_site_fract_z
Si Si1 0.980968 0.677131 0.578259
Si Si2 0.851101 0.706489 0.210169
Si Si3 0.131987 0.819707 0.074174
Si Si4 0.814050 0.815310 0.356140
Si Si5 0.036089 0.836582 0.210599
Si Si6 0.864821 0.173904 0.658514
Si Si7 0.262140 0.051386 0.128719
O O1 0.002498 0.698053 0.500000
O O2 0.878903 0.726728 0.591835
O O3 0.000000 0.500000 0.601401
O O4 0.043140 0.794265 0.620126
O O5 0.819718 0.727530 0.285552
O O6 0.812988 0.842959 0.163163
O O7 0.816744 0.539072 0.186378
O O8 0.958517 0.708110 0.209717
O O9 0.065460 0.863255 0.133844
O O10 0.166636 0.645410 0.085150
O O11 0.215724 0.935239 0.076572
O O12 0.086685 0.831570 0.000000
O O13 0.709953 0.787349 0.374278
O O14 0.835644 0.996612 0.352982
O O15 0.117296 0.790809 0.261094
O O16 0.000000 0.000000 0.239794
#
# Coordination Sequence:
#
# PCOD8227458 Si02
#       7
#     8   8   8   8   8   8   8
#     4  11  26  47  69 101 141 179 224 273 327 395
#     4  11  21  41  64  96 127 166 213 277 327 394
#     4  11  23  40  61  88 124 169 219 274 339 403
#     4  12  23  41  71  99 135 177 223 274 341 394
#     4  12  22  41  63  96 133 165 220 279 332 395
#     4  12  24  44  70 103 138 176 226 278 331 399
#     4  10  22  40  63  89 124 167 216 272 334 401
#
# _framework density 21.887675999999999
#
# number of rings (size 3 to 8) (size 9 to 14) (size 15 to 20)
#    0.000    0.714    4.286    4.286    0.000    3.714 
#    0.000    2.143    0.000    0.000    0.000    0.000 
#    0.000    0.000    0.000    0.000    0.000    0.000 
#
# Total GULP energy -694512.694181 kJ/mol
# GULP energy per Si atom -12402.012396 kJ/mol
# Density = 2.183786 g / cm^3
# Si number density = 21.887676 Si / 1000 Ang^3
#
#
#
# Elastic Constant Matrix: (Units=GPa)
#
#
# Indices 1 2 3 4 5 6 
#
# 1 111.4784 30.9591 15.7796 0.0000 0.0000 0.0000
# 2 30.9591 100.7024 23.9674 0.0000 0.0000 0.0000
# 3 15.7796 23.9674 95.5193 0.0000 0.0000 0.0000
# 4 0.0000 0.0000 0.0000 18.2563 0.0000 0.0000
# 5 0.0000 0.0000 0.0000 0.0000 29.7694 0.0000
# 6 0.0000 0.0000 0.0000 0.0000 0.0000 30.4925
#
#
#
# Elastic Compliance Matrix: (Units=1/GPa)
#
#
# Indices 1 2 3 4 5 6 
#
# 1 0.009884 -0.002818 -0.000926 0.000000 0.000000 0.000000
# 2 -0.002818 0.011365 -0.002386 0.000000 0.000000 0.000000
# 3 -0.000926 -0.002386 0.011221 0.000000 0.000000 0.000000
# 4 0.000000 0.000000 0.000000 0.054775 0.000000 0.000000
# 5 0.000000 0.000000 0.000000 0.000000 0.033592 0.000000
# 6 0.000000 0.000000 0.000000 0.000000 0.000000 0.032795
#
#
# Mechanical properties :
#
#
# Convention : Reuss Voigt Hill
#
# Bulk Modulus (GPa) = 49.48207 49.90136 49.69171
# Shear Modulus (GPa) = 28.96405 31.50323 30.23364
#
# Velocity S-wave (km/s) = 3.64167 3.79794 3.72063
# Velocity P-wave (km/s) = 6.35128 6.48698 6.41948
#
# Compressibility (1/GPa) = 0.02020934
#
# Stress axis : x y z
#
# Youngs Moduli (GPa) = 101.17281 87.99276 89.12113
#
# Poissons Ratio (x) = 0.24800 0.08250
# Poissons Ratio (y) = 0.28514 0.21264
# Poissons Ratio (z) = 0.09365 0.20995
#
# Static dielectric constant tensor:
#      x y z
#    x 4.268310 0.000000 0.000000 
#    y 0.000000 4.000270 0.000000 
#    z 0.000000 0.000000 3.785960 
# 
# 
# High freq. dielectric constant tensor:
#      x y z
#    x 1.866050 0.000000 0.000000 
#    y 0.000000 1.866780 0.000000 
#    z 0.000000 0.000000 1.848000 
# 
# From -- ./inp_files/22615.got.cif
#   From: 2010.03.12/outbox.cif.g09.slc.cpg/sg55_12_cif.got.tgz:22615.got - 2010.04.16 15:19:21.
