data_PCOD8227909
_publ_section_title
;
Structure prediction by ZEFSAII (Michael W. Deem and Ramdas Pophale) SiO2 
 PCOD8227909
Probable space group: P C C N
;
_chemical_formula_sum "Si O2"
_cell_formula_units_Z 48
_cell_length_a 14.575931
_cell_length_b 9.567637
_cell_length_c 16.898223
_cell_angle_alpha 90.000000
_cell_angle_beta 90.000000
_cell_angle_gamma 90.000000
_cell_volume 2356.579148
_symmetry_space_group_name_H-M "P C C N"
_symmetry_group_IT_number 56
_symmetry_cell_setting 'orthorhombic'
loop_
_space_group_symop_operation_xyz
x,y,z
1/2-x,1/2-y,z
1/2+x,-y,1/2-z
-x,1/2+y,1/2-z
-x,-y,-z
1/2+x,1/2+y,-z
1/2-x,y,1/2+z
x,1/2-y,1/2+z
loop_
_atom_site_type_symbol
_atom_site_label
_atom_site_fract_x
_atom_site_fract_y
_atom_site_fract_z
Si Si1 0.576828 0.317578 0.697371
Si Si2 0.353506 0.701375 0.475290
Si Si3 0.250000 0.250000 0.177060
Si Si4 0.750000 0.250000 0.802921
Si Si5 0.081328 0.539356 0.557073
Si Si6 0.925242 0.594932 0.277405
Si Si7 0.776807 0.506541 0.921455
O O1 0.587827 0.291763 0.604019
O O2 0.663878 0.266668 0.745854
O O3 0.492201 0.226318 0.729153
O O4 0.560046 0.484580 0.706433
O O5 0.250000 0.750000 0.457541
O O6 0.349200 0.544294 0.512253
O O7 0.400211 0.795723 0.543620
O O8 0.321162 0.343549 0.227182
O O9 0.188285 0.353470 0.121914
O O10 0.758934 0.386021 0.856841
O O11 0.053176 0.500628 0.645974
O O12 0.177364 0.459167 0.538016
O O13 0.000000 0.500000 0.500000
#
# Coordination Sequence:
#
# PCOD8227909 Si02
#       7
#     8   8   4   4   8   8   8
#     4  12  24  39  62 100 125 168 204 266 318 376
#     4  10  19  36  65  93 119 155 217 256 302 370
#     4  10  22  44  62  84 126 176 206 256 314 376
#     4  12  20  38  66  88 124 168 210 244 322 382
#     4  10  17  36  62  90 117 161 203 254 304 370
#     4  11  25  41  62  92 133 165 214 251 325 379
#     4  10  20  39  65  86 117 171 211 245 310 382
#
# _framework density 20.368507000000001
#
# number of rings (size 3 to 8) (size 9 to 14) (size 15 to 20)
#    0.000    1.333    8.333    0.000    2.333    0.000 
#    0.000    5.000    0.000    0.000    0.000    0.000 
#    0.000    0.000    0.000    0.000    0.000    0.000 
#
# Total GULP energy -594830.787460 kJ/mol
# GULP energy per Si atom -12392.308072 kJ/mol
# Density = 2.032215 g / cm^3
# Si number density = 20.368507 Si / 1000 Ang^3
#
#
#
# Elastic Constant Matrix: (Units=GPa)
#
#
# Indices 1 2 3 4 5 6 
#
# 1 72.0108 36.2193 14.0184 0.0000 0.0000 0.0000
# 2 36.2193 126.7819 25.9850 0.0000 0.0000 0.0000
# 3 14.0184 25.9850 60.4441 0.0000 0.0000 0.0000
# 4 0.0000 0.0000 0.0000 26.4150 0.0000 0.0000
# 5 0.0000 0.0000 0.0000 0.0000 19.4515 0.0000
# 6 0.0000 0.0000 0.0000 0.0000 0.0000 30.6930
#
#
#
# Elastic Compliance Matrix: (Units=1/GPa)
#
#
# Indices 1 2 3 4 5 6 
#
# 1 0.016427 -0.004290 -0.001966 0.000000 0.000000 0.000000
# 2 -0.004290 0.009770 -0.003205 0.000000 0.000000 0.000000
# 3 -0.001966 -0.003205 0.018378 0.000000 0.000000 0.000000
# 4 0.000000 0.000000 0.000000 0.037857 0.000000 0.000000
# 5 0.000000 0.000000 0.000000 0.000000 0.051410 0.000000
# 6 0.000000 0.000000 0.000000 0.000000 0.000000 0.032581
#
#
# Mechanical properties :
#
#
# Convention : Reuss Voigt Hill
#
# Bulk Modulus (GPa) = 38.98084 45.74248 42.36166
# Shear Modulus (GPa) = 25.78700 27.51283 26.64992
#
# Velocity S-wave (km/s) = 3.56198 3.67925 3.62109
# Velocity P-wave (km/s) = 6.00802 6.36831 6.19079
#
# Compressibility (1/GPa) = 0.02565363
#
# Stress axis : x y z
#
# Youngs Moduli (GPa) = 60.87444 102.35306 54.41293
#
# Poissons Ratio (x) = 0.43911 0.10695
# Poissons Ratio (y) = 0.26116 0.17440
# Poissons Ratio (z) = 0.11965 0.32806
#
# Static dielectric constant tensor:
#      x y z
#    x 3.743220 0.000000 0.000000 
#    y 0.000000 3.943500 0.000000 
#    z 0.000000 0.000000 3.686300 
# 
# 
# High freq. dielectric constant tensor:
#      x y z
#    x 1.789110 0.000000 0.000000 
#    y 0.000000 1.799180 0.000000 
#    z 0.000000 0.000000 1.778620 
# 
# From -- ./inp_files/19003.got.cif
#   From: 2010.03.12/outbox.cif.g09.slc.cpg/sg56_10_cif.got.tgz:19003.got - 2010.04.16 15:33:40.
