data_PCOD8227670
_publ_section_title
;
Structure prediction by ZEFSAII (Michael W. Deem and Ramdas Pophale) SiO2 
 PCOD8227670
Probable space group: P B A M
;
_chemical_formula_sum "Si O2"
_cell_formula_units_Z 48
_cell_length_a 10.724374
_cell_length_b 16.307792
_cell_length_c 14.025575
_cell_angle_alpha 90.000000
_cell_angle_beta 90.000000
_cell_angle_gamma 90.000000
_cell_volume 2452.944881
_symmetry_space_group_name_H-M "P B A M"
_symmetry_group_IT_number 55
_symmetry_cell_setting 'orthorhombic'
loop_
_space_group_symop_operation_xyz
x,y,z
-x,-y,z
1/2+x,1/2-y,-z
1/2-x,1/2+y,-z
-x,-y,-z
x,y,-z
1/2-x,1/2+y,z
1/2+x,1/2-y,z
loop_
_atom_site_type_symbol
_atom_site_label
_atom_site_fract_x
_atom_site_fract_y
_atom_site_fract_z
Si Si1 0.828560 0.778864 0.110761
Si Si2 0.143715 0.028251 0.102697
Si Si3 0.171428 0.465110 0.390812
Si Si4 0.437243 0.132227 0.612681
Si Si5 0.108679 0.937444 0.273521
Si Si6 0.927239 0.242954 0.780228
O O1 0.843219 0.876081 0.121567
O O2 0.696856 0.752713 0.156384
O O3 0.946549 0.733163 0.161508
O O4 0.828419 0.752652 0.000000
O O5 0.200249 0.974946 0.189461
O O6 0.204198 0.005359 0.000000
O O7 0.000000 0.000000 0.103568
O O8 0.143359 0.454001 0.500000
O O9 0.166721 0.562279 0.367222
O O10 0.304617 0.427760 0.365169
O O11 0.063988 0.408254 0.346212
O O12 0.438804 0.158863 0.500000
O O13 0.409949 0.209187 0.680639
O O14 0.051362 0.851365 0.245497
O O15 0.000000 0.000000 0.300328
#
# Coordination Sequence:
#
# PCOD8227670 Si02
#       6
#     8   8   8   8   8   8
#     4  11  23  39  60  90 125 162 204 255 308 365
#     4   9  17  34  57  80 110 156 203 241 294 361
#     4   9  19  39  61  83 116 159 202 246 306 372
#     4   9  20  39  63  85 115 160 203 249 310 372
#     4  11  21  35  57  85 120 154 204 247 300 359
#     4  12  23  38  62  93 126 160 207 257 311 367
#
# _framework density 19.568315999999999
#
# number of rings (size 3 to 8) (size 9 to 14) (size 15 to 20)
#    0.000    1.833    3.333    3.500    0.000    1.667 
#    0.000    0.833    0.000    0.000    0.000   10.500 
#    0.000    0.000    0.000    0.000    0.000    0.000 
#
# Total GULP energy -594632.809733 kJ/mol
# GULP energy per Si atom -12388.183536 kJ/mol
# Density = 1.952378 g / cm^3
# Si number density = 19.568316 Si / 1000 Ang^3
#
#
#
# Elastic Constant Matrix: (Units=GPa)
#
#
# Indices 1 2 3 4 5 6 
#
# 1 106.7917 22.8653 40.4711 0.0000 0.0000 0.0000
# 2 22.8653 65.7585 32.2635 0.0000 0.0000 0.0000
# 3 40.4711 32.2635 72.3030 0.0000 0.0000 0.0000
# 4 0.0000 0.0000 0.0000 38.4320 0.0000 0.0000
# 5 0.0000 0.0000 0.0000 0.0000 30.3449 0.0000
# 6 0.0000 0.0000 0.0000 0.0000 0.0000 18.1145
#
#
#
# Elastic Compliance Matrix: (Units=1/GPa)
#
#
# Indices 1 2 3 4 5 6 
#
# 1 0.011949 -0.001118 -0.006189 0.000000 0.000000 0.000000
# 2 -0.001118 0.019574 -0.008109 0.000000 0.000000 0.000000
# 3 -0.006189 -0.008109 0.020914 0.000000 0.000000 0.000000
# 4 0.000000 0.000000 0.000000 0.026020 0.000000 0.000000
# 5 0.000000 0.000000 0.000000 0.000000 0.032954 0.000000
# 6 0.000000 0.000000 0.000000 0.000000 0.000000 0.055204
#
#
# Mechanical properties :
#
#
# Convention : Reuss Voigt Hill
#
# Bulk Modulus (GPa) = 46.28703 48.45034 47.36869
# Shear Modulus (GPa) = 24.43196 27.32849 25.88023
#
# Velocity S-wave (km/s) = 3.53731 3.74112 3.64064
# Velocity P-wave (km/s) = 6.35522 6.59353 6.47547
#
# Compressibility (1/GPa) = 0.02160432
#
# Stress axis : x y z
#
# Youngs Moduli (GPa) = 83.68857 51.08715 47.81591
#
# Poissons Ratio (x) = 0.05712 0.29596
# Poissons Ratio (y) = 0.09357 0.38773
# Poissons Ratio (z) = 0.51799 0.41425
#
# Static dielectric constant tensor:
#      x y z
#    x 4.261070 0.000000 0.000000 
#    y 0.000000 3.557880 0.000000 
#    z 0.000000 0.000000 4.041220 
# 
# 
# High freq. dielectric constant tensor:
#      x y z
#    x 1.745150 0.000000 0.000000 
#    y 0.000000 1.758140 0.000000 
#    z 0.000000 0.000000 1.770780 
# 
# From -- ./inp_files/18257.got.cif
#   From: 2010.03.12/outbox.cif.g09.slc.cpg/sg55_10_cif.got.tgz:18257.got - 2010.04.16 15:19:21.
