data_PCOD8227662
_publ_section_title
;
Structure prediction by ZEFSAII (Michael W. Deem and Ramdas Pophale) SiO2 
 PCOD8227662
Probable space group: P B A M
;
_chemical_formula_sum "Si O2"
_cell_formula_units_Z 32
_cell_length_a 26.516183
_cell_length_b 5.057401
_cell_length_c 13.766695
_cell_angle_alpha 90.000000
_cell_angle_beta 90.000000
_cell_angle_gamma 90.000000
_cell_volume 1846.154692
_symmetry_space_group_name_H-M "P B A M"
_symmetry_group_IT_number 55
_symmetry_cell_setting 'orthorhombic'
loop_
_space_group_symop_operation_xyz
x,y,z
-x,-y,z
1/2+x,1/2-y,-z
1/2-x,1/2+y,-z
-x,-y,-z
x,y,-z
1/2-x,1/2+y,z
1/2+x,1/2-y,z
loop_
_atom_site_type_symbol
_atom_site_label
_atom_site_fract_x
_atom_site_fract_y
_atom_site_fract_z
Si Si1 0.279552 0.963116 0.615562
Si Si2 0.607783 0.931320 0.612389
Si Si3 0.441649 0.577683 0.303409
Si Si4 0.034277 0.251608 0.105019
O O1 0.278642 0.963783 0.500000
O O2 0.244613 0.196351 0.657297
O O3 0.336944 0.989478 0.651192
O O4 0.608356 0.845265 0.500000
O O5 0.591047 0.680432 0.675247
O O6 0.571107 0.183607 0.623422
O O7 0.500000 0.500000 0.314370
O O8 0.428325 0.686521 0.194608
O O9 0.000000 0.500000 0.135709
O O10 0.061613 0.307779 0.000000
O O11 0.000000 0.000000 0.089844
#
# Coordination Sequence:
#
# PCOD8227662 Si02
#       4
#     8   8   8   8
#     4   9  17  31  49  66  86 115 155 205 249 273
#     4  11  22  33  47  69  98 132 165 193 227 280
#     4  11  21  33  47  68 100 133 163 192 225 278
#     4   9  17  31  50  68  88 119 159 203 244 270
#
# _framework density 17.333327000000001
#
# number of rings (size 3 to 8) (size 9 to 14) (size 15 to 20)
#    0.000    2.000    0.000    6.000    0.000    7.000 
#    0.000    0.000    0.000    0.000    0.000    0.000 
#    0.000   20.000    0.000    0.000    0.000    0.000 
#
# Total GULP energy -396595.743989 kJ/mol
# GULP energy per Si atom -12393.617000 kJ/mol
# Density = 1.729388 g / cm^3
# Si number density = 17.333327 Si / 1000 Ang^3
#
#
#
# Elastic Constant Matrix: (Units=GPa)
#
#
# Indices 1 2 3 4 5 6 
#
# 1 66.5172 21.5196 33.8648 0.0000 0.0000 0.0000
# 2 21.5196 108.1413 15.5063 0.0000 0.0000 0.0000
# 3 33.8648 15.5063 59.3946 0.0000 0.0000 0.0000
# 4 0.0000 0.0000 0.0000 24.9105 0.0000 0.0000
# 5 0.0000 0.0000 0.0000 0.0000 2.2213 0.0000
# 6 0.0000 0.0000 0.0000 0.0000 0.0000 32.8888
#
#
#
# Elastic Compliance Matrix: (Units=1/GPa)
#
#
# Indices 1 2 3 4 5 6 
#
# 1 0.021899 -0.002667 -0.011790 0.000000 0.000000 0.000000
# 2 -0.002667 0.009932 -0.001072 0.000000 0.000000 0.000000
# 3 -0.011790 -0.001072 0.023838 0.000000 0.000000 0.000000
# 4 0.000000 0.000000 0.000000 0.040144 0.000000 0.000000
# 5 0.000000 0.000000 0.000000 0.000000 0.450194 0.000000
# 6 0.000000 0.000000 0.000000 0.000000 0.000000 0.030405
#
#
# Mechanical properties :
#
#
# Convention : Reuss Voigt Hill
#
# Bulk Modulus (GPa) = 40.63224 41.75941 41.19582
# Shear Modulus (GPa) = 8.12118 22.88162 15.50140
#
# Velocity S-wave (km/s) = 2.16690 3.63725 2.99375
# Velocity P-wave (km/s) = 5.45465 6.46403 5.98067
#
# Compressibility (1/GPa) = 0.02461100
#
# Stress axis : x y z
#
# Youngs Moduli (GPa) = 45.66439 100.68810 41.94896
#
# Poissons Ratio (x) = 0.26856 0.49456
# Poissons Ratio (y) = 0.12180 0.04497
# Poissons Ratio (z) = 0.53837 0.10795
#
# Static dielectric constant tensor:
#      x y z
#    x 3.114260 0.000000 0.000000 
#    y 0.000000 3.463240 0.000000 
#    z 0.000000 0.000000 3.527610 
# 
# 
# High freq. dielectric constant tensor:
#      x y z
#    x 1.636480 0.000000 0.000000 
#    y 0.000000 1.699910 0.000000 
#    z 0.000000 0.000000 1.642070 
# 
# From -- ./inp_files/11208.got.cif
#   From: 2010.03.12/outbox.cif.g09.slc.cpg/sg55_6_cif.got.tgz:11208.got - 2010.04.16 15:19:21.
