data_PCOD8227542
_publ_section_title
;
Structure prediction by ZEFSAII (Michael W. Deem and Ramdas Pophale) SiO2 
 PCOD8227542
Probable space group: P B A M
;
_chemical_formula_sum "Si O2"
_cell_formula_units_Z 40
_cell_length_a 8.534264
_cell_length_b 12.830969
_cell_length_c 16.564622
_cell_angle_alpha 90.000000
_cell_angle_beta 90.000000
_cell_angle_gamma 90.000000
_cell_volume 1813.873762
_symmetry_space_group_name_H-M "P B A M"
_symmetry_group_IT_number 55
_symmetry_cell_setting 'orthorhombic'
loop_
_space_group_symop_operation_xyz
x,y,z
-x,-y,z
1/2+x,1/2-y,-z
1/2-x,1/2+y,-z
-x,-y,-z
x,y,-z
1/2-x,1/2+y,z
1/2+x,1/2-y,z
loop_
_atom_site_type_symbol
_atom_site_label
_atom_site_fract_x
_atom_site_fract_y
_atom_site_fract_z
Si Si1 0.456247 0.617056 0.905424
Si Si2 0.742115 0.020553 0.590554
Si Si3 0.590460 0.158898 0.711847
Si Si4 0.826449 0.274591 0.819023
Si Si5 0.043063 0.164047 0.410548
O O1 0.500000 0.500000 0.877420
O O2 0.297673 0.649317 0.860340
O O3 0.593753 0.698027 0.884233
O O4 0.424301 0.620562 0.000000
O O5 0.667836 0.016785 0.500000
O O6 0.618408 0.053456 0.660008
O O7 0.882150 0.102354 0.589892
O O8 0.810176 0.908246 0.615445
O O9 0.749812 0.198601 0.752873
O O10 0.455338 0.147713 0.779454
O O11 0.525357 0.242482 0.649627
O O12 0.076197 0.208144 0.500000
#
# Coordination Sequence:
#
# PCOD8227542 Si02
#       5
#     8   8   8   8   8
#     4  10  22  45  72  95 126 168 203 249 315 383
#     4   9  18  33  55  80 113 166 219 260 304 361
#     4  11  19  36  55  86 126 160 199 255 321 359
#     4  10  23  37  62  98 128 159 206 255 311 387
#     4   9  18  33  54  79 113 165 219 258 303 362
#
# _framework density 22.052250999999998
#
# number of rings (size 3 to 8) (size 9 to 14) (size 15 to 20)
#    0.000    2.200    2.000    2.400    0.000    3.200 
#    0.000    9.000    0.000   13.200    0.000    0.000 
#    0.000    0.000    0.000    0.000    0.000    0.000 
#
# Total GULP energy -495934.607588 kJ/mol
# GULP energy per Si atom -12398.365190 kJ/mol
# Density = 2.200206 g / cm^3
# Si number density = 22.052251 Si / 1000 Ang^3
#
#
#
# Elastic Constant Matrix: (Units=GPa)
#
#
# Indices 1 2 3 4 5 6 
#
# 1 98.2595 36.7101 34.3966 0.0000 0.0000 0.0000
# 2 36.7101 68.0429 31.9132 0.0000 0.0000 0.0000
# 3 34.3966 31.9132 86.4169 0.0000 0.0000 0.0000
# 4 0.0000 0.0000 0.0000 34.8006 0.0000 0.0000
# 5 0.0000 0.0000 0.0000 0.0000 30.6364 0.0000
# 6 0.0000 0.0000 0.0000 0.0000 0.0000 29.4875
#
#
#
# Elastic Compliance Matrix: (Units=1/GPa)
#
#
# Indices 1 2 3 4 5 6 
#
# 1 0.013455 -0.005742 -0.003235 0.000000 0.000000 0.000000
# 2 -0.005742 0.020226 -0.005184 0.000000 0.000000 0.000000
# 3 -0.003235 -0.005184 0.014774 0.000000 0.000000 0.000000
# 4 0.000000 0.000000 0.000000 0.028735 0.000000 0.000000
# 5 0.000000 0.000000 0.000000 0.000000 0.032641 0.000000
# 6 0.000000 0.000000 0.000000 0.000000 0.000000 0.033913
#
#
# Mechanical properties :
#
#
# Convention : Reuss Voigt Hill
#
# Bulk Modulus (GPa) = 49.66959 50.97323 50.32141
# Shear Modulus (GPa) = 27.96814 28.96488 28.46651
#
# Velocity S-wave (km/s) = 3.56514 3.62811 3.59676
# Velocity P-wave (km/s) = 6.28645 6.38090 6.33385
#
# Compressibility (1/GPa) = 0.02013304
#
# Stress axis : x y z
#
# Youngs Moduli (GPa) = 74.32350 49.44221 67.68751
#
# Poissons Ratio (x) = 0.28388 0.21897
# Poissons Ratio (y) = 0.42675 0.35088
# Poissons Ratio (z) = 0.24044 0.25630
#
# Static dielectric constant tensor:
#      x y z
#    x 3.992210 0.000000 0.000000 
#    y 0.000000 3.910690 0.000000 
#    z 0.000000 0.000000 4.130170 
# 
# 
# High freq. dielectric constant tensor:
#      x y z
#    x 1.875830 0.000000 0.000000 
#    y 0.000000 1.857280 0.000000 
#    z 0.000000 0.000000 1.868330 
# 
# From -- ./inp_files/17067.got.cif
#   From: 2010.03.12/outbox.cif.g09.slc.cpg/sg55_9_cif.got.tgz:17067.got - 2010.04.16 15:19:21.
