data_PCOD8227707
_publ_section_title
;
Structure prediction by ZEFSAII (Michael W. Deem and Ramdas Pophale) SiO2 
 PCOD8227707
Probable space group: P B A M
;
_chemical_formula_sum "Si O2"
_cell_formula_units_Z 40
_cell_length_a 28.646562
_cell_length_b 9.132058
_cell_length_c 8.655032
_cell_angle_alpha 90.000000
_cell_angle_beta 90.000000
_cell_angle_gamma 90.000000
_cell_volume 2264.174250
_symmetry_space_group_name_H-M "P B A M"
_symmetry_group_IT_number 55
_symmetry_cell_setting 'orthorhombic'
loop_
_space_group_symop_operation_xyz
x,y,z
-x,-y,z
1/2+x,1/2-y,-z
1/2-x,1/2+y,-z
-x,-y,-z
x,y,-z
1/2-x,1/2+y,z
1/2+x,1/2-y,z
loop_
_atom_site_type_symbol
_atom_site_label
_atom_site_fract_x
_atom_site_fract_y
_atom_site_fract_z
Si Si1 0.948221 0.028679 0.818905
Si Si2 0.297637 0.112526 0.179801
Si Si3 0.875249 0.211874 0.673631
Si Si4 0.367115 0.609823 0.673619
Si Si5 0.781756 0.698202 0.317869
O O1 0.914723 0.889673 0.776090
O O2 0.927163 0.176366 0.740071
O O3 0.949259 0.053440 0.000000
O O4 0.000000 0.000000 0.753677
O O5 0.349460 0.169964 0.219580
O O6 0.261595 0.239547 0.223121
O O7 0.286401 0.972104 0.282614
O O8 0.294672 0.073217 0.000000
O O9 0.879227 0.274585 0.500000
O O10 0.846657 0.057042 0.674087
O O11 0.380523 0.657599 0.500000
O O12 0.328401 0.718939 0.741672
O O13 0.773957 0.723910 0.500000
#
# Coordination Sequence:
#
# PCOD8227707 Si02
#       5
#     8   8   8   8   8
#     4   9  17  30  53  83 112 140 174 222 275 322
#     4  12  24  36  53  79 109 142 181 226 273 320
#     4   9  18  34  54  77 105 140 180 220 264 318
#     4   8  18  33  53  77 103 138 180 218 260 315
#     4  11  22  38  56  75 106 146 184 221 268 324
#
# _framework density 17.666484000000001
#
# number of rings (size 3 to 8) (size 9 to 14) (size 15 to 20)
#    1.200    1.000    0.000    4.200    0.000    4.800 
#    0.000    0.000    0.000    1.200    0.000    8.400 
#    0.000    0.000    0.000    0.000    0.000    0.000 
#
# Total GULP energy -495713.147619 kJ/mol
# GULP energy per Si atom -12392.828690 kJ/mol
# Density = 1.762627 g / cm^3
# Si number density = 17.666484 Si / 1000 Ang^3
#
#
#
# Elastic Constant Matrix: (Units=GPa)
#
#
# Indices 1 2 3 4 5 6 
#
# 1 78.0331 7.3624 23.9359 0.0000 0.0000 0.0000
# 2 7.3624 45.5356 5.1871 0.0000 0.0000 0.0000
# 3 23.9359 5.1871 72.2079 0.0000 0.0000 0.0000
# 4 0.0000 0.0000 0.0000 21.8487 0.0000 0.0000
# 5 0.0000 0.0000 0.0000 0.0000 28.7350 0.0000
# 6 0.0000 0.0000 0.0000 0.0000 0.0000 27.0771
#
#
#
# Elastic Compliance Matrix: (Units=1/GPa)
#
#
# Indices 1 2 3 4 5 6 
#
# 1 0.014411 -0.001801 -0.004648 0.000000 0.000000 0.000000
# 2 -0.001801 0.022367 -0.001010 0.000000 0.000000 0.000000
# 3 -0.004648 -0.001010 0.015462 0.000000 0.000000 0.000000
# 4 0.000000 0.000000 0.000000 0.045769 0.000000 0.000000
# 5 0.000000 0.000000 0.000000 0.000000 0.034801 0.000000
# 6 0.000000 0.000000 0.000000 0.000000 0.000000 0.036932
#
#
# Mechanical properties :
#
#
# Convention : Reuss Voigt Hill
#
# Bulk Modulus (GPa) = 26.79271 29.86083 28.32677
# Shear Modulus (GPa) = 25.36805 26.15159 25.75982
#
# Velocity S-wave (km/s) = 3.79349 3.85163 3.82267
# Velocity P-wave (km/s) = 5.86398 6.05965 5.96261
#
# Compressibility (1/GPa) = 0.03732359
#
# Stress axis : x y z
#
# Youngs Moduli (GPa) = 69.39366 44.70875 64.67448
#
# Poissons Ratio (x) = 0.08050 0.30058
# Poissons Ratio (y) = 0.12495 0.06531
# Poissons Ratio (z) = 0.32251 0.04515
#
# Static dielectric constant tensor:
#      x y z
#    x 3.261900 0.000000 0.000000 
#    y 0.000000 3.008590 0.000000 
#    z 0.000000 0.000000 3.189200 
# 
# 
# High freq. dielectric constant tensor:
#      x y z
#    x 1.671660 0.000000 0.000000 
#    y 0.000000 1.655050 0.000000 
#    z 0.000000 0.000000 1.690210 
# 
# From -- ./inp_files/10390.got.cif
#   From: 2010.03.12/outbox.cif.g09.slc.cpg/sg55_6_cif.got.tgz:10390.got - 2010.04.16 15:19:21.
