data_PCOD8227734
_publ_section_title
;
Structure prediction by ZEFSAII (Michael W. Deem and Ramdas Pophale) SiO2 
 PCOD8227734
Probable space group: P B A M
;
_chemical_formula_sum "Si O2"
_cell_formula_units_Z 40
_cell_length_a 8.528826
_cell_length_b 19.772972
_cell_length_c 11.167688
_cell_angle_alpha 90.000000
_cell_angle_beta 90.000000
_cell_angle_gamma 90.000000
_cell_volume 1883.321559
_symmetry_space_group_name_H-M "P B A M"
_symmetry_group_IT_number 55
_symmetry_cell_setting 'orthorhombic'
loop_
_space_group_symop_operation_xyz
x,y,z
-x,-y,z
1/2+x,1/2-y,-z
1/2-x,1/2+y,-z
-x,-y,-z
x,y,-z
1/2-x,1/2+y,z
1/2+x,1/2-y,z
loop_
_atom_site_type_symbol
_atom_site_label
_atom_site_fract_x
_atom_site_fract_y
_atom_site_fract_z
Si Si1 0.641197 0.698784 0.758358
Si Si2 0.006065 0.245052 0.000000
Si Si3 0.772182 0.344820 0.000000
Si Si4 0.695310 0.931972 0.788931
Si Si5 0.166400 0.422683 0.856294
Si Si6 0.322344 0.678083 0.638064
O O1 0.557182 0.710587 0.882425
O O2 0.764217 0.639094 0.781291
O O3 0.508895 0.677801 0.662265
O O4 0.735039 0.764764 0.715713
O O5 0.192947 0.230781 0.000000
O O6 0.960806 0.325575 0.000000
O O7 0.713719 0.386808 0.886990
O O8 0.513950 0.926029 0.820859
O O9 0.745842 0.896343 0.664650
O O10 0.748959 0.009598 0.801836
O O11 0.191871 0.420172 0.000000
O O12 0.293154 0.694273 0.500000
#
# Coordination Sequence:
#
# PCOD8227734 Si02
#       6
#     8   4   4   8   8   8
#     4  12  24  41  67  98 131 167 217 277 336 390
#     4  12  22  35  61 105 129 157 213 276 338 393
#     4  12  22  36  63  98 142 167 204 276 336 395
#     4  11  22  42  66  98 136 174 214 266 332 398
#     4  11  23  39  68 104 136 167 208 271 348 409
#     4  12  27  47  66  91 131 183 230 269 315 390
#
# _framework density 21.239070000000002
#
# number of rings (size 3 to 8) (size 9 to 14) (size 15 to 20)
#    0.000    0.400    7.000    2.400    2.800    0.800 
#    0.000    8.000    0.000    0.000    0.000    0.000 
#    0.000    0.000    0.000    0.000    0.000    0.000 
#
# Total GULP energy -495757.800575 kJ/mol
# GULP energy per Si atom -12393.945014 kJ/mol
# Density = 2.119073 g / cm^3
# Si number density = 21.239070 Si / 1000 Ang^3
#
#
#
# Elastic Constant Matrix: (Units=GPa)
#
#
# Indices 1 2 3 4 5 6 
#
# 1 50.7161 11.6932 22.0492 0.0000 0.0000 0.0000
# 2 11.6932 107.4681 26.9800 0.0000 0.0000 0.0000
# 3 22.0492 26.9800 91.3418 0.0000 0.0000 0.0000
# 4 0.0000 0.0000 0.0000 25.0047 0.0000 0.0000
# 5 0.0000 0.0000 0.0000 0.0000 22.4170 0.0000
# 6 0.0000 0.0000 0.0000 0.0000 0.0000 36.6873
#
#
#
# Elastic Compliance Matrix: (Units=1/GPa)
#
#
# Indices 1 2 3 4 5 6 
#
# 1 0.022161 -0.001154 -0.005009 0.000000 0.000000 0.000000
# 2 -0.001154 0.010110 -0.002708 0.000000 0.000000 0.000000
# 3 -0.005009 -0.002708 0.012957 0.000000 0.000000 0.000000
# 4 0.000000 0.000000 0.000000 0.039993 0.000000 0.000000
# 5 0.000000 0.000000 0.000000 0.000000 0.044609 0.000000
# 6 0.000000 0.000000 0.000000 0.000000 0.000000 0.027257
#
#
# Mechanical properties :
#
#
# Convention : Reuss Voigt Hill
#
# Bulk Modulus (GPa) = 36.37997 41.21895 38.79946
# Shear Modulus (GPa) = 27.17530 29.40871 28.29201
#
# Velocity S-wave (km/s) = 3.58088 3.72513 3.65372
# Velocity P-wave (km/s) = 5.85346 6.16047 6.00892
#
# Compressibility (1/GPa) = 0.02748765
#
# Stress axis : x y z
#
# Youngs Moduli (GPa) = 45.12390 98.90768 77.17966
#
# Poissons Ratio (x) = 0.11412 0.38657
# Poissons Ratio (y) = 0.05207 0.20899
# Poissons Ratio (z) = 0.22601 0.26783
#
# Static dielectric constant tensor:
#      x y z
#    x 3.985000 0.000000 0.000000 
#    y 0.000000 4.332940 0.000000 
#    z 0.000000 0.000000 4.274630 
# 
# 
# High freq. dielectric constant tensor:
#      x y z
#    x 1.836020 0.000000 0.000000 
#    y 0.000000 1.845570 0.000000 
#    z 0.000000 0.000000 1.814130 
# 
# From -- ./inp_files/12099.got.cif
#   From: 2010.03.12/outbox.cif.g09.slc.cpg/sg55_7_cif.got.tgz:12099.got - 2010.04.16 15:19:21.
