data_PCOD8227214
_publ_section_title
;
Structure prediction by ZEFSAII (Michael W. Deem and Ramdas Pophale) SiO2 
 PCOD8227214
Probable space group: P B A M
;
_chemical_formula_sum "Si O2"
_cell_formula_units_Z 64
_cell_length_a 14.411917
_cell_length_b 24.601114
_cell_length_c 8.585214
_cell_angle_alpha 90.000000
_cell_angle_beta 90.000000
_cell_angle_gamma 90.000000
_cell_volume 3043.880868
_symmetry_space_group_name_H-M "P B A M"
_symmetry_group_IT_number 55
_symmetry_cell_setting 'orthorhombic'
loop_
_space_group_symop_operation_xyz
x,y,z
-x,-y,z
1/2+x,1/2-y,-z
1/2-x,1/2+y,-z
-x,-y,-z
x,y,-z
1/2-x,1/2+y,z
1/2+x,1/2-y,z
loop_
_atom_site_type_symbol
_atom_site_label
_atom_site_fract_x
_atom_site_fract_y
_atom_site_fract_z
Si Si1 0.421849 0.853371 0.322058
Si Si2 0.445057 0.346003 0.319858
Si Si3 0.249286 0.822580 0.181150
Si Si4 0.449792 0.556040 0.180258
Si Si5 0.250828 0.094060 0.819678
Si Si6 0.522735 0.761584 0.819623
Si Si7 0.284693 0.208819 0.316344
Si Si8 0.046103 0.558011 0.821189
O O1 0.433303 0.835744 0.500000
O O2 0.314757 0.864625 0.277728
O O3 0.439756 0.803306 0.204424
O O4 0.488935 0.903324 0.291419
O O5 0.417858 0.342332 0.500000
O O6 0.353672 0.343309 0.214997
O O7 0.503532 0.399432 0.288899
O O8 0.505388 0.293746 0.268850
O O9 0.265358 0.759967 0.234591
O O10 0.269778 0.828067 0.000000
O O11 0.500000 0.500000 0.225271
O O12 0.338795 0.555731 0.215703
O O13 0.467823 0.570151 0.000000
O O14 0.239826 0.150731 0.727339
O O15 0.344586 0.060637 0.773907
O O16 0.254320 0.109945 0.000000
O O17 0.609364 0.791915 0.739884
O O18 0.543429 0.749898 0.000000
O O19 0.278785 0.217199 0.500000
O O20 0.000000 0.500000 0.793508
O O21 0.034049 0.576528 0.000000
#
# Coordination Sequence:
#
# PCOD8227214 Si02
#       8
#     8   8   8   8   8   8   8   8
#     4  12  24  39  60  93 132 169 211 265 323 378
#     4  11  23  41  63  92 128 165 209 269 328 381
#     4  11  23  40  63  91 128 174 215 260 318 391
#     4  10  23  43  66  92 124 170 224 272 319 381
#     4  10  21  39  63  90 124 165 214 266 317 380
#     4  11  21  37  61  89 125 167 210 257 313 383
#     4  11  21  36  59  91 128 164 207 263 321 380
#     4  10  22  41  65  94 128 172 221 265 315 381
#
# _framework density 21.025790000000001
#
# number of rings (size 3 to 8) (size 9 to 14) (size 15 to 20)
#    0.000    1.250    1.250    7.125    1.750    2.000 
#    0.000    2.500    0.000    0.000    0.000    0.000 
#    0.000    0.000    0.000    0.000    0.000    0.000 
#
# Total GULP energy -793575.510019 kJ/mol
# GULP energy per Si atom -12399.617344 kJ/mol
# Density = 2.097793 g / cm^3
# Si number density = 21.025790 Si / 1000 Ang^3
#
#
#
# Elastic Constant Matrix: (Units=GPa)
#
#
# Indices 1 2 3 4 5 6 
#
# 1 104.5337 59.7095 31.0279 0.0000 0.0000 0.0000
# 2 59.7095 95.0653 37.5387 0.0000 0.0000 0.0000
# 3 31.0279 37.5387 110.8104 0.0000 0.0000 0.0000
# 4 0.0000 0.0000 0.0000 24.0265 0.0000 0.0000
# 5 0.0000 0.0000 0.0000 0.0000 26.4679 0.0000
# 6 0.0000 0.0000 0.0000 0.0000 0.0000 33.0762
#
#
#
# Elastic Compliance Matrix: (Units=1/GPa)
#
#
# Indices 1 2 3 4 5 6 
#
# 1 0.015048 -0.008990 -0.001168 0.000000 0.000000 0.000000
# 2 -0.008990 0.017515 -0.003416 0.000000 0.000000 0.000000
# 3 -0.001168 -0.003416 0.010509 0.000000 0.000000 0.000000
# 4 0.000000 0.000000 0.000000 0.041621 0.000000 0.000000
# 5 0.000000 0.000000 0.000000 0.000000 0.037782 0.000000
# 6 0.000000 0.000000 0.000000 0.000000 0.000000 0.030233
#
#
# Mechanical properties :
#
#
# Convention : Reuss Voigt Hill
#
# Bulk Modulus (GPa) = 62.80274 62.99572 62.89923
# Shear Modulus (GPa) = 27.00308 28.85634 27.92971
#
# Velocity S-wave (km/s) = 3.58758 3.70865 3.64861
# Velocity P-wave (km/s) = 6.86259 6.95449 6.90870
#
# Compressibility (1/GPa) = 0.01592287
#
# Stress axis : x y z
#
# Youngs Moduli (GPa) = 66.45251 57.09455 95.15939
#
# Poissons Ratio (x) = 0.51331 0.11115
# Poissons Ratio (y) = 0.59744 0.32506
# Poissons Ratio (z) = 0.07762 0.19503
#
# Static dielectric constant tensor:
#      x y z
#    x 3.990170 0.000000 0.000000 
#    y 0.000000 3.711230 0.000000 
#    z 0.000000 0.000000 3.680060 
# 
# 
# High freq. dielectric constant tensor:
#      x y z
#    x 1.835370 0.000000 0.000000 
#    y 0.000000 1.807460 0.000000 
#    z 0.000000 0.000000 1.825340 
# 
# From -- ./inp_files/6668.got.cif
#   From: 2010.03.12/outbox.cif.g09.slc.cpg/sg55_4_cif.got.tgz:6668.got - 2010.04.16 15:19:21.
