data_PCOD8227226
_publ_section_title
;
Structure prediction by ZEFSAII (Michael W. Deem and Ramdas Pophale) SiO2 
 PCOD8227226
Probable space group: P B A M
;
_chemical_formula_sum "Si O2"
_cell_formula_units_Z 48
_cell_length_a 9.762442
_cell_length_b 27.857648
_cell_length_c 8.509478
_cell_angle_alpha 90.000000
_cell_angle_beta 90.000000
_cell_angle_gamma 90.000000
_cell_volume 2314.226344
_symmetry_space_group_name_H-M "P B A M"
_symmetry_group_IT_number 55
_symmetry_cell_setting 'orthorhombic'
loop_
_space_group_symop_operation_xyz
x,y,z
-x,-y,z
1/2+x,1/2-y,-z
1/2-x,1/2+y,-z
-x,-y,-z
x,y,-z
1/2-x,1/2+y,z
1/2+x,1/2-y,z
loop_
_atom_site_type_symbol
_atom_site_label
_atom_site_fract_x
_atom_site_fract_y
_atom_site_fract_z
Si Si1 0.134871 0.789276 0.317669
Si Si2 0.758615 0.395991 0.819092
Si Si3 0.785295 0.112521 0.817164
Si Si4 0.667768 0.289412 0.816777
Si Si5 0.518900 0.445924 0.319503
Si Si6 0.033382 0.447577 0.816987
O O1 0.097346 0.789707 0.500000
O O2 0.217098 0.837271 0.273170
O O3 0.238091 0.746293 0.281512
O O4 0.992463 0.784381 0.223891
O O5 0.724654 0.341726 0.772451
O O6 0.675806 0.431829 0.706749
O O7 0.916158 0.408326 0.785987
O O8 0.720709 0.406139 0.000000
O O9 0.670567 0.076458 0.745635
O O10 0.931940 0.088298 0.793105
O O11 0.759571 0.123126 0.000000
O O12 0.686281 0.278225 0.000000
O O13 0.500000 0.500000 0.263559
O O14 0.475015 0.438843 0.500000
O O15 0.000000 0.500000 0.740111
O O16 0.059343 0.456413 0.000000
#
# Coordination Sequence:
#
# PCOD8227226 Si02
#       6
#     8   8   8   8   8   8
#     4  12  26  44  66  96 132 167 209 264 329 390
#     4  10  21  39  64  92 121 162 210 259 314 376
#     4  11  22  39  65  93 124 165 212 262 317 380
#     4  11  24  43  68  96 126 166 218 266 317 386
#     4  11  23  38  59  89 126 166 207 258 319 381
#     4   9  19  36  60  93 127 159 205 262 312 363
#
# _framework density 20.741271999999999
#
# number of rings (size 3 to 8) (size 9 to 14) (size 15 to 20)
#    0.000    1.333    1.667    4.000    2.333    3.333 
#    0.000    1.667    0.000    4.500    0.000    0.000 
#    0.000    0.000    0.000    0.000    0.000    0.000 
#
# Total GULP energy -595362.519994 kJ/mol
# GULP energy per Si atom -12403.385833 kJ/mol
# Density = 2.069406 g / cm^3
# Si number density = 20.741272 Si / 1000 Ang^3
#
#
#
# Elastic Constant Matrix: (Units=GPa)
#
#
# Indices 1 2 3 4 5 6 
#
# 1 82.3351 30.4658 5.1053 0.0000 0.0000 0.0000
# 2 30.4658 122.2472 25.4210 0.0000 0.0000 0.0000
# 3 5.1053 25.4210 50.8492 0.0000 0.0000 0.0000
# 4 0.0000 0.0000 0.0000 25.5269 0.0000 0.0000
# 5 0.0000 0.0000 0.0000 0.0000 9.3401 0.0000
# 6 0.0000 0.0000 0.0000 0.0000 0.0000 42.2941
#
#
#
# Elastic Compliance Matrix: (Units=1/GPa)
#
#
# Indices 1 2 3 4 5 6 
#
# 1 0.013385 -0.003411 0.000361 0.000000 0.000000 0.000000
# 2 -0.003411 0.009998 -0.004656 0.000000 0.000000 0.000000
# 3 0.000361 -0.004656 0.021957 0.000000 0.000000 0.000000
# 4 0.000000 0.000000 0.000000 0.039174 0.000000 0.000000
# 5 0.000000 0.000000 0.000000 0.000000 0.107065 0.000000
# 6 0.000000 0.000000 0.000000 0.000000 0.000000 0.023644
#
#
# Mechanical properties :
#
#
# Convention : Reuss Voigt Hill
#
# Bulk Modulus (GPa) = 33.41156 41.93507 37.67331
# Shear Modulus (GPa) = 20.78035 28.39485 24.58760
#
# Velocity S-wave (km/s) = 3.16869 3.70402 3.44676
# Velocity P-wave (km/s) = 5.43426 6.20927 5.83465
#
# Compressibility (1/GPa) = 0.02992976
#
# Stress axis : x y z
#
# Youngs Moduli (GPa) = 74.70931 100.01587 45.54273
#
# Poissons Ratio (x) = 0.34115 -0.01646
# Poissons Ratio (y) = 0.25483 0.21205
# Poissons Ratio (z) = -0.02699 0.46568
#
# Static dielectric constant tensor:
#      x y z
#    x 3.790770 0.000000 0.000000 
#    y 0.000000 3.968440 0.000000 
#    z 0.000000 0.000000 3.507080 
# 
# 
# High freq. dielectric constant tensor:
#      x y z
#    x 1.820420 0.000000 0.000000 
#    y 0.000000 1.825980 0.000000 
#    z 0.000000 0.000000 1.793020 
# 
# From -- ./inp_files/2871.got.cif
#   From: 2010.03.12/outbox.cif.g09.slc.cpg/sg55_2_cif.got.tgz:2871.got - 2010.04.16 15:19:21.
