data_PCOD8227441
_publ_section_title
;
Structure prediction by ZEFSAII (Michael W. Deem and Ramdas Pophale) SiO2 
 PCOD8227441
Probable space group: P B A M
;
_chemical_formula_sum "Si O2"
_cell_formula_units_Z 64
_cell_length_a 23.837671
_cell_length_b 15.336375
_cell_length_c 8.752644
_cell_angle_alpha 90.000000
_cell_angle_beta 90.000000
_cell_angle_gamma 90.000000
_cell_volume 3199.821892
_symmetry_space_group_name_H-M "P B A M"
_symmetry_group_IT_number 55
_symmetry_cell_setting 'orthorhombic'
loop_
_space_group_symop_operation_xyz
x,y,z
-x,-y,z
1/2+x,1/2-y,-z
1/2-x,1/2+y,-z
-x,-y,-z
x,y,-z
1/2-x,1/2+y,z
1/2+x,1/2-y,z
loop_
_atom_site_type_symbol
_atom_site_label
_atom_site_fract_x
_atom_site_fract_y
_atom_site_fract_z
Si Si1 0.249088 0.841479 0.319626
Si Si2 0.628200 0.601260 0.680117
Si Si3 0.853285 0.588018 0.823045
Si Si4 0.129564 0.607012 0.823880
Si Si5 0.863973 0.907213 0.320115
Si Si6 0.070492 0.252372 0.819852
Si Si7 0.550680 0.755368 0.679763
Si Si8 0.745132 0.343489 0.179510
O O1 0.247975 0.825001 0.500000
O O2 0.189326 0.873449 0.254553
O O3 0.296304 0.912034 0.275887
O O4 0.266759 0.754220 0.232595
O O5 0.631877 0.610760 0.500000
O O6 0.612001 0.502593 0.725719
O O7 0.581729 0.668421 0.743097
O O8 0.883402 0.495031 0.799013
O O9 0.894757 0.663519 0.763554
O O10 0.837273 0.601057 0.000000
O O11 0.087966 0.660397 0.716589
O O12 0.193040 0.626659 0.771997
O O13 0.120448 0.634466 0.000000
O O14 0.865137 0.892625 0.500000
O O15 0.903192 0.835822 0.243857
O O16 0.799972 0.904500 0.263137
O O17 0.007760 0.263973 0.763643
O O18 0.070871 0.246610 0.000000
O O19 0.540314 0.749787 0.500000
O O20 0.735252 0.351340 0.000000
#
# Coordination Sequence:
#
# PCOD8227441 Si02
#       8
#     8   8   8   8   8   8   8   8
#     4  11  20  35  61  90 121 157 197 239 292 356
#     4   9  21  39  60  89 121 154 193 243 303 352
#     4  10  22  40  61  86 122 159 195 243 299 353
#     4  10  22  40  62  89 120 159 198 240 299 357
#     4  11  22  39  63  89 119 156 198 244 296 355
#     4  11  24  42  61  85 119 157 202 250 300 356
#     4  11  23  42  64  86 117 156 202 252 300 353
#     4  11  21  35  58  90 125 156 191 238 296 357
#
# _framework density 20.001114000000001
#
# number of rings (size 3 to 8) (size 9 to 14) (size 15 to 20)
#    0.000    1.500    2.500    2.625    0.000    2.500 
#    0.000    9.375    0.000    0.000    0.000    0.000 
#    0.000    0.000    0.000    0.000    0.000    0.000 
#
# Total GULP energy -793838.025043 kJ/mol
# GULP energy per Si atom -12403.719141 kJ/mol
# Density = 1.995559 g / cm^3
# Si number density = 20.001114 Si / 1000 Ang^3
#
#
#
# Elastic Constant Matrix: (Units=GPa)
#
#
# Indices 1 2 3 4 5 6 
#
# 1 92.2775 36.7205 31.1021 0.0000 0.0000 0.0000
# 2 36.7205 118.3478 27.3560 0.0000 0.0000 0.0000
# 3 31.1021 27.3560 48.3152 0.0000 0.0000 0.0000
# 4 0.0000 0.0000 0.0000 28.4954 0.0000 0.0000
# 5 0.0000 0.0000 0.0000 0.0000 28.1645 0.0000
# 6 0.0000 0.0000 0.0000 0.0000 0.0000 12.3221
#
#
#
# Elastic Compliance Matrix: (Units=1/GPa)
#
#
# Indices 1 2 3 4 5 6 
#
# 1 0.014555 -0.002704 -0.007838 0.000000 0.000000 0.000000
# 2 -0.002704 0.010224 -0.004048 0.000000 0.000000 0.000000
# 3 -0.007838 -0.004048 0.028035 0.000000 0.000000 0.000000
# 4 0.000000 0.000000 0.000000 0.035093 0.000000 0.000000
# 5 0.000000 0.000000 0.000000 0.000000 0.035506 0.000000
# 6 0.000000 0.000000 0.000000 0.000000 0.000000 0.081155
#
#
# Mechanical properties :
#
#
# Convention : Reuss Voigt Hill
#
# Bulk Modulus (GPa) = 42.31365 49.92197 46.11781
# Shear Modulus (GPa) = 20.69293 24.71384 22.70339
#
# Velocity S-wave (km/s) = 3.21999 3.51896 3.37279
# Velocity P-wave (km/s) = 5.91828 6.44395 6.18670
#
# Compressibility (1/GPa) = 0.02363304
#
# Stress axis : x y z
#
# Youngs Moduli (GPa) = 68.70541 97.80443 35.66921
#
# Poissons Ratio (x) = 0.26448 0.27959
# Poissons Ratio (y) = 0.18579 0.14440
# Poissons Ratio (z) = 0.53854 0.39594
#
# Static dielectric constant tensor:
#      x y z
#    x 3.727370 0.000000 0.000000 
#    y 0.000000 3.833670 0.000000 
#    z 0.000000 0.000000 3.515440 
# 
# 
# High freq. dielectric constant tensor:
#      x y z
#    x 1.779910 0.000000 0.000000 
#    y 0.000000 1.793300 0.000000 
#    z 0.000000 0.000000 1.772140 
# 
# From -- ./inp_files/9775.got.cif
#   From: 2010.03.12/outbox.cif.g09.slc.cpg/sg55_5_cif.got.tgz:9775.got - 2010.04.16 15:19:21.
