data_PCOD8227499
_publ_section_title
;
Structure prediction by ZEFSAII (Michael W. Deem and Ramdas Pophale) SiO2 
 PCOD8227499
Probable space group: P B A M
;
_chemical_formula_sum "Si O2"
_cell_formula_units_Z 64
_cell_length_a 30.246419
_cell_length_b 11.760450
_cell_length_c 8.645681
_cell_angle_alpha 90.000000
_cell_angle_beta 90.000000
_cell_angle_gamma 90.000000
_cell_volume 3075.368143
_symmetry_space_group_name_H-M "P B A M"
_symmetry_group_IT_number 55
_symmetry_cell_setting 'orthorhombic'
loop_
_space_group_symop_operation_xyz
x,y,z
-x,-y,z
1/2+x,1/2-y,-z
1/2-x,1/2+y,-z
-x,-y,-z
x,y,-z
1/2-x,1/2+y,z
1/2+x,1/2-y,z
loop_
_atom_site_type_symbol
_atom_site_label
_atom_site_fract_x
_atom_site_fract_y
_atom_site_fract_z
Si Si1 0.201641 0.722482 0.320995
Si Si2 0.553881 0.228331 0.322623
Si Si3 0.671864 0.994626 0.824183
Si Si4 0.205508 0.260983 0.819463
Si Si5 0.069588 0.510469 0.824088
Si Si6 0.454993 0.233549 0.323969
Si Si7 0.632657 0.390743 0.680901
Si Si8 0.876272 0.134810 0.820404
O O1 0.192324 0.746027 0.500000
O O2 0.200145 0.587733 0.285699
O O3 0.249695 0.767396 0.277096
O O4 0.164907 0.785274 0.219435
O O5 0.562567 0.193518 0.500000
O O6 0.504779 0.280887 0.302963
O O7 0.588859 0.322642 0.266650
O O8 0.558553 0.117822 0.218346
O O9 0.621033 0.964082 0.801959
O O10 0.679055 0.124898 0.776325
O O11 0.687533 0.974743 0.000000
O O12 0.175503 0.154575 0.771035
O O13 0.216666 0.251208 0.000000
O O14 0.043549 0.599457 0.717145
O O15 0.054843 0.530298 0.000000
O O16 0.438717 0.248537 0.500000
O O17 0.422197 0.301088 0.212337
O O18 0.641519 0.376701 0.500000
O O19 0.625702 0.521740 0.719421
O O20 0.874303 0.103141 0.000000
#
# Coordination Sequence:
#
# PCOD8227499 Si02
#       8
#     8   8   8   8   8   8   8   8
#     4  12  26  43  67  97 129 167 213 263 313 377
#     4  10  23  41  64  93 129 168 209 260 317 377
#     4  10  22  41  66  95 130 169 210 258 318 374
#     4  11  24  44  68  95 130 170 210 259 315 374
#     4  11  21  37  63  96 131 166 209 259 313 373
#     4  11  23  41  64  93 127 168 213 259 317 379
#     4  11  24  44  67  93 126 166 213 263 315 377
#     4  12  26  45  66  91 126 167 212 265 321 379
#
# _framework density 20.810517000000001
#
# number of rings (size 3 to 8) (size 9 to 14) (size 15 to 20)
#    0.000    1.000    2.500    4.125    1.750    5.000 
#    0.000    2.500    0.000    0.000    0.000    0.000 
#    0.000    0.000    0.000    0.000    0.000    0.000 
#
# Total GULP energy -794048.515160 kJ/mol
# GULP energy per Si atom -12407.008049 kJ/mol
# Density = 2.076315 g / cm^3
# Si number density = 20.810517 Si / 1000 Ang^3
#
#
#
# Elastic Constant Matrix: (Units=GPa)
#
#
# Indices 1 2 3 4 5 6 
#
# 1 99.2488 22.5814 31.1115 0.0000 0.0000 0.0000
# 2 22.5814 90.9314 9.1257 0.0000 0.0000 0.0000
# 3 31.1115 9.1257 71.3206 0.0000 0.0000 0.0000
# 4 0.0000 0.0000 0.0000 34.8064 0.0000 0.0000
# 5 0.0000 0.0000 0.0000 0.0000 27.8767 0.0000
# 6 0.0000 0.0000 0.0000 0.0000 0.0000 25.6985
#
#
#
# Elastic Compliance Matrix: (Units=1/GPa)
#
#
# Indices 1 2 3 4 5 6 
#
# 1 0.012221 -0.002532 -0.005007 0.000000 0.000000 0.000000
# 2 -0.002532 0.011665 -0.000388 0.000000 0.000000 0.000000
# 3 -0.005007 -0.000388 0.016255 0.000000 0.000000 0.000000
# 4 0.000000 0.000000 0.000000 0.028730 0.000000 0.000000
# 5 0.000000 0.000000 0.000000 0.000000 0.035872 0.000000
# 6 0.000000 0.000000 0.000000 0.000000 0.000000 0.038913
#
#
# Mechanical properties :
#
#
# Convention : Reuss Voigt Hill
#
# Bulk Modulus (GPa) = 41.17510 43.01533 42.09521
# Shear Modulus (GPa) = 29.83157 30.92182 30.37669
#
# Velocity S-wave (km/s) = 3.79025 3.85889 3.82472
# Velocity P-wave (km/s) = 6.24366 6.36942 6.30685
#
# Compressibility (1/GPa) = 0.02428653
#
# Stress axis : x y z
#
# Youngs Moduli (GPa) = 81.82302 85.72560 61.51927
#
# Poissons Ratio (x) = 0.21710 0.30804
# Poissons Ratio (y) = 0.20722 0.02386
# Poissons Ratio (z) = 0.40971 0.03325
#
# Static dielectric constant tensor:
#      x y z
#    x 3.867070 0.000000 0.000000 
#    y 0.000000 3.686940 0.000000 
#    z 0.000000 0.000000 3.753010 
# 
# 
# High freq. dielectric constant tensor:
#      x y z
#    x 1.825420 0.000000 0.000000 
#    y 0.000000 1.814280 0.000000 
#    z 0.000000 0.000000 1.818820 
# 
# From -- ./inp_files/10855.got.cif
#   From: 2010.03.12/outbox.cif.g09.slc.cpg/sg55_6_cif.got.tgz:10855.got - 2010.04.16 15:19:21.
