data_PCOD8227736
_publ_section_title
;
Structure prediction by ZEFSAII (Michael W. Deem and Ramdas Pophale) SiO2 
 PCOD8227736
Probable space group: P B A M
;
_chemical_formula_sum "Si O2"
_cell_formula_units_Z 32
_cell_length_a 10.023673
_cell_length_b 8.591279
_cell_length_c 15.794447
_cell_angle_alpha 90.000000
_cell_angle_beta 90.000000
_cell_angle_gamma 90.000000
_cell_volume 1360.157304
_symmetry_space_group_name_H-M "P B A M"
_symmetry_group_IT_number 55
_symmetry_cell_setting 'orthorhombic'
loop_
_space_group_symop_operation_xyz
x,y,z
-x,-y,z
1/2+x,1/2-y,-z
1/2-x,1/2+y,-z
-x,-y,-z
x,y,-z
1/2-x,1/2+y,z
1/2+x,1/2-y,z
loop_
_atom_site_type_symbol
_atom_site_label
_atom_site_fract_x
_atom_site_fract_y
_atom_site_fract_z
Si Si1 0.421808 0.223195 0.404312
Si Si2 0.680563 0.082141 0.342421
Si Si3 0.359200 0.059881 0.841765
Si Si4 0.118385 0.892740 0.095592
O O1 0.449452 0.279257 0.500000
O O2 0.562814 0.211627 0.353396
O O3 0.326289 0.347128 0.357743
O O4 0.348910 0.055530 0.408934
O O5 0.674214 0.002821 0.250985
O O6 0.360251 0.247139 0.841960
O O7 0.500000 0.000000 0.874979
O O8 0.250318 0.997577 0.907107
O O9 0.085955 0.836383 0.000000
O O10 0.000000 0.000000 0.131823
#
# Coordination Sequence:
#
# PCOD8227736 Si02
#       4
#     8   8   8   8
#     4  11  22  43  69  97 136 179 231 285 345 410
#     4  11  24  43  66 102 138 181 229 287 347 410
#     4  12  24  44  70 103 142 187 228 291 352 416
#     4  11  26  47  73 104 139 183 236 287 346 419
#
# _framework density 23.526692000000001
#
# number of rings (size 3 to 8) (size 9 to 14) (size 15 to 20)
#    0.000    0.750    2.500    6.750    0.000    5.000 
#    0.000    2.500    0.000    0.000    0.000    0.000 
#    0.000    0.000    0.000    0.000    0.000    0.000 
#
# Total GULP energy -396898.888101 kJ/mol
# GULP energy per Si atom -12403.090253 kJ/mol
# Density = 2.347314 g / cm^3
# Si number density = 23.526692 Si / 1000 Ang^3
#
#
#
# Elastic Constant Matrix: (Units=GPa)
#
#
# Indices 1 2 3 4 5 6 
#
# 1 108.4076 54.2443 48.3873 0.0000 0.0000 0.0000
# 2 54.2443 124.0257 45.0632 0.0000 0.0000 0.0000
# 3 48.3873 45.0632 107.3384 0.0000 0.0000 0.0000
# 4 0.0000 0.0000 0.0000 40.0272 0.0000 0.0000
# 5 0.0000 0.0000 0.0000 0.0000 310.3193 0.0000
# 6 0.0000 0.0000 0.0000 0.0000 0.0000 49.7891
#
#
#
# Elastic Compliance Matrix: (Units=1/GPa)
#
#
# Indices 1 2 3 4 5 6 
#
# 1 0.013220 -0.004268 -0.004168 0.000000 0.000000 0.000000
# 2 -0.004268 0.010892 -0.002649 0.000000 0.000000 0.000000
# 3 -0.004168 -0.002649 0.012307 0.000000 0.000000 0.000000
# 4 0.000000 0.000000 0.000000 0.024983 0.000000 0.000000
# 5 0.000000 0.000000 0.000000 0.000000 0.003222 0.000000
# 6 0.000000 0.000000 0.000000 0.000000 0.000000 0.020085
#
#
# Mechanical properties :
#
#
# Convention : Reuss Voigt Hill
#
# Bulk Modulus (GPa) = 70.17313 70.57346 70.37329
# Shear Modulus (GPa) = 44.79154 92.83227 68.81191
#
# Velocity S-wave (km/s) = 4.36806 6.28840 5.41405
# Velocity P-wave (km/s) = 7.43853 9.09877 8.31021
#
# Compressibility (1/GPa) = 0.01425047
#
# Stress axis : x y z
#
# Youngs Moduli (GPa) = 75.64185 91.81238 81.25325
#
# Poissons Ratio (x) = 0.39183 0.33865
# Poissons Ratio (y) = 0.32281 0.21522
# Poissons Ratio (z) = 0.31527 0.24319
#
# Static dielectric constant tensor:
#      x y z
#    x 4.423800 0.000000 0.000000 
#    y 0.000000 4.241850 0.000000 
#    z 0.000000 0.000000 3.958540 
# 
# 
# High freq. dielectric constant tensor:
#      x y z
#    x 1.941360 0.000000 0.000000 
#    y 0.000000 1.926300 0.000000 
#    z 0.000000 0.000000 1.929820 
# 
# From -- ./inp_files/18044.got.cif
#   From: 2010.03.12/outbox.cif.g09.slc.cpg/sg55_10_cif.got.tgz:18044.got - 2010.04.16 15:19:21.
