data_PCOD8227910
_publ_section_title
;
Structure prediction by ZEFSAII (Michael W. Deem and Ramdas Pophale) SiO2 
 PCOD8227910
Probable space group: P C C N
;
_chemical_formula_sum "Si O2"
_cell_formula_units_Z 64
_cell_length_a 10.002368
_cell_length_b 15.766137
_cell_length_c 22.211556
_cell_angle_alpha 90.000000
_cell_angle_beta 90.000000
_cell_angle_gamma 90.000000
_cell_volume 3502.733600
_symmetry_space_group_name_H-M "P C C N"
_symmetry_group_IT_number 56
_symmetry_cell_setting 'orthorhombic'
loop_
_space_group_symop_operation_xyz
x,y,z
1/2-x,1/2-y,z
1/2+x,-y,1/2-z
-x,1/2+y,1/2-z
-x,-y,-z
1/2+x,1/2+y,-z
1/2-x,y,1/2+z
x,1/2-y,1/2+z
loop_
_atom_site_type_symbol
_atom_site_label
_atom_site_fract_x
_atom_site_fract_y
_atom_site_fract_z
Si Si1 0.700264 0.940331 0.457432
Si Si2 0.745755 0.413780 0.541602
Si Si3 0.527050 0.839081 0.963467
Si Si4 0.014506 0.831589 0.014510
Si Si5 0.316480 0.660022 0.238878
Si Si6 0.939670 0.438598 0.370213
Si Si7 0.362558 0.920613 0.331932
Si Si8 0.410522 0.742576 0.347290
O O1 0.836534 0.888448 0.453353
O O2 0.576391 0.877905 0.464790
O O3 0.701385 0.997158 0.517195
O O4 0.672402 0.999471 0.399270
O O5 0.592472 0.403386 0.520578
O O6 0.835062 0.338387 0.512097
O O7 0.754534 0.416380 0.613661
O O8 0.494709 0.793141 0.901434
O O9 0.532468 0.767131 0.016114
O O10 0.998908 0.875130 0.079700
O O11 0.250000 0.750000 0.221349
O O12 0.372985 0.620674 0.178793
O O13 0.216192 0.589931 0.268621
O O14 0.431229 0.683113 0.288316
O O15 0.054693 0.492498 0.336661
O O16 0.461659 0.839041 0.336488
O O17 0.250000 0.750000 0.360020
#
# Coordination Sequence:
#
# PCOD8227910 Si02
#       8
#     8   8   8   8   8   8   8   8
#     4  11  23  34  52  88 124 148 186 240 296 351
#     4  11  18  36  57  81 105 156 196 232 275 346
#     4  12  20  32  57  89 116 145 195 249 284 330
#     4  11  21  36  59  83 114 158 197 221 297 366
#     4   9  21  36  58  86 111 144 201 249 280 328
#     4  11  21  38  60  82 118 159 189 239 298 361
#     4  10  17  36  63  76 107 149 203 229 277 348
#     4   9  16  33  57  82 105 146 198 237 268 340
#
# _framework density 18.271443999999999
#
# number of rings (size 3 to 8) (size 9 to 14) (size 15 to 20)
#    0.000    1.750    6.250    1.875    0.000    3.000 
#    0.000    0.000    2.750    0.000    0.000    0.000 
#    0.000    0.000    0.000    0.000    0.000    0.000 
#
# Total GULP energy -793067.642384 kJ/mol
# GULP energy per Si atom -12391.681912 kJ/mol
# Density = 1.822986 g / cm^3
# Si number density = 18.271444 Si / 1000 Ang^3
#
#
#
# Elastic Constant Matrix: (Units=GPa)
#
#
# Indices 1 2 3 4 5 6 
#
# 1 67.5466 39.0086 38.6289 0.0000 0.0000 0.0000
# 2 39.0086 80.7999 34.9409 0.0000 0.0000 0.0000
# 3 38.6289 34.9409 81.7273 0.0000 0.0000 0.0000
# 4 0.0000 0.0000 0.0000 33.4159 0.0000 0.0000
# 5 0.0000 0.0000 0.0000 0.0000 19.1114 0.0000
# 6 0.0000 0.0000 0.0000 0.0000 0.0000 30.7055
#
#
#
# Elastic Compliance Matrix: (Units=1/GPa)
#
#
# Indices 1 2 3 4 5 6 
#
# 1 0.024035 -0.008209 -0.007851 0.000000 0.000000 0.000000
# 2 -0.008209 0.017987 -0.003810 0.000000 0.000000 0.000000
# 3 -0.007851 -0.003810 0.017575 0.000000 0.000000 0.000000
# 4 0.000000 0.000000 0.000000 0.029926 0.000000 0.000000
# 5 0.000000 0.000000 0.000000 0.000000 0.052325 0.000000
# 6 0.000000 0.000000 0.000000 0.000000 0.000000 0.032567
#
#
# Mechanical properties :
#
#
# Convention : Reuss Voigt Hill
#
# Bulk Modulus (GPa) = 50.35695 50.58116 50.46906
# Shear Modulus (GPa) = 22.64765 24.47960 23.56362
#
# Velocity S-wave (km/s) = 3.52449 3.66426 3.59505
# Velocity P-wave (km/s) = 6.64703 6.75616 6.70182
#
# Compressibility (1/GPa) = 0.01985823
#
# Stress axis : x y z
#
# Youngs Moduli (GPa) = 41.60622 55.59634 56.89744
#
# Poissons Ratio (x) = 0.45637 0.44669
# Poissons Ratio (y) = 0.34153 0.21678
# Poissons Ratio (z) = 0.32664 0.21183
#
# Static dielectric constant tensor:
#      x y z
#    x 3.198650 0.000000 0.000000 
#    y 0.000000 3.682620 0.000000 
#    z 0.000000 0.000000 3.257080 
# 
# 
# High freq. dielectric constant tensor:
#      x y z
#    x 1.681300 0.000000 0.000000 
#    y 0.000000 1.720110 0.000000 
#    z 0.000000 0.000000 1.694700 
# 
# From -- ./inp_files/20697.got.cif
#   From: 2010.03.12/outbox.cif.g09.slc.cpg/sg56_11_cif.got.tgz:20697.got - 2010.04.16 15:33:40.
