data_PCOD8227429
_publ_section_title
;
Structure prediction by ZEFSAII (Michael W. Deem and Ramdas Pophale) SiO2 
 PCOD8227429
Probable space group: P B A M
;
_chemical_formula_sum "Si O2"
_cell_formula_units_Z 40
_cell_length_a 27.504989
_cell_length_b 10.307453
_cell_length_c 7.546026
_cell_angle_alpha 90.000000
_cell_angle_beta 90.000000
_cell_angle_gamma 90.000000
_cell_volume 2139.346525
_symmetry_space_group_name_H-M "P B A M"
_symmetry_group_IT_number 55
_symmetry_cell_setting 'orthorhombic'
loop_
_space_group_symop_operation_xyz
x,y,z
-x,-y,z
1/2+x,1/2-y,-z
1/2-x,1/2+y,-z
-x,-y,-z
x,y,-z
1/2-x,1/2+y,z
1/2+x,1/2-y,z
loop_
_atom_site_type_symbol
_atom_site_label
_atom_site_fract_x
_atom_site_fract_y
_atom_site_fract_z
Si Si1 0.297331 0.796418 0.000000
Si Si2 0.209561 0.995153 0.000000
Si Si3 0.366460 0.483250 0.299513
Si Si4 0.021840 0.367656 0.710786
Si Si5 0.031866 0.883028 0.710674
Si Si6 0.373535 0.783500 0.299173
O O1 0.256211 0.904619 0.000000
O O2 0.328911 0.822335 0.175069
O O3 0.276621 0.648573 0.000000
O O4 0.179352 0.958476 0.174674
O O5 0.350851 0.447169 0.500000
O O6 0.411717 0.396378 0.233110
O O7 0.384489 0.631013 0.289042
O O8 0.019212 0.365385 0.500000
O O9 0.077909 0.354815 0.769838
O O10 0.000000 0.500000 0.789536
O O11 0.989235 0.250891 0.788204
O O12 0.028133 0.886893 0.500000
O O13 0.000000 0.000000 0.791416
O O14 0.360298 0.825143 0.500000
#
# Coordination Sequence:
#
# PCOD8227429 Si02
#       6
#     4   4   8   8   8   8
#     4  10  22  40  58  74 100 133 172 223 269 304
#     4  10  22  40  56  75 102 131 170 224 269 304
#     4   9  17  32  56  80 102 134 175 211 250 304
#     4   9  16  27  46  76 111 139 166 202 246 300
#     4   9  14  25  48  75 104 136 166 201 242 292
#     4   9  17  33  56  78 103 139 174 203 251 315
#
# _framework density 18.697296999999999
#
# number of rings (size 3 to 8) (size 9 to 14) (size 15 to 20)
#    0.000    2.800    2.000    0.000    0.000    0.800 
#    3.600    2.000    0.000    0.000    0.000    0.000 
#    0.000    0.000    0.000    0.000    0.000    0.000 
#
# Total GULP energy -495899.387305 kJ/mol
# GULP energy per Si atom -12397.484683 kJ/mol
# Density = 1.865474 g / cm^3
# Si number density = 18.697297 Si / 1000 Ang^3
#
#
#
# Elastic Constant Matrix: (Units=GPa)
#
#
# Indices 1 2 3 4 5 6 
#
# 1 155.1759 89.2793 58.2125 0.0000 0.0000 0.0000
# 2 89.2793 125.3404 29.3591 0.0000 0.0000 0.0000
# 3 58.2125 29.3591 79.0057 0.0000 0.0000 0.0000
# 4 0.0000 0.0000 0.0000 8.0025 0.0000 0.0000
# 5 0.0000 0.0000 0.0000 0.0000 -99.8657 0.0000
# 6 0.0000 0.0000 0.0000 0.0000 0.0000 41.1498
#
#
#
# Elastic Compliance Matrix: (Units=1/GPa)
#
#
# Indices 1 2 3 4 5 6 
#
# 1 0.013832 -0.008177 -0.007153 0.000000 0.000000 0.000000
# 2 -0.008177 0.013573 0.000981 0.000000 0.000000 0.000000
# 3 -0.007153 0.000981 0.017563 0.000000 0.000000 0.000000
# 4 0.000000 0.000000 0.000000 0.124961 0.000000 0.000000
# 5 0.000000 0.000000 0.000000 0.000000 -0.010013 0.000000
# 6 0.000000 0.000000 0.000000 0.000000 0.000000 0.024301
#
#
# Mechanical properties :
#
#
# Convention : Reuss Voigt Hill
#
# Bulk Modulus (GPa) = 61.46149 79.24711 70.35430
# Shear Modulus (GPa) = 22.90012 2.03539 12.46775
#
# Velocity S-wave (km/s) = 3.50349 1.04449 2.58509
# Velocity P-wave (km/s) = 7.02204 6.62804 6.82788
#
# Compressibility (1/GPa) = 0.01627035
#
# Stress axis : x y z
#
# Youngs Moduli (GPa) = 72.29352 73.67539 56.93699
#
# Poissons Ratio (x) = 0.60246 0.40728
# Poissons Ratio (y) = 0.59116 -0.05587
# Poissons Ratio (z) = 0.51713 -0.07230
#
# Static dielectric constant tensor:
#      x y z
#    x 3.276130 0.000000 0.000000 
#    y 0.000000 3.499320 0.000000 
#    z 0.000000 0.000000 3.452210 
# 
# 
# High freq. dielectric constant tensor:
#      x y z
#    x 1.715170 0.000000 0.000000 
#    y 0.000000 1.708170 0.000000 
#    z 0.000000 0.000000 1.718470 
# 
# From -- ./inp_files/2521.got.cif
#   From: 2010.03.12/outbox.cif.g09.slc.cpg/sg55_2_cif.got.tgz:2521.got - 2010.04.16 15:19:21.
