data_PCOD8227022
_publ_section_title
;
Structure prediction by ZEFSAII (Michael W. Deem and Ramdas Pophale) SiO2 
 PCOD8227022
Probable space group: P B A M
;
_chemical_formula_sum "Si O2"
_cell_formula_units_Z 64
_cell_length_a 12.787255
_cell_length_b 27.769355
_cell_length_c 8.948422
_cell_angle_alpha 90.000000
_cell_angle_beta 90.000000
_cell_angle_gamma 90.000000
_cell_volume 3177.529383
_symmetry_space_group_name_H-M "P B A M"
_symmetry_group_IT_number 55
_symmetry_cell_setting 'orthorhombic'
loop_
_space_group_symop_operation_xyz
x,y,z
-x,-y,z
1/2+x,1/2-y,-z
1/2-x,1/2+y,-z
-x,-y,-z
x,y,-z
1/2-x,1/2+y,z
1/2+x,1/2-y,z
loop_
_atom_site_type_symbol
_atom_site_label
_atom_site_fract_x
_atom_site_fract_y
_atom_site_fract_z
Si Si1 0.353855 0.140288 0.332609
Si Si2 0.312925 0.701698 0.823789
Si Si3 0.237256 0.539466 0.670147
Si Si4 0.756541 0.194890 0.822768
Si Si5 0.525004 0.654440 0.176007
Si Si6 0.600801 0.033002 0.831282
Si Si7 0.050709 0.051086 0.174187
Si Si8 0.087573 0.368853 0.327711
O O1 0.321023 0.156254 0.500000
O O2 0.279900 0.165241 0.213062
O O3 0.345379 0.082778 0.317218
O O4 0.473739 0.154780 0.300092
O O5 0.280421 0.753640 0.756609
O O6 0.423090 0.682142 0.756498
O O7 0.322962 0.705078 0.000000
O O8 0.246084 0.521092 0.500000
O O9 0.202114 0.496195 0.776766
O O10 0.347914 0.558978 0.725952
O O11 0.671129 0.156364 0.776664
O O12 0.869734 0.178673 0.756829
O O13 0.762934 0.196864 0.000000
O O14 0.523461 0.596989 0.212748
O O15 0.524346 0.661742 0.000000
O O16 0.583014 0.075837 0.717252
O O17 0.500000 0.000000 0.825264
O O18 0.621937 0.051402 0.000000
O O19 0.081520 0.051772 0.000000
O O20 0.000000 0.000000 0.218459
O O21 0.120641 0.364375 0.500000
#
# Coordination Sequence:
#
# PCOD8227022 Si02
#       8
#     8   8   8   8   8   8   8   8
#     4  10  22  39  60  87 122 158 197 249 306 363
#     4  10  21  38  65  91 116 155 204 256 304 360
#     4  11  22  38  59  86 121 158 199 249 304 365
#     4  10  23  40  62  91 122 158 203 255 309 364
#     4   9  19  38  58  86 124 154 193 253 308 354
#     4  11  23  38  60  89 120 158 202 246 296 361
#     4  10  21  37  59  85 118 160 203 249 302 360
#     4  11  24  42  61  87 126 166 203 249 309 367
#
# _framework density 20.141435999999999
#
# number of rings (size 3 to 8) (size 9 to 14) (size 15 to 20)
#    0.000    1.750    2.500    1.125    3.500    2.750 
#    0.000    1.250    0.000    0.000    0.000    0.000 
#    0.000    0.000    0.000    0.000    0.000    0.000 
#
# Total GULP energy -793615.189934 kJ/mol
# GULP energy per Si atom -12400.237343 kJ/mol
# Density = 2.009559 g / cm^3
# Si number density = 20.141436 Si / 1000 Ang^3
#
#
#
# Elastic Constant Matrix: (Units=GPa)
#
#
# Indices 1 2 3 4 5 6 
#
# 1 125.7256 54.8755 20.4977 0.0000 0.0000 0.0000
# 2 54.8755 110.9975 17.7305 0.0000 0.0000 0.0000
# 3 20.4977 17.7305 22.1539 0.0000 0.0000 0.0000
# 4 0.0000 0.0000 0.0000 19.8626 0.0000 0.0000
# 5 0.0000 0.0000 0.0000 0.0000 2.6819 0.0000
# 6 0.0000 0.0000 0.0000 0.0000 0.0000 35.2423
#
#
#
# Elastic Compliance Matrix: (Units=1/GPa)
#
#
# Indices 1 2 3 4 5 6 
#
# 1 0.010932 -0.004344 -0.006638 0.000000 0.000000 0.000000
# 2 -0.004344 0.012056 -0.005629 0.000000 0.000000 0.000000
# 3 -0.006638 -0.005629 0.055786 0.000000 0.000000 0.000000
# 4 0.000000 0.000000 0.000000 0.050346 0.000000 0.000000
# 5 0.000000 0.000000 0.000000 0.000000 0.372872 0.000000
# 6 0.000000 0.000000 0.000000 0.000000 0.000000 0.028375
#
#
# Mechanical properties :
#
#
# Convention : Reuss Voigt Hill
#
# Bulk Modulus (GPa) = 21.95348 49.45381 35.70364
# Shear Modulus (GPa) = 8.63895 22.60890 15.62393
#
# Velocity S-wave (km/s) = 2.07327 3.35402 2.78818
# Velocity P-wave (km/s) = 4.08100 6.29332 5.30379
#
# Compressibility (1/GPa) = 0.04555087
#
# Stress axis : x y z
#
# Youngs Moduli (GPa) = 91.47237 82.94451 17.92564
#
# Poissons Ratio (x) = 0.36034 0.11899
# Poissons Ratio (y) = 0.39739 0.10091
# Poissons Ratio (z) = 0.60720 0.46693
#
# Static dielectric constant tensor:
#      x y z
#    x 3.782240 0.000000 0.000000 
#    y 0.000000 3.762450 0.000000 
#    z 0.000000 0.000000 3.422340 
# 
# 
# High freq. dielectric constant tensor:
#      x y z
#    x 1.793130 0.000000 0.000000 
#    y 0.000000 1.788730 0.000000 
#    z 0.000000 0.000000 1.765100 
# 
# From -- ./inp_files/4491.got.cif
#   From: 2010.03.12/outbox.cif.g09.slc.cpg/sg55_3_cif.got.tgz:4491.got - 2010.04.16 15:19:21.
