data_PCOD8227000
_publ_section_title
;
Structure prediction by ZEFSAII (Michael W. Deem and Ramdas Pophale) SiO2 
 PCOD8227000
Probable space group: P B A M
;
_chemical_formula_sum "Si O2"
_cell_formula_units_Z 64
_cell_length_a 30.459569
_cell_length_b 12.044871
_cell_length_c 8.934052
_cell_angle_alpha 90.000000
_cell_angle_beta 90.000000
_cell_angle_gamma 90.000000
_cell_volume 3277.739107
_symmetry_space_group_name_H-M "P B A M"
_symmetry_group_IT_number 55
_symmetry_cell_setting 'orthorhombic'
loop_
_space_group_symop_operation_xyz
x,y,z
-x,-y,z
1/2+x,1/2-y,-z
1/2-x,1/2+y,-z
-x,-y,-z
x,y,-z
1/2-x,1/2+y,z
1/2+x,1/2-y,z
loop_
_atom_site_type_symbol
_atom_site_label
_atom_site_fract_x
_atom_site_fract_y
_atom_site_fract_z
Si Si1 0.201723 0.713312 0.327333
Si Si2 0.554891 0.237161 0.178015
Si Si3 0.676546 0.001234 0.829416
Si Si4 0.199191 0.272322 0.673054
Si Si5 0.075333 0.502952 0.829787
Si Si6 0.457799 0.231290 0.178078
Si Si7 0.634233 0.387319 0.822432
Si Si8 0.873024 0.141453 0.822711
O O1 0.188856 0.701627 0.500000
O O2 0.204651 0.590729 0.256922
O O3 0.248788 0.769150 0.305182
O O4 0.166452 0.789749 0.246786
O O5 0.505891 0.274730 0.227864
O O6 0.590546 0.324804 0.238035
O O7 0.565006 0.115200 0.248538
O O8 0.558832 0.232578 0.000000
O O9 0.626172 0.964807 0.820454
O O10 0.681080 0.120304 0.755336
O O11 0.693028 0.008285 0.000000
O O12 0.186102 0.277720 0.500000
O O13 0.177161 0.163971 0.745698
O O14 0.049198 0.606371 0.756176
O O15 0.059696 0.490481 0.000000
O O16 0.419962 0.313618 0.237744
O O17 0.454329 0.225485 0.000000
O O18 0.630848 0.514443 0.771671
O O19 0.639002 0.375387 0.000000
O O20 0.869616 0.153992 0.000000
#
# Coordination Sequence:
#
# PCOD8227000 Si02
#       8
#     8   8   8   8   8   8   8   8
#     4  11  25  42  60  84 117 155 196 237 288 351
#     4   9  16  28  50  82 118 151 186 236 294 344
#     4  11  21  38  65  91 118 148 189 242 293 340
#     4  11  25  42  60  84 117 155 196 237 288 351
#     4   9  15  27  50  82 116 144 180 231 285 339
#     4   9  16  28  50  82 118 151 186 236 294 344
#     4  10  21  37  57  85 117 151 198 247 290 339
#     4  10  21  37  57  85 117 151 198 247 290 339
#
# _framework density 19.525653999999999
#
# number of rings (size 3 to 8) (size 9 to 14) (size 15 to 20)
#    0.000    2.000    2.500    1.500    1.750    4.500 
#    0.000    2.500    0.000    0.750    0.000    3.500 
#    0.000    0.000    0.000    0.000    0.000    0.000 
#
# Total GULP energy -793549.986290 kJ/mol
# GULP energy per Si atom -12399.218536 kJ/mol
# Density = 1.948121 g / cm^3
# Si number density = 19.525654 Si / 1000 Ang^3
#
#
#
# Elastic Constant Matrix: (Units=GPa)
#
#
# Indices 1 2 3 4 5 6 
#
# 1 88.7627 37.4988 19.2798 0.0000 0.0000 0.0000
# 2 37.4988 124.9860 32.1794 0.0000 0.0000 0.0000
# 3 19.2798 32.1794 37.3269 0.0000 0.0000 0.0000
# 4 0.0000 0.0000 0.0000 15.9904 0.0000 0.0000
# 5 0.0000 0.0000 0.0000 0.0000 1.0413 0.0000
# 6 0.0000 0.0000 0.0000 0.0000 0.0000 24.7934
#
#
#
# Elastic Compliance Matrix: (Units=1/GPa)
#
#
# Indices 1 2 3 4 5 6 
#
# 1 0.013455 -0.002889 -0.004459 0.000000 0.000000 0.000000
# 2 -0.002889 0.010904 -0.007908 0.000000 0.000000 0.000000
# 3 -0.004459 -0.007908 0.035911 0.000000 0.000000 0.000000
# 4 0.000000 0.000000 0.000000 0.062537 0.000000 0.000000
# 5 0.000000 0.000000 0.000000 0.000000 0.960336 0.000000
# 6 0.000000 0.000000 0.000000 0.000000 0.000000 0.040333
#
#
# Mechanical properties :
#
#
# Convention : Reuss Voigt Hill
#
# Bulk Modulus (GPa) = 33.60472 47.66573 40.63522
# Shear Modulus (GPa) = 4.29588 19.17286 11.73437
#
# Velocity S-wave (km/s) = 1.48489 3.13698 2.45413
# Velocity P-wave (km/s) = 4.49308 6.13072 5.37464
#
# Compressibility (1/GPa) = 0.02975772
#
# Stress axis : x y z
#
# Youngs Moduli (GPa) = 74.32212 91.71307 27.84661
#
# Poissons Ratio (x) = 0.26493 0.12418
# Poissons Ratio (y) = 0.21469 0.22021
# Poissons Ratio (z) = 0.33143 0.72526
#
# Static dielectric constant tensor:
#      x y z
#    x 3.708370 0.000000 0.000000 
#    y 0.000000 3.719120 0.000000 
#    z 0.000000 0.000000 3.199000 
# 
# 
# High freq. dielectric constant tensor:
#      x y z
#    x 1.771580 0.000000 0.000000 
#    y 0.000000 1.771160 0.000000 
#    z 0.000000 0.000000 1.713180 
# 
# From -- ./inp_files/4667.got.cif
#   From: 2010.03.12/outbox.cif.g09.slc.cpg/sg55_3_cif.got.tgz:4667.got - 2010.04.16 15:19:21.
