data_PCOD8227177
_publ_section_title
;
Structure prediction by ZEFSAII (Michael W. Deem and Ramdas Pophale) SiO2 
 PCOD8227177
Probable space group: P B A M
;
_chemical_formula_sum "Si O2"
_cell_formula_units_Z 32
_cell_length_a 10.198578
_cell_length_b 19.513633
_cell_length_c 8.138472
_cell_angle_alpha 90.000000
_cell_angle_beta 90.000000
_cell_angle_gamma 90.000000
_cell_volume 1619.647960
_symmetry_space_group_name_H-M "P B A M"
_symmetry_group_IT_number 55
_symmetry_cell_setting 'orthorhombic'
loop_
_space_group_symop_operation_xyz
x,y,z
-x,-y,z
1/2+x,1/2-y,-z
1/2-x,1/2+y,-z
-x,-y,-z
x,y,-z
1/2-x,1/2+y,z
1/2+x,1/2-y,z
loop_
_atom_site_type_symbol
_atom_site_label
_atom_site_fract_x
_atom_site_fract_y
_atom_site_fract_z
Si Si1 0.642267 0.969078 0.814011
Si Si2 0.207375 0.986372 0.500000
Si Si3 0.637683 0.812888 0.813672
Si Si4 0.985700 0.887337 0.500000
Si Si5 0.099284 0.236562 0.321840
O O1 0.713908 0.012082 0.671700
O O2 0.635877 0.890750 0.749088
O O3 0.500000 0.000000 0.828754
O O4 0.706114 0.974252 0.000000
O O5 0.107879 0.048374 0.500000
O O6 0.134879 0.913061 0.500000
O O7 0.492985 0.779979 0.798237
O O8 0.747951 0.766472 0.726767
O O9 0.679727 0.813990 0.000000
O O10 0.956898 0.841371 0.337258
O O11 0.092826 0.273273 0.500000
#
# Coordination Sequence:
#
# PCOD8227177 Si02
#       5
#     8   4   8   4   8
#     4  10  22  39  61  90 122 161 205 250 302 368
#     4  11  19  41  61  89 117 160 196 251 296 365
#     4  11  22  39  61  89 122 160 202 251 311 360
#     4   9  22  35  63  87 113 151 208 234 306 365
#     4  10  21  39  60  86 119 157 199 253 295 367
#
# _framework density 19.757380000000001
#
# number of rings (size 3 to 8) (size 9 to 14) (size 15 to 20)
#    0.750    1.000    2.500    1.875    1.750    2.000 
#    0.000    7.500    0.000    0.000    0.000    0.000 
#    0.000    0.000    0.000    0.000    0.000    0.000 
#
# Total GULP energy -396484.542506 kJ/mol
# GULP energy per Si atom -12390.141953 kJ/mol
# Density = 1.971241 g / cm^3
# Si number density = 19.757380 Si / 1000 Ang^3
#
#
#
# Elastic Constant Matrix: (Units=GPa)
#
#
# Indices 1 2 3 4 5 6 
#
# 1 93.5865 18.9898 27.2495 0.0000 0.0000 0.0000
# 2 18.9898 31.1774 6.8288 0.0000 0.0000 0.0000
# 3 27.2495 6.8288 85.4055 0.0000 0.0000 0.0000
# 4 0.0000 0.0000 0.0000 32.3830 0.0000 0.0000
# 5 0.0000 0.0000 0.0000 0.0000 26.2565 0.0000
# 6 0.0000 0.0000 0.0000 0.0000 0.0000 36.9031
#
#
#
# Elastic Compliance Matrix: (Units=1/GPa)
#
#
# Indices 1 2 3 4 5 6 
#
# 1 0.013216 -0.007253 -0.003637 0.000000 0.000000 0.000000
# 2 -0.007253 0.036627 -0.000614 0.000000 0.000000 0.000000
# 3 -0.003637 -0.000614 0.012918 0.000000 0.000000 0.000000
# 4 0.000000 0.000000 0.000000 0.030880 0.000000 0.000000
# 5 0.000000 0.000000 0.000000 0.000000 0.038086 0.000000
# 6 0.000000 0.000000 0.000000 0.000000 0.000000 0.027098
#
#
# Mechanical properties :
#
#
# Convention : Reuss Voigt Hill
#
# Bulk Modulus (GPa) = 25.15559 35.14508 30.15033
# Shear Modulus (GPa) = 25.62989 29.58195 27.60592
#
# Velocity S-wave (km/s) = 3.60562 3.87364 3.74203
# Velocity P-wave (km/s) = 5.48579 6.15092 5.82785
#
# Compressibility (1/GPa) = 0.03975260
#
# Stress axis : x y z
#
# Youngs Moduli (GPa) = 75.66609 27.30236 77.40949
#
# Poissons Ratio (x) = 0.19803 0.28152
# Poissons Ratio (y) = 0.54882 0.04756
# Poissons Ratio (z) = 0.27518 0.01677
#
# Static dielectric constant tensor:
#      x y z
#    x 3.491030 0.000000 0.000000 
#    y 0.000000 3.604330 0.000000 
#    z 0.000000 0.000000 3.701050 
# 
# 
# High freq. dielectric constant tensor:
#      x y z
#    x 1.765720 0.000000 0.000000 
#    y 0.000000 1.763360 0.000000 
#    z 0.000000 0.000000 1.768350 
# 
# From -- ./inp_files/2047.got.cif
#   From: 2010.03.12/outbox.cif.g09.slc.cpg/sg55_2_cif.got.tgz:2047.got - 2010.04.16 15:19:21.
