data_PCOD8227948
_publ_section_title
;
Structure prediction by ZEFSAII (Michael W. Deem and Ramdas Pophale) SiO2 
 PCOD8227948
Probable space group: P C C N
;
_chemical_formula_sum "Si O2"
_cell_formula_units_Z 64
_cell_length_a 8.015417
_cell_length_b 23.523047
_cell_length_c 14.614487
_cell_angle_alpha 90.000000
_cell_angle_beta 90.000000
_cell_angle_gamma 90.000000
_cell_volume 2755.518131
_symmetry_space_group_name_H-M "P C C N"
_symmetry_group_IT_number 56
_symmetry_cell_setting 'orthorhombic'
loop_
_space_group_symop_operation_xyz
x,y,z
1/2-x,1/2-y,z
1/2+x,-y,1/2-z
-x,1/2+y,1/2-z
-x,-y,-z
1/2+x,1/2+y,-z
1/2-x,y,1/2+z
x,1/2-y,1/2+z
loop_
_atom_site_type_symbol
_atom_site_label
_atom_site_fract_x
_atom_site_fract_y
_atom_site_fract_z
Si Si1 0.827290 0.888317 0.094560
Si Si2 0.534995 0.475257 0.621453
Si Si3 0.688198 0.588325 0.890425
Si Si4 0.321426 0.566988 0.552594
Si Si5 0.568968 0.723445 0.172380
Si Si6 0.492473 0.825613 0.061662
Si Si7 0.360959 0.300762 0.630280
Si Si8 0.968472 0.481048 0.328275
O O1 0.952809 0.839972 0.132946
O O2 0.643441 0.862465 0.104786
O O3 0.853259 0.949115 0.150652
O O4 0.881355 0.897942 0.990407
O O5 0.359664 0.445399 0.599783
O O6 0.491248 0.540715 0.598209
O O7 0.678922 0.450488 0.555367
O O8 0.590705 0.466279 0.725922
O O9 0.736260 0.647305 0.838910
O O10 0.544776 0.549844 0.840319
O O11 0.329311 0.634775 0.566512
O O12 0.152693 0.546802 0.598099
O O13 0.750000 0.750000 0.153255
O O14 0.450015 0.768260 0.118636
O O15 0.533473 0.719887 0.281401
O O16 0.519568 0.816338 0.953194
O O17 0.250000 0.250000 0.591302
#
# Coordination Sequence:
#
# PCOD8227948 Si02
#       8
#     8   8   8   8   8   8   8   8
#     4  10  19  36  60  90 122 151 204 253 310 352
#     4  10  21  41  61  83 124 169 203 238 316 365
#     4  10  20  39  57  91 118 167 195 254 307 367
#     4  10  22  41  61  86 120 167 205 249 305 381
#     4   9  19  32  58  94 117 156 203 262 305 365
#     4  10  19  37  64  88 119 165 202 255 309 373
#     4  10  18  32  56  89 120 149 203 251 313 357
#     4  11  24  38  62  94 125 164 207 255 306 372
#
# _framework density 23.226123000000001
#
# number of rings (size 3 to 8) (size 9 to 14) (size 15 to 20)
#    0.000    2.000    2.500    3.000    0.000    5.000 
#    4.500    0.625    0.000    0.000    0.000    0.000 
#    0.000    0.000    0.000    0.000    0.000    0.000 
#
# Total GULP energy -792978.992191 kJ/mol
# GULP energy per Si atom -12390.296753 kJ/mol
# Density = 2.317326 g / cm^3
# Si number density = 23.226123 Si / 1000 Ang^3
#
#
#
# Elastic Constant Matrix: (Units=GPa)
#
#
# Indices 1 2 3 4 5 6 
#
# 1 14.8637 0.4957 12.6233 0.0000 0.0000 0.0000
# 2 0.4957 128.1693 31.8581 0.0000 0.0000 0.0000
# 3 12.6233 31.8581 138.9139 0.0000 0.0000 0.0000
# 4 0.0000 0.0000 0.0000 25.9819 0.0000 0.0000
# 5 0.0000 0.0000 0.0000 0.0000 6.9203 0.0000
# 6 0.0000 0.0000 0.0000 0.0000 0.0000 26.6003
#
#
#
# Elastic Compliance Matrix: (Units=1/GPa)
#
#
# Indices 1 2 3 4 5 6 
#
# 1 0.073158 0.001452 -0.006981 0.000000 0.000000 0.000000
# 2 0.001452 0.008303 -0.002036 0.000000 0.000000 0.000000
# 3 -0.006981 -0.002036 0.008300 0.000000 0.000000 0.000000
# 4 0.000000 0.000000 0.000000 0.038488 0.000000 0.000000
# 5 0.000000 0.000000 0.000000 0.000000 0.144502 0.000000
# 6 0.000000 0.000000 0.000000 0.000000 0.000000 0.037594
#
#
# Mechanical properties :
#
#
# Convention : Reuss Voigt Hill
#
# Bulk Modulus (GPa) = 13.39921 41.32236 27.36078
# Shear Modulus (GPa) = 14.27139 27.69849 20.98494
#
# Velocity S-wave (km/s) = 2.48151 3.45709 3.00910
# Velocity P-wave (km/s) = 3.74060 5.81079 4.88658
#
# Compressibility (1/GPa) = 0.07463129
#
# Stress axis : x y z
#
# Youngs Moduli (GPa) = 13.66899 120.44340 120.48148
#
# Poissons Ratio (x) = -0.17492 0.84109
# Poissons Ratio (y) = -0.01985 0.24531
# Poissons Ratio (z) = 0.09542 0.24523
#
# Static dielectric constant tensor:
#      x y z
#    x 3.551840 0.000000 0.000000 
#    y 0.000000 5.068970 0.000000 
#    z 0.000000 0.000000 4.103820 
# 
# 
# High freq. dielectric constant tensor:
#      x y z
#    x 1.856120 0.000000 0.000000 
#    y 0.000000 1.939780 0.000000 
#    z 0.000000 0.000000 1.922820 
# 
# From -- ./inp_files/11037.got.cif
#   From: 2010.03.12/outbox.cif.g09.slc.cpg/sg56_6_cif.got.tgz:11037.got - 2010.04.16 15:33:40.
