data_PCOD8227965
_publ_section_title
;
Structure prediction by ZEFSAII (Michael W. Deem and Ramdas Pophale) SiO2 
 PCOD8227965
Probable space group: P C C N
;
_chemical_formula_sum "Si O2"
_cell_formula_units_Z 48
_cell_length_a 11.916466
_cell_length_b 21.687149
_cell_length_c 10.149931
_cell_angle_alpha 90.000000
_cell_angle_beta 90.000000
_cell_angle_gamma 90.000000
_cell_volume 2623.089031
_symmetry_space_group_name_H-M "P C C N"
_symmetry_group_IT_number 56
_symmetry_cell_setting 'orthorhombic'
loop_
_space_group_symop_operation_xyz
x,y,z
1/2-x,1/2-y,z
1/2+x,-y,1/2-z
-x,1/2+y,1/2-z
-x,-y,-z
1/2+x,1/2+y,-z
1/2-x,y,1/2+z
x,1/2-y,1/2+z
loop_
_atom_site_type_symbol
_atom_site_label
_atom_site_fract_x
_atom_site_fract_y
_atom_site_fract_z
Si Si1 0.911668 0.985902 0.388137
Si Si2 0.083973 0.183676 0.209205
Si Si3 0.124606 0.226163 0.927069
Si Si4 0.815662 0.511009 0.509206
Si Si5 0.486245 0.563801 0.852460
Si Si6 0.810737 0.888112 0.223912
O O1 0.792912 0.014515 0.433309
O O2 0.966676 0.016581 0.263311
O O3 0.884311 0.913974 0.348711
O O4 0.000000 0.000000 0.500000
O O5 0.055326 0.226295 0.335021
O O6 0.203303 0.148887 0.222873
O O7 0.983628 0.133917 0.198967
O O8 0.081519 0.225456 0.077111
O O9 0.250000 0.250000 0.926890
O O10 0.113973 0.158033 0.863791
O O11 0.886543 0.449573 0.544309
O O12 0.776630 0.552558 0.634555
O O13 0.891008 0.553269 0.414253
#
# Coordination Sequence:
#
# PCOD8227965 Si02
#       6
#     8   8   8   8   8   8
#     4  11  22  32  56  86 114 147 191 235 287 345
#     4  11  20  35  54  82 117 152 188 232 291 345
#     4  10  20  31  52  80 112 154 185 229 290 351
#     4  10  20  37  55  81 115 150 190 228 286 350
#     4  10  21  35  57  77 115 156 181 229 292 337
#     4  10  18  34  55  77 120 149 178 233 289 351
#
# _framework density 18.299036000000001
#
# number of rings (size 3 to 8) (size 9 to 14) (size 15 to 20)
#    0.000    1.667    3.333    2.500    2.333    4.000 
#    0.000    0.000    0.000    0.000    0.000    9.333 
#    0.000    0.000    0.000    0.000    0.000    0.000 
#
# Total GULP energy -594839.060559 kJ/mol
# GULP energy per Si atom -12392.480428 kJ/mol
# Density = 1.825739 g / cm^3
# Si number density = 18.299036 Si / 1000 Ang^3
#
#
#
# Elastic Constant Matrix: (Units=GPa)
#
#
# Indices 1 2 3 4 5 6 
#
# 1 64.4078 18.4806 25.9919 0.0000 0.0000 0.0000
# 2 18.4806 83.3792 30.0164 0.0000 0.0000 0.0000
# 3 25.9919 30.0164 91.9743 0.0000 0.0000 0.0000
# 4 0.0000 0.0000 0.0000 35.0270 0.0000 0.0000
# 5 0.0000 0.0000 0.0000 0.0000 15.1800 0.0000
# 6 0.0000 0.0000 0.0000 0.0000 0.0000 23.1989
#
#
#
# Elastic Compliance Matrix: (Units=1/GPa)
#
#
# Indices 1 2 3 4 5 6 
#
# 1 0.017952 -0.002439 -0.004277 0.000000 0.000000 0.000000
# 2 -0.002439 0.013921 -0.003854 0.000000 0.000000 0.000000
# 3 -0.004277 -0.003854 0.013339 0.000000 0.000000 0.000000
# 4 0.000000 0.000000 0.000000 0.028549 0.000000 0.000000
# 5 0.000000 0.000000 0.000000 0.000000 0.065876 0.000000
# 6 0.000000 0.000000 0.000000 0.000000 0.000000 0.043105
#
#
# Mechanical properties :
#
#
# Convention : Reuss Voigt Hill
#
# Bulk Modulus (GPa) = 41.54245 43.19323 42.36784
# Shear Modulus (GPa) = 23.59507 25.69933 24.64720
#
# Velocity S-wave (km/s) = 3.59474 3.75161 3.67401
# Velocity P-wave (km/s) = 6.32304 6.51318 6.41881
#
# Compressibility (1/GPa) = 0.02407176
#
# Stress axis : x y z
#
# Youngs Moduli (GPa) = 55.70408 71.83146 74.96743
#
# Poissons Ratio (x) = 0.17521 0.32065
# Poissons Ratio (y) = 0.13587 0.28893
# Poissons Ratio (z) = 0.23826 0.27684
#
# Static dielectric constant tensor:
#      x y z
#    x 2.899570 0.000000 0.000000 
#    y 0.000000 3.629460 0.000000 
#    z 0.000000 0.000000 5.010100 
# 
# 
# High freq. dielectric constant tensor:
#      x y z
#    x 1.662120 0.000000 0.000000 
#    y 0.000000 1.697560 0.000000 
#    z 0.000000 0.000000 1.734220 
# 
# From -- ./inp_files/3473.got.cif
#   From: 2010.03.12/outbox.cif.g09.slc.cpg/sg56_2_cif.got.tgz:3473.got - 2010.04.16 15:33:40.
