data_PCOD8227283
_publ_section_title
;
Structure prediction by ZEFSAII (Michael W. Deem and Ramdas Pophale) SiO2 
 PCOD8227283
Probable space group: P B A M
;
_chemical_formula_sum "Si O2"
_cell_formula_units_Z 64
_cell_length_a 11.346146
_cell_length_b 14.105379
_cell_length_c 18.784268
_cell_angle_alpha 90.000000
_cell_angle_beta 90.000000
_cell_angle_gamma 90.000000
_cell_volume 3006.265987
_symmetry_space_group_name_H-M "P B A M"
_symmetry_group_IT_number 55
_symmetry_cell_setting 'orthorhombic'
loop_
_space_group_symop_operation_xyz
x,y,z
-x,-y,z
1/2+x,1/2-y,-z
1/2-x,1/2+y,-z
-x,-y,-z
x,y,-z
1/2-x,1/2+y,z
1/2+x,1/2-y,z
loop_
_atom_site_type_symbol
_atom_site_label
_atom_site_fract_x
_atom_site_fract_y
_atom_site_fract_z
Si Si1 0.844488 0.922343 0.078719
Si Si2 0.616156 0.231112 0.579228
Si Si3 0.613870 0.628301 0.079598
Si Si4 0.736408 0.644741 0.296295
Si Si5 0.710554 0.784544 0.179464
Si Si6 0.771206 0.431560 0.713798
Si Si7 0.974068 0.896569 0.666357
Si Si8 0.583387 0.915952 0.420483
O O1 0.794317 0.839566 0.126650
O O2 0.980459 0.900576 0.073658
O O3 0.820771 0.030901 0.107054
O O4 0.787955 0.915305 0.000000
O O5 0.671568 0.234638 0.500000
O O6 0.712606 0.179866 0.628579
O O7 0.579852 0.335355 0.603143
O O8 0.492119 0.178338 0.579164
O O9 0.625193 0.717155 0.133327
O O10 0.660188 0.655690 0.000000
O O11 0.779754 0.716220 0.234683
O O12 0.790922 0.543200 0.275792
O O13 0.593113 0.645518 0.298558
O O14 0.652995 0.868574 0.229173
O O15 0.631472 0.407271 0.724942
O O16 0.808371 0.402649 0.633565
O O17 0.000000 0.000000 0.633582
O O18 0.632299 0.938885 0.500000
O O19 0.500000 0.000000 0.392746
#
# Coordination Sequence:
#
# PCOD8227283 Si02
#       8
#     8   8   8   8   8   8   8   8
#     4   9  20  40  65  93 125 164 211 251 303 377
#     4  11  23  41  63  87 118 161 210 262 322 388
#     4   9  20  40  65  93 126 166 209 254 302 373
#     4  11  24  41  61  90 127 165 210 262 323 387
#     4  12  22  35  62  95 124 162 198 262 314 371
#     4  11  23  40  62  94 125 164 214 261 320 382
#     4  10  24  44  62  86 124 164 210 273 323 377
#     4  10  21  40  65  86 118 166 215 262 310 378
#
# _framework density 21.288868000000001
#
# number of rings (size 3 to 8) (size 9 to 14) (size 15 to 20)
#    0.000    1.625    2.500    2.625    1.750    2.250 
#    0.000    2.500    0.000    0.000    0.000    5.250 
#    0.000    0.000    0.000    0.000    0.000    0.000 
#
# Total GULP energy -792906.264108 kJ/mol
# GULP energy per Si atom -12389.160377 kJ/mol
# Density = 2.124041 g / cm^3
# Si number density = 21.288868 Si / 1000 Ang^3
#
#
#
# Elastic Constant Matrix: (Units=GPa)
#
#
# Indices 1 2 3 4 5 6 
#
# 1 55.3903 33.0949 30.9304 0.0000 0.0000 0.0000
# 2 33.0949 161.9465 73.9794 0.0000 0.0000 0.0000
# 3 30.9304 73.9794 130.0105 0.0000 0.0000 0.0000
# 4 0.0000 0.0000 0.0000 24.8313 0.0000 0.0000
# 5 0.0000 0.0000 0.0000 0.0000 66.4423 0.0000
# 6 0.0000 0.0000 0.0000 0.0000 0.0000 30.4770
#
#
#
# Elastic Compliance Matrix: (Units=1/GPa)
#
#
# Indices 1 2 3 4 5 6 
#
# 1 0.021726 -0.002809 -0.003570 0.000000 0.000000 0.000000
# 2 -0.002809 0.008707 -0.004286 0.000000 0.000000 0.000000
# 3 -0.003570 -0.004286 0.010980 0.000000 0.000000 0.000000
# 4 0.000000 0.000000 0.000000 0.040272 0.000000 0.000000
# 5 0.000000 0.000000 0.000000 0.000000 0.015051 0.000000
# 6 0.000000 0.000000 0.000000 0.000000 0.000000 0.032812
#
#
# Mechanical properties :
#
#
# Convention : Reuss Voigt Hill
#
# Bulk Modulus (GPa) = 49.79633 69.26184 59.52908
# Shear Modulus (GPa) = 31.73166 38.30630 35.01898
#
# Velocity S-wave (km/s) = 3.86492 4.24649 4.06019
# Velocity P-wave (km/s) = 6.58471 7.52652 7.07131
#
# Compressibility (1/GPa) = 0.02008180
#
# Stress axis : x y z
#
# Youngs Moduli (GPa) = 46.02854 114.85182 91.07402
#
# Poissons Ratio (x) = 0.32259 0.32517
# Poissons Ratio (y) = 0.12928 0.39036
# Poissons Ratio (z) = 0.16434 0.49228
#
# Static dielectric constant tensor:
#      x y z
#    x 3.568360 0.000000 0.000000 
#    y 0.000000 4.289480 0.000000 
#    z 0.000000 0.000000 4.018590 
# 
# 
# High freq. dielectric constant tensor:
#      x y z
#    x 1.795440 0.000000 0.000000 
#    y 0.000000 1.861480 0.000000 
#    z 0.000000 0.000000 1.835910 
# 
# From -- ./inp_files/21347.got.cif
#   From: 2010.03.12/outbox.cif.g09.slc.cpg/sg55_11_cif.got.tgz:21347.got - 2010.04.16 15:19:21.
