data_PCOD8227467
_publ_section_title
;
Structure prediction by ZEFSAII (Michael W. Deem and Ramdas Pophale) SiO2 
 PCOD8227467
Probable space group: P B A M
;
_chemical_formula_sum "Si O2"
_cell_formula_units_Z 64
_cell_length_a 23.107193
_cell_length_b 15.304705
_cell_length_c 8.709165
_cell_angle_alpha 90.000000
_cell_angle_beta 90.000000
_cell_angle_gamma 90.000000
_cell_volume 3079.985510
_symmetry_space_group_name_H-M "P B A M"
_symmetry_group_IT_number 55
_symmetry_cell_setting 'orthorhombic'
loop_
_space_group_symop_operation_xyz
x,y,z
-x,-y,z
1/2+x,1/2-y,-z
1/2-x,1/2+y,-z
-x,-y,-z
x,y,-z
1/2-x,1/2+y,z
1/2+x,1/2-y,z
loop_
_atom_site_type_symbol
_atom_site_label
_atom_site_fract_x
_atom_site_fract_y
_atom_site_fract_z
Si Si1 0.684648 0.287152 0.821980
Si Si2 0.619219 0.136449 0.324219
Si Si3 0.815844 0.302627 0.827116
Si Si4 0.795992 0.505588 0.822306
Si Si5 0.501875 0.099348 0.820892
Si Si6 0.331716 0.517128 0.818546
Si Si7 0.928718 0.248931 0.320976
Si Si8 0.550310 0.566579 0.817378
O O1 0.650506 0.226968 0.705747
O O2 0.752149 0.263953 0.801646
O O3 0.668477 0.383226 0.762858
O O4 0.666805 0.273243 0.000000
O O5 0.598725 0.130344 0.500000
O O6 0.565185 0.135696 0.210776
O O7 0.662244 0.057843 0.288280
O O8 0.812713 0.405524 0.797658
O O9 0.860300 0.253021 0.715601
O O10 0.837077 0.283694 0.000000
O O11 0.729699 0.525674 0.770449
O O12 0.805029 0.533171 0.000000
O O13 0.455325 0.160171 0.737547
O O14 0.500000 0.000000 0.757444
O O15 0.487232 0.101347 0.000000
O O16 0.387512 0.466644 0.751571
O O17 0.335197 0.517472 0.000000
O O18 0.938981 0.240443 0.500000
O O19 0.959688 0.164641 0.244543
O O20 0.500000 0.500000 0.760153
O O21 0.550048 0.570348 0.000000
#
# Coordination Sequence:
#
# PCOD8227467 Si02
#       8
#     8   8   8   8   8   8   8   8
#     4   9  19  37  62  88 117 159 206 256 301 354
#     4  12  25  37  56  91 130 161 194 242 310 378
#     4   9  19  38  63  89 118 157 211 259 300 356
#     4   9  18  36  61  88 118 158 204 253 302 359
#     4  11  25  46  70  92 117 160 216 263 305 364
#     4   8  17  36  62  89 115 151 207 261 304 347
#     4  12  26  41  62  94 133 168 201 252 321 384
#     4  10  22  40  64  92 120 161 217 267 308 364
#
# _framework density 20.779319000000001
#
# number of rings (size 3 to 8) (size 9 to 14) (size 15 to 20)
#    0.000    2.000    0.000    4.875    3.500    5.250 
#    0.000    2.500    0.000    0.000    0.000    0.000 
#    0.000    0.000    0.000    0.000    0.000    0.000 
#
# Total GULP energy -793587.463169 kJ/mol
# GULP energy per Si atom -12399.804112 kJ/mol
# Density = 2.073202 g / cm^3
# Si number density = 20.779319 Si / 1000 Ang^3
#
#
#
# Elastic Constant Matrix: (Units=GPa)
#
#
# Indices 1 2 3 4 5 6 
#
# 1 93.0812 29.5569 21.8816 0.0000 0.0000 0.0000
# 2 29.5569 85.5625 26.8853 0.0000 0.0000 0.0000
# 3 21.8816 26.8853 55.7677 0.0000 0.0000 0.0000
# 4 0.0000 0.0000 0.0000 5.1250 0.0000 0.0000
# 5 0.0000 0.0000 0.0000 0.0000 12.4343 0.0000
# 6 0.0000 0.0000 0.0000 0.0000 0.0000 28.4804
#
#
#
# Elastic Compliance Matrix: (Units=1/GPa)
#
#
# Indices 1 2 3 4 5 6 
#
# 1 0.012576 -0.003292 -0.003347 0.000000 0.000000 0.000000
# 2 -0.003292 0.014636 -0.005764 0.000000 0.000000 0.000000
# 3 -0.003347 -0.005764 0.022024 0.000000 0.000000 0.000000
# 4 0.000000 0.000000 0.000000 0.195122 0.000000 0.000000
# 5 0.000000 0.000000 0.000000 0.000000 0.080423 0.000000
# 6 0.000000 0.000000 0.000000 0.000000 0.000000 0.035112
#
#
# Mechanical properties :
#
#
# Convention : Reuss Voigt Hill
#
# Bulk Modulus (GPa) = 40.93645 43.45101 42.19373
# Shear Modulus (GPa) = 12.72778 19.61376 16.17077
#
# Velocity S-wave (km/s) = 2.47760 3.07564 2.79268
# Velocity P-wave (km/s) = 5.28470 5.79386 5.54513
#
# Compressibility (1/GPa) = 0.02442811
#
# Stress axis : x y z
#
# Youngs Moduli (GPa) = 79.51896 68.32523 45.40578
#
# Poissons Ratio (x) = 0.22496 0.15197
# Poissons Ratio (y) = 0.26181 0.26172
# Poissons Ratio (z) = 0.26615 0.39383
#
# Static dielectric constant tensor:
#      x y z
#    x 4.086490 0.000000 0.000000 
#    y 0.000000 3.868640 0.000000 
#    z 0.000000 0.000000 3.386430 
# 
# 
# High freq. dielectric constant tensor:
#      x y z
#    x 1.823630 0.000000 0.000000 
#    y 0.000000 1.821640 0.000000 
#    z 0.000000 0.000000 1.780280 
# 
# From -- ./inp_files/9745.got.cif
#   From: 2010.03.12/outbox.cif.g09.slc.cpg/sg55_5_cif.got.tgz:9745.got - 2010.04.16 15:19:21.
