data_PCOD8227922
_publ_section_title
;
Structure prediction by ZEFSAII (Michael W. Deem and Ramdas Pophale) SiO2 
 PCOD8227922
Probable space group: P C C N
;
_chemical_formula_sum "Si O2"
_cell_formula_units_Z 56
_cell_length_a 24.502189
_cell_length_b 25.727197
_cell_length_c 5.370206
_cell_angle_alpha 90.000000
_cell_angle_beta 90.000000
_cell_angle_gamma 90.000000
_cell_volume 3385.230951
_symmetry_space_group_name_H-M "P C C N"
_symmetry_group_IT_number 56
_symmetry_cell_setting 'orthorhombic'
loop_
_space_group_symop_operation_xyz
x,y,z
1/2-x,1/2-y,z
1/2+x,-y,1/2-z
-x,1/2+y,1/2-z
-x,-y,-z
1/2+x,1/2+y,-z
1/2-x,y,1/2+z
x,1/2-y,1/2+z
loop_
_atom_site_type_symbol
_atom_site_label
_atom_site_fract_x
_atom_site_fract_y
_atom_site_fract_z
Si Si1 0.951383 0.731143 0.749401
Si Si2 0.030176 0.113408 0.749095
Si Si3 0.214906 0.114086 0.236199
Si Si4 0.169457 0.225784 0.251169
Si Si5 0.588851 0.506866 0.250511
Si Si6 0.123883 0.470955 0.749454
Si Si7 0.504050 0.924806 0.250976
O O1 0.983358 0.749836 0.499093
O O2 0.894497 0.762096 0.747770
O O3 0.941108 0.669470 0.750232
O O4 0.992415 0.108135 0.500700
O O5 0.076578 0.068894 0.748878
O O6 0.992287 0.108000 0.997067
O O7 0.255099 0.113212 0.471035
O O8 0.176676 0.164313 0.250075
O O9 0.176855 0.064235 0.252808
O O10 0.196903 0.249564 0.502150
O O11 0.623805 0.493677 0.499067
O O12 0.531675 0.476877 0.249590
O O13 0.624119 0.493859 0.002632
O O14 0.067596 0.439046 0.748335
#
# Coordination Sequence:
#
# PCOD8227922 Si02
#       7
#     8   8   8   8   8   8   8
#     4  10  21  31  45  67  85 117 164 195 233 300
#     4  10  18  28  47  65  96 117 134 187 240 295
#     4  12  26  40  51  67  89 124 172 211 259 305
#     4  10  23  35  54  60  84 107 167 217 261 284
#     4  10  19  31  53  77  92 106 142 180 259 321
#     4  10  20  32  53  65  93 117 139 188 253 302
#     4  10  19  31  51  77  92 108 140 182 257 323
#
# _framework density 16.542446000000002
#
# number of rings (size 3 to 8) (size 9 to 14) (size 15 to 20)
#    0.000    1.714    0.000    6.857   16.000    1.714 
#    0.000    0.000    0.000    0.000    0.000    0.000 
#    0.000    0.000    0.000    0.000    0.000    0.000 
#
# Total GULP energy -693855.000654 kJ/mol
# GULP energy per Si atom -12390.267869 kJ/mol
# Density = 1.650479 g / cm^3
# Si number density = 16.542446 Si / 1000 Ang^3
#
#
#
# Elastic Constant Matrix: (Units=GPa)
#
#
# Indices 1 2 3 4 5 6 
#
# 1 27.0419 21.6033 14.1557 0.0000 0.0000 0.0000
# 2 21.6033 36.0671 14.9122 0.0000 0.0000 0.0000
# 3 14.1557 14.9122 188.5999 0.0000 0.0000 0.0000
# 4 0.0000 0.0000 0.0000 23.6409 0.0000 0.0000
# 5 0.0000 0.0000 0.0000 0.0000 10.7532 0.0000
# 6 0.0000 0.0000 0.0000 0.0000 0.0000 27.9385
#
#
#
# Elastic Compliance Matrix: (Units=1/GPa)
#
#
# Indices 1 2 3 4 5 6 
#
# 1 0.071672 -0.042081 -0.002052 0.000000 0.000000 0.000000
# 2 -0.042081 0.053371 -0.001061 0.000000 0.000000 0.000000
# 3 -0.002052 -0.001061 0.005540 0.000000 0.000000 0.000000
# 4 0.000000 0.000000 0.000000 0.042300 0.000000 0.000000
# 5 0.000000 0.000000 0.000000 0.000000 0.092995 0.000000
# 6 0.000000 0.000000 0.000000 0.000000 0.000000 0.035793
#
#
# Mechanical properties :
#
#
# Convention : Reuss Voigt Hill
#
# Bulk Modulus (GPa) = 24.87994 39.22793 32.05394
# Shear Modulus (GPa) = 12.33175 25.86904 19.10039
#
# Velocity S-wave (km/s) = 2.73328 3.95878 3.40167
# Velocity P-wave (km/s) = 5.00338 6.68288 5.90316
#
# Compressibility (1/GPa) = 0.04019302
#
# Stress axis : x y z
#
# Youngs Moduli (GPa) = 13.95248 18.73692 180.49945
#
# Poissons Ratio (x) = 0.78847 0.37042
# Poissons Ratio (y) = 0.58714 0.19159
# Poissons Ratio (z) = 0.02863 0.01989
#
# Static dielectric constant tensor:
#      x y z
#    x 2.579460 0.000000 0.000000 
#    y 0.000000 2.847260 0.000000 
#    z 0.000000 0.000000 5.413730 
# 
# 
# High freq. dielectric constant tensor:
#      x y z
#    x 1.563410 0.000000 0.000000 
#    y 0.000000 1.599190 0.000000 
#    z 0.000000 0.000000 1.694740 
# 
# From -- ./inp_files/913.got.cif
#   From: 2010.03.12/outbox.cif.g09.slc.cpg/sg56_1_cif.got.tgz:913.got - 2010.04.16 15:33:40.
