data_PCOD8227029
_publ_section_title
;
Structure prediction by ZEFSAII (Michael W. Deem and Ramdas Pophale) SiO2 
 PCOD8227029
Probable space group: P B A M
;
_chemical_formula_sum "Si O2"
_cell_formula_units_Z 56
_cell_length_a 14.202164
_cell_length_b 13.290905
_cell_length_c 14.161813
_cell_angle_alpha 90.000000
_cell_angle_beta 90.000000
_cell_angle_gamma 90.000000
_cell_volume 2673.178334
_symmetry_space_group_name_H-M "P B A M"
_symmetry_group_IT_number 55
_symmetry_cell_setting 'orthorhombic'
loop_
_space_group_symop_operation_xyz
x,y,z
-x,-y,z
1/2+x,1/2-y,-z
1/2-x,1/2+y,-z
-x,-y,-z
x,y,-z
1/2-x,1/2+y,z
1/2+x,1/2-y,z
loop_
_atom_site_type_symbol
_atom_site_label
_atom_site_fract_x
_atom_site_fract_y
_atom_site_fract_z
Si Si1 0.998328 0.616734 0.269829
Si Si2 0.597126 0.455995 0.111028
Si Si3 0.089253 0.270007 0.893450
Si Si4 0.161186 0.753283 0.290729
Si Si5 0.859128 0.731920 0.390887
Si Si6 0.789853 0.146068 0.106404
Si Si7 0.479274 0.390620 0.391709
O O1 0.099267 0.653020 0.311530
O O2 0.000000 0.500000 0.246949
O O3 0.987926 0.680640 0.173781
O O4 0.912466 0.637703 0.342342
O O5 0.500000 0.500000 0.154062
O O6 0.615097 0.341741 0.147401
O O7 0.682426 0.531953 0.137263
O O8 0.587849 0.448095 0.000000
O O9 0.177892 0.344575 0.890468
O O10 0.049101 0.262929 0.000000
O O11 0.262902 0.741867 0.337775
O O12 0.167280 0.772815 0.178379
O O13 0.109142 0.848263 0.335716
O O14 0.839293 0.705592 0.500000
O O15 0.925840 0.827593 0.378996
O O16 0.827709 0.169485 0.000000
O O17 0.500000 0.500000 0.349619
O O18 0.447881 0.396372 0.500000
#
# Coordination Sequence:
#
# PCOD8227029 Si02
#       7
#     8   8   8   8   8   8   8
#     4  11  25  42  62  94 129 168 210 257 319 383
#     4   9  18  34  58  85 115 158 211 260 313 370
#     4  10  21  40  61  89 129 167 213 265 314 373
#     4  11  22  39  64  89 122 167 210 253 312 376
#     4  10  22  43  65  90 124 159 204 257 309 375
#     4  10  21  37  59  89 125 167 213 264 317 372
#     4   9  20  39  64  95 123 151 196 255 314 369
#
# _framework density 20.948846
#
# number of rings (size 3 to 8) (size 9 to 14) (size 15 to 20)
#    0.000    2.000    1.429    1.286    0.000    8.000 
#    0.000    2.857    0.000    0.000    0.000    0.000 
#    0.000    0.000    0.000    0.000    0.000    0.000 
#
# Total GULP energy -694277.929472 kJ/mol
# GULP energy per Si atom -12397.820169 kJ/mol
# Density = 2.090117 g / cm^3
# Si number density = 20.948846 Si / 1000 Ang^3
#
#
#
# Elastic Constant Matrix: (Units=GPa)
#
#
# Indices 1 2 3 4 5 6 
#
# 1 105.7395 34.7817 31.9822 0.0000 0.0000 0.0000
# 2 34.7817 118.6716 27.0731 0.0000 0.0000 0.0000
# 3 31.9822 27.0731 104.8257 0.0000 0.0000 0.0000
# 4 0.0000 0.0000 0.0000 25.7705 0.0000 0.0000
# 5 0.0000 0.0000 0.0000 0.0000 17.3200 0.0000
# 6 0.0000 0.0000 0.0000 0.0000 0.0000 25.9243
#
#
#
# Elastic Compliance Matrix: (Units=1/GPa)
#
#
# Indices 1 2 3 4 5 6 
#
# 1 0.011150 -0.002648 -0.002718 0.000000 0.000000 0.000000
# 2 -0.002648 0.009583 -0.001667 0.000000 0.000000 0.000000
# 3 -0.002718 -0.001667 0.010799 0.000000 0.000000 0.000000
# 4 0.000000 0.000000 0.000000 0.038804 0.000000 0.000000
# 5 0.000000 0.000000 0.000000 0.000000 0.057737 0.000000
# 6 0.000000 0.000000 0.000000 0.000000 0.000000 0.038574
#
#
# Mechanical properties :
#
#
# Convention : Reuss Voigt Hill
#
# Bulk Modulus (GPa) = 57.25226 57.43455 57.34340
# Shear Modulus (GPa) = 26.80448 29.49628 28.15038
#
# Velocity S-wave (km/s) = 3.58092 3.75642 3.66972
# Velocity P-wave (km/s) = 6.66980 6.80370 6.73708
#
# Compressibility (1/GPa) = 0.01746656
#
# Stress axis : x y z
#
# Youngs Moduli (GPa) = 89.68334 104.35101 92.59707
#
# Poissons Ratio (x) = 0.27632 0.25169
# Poissons Ratio (y) = 0.23748 0.15437
# Poissons Ratio (z) = 0.24377 0.17396
#
# Static dielectric constant tensor:
#      x y z
#    x 3.751660 0.000000 0.000000 
#    y 0.000000 3.767070 0.000000 
#    z 0.000000 0.000000 3.971120 
# 
# 
# High freq. dielectric constant tensor:
#      x y z
#    x 1.817730 0.000000 0.000000 
#    y 0.000000 1.808370 0.000000 
#    z 0.000000 0.000000 1.827490 
# 
# From -- ./inp_files/18948.got.cif
#   From: 2010.03.12/outbox.cif.g09.slc.cpg/sg55_10_cif.got.tgz:18948.got - 2010.04.16 15:19:21.
