data_PCOD8227231
_publ_section_title
;
Structure prediction by ZEFSAII (Michael W. Deem and Ramdas Pophale) SiO2 
 PCOD8227231
Probable space group: P B A M
;
_chemical_formula_sum "Si O2"
_cell_formula_units_Z 48
_cell_length_a 23.575137
_cell_length_b 11.485360
_cell_length_c 8.532603
_cell_angle_alpha 90.000000
_cell_angle_beta 90.000000
_cell_angle_gamma 90.000000
_cell_volume 2310.363831
_symmetry_space_group_name_H-M "P B A M"
_symmetry_group_IT_number 55
_symmetry_cell_setting 'orthorhombic'
loop_
_space_group_symop_operation_xyz
x,y,z
-x,-y,z
1/2+x,1/2-y,-z
1/2-x,1/2+y,-z
-x,-y,-z
x,y,-z
1/2-x,1/2+y,z
1/2+x,1/2-y,z
loop_
_atom_site_type_symbol
_atom_site_label
_atom_site_fract_x
_atom_site_fract_y
_atom_site_fract_z
Si Si1 0.533893 0.266839 0.316633
Si Si2 0.827385 0.138941 0.680272
Si Si3 0.419024 0.199796 0.818031
Si Si4 0.393233 0.955683 0.319003
Si Si5 0.635310 0.399601 0.818243
Si Si6 0.707333 0.171342 0.179744
O O1 0.529739 0.292723 0.500000
O O2 0.472114 0.276219 0.239690
O O3 0.558839 0.139300 0.280362
O O4 0.572505 0.365353 0.237178
O O5 0.841192 0.165459 0.500000
O O6 0.862341 0.227257 0.788153
O O7 0.761282 0.159680 0.709862
O O8 0.842960 0.006845 0.717698
O O9 0.418578 0.080382 0.721933
O O10 0.424430 0.170544 0.000000
O O11 0.375920 0.950369 0.500000
O O12 0.336878 0.931639 0.218063
O O13 0.678395 0.294637 0.784973
O O14 0.633788 0.433932 0.000000
O O15 0.726231 0.158784 0.000000
#
# Coordination Sequence:
#
# PCOD8227231 Si02
#       6
#     8   8   8   8   8   8
#     4  10  21  40  65  93 126 162 205 253 308 368
#     4  12  26  42  62  89 124 164 209 256 308 367
#     4  12  25  40  61  91 127 164 209 257 308 364
#     4  10  21  39  64  94 126 163 205 254 309 364
#     4  10  22  42  66  91 122 160 205 252 309 370
#     4  10  22  41  65  91 123 161 203 252 307 367
#
# _framework density 20.775948
#
# number of rings (size 3 to 8) (size 9 to 14) (size 15 to 20)
#    0.000    1.333    0.000    5.500    2.333    6.667 
#    0.000    3.333    0.000    0.000    0.000    0.000 
#    0.000    0.000    0.000    0.000    0.000    0.000 
#
# Total GULP energy -595614.135383 kJ/mol
# GULP energy per Si atom -12408.627820 kJ/mol
# Density = 2.072866 g / cm^3
# Si number density = 20.775948 Si / 1000 Ang^3
#
#
#
# Elastic Constant Matrix: (Units=GPa)
#
#
# Indices 1 2 3 4 5 6 
#
# 1 87.7595 0.9562 21.8212 0.0000 0.0000 0.0000
# 2 0.9562 40.3118 21.6041 0.0000 0.0000 0.0000
# 3 21.8212 21.6041 74.5049 0.0000 0.0000 0.0000
# 4 0.0000 0.0000 0.0000 34.5261 0.0000 0.0000
# 5 0.0000 0.0000 0.0000 0.0000 37.6841 0.0000
# 6 0.0000 0.0000 0.0000 0.0000 0.0000 16.3766
#
#
#
# Elastic Compliance Matrix: (Units=1/GPa)
#
#
# Indices 1 2 3 4 5 6 
#
# 1 0.012419 0.001959 -0.004205 0.000000 0.000000 0.000000
# 2 0.001959 0.029680 -0.009180 0.000000 0.000000 0.000000
# 3 -0.004205 -0.009180 0.017316 0.000000 0.000000 0.000000
# 4 0.000000 0.000000 0.000000 0.028964 0.000000 0.000000
# 5 0.000000 0.000000 0.000000 0.000000 0.026536 0.000000
# 6 0.000000 0.000000 0.000000 0.000000 0.000000 0.061063
#
#
# Mechanical properties :
#
#
# Convention : Reuss Voigt Hill
#
# Bulk Modulus (GPa) = 27.35080 32.37103 29.86092
# Shear Modulus (GPa) = 23.69476 28.26369 25.97923
#
# Velocity S-wave (km/s) = 3.38078 3.69237 3.54000
# Velocity P-wave (km/s) = 5.33224 5.81317 5.57789
#
# Compressibility (1/GPa) = 0.03656200
#
# Stress axis : x y z
#
# Youngs Moduli (GPa) = 80.52109 33.69278 57.75152
#
# Poissons Ratio (x) = -0.06601 0.24287
# Poissons Ratio (y) = -0.15776 0.53016
# Poissons Ratio (z) = 0.33863 0.30930
#
# Static dielectric constant tensor:
#      x y z
#    x 3.777670 0.000000 0.000000 
#    y 0.000000 3.669210 0.000000 
#    z 0.000000 0.000000 3.775740 
# 
# 
# High freq. dielectric constant tensor:
#      x y z
#    x 1.821710 0.000000 0.000000 
#    y 0.000000 1.810770 0.000000 
#    z 0.000000 0.000000 1.826080 
# 
# From -- ./inp_files/9445.got.cif
#   From: 2010.03.12/outbox.cif.g09.slc.cpg/sg55_5_cif.got.tgz:9445.got - 2010.04.16 15:19:21.
