data_PCOD8227395
_publ_section_title
;
Structure prediction by ZEFSAII (Michael W. Deem and Ramdas Pophale) SiO2 
 PCOD8227395
Probable space group: P B A M
;
_chemical_formula_sum "Si O2"
_cell_formula_units_Z 48
_cell_length_a 9.763162
_cell_length_b 17.496626
_cell_length_c 14.451196
_cell_angle_alpha 90.000000
_cell_angle_beta 90.000000
_cell_angle_gamma 90.000000
_cell_volume 2468.587898
_symmetry_space_group_name_H-M "P B A M"
_symmetry_group_IT_number 55
_symmetry_cell_setting 'orthorhombic'
loop_
_space_group_symop_operation_xyz
x,y,z
-x,-y,z
1/2+x,1/2-y,-z
1/2-x,1/2+y,-z
-x,-y,-z
x,y,-z
1/2-x,1/2+y,z
1/2+x,1/2-y,z
loop_
_atom_site_type_symbol
_atom_site_label
_atom_site_fract_x
_atom_site_fract_y
_atom_site_fract_z
Si Si1 0.454540 0.082450 0.106318
Si Si2 0.317658 0.717204 0.398274
Si Si3 0.607405 0.656535 0.602257
Si Si4 0.277386 0.667636 0.794848
Si Si5 0.726871 0.172281 0.106953
Si Si6 0.949927 0.085089 0.210213
O O1 0.323618 0.105215 0.164978
O O2 0.571325 0.145752 0.119549
O O3 0.500000 0.000000 0.143639
O O4 0.409463 0.076042 0.000000
O O5 0.275650 0.684678 0.500000
O O6 0.253874 0.801715 0.385970
O O7 0.483445 0.719015 0.389016
O O8 0.256392 0.665150 0.316324
O O9 0.600584 0.617707 0.500000
O O10 0.592068 0.592743 0.681532
O O11 0.246463 0.751251 0.835107
O O12 0.431959 0.644319 0.819185
O O13 0.822367 0.104272 0.144543
O O14 0.761597 0.188368 0.000000
O O15 0.000000 0.000000 0.190867
#
# Coordination Sequence:
#
# PCOD8227395 Si02
#       6
#     8   8   8   8   8   8
#     4  10  22  39  57  79 111 150 185 224 281 336
#     4   9  18  32  54  82 109 141 181 228 274 321
#     4   9  18  34  55  82 113 145 182 225 273 326
#     4  11  21  36  59  83 110 144 186 235 270 327
#     4  11  23  38  58  82 109 143 189 235 273 326
#     4  11  23  37  56  86 118 148 182 227 285 334
#
# _framework density 19.444315
#
# number of rings (size 3 to 8) (size 9 to 14) (size 15 to 20)
#    0.000    1.833    1.667    2.500    2.333    3.333 
#    0.000    0.000    0.000    0.500    0.000    0.000 
#    0.000    0.000    0.000    0.000    0.000    0.000 
#
# Total GULP energy -595100.778476 kJ/mol
# GULP energy per Si atom -12397.932885 kJ/mol
# Density = 1.940006 g / cm^3
# Si number density = 19.444315 Si / 1000 Ang^3
#
#
#
# Elastic Constant Matrix: (Units=GPa)
#
#
# Indices 1 2 3 4 5 6 
#
# 1 43.1826 -2.9586 31.1950 0.0000 0.0000 0.0000
# 2 -2.9586 60.1755 18.6237 0.0000 0.0000 0.0000
# 3 31.1950 18.6237 106.3175 0.0000 0.0000 0.0000
# 4 0.0000 0.0000 0.0000 23.4335 0.0000 0.0000
# 5 0.0000 0.0000 0.0000 0.0000 27.1637 0.0000
# 6 0.0000 0.0000 0.0000 0.0000 0.0000 29.1854
#
#
#
# Elastic Compliance Matrix: (Units=1/GPa)
#
#
# Indices 1 2 3 4 5 6 
#
# 1 0.030504 0.004515 -0.009741 0.000000 0.000000 0.000000
# 2 0.004515 0.018239 -0.004520 0.000000 0.000000 0.000000
# 3 -0.009741 -0.004520 0.013056 0.000000 0.000000 0.000000
# 4 0.000000 0.000000 0.000000 0.042674 0.000000 0.000000
# 5 0.000000 0.000000 0.000000 0.000000 0.036814 0.000000
# 6 0.000000 0.000000 0.000000 0.000000 0.000000 0.034264
#
#
# Mechanical properties :
#
#
# Convention : Reuss Voigt Hill
#
# Bulk Modulus (GPa) = 23.63730 33.71064 28.67397
# Shear Modulus (GPa) = 23.90703 26.81089 25.35896
#
# Velocity S-wave (km/s) = 3.51024 3.71732 3.61527
# Velocity P-wave (km/s) = 5.34901 5.98325 5.67500
#
# Compressibility (1/GPa) = 0.04230602
#
# Stress axis : x y z
#
# Youngs Moduli (GPa) = 32.78296 54.82829 76.59540
#
# Poissons Ratio (x) = -0.24752 0.74612
# Poissons Ratio (y) = -0.14800 0.34617
# Poissons Ratio (z) = 0.31934 0.24780
#
# Static dielectric constant tensor:
#      x y z
#    x 3.629230 0.000000 0.000000 
#    y 0.000000 3.211160 0.000000 
#    z 0.000000 0.000000 3.812510 
# 
# 
# High freq. dielectric constant tensor:
#      x y z
#    x 1.763090 0.000000 0.000000 
#    y 0.000000 1.725100 0.000000 
#    z 0.000000 0.000000 1.772830 
# 
# From -- ./inp_files/17323.got.cif
#   From: 2010.03.12/outbox.cif.g09.slc.cpg/sg55_9_cif.got.tgz:17323.got - 2010.04.16 15:19:21.
