data_PCOD8227748
_publ_section_title
;
Structure prediction by ZEFSAII (Michael W. Deem and Ramdas Pophale) SiO2 
 PCOD8227748
Probable space group: P B A M
;
_chemical_formula_sum "Si O2"
_cell_formula_units_Z 48
_cell_length_a 14.243952
_cell_length_b 19.925212
_cell_length_c 8.494214
_cell_angle_alpha 90.000000
_cell_angle_beta 90.000000
_cell_angle_gamma 90.000000
_cell_volume 2410.774842
_symmetry_space_group_name_H-M "P B A M"
_symmetry_group_IT_number 55
_symmetry_cell_setting 'orthorhombic'
loop_
_space_group_symop_operation_xyz
x,y,z
-x,-y,z
1/2+x,1/2-y,-z
1/2-x,1/2+y,-z
-x,-y,-z
x,y,-z
1/2-x,1/2+y,z
1/2+x,1/2-y,z
loop_
_atom_site_type_symbol
_atom_site_label
_atom_site_fract_x
_atom_site_fract_y
_atom_site_fract_z
Si Si1 0.283181 0.702776 0.818250
Si Si2 0.486216 0.876350 0.181663
Si Si3 0.203477 0.430700 0.682555
Si Si4 0.343157 0.329253 0.814163
Si Si5 0.327249 0.083065 0.679858
Si Si6 0.521825 0.268435 0.682394
O O1 0.221131 0.766129 0.765609
O O2 0.224775 0.635116 0.792876
O O3 0.376393 0.700072 0.713609
O O4 0.311855 0.708990 0.000000
O O5 0.382786 0.901292 0.220150
O O6 0.561816 0.917818 0.282719
O O7 0.494740 0.797597 0.214519
O O8 0.507939 0.889284 0.000000
O O9 0.187139 0.413925 0.500000
O O10 0.298053 0.396903 0.745877
O O11 0.214392 0.509707 0.711754
O O12 0.444344 0.322695 0.732882
O O13 0.355606 0.335006 0.000000
O O14 0.311981 0.105006 0.500000
O O15 0.511715 0.249921 0.500000
#
# Coordination Sequence:
#
# PCOD8227748 Si02
#       6
#     8   8   8   8   8   8
#     4  11  23  40  64  92 124 161 204 253 304 363
#     4  12  23  37  60  92 127 163 204 251 307 366
#     4  11  24  41  62  91 126 164 206 252 306 366
#     4  11  23  40  64  92 124 161 204 253 304 363
#     4  11  24  41  62  91 126 164 206 252 306 366
#     4  12  24  39  64  93 124 160 204 256 306 357
#
# _framework density 19.910609999999998
#
# number of rings (size 3 to 8) (size 9 to 14) (size 15 to 20)
#    0.000    0.667    3.333    5.500    0.000    6.000 
#    0.000    0.833    0.000    5.000    0.000    0.000 
#    0.000    0.000    0.000    0.000    0.000    0.000 
#
# Total GULP energy -595653.525202 kJ/mol
# GULP energy per Si atom -12409.448442 kJ/mol
# Density = 1.986529 g / cm^3
# Si number density = 19.910610 Si / 1000 Ang^3
#
#
#
# Elastic Constant Matrix: (Units=GPa)
#
#
# Indices 1 2 3 4 5 6 
#
# 1 71.4760 2.9514 13.6628 0.0000 0.0000 0.0000
# 2 2.9514 51.8309 22.3923 0.0000 0.0000 0.0000
# 3 13.6628 22.3923 72.5972 0.0000 0.0000 0.0000
# 4 0.0000 0.0000 0.0000 23.4716 0.0000 0.0000
# 5 0.0000 0.0000 0.0000 0.0000 35.5228 0.0000
# 6 0.0000 0.0000 0.0000 0.0000 0.0000 28.6049
#
#
#
# Elastic Compliance Matrix: (Units=1/GPa)
#
#
# Indices 1 2 3 4 5 6 
#
# 1 0.014520 0.000408 -0.002859 0.000000 0.000000 0.000000
# 2 0.000408 0.022271 -0.006946 0.000000 0.000000 0.000000
# 3 -0.002859 -0.006946 0.016455 0.000000 0.000000 0.000000
# 4 0.000000 0.000000 0.000000 0.042605 0.000000 0.000000
# 5 0.000000 0.000000 0.000000 0.000000 0.028151 0.000000
# 6 0.000000 0.000000 0.000000 0.000000 0.000000 0.034959
#
#
# Mechanical properties :
#
#
# Convention : Reuss Voigt Hill
#
# Bulk Modulus (GPa) = 29.02483 30.43523 29.73003
# Shear Modulus (GPa) = 26.42157 27.97970 27.20064
#
# Velocity S-wave (km/s) = 3.64677 3.75275 3.70014
# Velocity P-wave (km/s) = 5.68692 5.83924 5.76358
#
# Compressibility (1/GPa) = 0.03445325
#
# Stress axis : x y z
#
# Youngs Moduli (GPa) = 68.86915 44.90091 60.77111
#
# Poissons Ratio (x) = -0.01833 0.17372
# Poissons Ratio (y) = -0.02811 0.42213
# Poissons Ratio (z) = 0.19687 0.31189
#
# Static dielectric constant tensor:
#      x y z
#    x 3.670690 0.000000 0.000000 
#    y 0.000000 3.573850 0.000000 
#    z 0.000000 0.000000 3.666530 
# 
# 
# High freq. dielectric constant tensor:
#      x y z
#    x 1.778440 0.000000 0.000000 
#    y 0.000000 1.767920 0.000000 
#    z 0.000000 0.000000 1.791730 
# 
# From -- ./inp_files/5558.got.cif
#   From: 2010.03.12/outbox.cif.g09.slc.cpg/sg55_3_cif.got.tgz:5558.got - 2010.04.16 15:19:21.
