data_PCOD8227135
_publ_section_title
;
Structure prediction by ZEFSAII (Michael W. Deem and Ramdas Pophale) SiO2 
 PCOD8227135
Probable space group: P B A M
;
_chemical_formula_sum "Si O2"
_cell_formula_units_Z 48
_cell_length_a 27.660148
_cell_length_b 10.032142
_cell_length_c 8.497828
_cell_angle_alpha 90.000000
_cell_angle_beta 90.000000
_cell_angle_gamma 90.000000
_cell_volume 2358.066817
_symmetry_space_group_name_H-M "P B A M"
_symmetry_group_IT_number 55
_symmetry_cell_setting 'orthorhombic'
loop_
_space_group_symop_operation_xyz
x,y,z
-x,-y,z
1/2+x,1/2-y,-z
1/2-x,1/2+y,-z
-x,-y,-z
x,y,-z
1/2-x,1/2+y,z
1/2+x,1/2-y,z
loop_
_atom_site_type_symbol
_atom_site_label
_atom_site_fract_x
_atom_site_fract_y
_atom_site_fract_z
Si Si1 0.961206 0.397489 0.815428
Si Si2 0.294859 0.247597 0.180479
Si Si3 0.190720 0.256857 0.317630
Si Si4 0.540555 0.600277 0.187334
Si Si5 0.644226 0.496188 0.183243
Si Si6 0.360389 0.027798 0.681443
O O1 0.968736 0.248909 0.744241
O O2 0.907456 0.448451 0.785329
O O3 0.000000 0.500000 0.739308
O O4 0.969847 0.389824 0.000000
O O5 0.238143 0.244213 0.212044
O O6 0.314626 0.394702 0.216223
O O7 0.321221 0.142639 0.291855
O O8 0.305013 0.208071 0.000000
O O9 0.205627 0.263239 0.500000
O O10 0.155906 0.132608 0.286172
O O11 0.162382 0.388405 0.265053
O O12 0.500000 0.500000 0.254845
O O13 0.593026 0.551848 0.243885
O O14 0.538932 0.603851 0.000000
O O15 0.641972 0.457001 0.000000
O O16 0.375652 0.025653 0.500000
#
# Coordination Sequence:
#
# PCOD8227135 Si02
#       6
#     8   8   8   8   8   8
#     4  10  21  38  63  92 119 154 201 251 300 352
#     4  11  22  40  64  90 118 152 203 253 299 354
#     4  11  25  40  57  87 123 160 203 242 293 360
#     4   9  18  35  59  90 121 148 189 244 299 351
#     4  10  21  38  62  90 120 155 197 249 300 351
#     4  11  24  41  61  87 125 166 199 243 299 359
#
# _framework density 20.355656
#
# number of rings (size 3 to 8) (size 9 to 14) (size 15 to 20)
#    0.000    1.667    1.667    2.500    2.333    7.000 
#    0.000    0.000    0.000    1.000    0.000    0.000 
#    0.000    0.000    0.000    0.000    0.000    0.000 
#
# Total GULP energy -595440.611392 kJ/mol
# GULP energy per Si atom -12405.012737 kJ/mol
# Density = 2.030933 g / cm^3
# Si number density = 20.355656 Si / 1000 Ang^3
#
#
#
# Elastic Constant Matrix: (Units=GPa)
#
#
# Indices 1 2 3 4 5 6 
#
# 1 127.1259 65.9023 5.3894 0.0000 0.0000 0.0000
# 2 65.9023 125.4667 18.1541 0.0000 0.0000 0.0000
# 3 5.3894 18.1541 19.7041 0.0000 0.0000 0.0000
# 4 0.0000 0.0000 0.0000 15.7506 0.0000 0.0000
# 5 0.0000 0.0000 0.0000 0.0000 13.5222 0.0000
# 6 0.0000 0.0000 0.0000 0.0000 0.0000 42.7857
#
#
#
# Elastic Compliance Matrix: (Units=1/GPa)
#
#
# Indices 1 2 3 4 5 6 
#
# 1 0.010929 -0.006124 0.002653 0.000000 0.000000 0.000000
# 2 -0.006124 0.012628 -0.009960 0.000000 0.000000 0.000000
# 3 0.002653 -0.009960 0.059201 0.000000 0.000000 0.000000
# 4 0.000000 0.000000 0.000000 0.063490 0.000000 0.000000
# 5 0.000000 0.000000 0.000000 0.000000 0.073952 0.000000
# 6 0.000000 0.000000 0.000000 0.000000 0.000000 0.023372
#
#
# Mechanical properties :
#
#
# Convention : Reuss Voigt Hill
#
# Bulk Modulus (GPa) = 17.89012 50.13204 34.01108
# Shear Modulus (GPa) = 17.29712 26.60176 21.94944
#
# Velocity S-wave (km/s) = 2.91820 3.61896 3.28731
# Velocity P-wave (km/s) = 4.49025 6.49184 5.58150
#
# Compressibility (1/GPa) = 0.05589679
#
# Stress axis : x y z
#
# Youngs Moduli (GPa) = 91.50353 79.18835 16.89154
#
# Poissons Ratio (x) = 0.48497 -0.04482
# Poissons Ratio (y) = 0.56039 0.16823
# Poissons Ratio (z) = -0.24279 0.78869
#
# Static dielectric constant tensor:
#      x y z
#    x 3.731650 0.000000 0.000000 
#    y 0.000000 4.051220 0.000000 
#    z 0.000000 0.000000 3.379300 
# 
# 
# High freq. dielectric constant tensor:
#      x y z
#    x 1.803390 0.000000 0.000000 
#    y 0.000000 1.812560 0.000000 
#    z 0.000000 0.000000 1.768990 
# 
# From -- ./inp_files/4069.got.cif
#   From: 2010.03.12/outbox.cif.g09.slc.cpg/sg55_3_cif.got.tgz:4069.got - 2010.04.16 15:19:21.
