data_PCOD8227254
_publ_section_title
;
Structure prediction by ZEFSAII (Michael W. Deem and Ramdas Pophale) SiO2 
 PCOD8227254
Probable space group: P B A M
;
_chemical_formula_sum "Si O2"
_cell_formula_units_Z 56
_cell_length_a 14.800253
_cell_length_b 21.185485
_cell_length_c 8.937702
_cell_angle_alpha 90.000000
_cell_angle_beta 90.000000
_cell_angle_gamma 90.000000
_cell_volume 2802.421270
_symmetry_space_group_name_H-M "P B A M"
_symmetry_group_IT_number 55
_symmetry_cell_setting 'orthorhombic'
loop_
_space_group_symop_operation_xyz
x,y,z
-x,-y,z
1/2+x,1/2-y,-z
1/2-x,1/2+y,-z
-x,-y,-z
x,y,-z
1/2-x,1/2+y,z
1/2+x,1/2-y,z
loop_
_atom_site_type_symbol
_atom_site_label
_atom_site_fract_x
_atom_site_fract_y
_atom_site_fract_z
Si Si1 0.594562 0.281862 0.829768
Si Si2 0.476776 0.930994 0.822948
Si Si3 0.461654 0.597774 0.329958
Si Si4 0.356377 0.476472 0.669971
Si Si5 0.571578 0.807327 0.828687
Si Si6 0.719926 0.105539 0.175998
Si Si7 0.732070 0.734889 0.675959
O O1 0.544311 0.345928 0.787077
O O2 0.526037 0.224437 0.809072
O O3 0.679702 0.273674 0.722111
O O4 0.628990 0.285299 0.000000
O O5 0.555819 0.880718 0.781899
O O6 0.380717 0.906167 0.760321
O O7 0.500000 0.000000 0.754102
O O8 0.467507 0.936914 0.000000
O O9 0.460459 0.623390 0.500000
O O10 0.554553 0.563232 0.295020
O O11 0.377967 0.550134 0.304790
O O12 0.324501 0.464569 0.500000
O O13 0.278061 0.456247 0.783637
O O14 0.644254 0.774432 0.723359
O O15 0.604853 0.801801 0.000000
O O16 0.767009 0.165999 0.250549
O O17 0.719063 0.117186 0.000000
O O18 0.728850 0.726022 0.500000
#
# Coordination Sequence:
#
# PCOD8227254 Si02
#       7
#     8   8   8   8   8   8   8
#     4  11  22  38  60  87 118 154 197 251 303 355
#     4   9  19  38  63  88 118 155 195 245 306 363
#     4   9  19  36  56  82 120 160 197 242 297 359
#     4   9  19  36  57  83 118 159 198 240 296 358
#     4  10  21  40  63  89 122 157 200 255 307 362
#     4  11  21  37  60  89 119 154 204 251 303 368
#     4  12  25  39  60  88 119 159 203 249 309 371
#
# _framework density 19.982721000000002
#
# number of rings (size 3 to 8) (size 9 to 14) (size 15 to 20)
#    0.000    1.857    1.429    3.857    0.000    5.714 
#    0.000    2.857    0.000    3.000    0.000    0.000 
#    0.000    0.000    0.000    0.000    0.000    0.000 
#
# Total GULP energy -694489.119732 kJ/mol
# GULP energy per Si atom -12401.591424 kJ/mol
# Density = 1.993724 g / cm^3
# Si number density = 19.982721 Si / 1000 Ang^3
#
#
#
# Elastic Constant Matrix: (Units=GPa)
#
#
# Indices 1 2 3 4 5 6 
#
# 1 76.6267 27.0403 37.0857 0.0000 0.0000 0.0000
# 2 27.0403 115.1404 36.7130 0.0000 0.0000 0.0000
# 3 37.0857 36.7130 86.5919 0.0000 0.0000 0.0000
# 4 0.0000 0.0000 0.0000 27.9894 0.0000 0.0000
# 5 0.0000 0.0000 0.0000 0.0000 25.0656 0.0000
# 6 0.0000 0.0000 0.0000 0.0000 0.0000 30.2523
#
#
#
# Elastic Compliance Matrix: (Units=1/GPa)
#
#
# Indices 1 2 3 4 5 6 
#
# 1 0.016819 -0.001911 -0.006393 0.000000 0.000000 0.000000
# 2 -0.001911 0.010260 -0.003531 0.000000 0.000000 0.000000
# 3 -0.006393 -0.003531 0.015784 0.000000 0.000000 0.000000
# 4 0.000000 0.000000 0.000000 0.035728 0.000000 0.000000
# 5 0.000000 0.000000 0.000000 0.000000 0.039895 0.000000
# 6 0.000000 0.000000 0.000000 0.000000 0.000000 0.033055
#
#
# Mechanical properties :
#
#
# Convention : Reuss Voigt Hill
#
# Bulk Modulus (GPa) = 52.10742 53.33744 52.72243
# Shear Modulus (GPa) = 27.53171 28.49614 28.01393
#
# Velocity S-wave (km/s) = 3.71587 3.78039 3.74827
# Velocity P-wave (km/s) = 6.67406 6.76793 6.72116
#
# Compressibility (1/GPa) = 0.01919113
#
# Stress axis : x y z
#
# Youngs Moduli (GPa) = 59.45746 97.46654 63.35718
#
# Poissons Ratio (x) = 0.18630 0.40503
# Poissons Ratio (y) = 0.11365 0.22374
# Poissons Ratio (z) = 0.38010 0.34419
#
# Static dielectric constant tensor:
#      x y z
#    x 3.598940 0.000000 0.000000 
#    y 0.000000 3.808460 0.000000 
#    z 0.000000 0.000000 3.414690 
# 
# 
# High freq. dielectric constant tensor:
#      x y z
#    x 1.778470 0.000000 0.000000 
#    y 0.000000 1.789830 0.000000 
#    z 0.000000 0.000000 1.760530 
# 
# From -- ./inp_files/5979.got.cif
#   From: 2010.03.12/outbox.cif.g09.slc.cpg/sg55_3_cif.got.tgz:5979.got - 2010.04.16 15:19:21.
