data_PCOD8227528
_publ_section_title
;
Structure prediction by ZEFSAII (Michael W. Deem and Ramdas Pophale) SiO2 
 PCOD8227528
Probable space group: P B A M
;
_chemical_formula_sum "Si O2"
_cell_formula_units_Z 64
_cell_length_a 23.273193
_cell_length_b 15.147116
_cell_length_c 9.146116
_cell_angle_alpha 90.000000
_cell_angle_beta 90.000000
_cell_angle_gamma 90.000000
_cell_volume 3224.204855
_symmetry_space_group_name_H-M "P B A M"
_symmetry_group_IT_number 55
_symmetry_cell_setting 'orthorhombic'
loop_
_space_group_symop_operation_xyz
x,y,z
-x,-y,z
1/2+x,1/2-y,-z
1/2-x,1/2+y,-z
-x,-y,-z
x,y,-z
1/2-x,1/2+y,z
1/2+x,1/2-y,z
loop_
_atom_site_type_symbol
_atom_site_label
_atom_site_fract_x
_atom_site_fract_y
_atom_site_fract_z
Si Si1 0.013088 0.858086 0.667287
Si Si2 0.407127 0.519484 0.332489
Si Si3 0.206460 0.998142 0.170246
Si Si4 0.741350 0.166649 0.671558
Si Si5 0.398679 0.069879 0.166871
Si Si6 0.215477 0.663533 0.166870
Si Si7 0.114080 0.389830 0.671300
Si Si8 0.006418 0.314091 0.169849
O O1 0.012256 0.825696 0.500000
O O2 0.953682 0.906382 0.705654
O O3 0.021812 0.775769 0.773195
O O4 0.066274 0.923061 0.694356
O O5 0.386820 0.528824 0.500000
O O6 0.354250 0.535125 0.225140
O O7 0.221061 0.908533 0.253376
O O8 0.253903 0.071461 0.205133
O O9 0.202836 0.976377 0.000000
O O10 0.752250 0.160123 0.500000
O O11 0.762058 0.261619 0.725746
O O12 0.674547 0.155074 0.710972
O O13 0.352350 0.147688 0.192347
O O14 0.461917 0.106883 0.199628
O O15 0.386229 0.989884 0.274390
O O16 0.394482 0.035116 0.000000
O O17 0.228392 0.691840 0.000000
O O18 0.102376 0.389870 0.500000
O O19 0.065410 0.332026 0.747315
O O20 0.019994 0.304542 0.000000
#
# Coordination Sequence:
#
# PCOD8227528 Si02
#       8
#     8   8   8   8   8   8   8   8
#     4   9  20  40  61  86 120 160 201 246 300 354
#     4   9  20  39  62  86 121 161 198 246 301 356
#     4  11  23  40  65  94 124 162 204 252 308 367
#     4  11  25  42  63  92 124 163 208 253 306 366
#     4  10  22  43  64  87 120 157 197 247 303 359
#     4  10  23  42  64  91 125 163 203 251 308 366
#     4  11  24  42  63  89 120 157 201 249 302 362
#     4  11  24  38  61  91 120 155 200 250 302 358
#
# _framework density 19.849855999999999
#
# number of rings (size 3 to 8) (size 9 to 14) (size 15 to 20)
#    0.000    1.750    1.250    2.625    3.500    6.500 
#    0.000    1.250    0.000    0.000    0.000    0.000 
#    0.000    0.000    0.000    0.000    0.000    0.000 
#
# Total GULP energy -793954.465218 kJ/mol
# GULP energy per Si atom -12405.538519 kJ/mol
# Density = 1.980468 g / cm^3
# Si number density = 19.849856 Si / 1000 Ang^3
#
#
#
# Elastic Constant Matrix: (Units=GPa)
#
#
# Indices 1 2 3 4 5 6 
#
# 1 64.6435 -6.4816 24.5996 0.0000 0.0000 0.0000
# 2 -6.4816 64.8742 28.2111 0.0000 0.0000 0.0000
# 3 24.5996 28.2111 72.0253 0.0000 0.0000 0.0000
# 4 0.0000 0.0000 0.0000 37.7510 0.0000 0.0000
# 5 0.0000 0.0000 0.0000 0.0000 32.8492 0.0000
# 6 0.0000 0.0000 0.0000 0.0000 0.0000 21.9994
#
#
#
# Elastic Compliance Matrix: (Units=1/GPa)
#
#
# Indices 1 2 3 4 5 6 
#
# 1 0.019449 0.005824 -0.008924 0.000000 0.000000 0.000000
# 2 0.005824 0.020323 -0.009949 0.000000 0.000000 0.000000
# 3 -0.008924 -0.009949 0.020829 0.000000 0.000000 0.000000
# 4 0.000000 0.000000 0.000000 0.026489 0.000000 0.000000
# 5 0.000000 0.000000 0.000000 0.000000 0.030442 0.000000
# 6 0.000000 0.000000 0.000000 0.000000 0.000000 0.045456
#
#
# Mechanical properties :
#
#
# Convention : Reuss Voigt Hill
#
# Bulk Modulus (GPa) = 28.98343 32.68902 30.83623
# Shear Modulus (GPa) = 24.92678 28.86750 26.89714
#
# Velocity S-wave (km/s) = 3.54752 3.81766 3.68507
# Velocity P-wave (km/s) = 5.60472 5.99471 5.80299
#
# Compressibility (1/GPa) = 0.03450247
#
# Stress axis : x y z
#
# Youngs Moduli (GPa) = 51.41579 49.20585 48.01046
#
# Poissons Ratio (x) = -0.28656 0.42844
# Poissons Ratio (y) = -0.29943 0.47766
# Poissons Ratio (z) = 0.45883 0.48956
#
# Static dielectric constant tensor:
#      x y z
#    x 3.707340 0.000000 0.000000 
#    y 0.000000 3.490230 0.000000 
#    z 0.000000 0.000000 3.599320 
# 
# 
# High freq. dielectric constant tensor:
#      x y z
#    x 1.786280 0.000000 0.000000 
#    y 0.000000 1.775580 0.000000 
#    z 0.000000 0.000000 1.776360 
# 
# From -- ./inp_files/9639.got.cif
#   From: 2010.03.12/outbox.cif.g09.slc.cpg/sg55_5_cif.got.tgz:9639.got - 2010.04.16 15:19:21.
