data_PCOD8227186
_publ_section_title
;
Structure prediction by ZEFSAII (Michael W. Deem and Ramdas Pophale) SiO2 
 PCOD8227186
Probable space group: P B A M
;
_chemical_formula_sum "Si O2"
_cell_formula_units_Z 64
_cell_length_a 24.643443
_cell_length_b 14.901945
_cell_length_c 8.887323
_cell_angle_alpha 90.000000
_cell_angle_beta 90.000000
_cell_angle_gamma 90.000000
_cell_volume 3263.738126
_symmetry_space_group_name_H-M "P B A M"
_symmetry_group_IT_number 55
_symmetry_cell_setting 'orthorhombic'
loop_
_space_group_symop_operation_xyz
x,y,z
-x,-y,z
1/2+x,1/2-y,-z
1/2-x,1/2+y,-z
-x,-y,-z
x,y,-z
1/2-x,1/2+y,z
1/2+x,1/2-y,z
loop_
_atom_site_type_symbol
_atom_site_label
_atom_site_fract_x
_atom_site_fract_y
_atom_site_fract_z
Si Si1 0.602690 0.494511 0.323677
Si Si2 0.277056 0.471893 0.670078
Si Si3 0.763244 0.234120 0.669280
Si Si4 0.554601 0.322537 0.177676
Si Si5 0.858479 0.694823 0.323629
Si Si6 0.167683 0.484703 0.171885
Si Si7 0.358405 0.182375 0.171626
Si Si8 0.940925 0.188135 0.323051
O O1 0.592493 0.480090 0.500000
O O2 0.666274 0.481413 0.284571
O O3 0.568038 0.421876 0.234791
O O4 0.582810 0.592327 0.272195
O O5 0.260376 0.498114 0.500000
O O6 0.286862 0.365804 0.679937
O O7 0.229780 0.504165 0.780129
O O8 0.770549 0.271133 0.500000
O O9 0.700209 0.236151 0.715204
O O10 0.796366 0.295997 0.783433
O O11 0.597625 0.250387 0.233735
O O12 0.496450 0.292219 0.237621
O O13 0.553987 0.322617 0.000000
O O14 0.870858 0.700077 0.500000
O O15 0.860163 0.590875 0.274441
O O16 0.133069 0.575648 0.189728
O O17 0.168073 0.451585 0.000000
O O18 0.399307 0.233400 0.280867
O O19 0.368245 0.212450 0.000000
O O20 0.951328 0.190960 0.500000
#
# Coordination Sequence:
#
# PCOD8227186 Si02
#       8
#     8   8   8   8   8   8   8   8
#     4  10  21  39  61  88 121 162 206 248 293 353
#     4   9  18  35  57  85 119 159 203 244 289 349
#     4   9  18  35  58  85 116 155 200 244 293 349
#     4  12  26  41  61  90 123 158 199 252 313 365
#     4  10  22  42  64  87 117 160 209 253 298 356
#     4  10  22  38  57  88 127 162 196 248 311 362
#     4  11  23  37  58  90 126 159 197 246 307 363
#     4  11  23  43  66  87 118 160 209 253 295 353
#
# _framework density 19.609417000000001
#
# number of rings (size 3 to 8) (size 9 to 14) (size 15 to 20)
#    0.000    1.750    1.250    3.750    1.750    7.500 
#    0.000    0.625    0.000    3.750    0.000    0.000 
#    0.000    0.000    0.000    0.000    0.000    0.000 
#
# Total GULP energy -793837.776320 kJ/mol
# GULP energy per Si atom -12403.715255 kJ/mol
# Density = 1.956479 g / cm^3
# Si number density = 19.609417 Si / 1000 Ang^3
#
#
#
# Elastic Constant Matrix: (Units=GPa)
#
#
# Indices 1 2 3 4 5 6 
#
# 1 98.1733 49.9413 45.8776 0.0000 0.0000 0.0000
# 2 49.9413 69.4958 35.7657 0.0000 0.0000 0.0000
# 3 45.8776 35.7657 88.2572 0.0000 0.0000 0.0000
# 4 0.0000 0.0000 0.0000 31.6332 0.0000 0.0000
# 5 0.0000 0.0000 0.0000 0.0000 23.8663 0.0000
# 6 0.0000 0.0000 0.0000 0.0000 0.0000 24.0637
#
#
#
# Elastic Compliance Matrix: (Units=1/GPa)
#
#
# Indices 1 2 3 4 5 6 
#
# 1 0.017713 -0.010096 -0.005116 0.000000 0.000000 0.000000
# 2 -0.010096 0.023935 -0.004452 0.000000 0.000000 0.000000
# 3 -0.005116 -0.004452 0.015794 0.000000 0.000000 0.000000
# 4 0.000000 0.000000 0.000000 0.031612 0.000000 0.000000
# 5 0.000000 0.000000 0.000000 0.000000 0.041900 0.000000
# 6 0.000000 0.000000 0.000000 0.000000 0.000000 0.041556
#
#
# Mechanical properties :
#
#
# Convention : Reuss Voigt Hill
#
# Bulk Modulus (GPa) = 55.20313 57.67727 56.44020
# Shear Modulus (GPa) = 22.94880 24.20210 23.57545
#
# Velocity S-wave (km/s) = 3.42467 3.51694 3.47111
# Velocity P-wave (km/s) = 6.62195 6.78002 6.70145
#
# Compressibility (1/GPa) = 0.01811492
#
# Stress axis : x y z
#
# Youngs Moduli (GPa) = 56.45692 41.77895 63.31518
#
# Poissons Ratio (x) = 0.42179 0.32393
# Poissons Ratio (y) = 0.56997 0.28187
# Poissons Ratio (z) = 0.28884 0.18599
#
# Static dielectric constant tensor:
#      x y z
#    x 3.554990 0.000000 0.000000 
#    y 0.000000 3.513860 0.000000 
#    z 0.000000 0.000000 3.557060 
# 
# 
# High freq. dielectric constant tensor:
#      x y z
#    x 1.758990 0.000000 0.000000 
#    y 0.000000 1.764020 0.000000 
#    z 0.000000 0.000000 1.765580 
# 
# From -- ./inp_files/9825.got.cif
#   From: 2010.03.12/outbox.cif.g09.slc.cpg/sg55_5_cif.got.tgz:9825.got - 2010.04.16 15:19:21.
