data_PCOD8227992
_publ_section_title
;
Structure prediction by ZEFSAII (Michael W. Deem and Ramdas Pophale) SiO2 
 PCOD8227992
Probable space group: P C C N
;
_chemical_formula_sum "Si O2"
_cell_formula_units_Z 48
_cell_length_a 11.109302
_cell_length_b 9.189808
_cell_length_c 21.551717
_cell_angle_alpha 90.000000
_cell_angle_beta 90.000000
_cell_angle_gamma 90.000000
_cell_volume 2200.265487
_symmetry_space_group_name_H-M "P C C N"
_symmetry_group_IT_number 56
_symmetry_cell_setting 'orthorhombic'
loop_
_space_group_symop_operation_xyz
x,y,z
1/2-x,1/2-y,z
1/2+x,-y,1/2-z
-x,1/2+y,1/2-z
-x,-y,-z
1/2+x,1/2+y,-z
1/2-x,y,1/2+z
x,1/2-y,1/2+z
loop_
_atom_site_type_symbol
_atom_site_label
_atom_site_fract_x
_atom_site_fract_y
_atom_site_fract_z
Si Si1 0.484614 0.891004 0.442778
Si Si2 0.586363 0.179077 0.960324
Si Si3 0.574693 0.848133 0.143333
Si Si4 0.796729 0.457477 0.406085
Si Si5 0.178955 0.031709 0.842636
Si Si6 0.834665 0.115068 0.285025
O O1 0.449563 0.733168 0.470939
O O2 0.500000 0.000000 0.500000
O O3 0.618051 0.899163 0.411712
O O4 0.379177 0.926419 0.394393
O O5 0.471639 0.110131 0.926050
O O6 0.623220 0.310362 0.912020
O O7 0.696050 0.061191 0.961285
O O8 0.675470 0.970750 0.156089
O O9 0.632972 0.690786 0.142783
O O10 0.469213 0.845944 0.194060
O O11 0.732939 0.472269 0.339754
O O12 0.141770 0.985249 0.774038
O O13 0.750000 0.250000 0.265729
#
# Coordination Sequence:
#
# PCOD8227992 Si02
#       6
#     8   8   8   8   8   8
#     4  10  18  35  61  86 113 155 210 248 296 361
#     4   9  16  34  62  83 110 155 205 241 296 372
#     4  10  21  38  60  90 120 160 206 249 310 360
#     4   9  16  33  59  85 108 161 204 233 305 367
#     4  11  23  35  61  93 122 156 204 267 300 356
#     4  11  21  38  62  88 125 169 205 241 313 380
#
# _framework density 21.815546999999999
#
# number of rings (size 3 to 8) (size 9 to 14) (size 15 to 20)
#    0.000    2.000    6.667    0.000    4.667    0.000 
#    6.000    0.000    0.000   35.000    0.000    0.000 
#    0.000    0.000    0.000    0.000    0.000    0.000 
#
# Total GULP energy -594692.336026 kJ/mol
# GULP energy per Si atom -12389.423667 kJ/mol
# Density = 2.176589 g / cm^3
# Si number density = 21.815547 Si / 1000 Ang^3
#
#
#
# Elastic Constant Matrix: (Units=GPa)
#
#
# Indices 1 2 3 4 5 6 
#
# 1 160.7114 35.2964 50.7679 0.0000 0.0000 0.0000
# 2 35.2964 29.1715 22.1655 0.0000 0.0000 0.0000
# 3 50.7679 22.1655 102.5055 0.0000 0.0000 0.0000
# 4 0.0000 0.0000 0.0000 23.4489 0.0000 0.0000
# 5 0.0000 0.0000 0.0000 0.0000 29.9057 0.0000
# 6 0.0000 0.0000 0.0000 0.0000 0.0000 17.4165
#
#
#
# Elastic Compliance Matrix: (Units=1/GPa)
#
#
# Indices 1 2 3 4 5 6 
#
# 1 0.008984 -0.008962 -0.002512 0.000000 0.000000 0.000000
# 2 -0.008962 0.049960 -0.006365 0.000000 0.000000 0.000000
# 3 -0.002512 -0.006365 0.012376 0.000000 0.000000 0.000000
# 4 0.000000 0.000000 0.000000 0.042646 0.000000 0.000000
# 5 0.000000 0.000000 0.000000 0.000000 0.033438 0.000000
# 6 0.000000 0.000000 0.000000 0.000000 0.000000 0.057417
#
#
# Mechanical properties :
#
#
# Convention : Reuss Voigt Hill
#
# Bulk Modulus (GPa) = 28.05579 56.53868 42.29723
# Shear Modulus (GPa) = 19.81156 26.43147 23.12152
#
# Velocity S-wave (km/s) = 3.01680 3.48456 3.25909
# Velocity P-wave (km/s) = 5.00232 6.49327 5.79594
#
# Compressibility (1/GPa) = 0.03564327
#
# Stress axis : x y z
#
# Youngs Moduli (GPa) = 111.30884 20.01611 80.80313
#
# Poissons Ratio (x) = 0.17938 0.20295
# Poissons Ratio (y) = 0.99754 0.51428
# Poissons Ratio (z) = 0.27956 0.12739
#
# Static dielectric constant tensor:
#      x y z
#    x 4.756660 0.000000 0.000000 
#    y 0.000000 3.657810 0.000000 
#    z 0.000000 0.000000 3.920310 
# 
# 
# High freq. dielectric constant tensor:
#      x y z
#    x 1.883180 0.000000 0.000000 
#    y 0.000000 1.804410 0.000000 
#    z 0.000000 0.000000 1.851130 
# 
# From -- ./inp_files/15592.got.cif
#   From: 2010.03.12/outbox.cif.g09.slc.cpg/sg56_8_cif.got.tgz:15592.got - 2010.04.16 15:33:40.
