data_PCOD8227685
_publ_section_title
;
Structure prediction by ZEFSAII (Michael W. Deem and Ramdas Pophale) SiO2 
 PCOD8227685
Probable space group: P B A M
;
_chemical_formula_sum "Si O2"
_cell_formula_units_Z 40
_cell_length_a 14.032330
_cell_length_b 10.090873
_cell_length_c 13.093823
_cell_angle_alpha 90.000000
_cell_angle_beta 90.000000
_cell_angle_gamma 90.000000
_cell_volume 1854.065171
_symmetry_space_group_name_H-M "P B A M"
_symmetry_group_IT_number 55
_symmetry_cell_setting 'orthorhombic'
loop_
_space_group_symop_operation_xyz
x,y,z
-x,-y,z
1/2+x,1/2-y,-z
1/2-x,1/2+y,-z
-x,-y,-z
x,y,-z
1/2-x,1/2+y,z
1/2+x,1/2-y,z
loop_
_atom_site_type_symbol
_atom_site_label
_atom_site_fract_x
_atom_site_fract_y
_atom_site_fract_z
Si Si1 0.261149 0.854987 0.883218
Si Si2 0.060461 0.125185 0.614754
Si Si3 0.946490 0.361210 0.317002
Si Si4 0.517144 0.153926 0.107455
Si Si5 0.246121 0.113691 0.750572
O O1 0.371964 0.824644 0.879445
O O2 0.219021 0.723172 0.832240
O O3 0.231849 0.978436 0.812749
O O4 0.224971 0.875494 0.000000
O O5 0.097970 0.097142 0.500000
O O6 0.150496 0.149438 0.688759
O O7 0.990958 0.253526 0.606648
O O8 0.000000 0.000000 0.655167
O O9 0.833931 0.391695 0.330962
O O10 0.000000 0.500000 0.330219
O O11 0.962364 0.291705 0.205627
O O12 0.500000 0.000000 0.099819
O O13 0.482308 0.221237 0.000000
#
# Coordination Sequence:
#
# PCOD8227685 Si02
#       5
#     8   8   8   8   8
#     4  11  22  36  61  95 131 168 207 252 307 377
#     4  11  26  46  64  89 128 166 204 263 330 375
#     4  11  21  41  66  93 119 159 215 266 304 364
#     4   9  16  32  58  87 123 162 199 242 301 364
#     4  12  22  41  67  92 127 169 211 255 315 377
#
# _framework density 21.574214999999999
#
# number of rings (size 3 to 8) (size 9 to 14) (size 15 to 20)
#    0.000    1.200    6.000    1.800    0.000    2.000 
#    0.000    5.000    0.000    3.000    0.000    0.000 
#    0.000    0.000    0.000    0.000    0.000    0.000 
#
# Total GULP energy -495617.881241 kJ/mol
# GULP energy per Si atom -12390.447031 kJ/mol
# Density = 2.152511 g / cm^3
# Si number density = 21.574215 Si / 1000 Ang^3
#
#
#
# Elastic Constant Matrix: (Units=GPa)
#
#
# Indices 1 2 3 4 5 6 
#
# 1 97.0346 25.2763 19.5713 0.0000 0.0000 0.0000
# 2 25.2763 110.4054 20.4367 0.0000 0.0000 0.0000
# 3 19.5713 20.4367 84.6248 0.0000 0.0000 0.0000
# 4 0.0000 0.0000 0.0000 24.0016 0.0000 0.0000
# 5 0.0000 0.0000 0.0000 0.0000 18.2933 0.0000
# 6 0.0000 0.0000 0.0000 0.0000 0.0000 24.6320
#
#
#
# Elastic Compliance Matrix: (Units=1/GPa)
#
#
# Indices 1 2 3 4 5 6 
#
# 1 0.011299 -0.002201 -0.002081 0.000000 0.000000 0.000000
# 2 -0.002201 0.009910 -0.001884 0.000000 0.000000 0.000000
# 3 -0.002081 -0.001884 0.012753 0.000000 0.000000 0.000000
# 4 0.000000 0.000000 0.000000 0.041664 0.000000 0.000000
# 5 0.000000 0.000000 0.000000 0.000000 0.054665 0.000000
# 6 0.000000 0.000000 0.000000 0.000000 0.000000 0.040598
#
#
# Mechanical properties :
#
#
# Convention : Reuss Voigt Hill
#
# Bulk Modulus (GPa) = 46.23587 46.95927 46.59757
# Shear Modulus (GPa) = 26.25604 28.50408 27.38006
#
# Velocity S-wave (km/s) = 3.49235 3.63879 3.56632
# Velocity P-wave (km/s) = 6.14326 6.28236 6.21320
#
# Compressibility (1/GPa) = 0.02162823
#
# Stress axis : x y z
#
# Youngs Moduli (GPa) = 88.50438 100.90505 78.41121
#
# Poissons Ratio (x) = 0.22214 0.16321
# Poissons Ratio (y) = 0.19484 0.14774
# Poissons Ratio (z) = 0.18422 0.19012
#
# Static dielectric constant tensor:
#      x y z
#    x 3.862580 0.000000 0.000000 
#    y 0.000000 3.673480 0.000000 
#    z 0.000000 0.000000 4.837010 
# 
# 
# High freq. dielectric constant tensor:
#      x y z
#    x 1.850000 0.000000 0.000000 
#    y 0.000000 1.834240 0.000000 
#    z 0.000000 0.000000 1.843470 
# 
# From -- ./inp_files/17059.got.cif
#   From: 2010.03.12/outbox.cif.g09.slc.cpg/sg55_9_cif.got.tgz:17059.got - 2010.04.16 15:19:21.
