data_PCOD8227487
_publ_section_title
;
Structure prediction by ZEFSAII (Michael W. Deem and Ramdas Pophale) SiO2 
 PCOD8227487
Probable space group: P B A M
;
_chemical_formula_sum "Si O2"
_cell_formula_units_Z 64
_cell_length_a 9.565648
_cell_length_b 17.180419
_cell_length_c 19.373120
_cell_angle_alpha 90.000000
_cell_angle_beta 90.000000
_cell_angle_gamma 90.000000
_cell_volume 3183.814200
_symmetry_space_group_name_H-M "P B A M"
_symmetry_group_IT_number 55
_symmetry_cell_setting 'orthorhombic'
loop_
_space_group_symop_operation_xyz
x,y,z
-x,-y,z
1/2+x,1/2-y,-z
1/2-x,1/2+y,-z
-x,-y,-z
x,y,-z
1/2-x,1/2+y,z
1/2+x,1/2-y,z
loop_
_atom_site_type_symbol
_atom_site_label
_atom_site_fract_x
_atom_site_fract_y
_atom_site_fract_z
Si Si1 0.060639 0.669514 0.421002
Si Si2 0.711296 0.657283 0.777136
Si Si3 0.833766 0.820383 0.925904
Si Si4 0.342606 0.333875 0.074605
Si Si5 0.457993 0.588637 0.704229
Si Si6 0.614986 0.322728 0.422197
Si Si7 0.280046 0.159834 0.213954
Si Si8 0.974727 0.589086 0.286651
O O1 0.039271 0.639850 0.500000
O O2 0.221469 0.692222 0.407319
O O3 0.965182 0.743567 0.405327
O O4 0.013012 0.603769 0.366923
O O5 0.706714 0.621211 0.855756
O O6 0.560115 0.647443 0.743421
O O7 0.751350 0.748421 0.777952
O O8 0.814264 0.608841 0.728454
O O9 0.758506 0.738581 0.931988
O O10 0.761450 0.868007 0.863543
O O11 0.998168 0.806459 0.911660
O O12 0.814941 0.864528 0.000000
O O13 0.333099 0.379865 0.000000
O O14 0.500000 0.500000 0.716070
O O15 0.450887 0.608217 0.623164
O O16 0.304712 0.606077 0.733214
O O17 0.589306 0.349798 0.500000
O O18 0.440369 0.142600 0.232300
O O19 0.000000 0.500000 0.269519
#
# Coordination Sequence:
#
# PCOD8227487 Si02
#       8
#     8   8   8   8   8   8   8   8
#     4  10  22  42  66  91 120 155 200 247 296 357
#     4  11  23  38  64  91 116 161 203 249 296 356
#     4   9  18  32  56  89 120 151 197 257 305 346
#     4   9  18  33  55  88 121 151 198 255 304 347
#     4  12  24  39  60  89 124 158 196 248 300 352
#     4  10  22  41  65  92 120 155 199 247 297 355
#     4  11  21  40  62  88 119 156 206 249 297 356
#     4  12  26  41  60  90 126 161 198 247 305 357
#
# _framework density 20.101676000000001
#
# number of rings (size 3 to 8) (size 9 to 14) (size 15 to 20)
#    0.000    1.500    2.500    3.000    7.000    0.500 
#    0.000    0.000    0.000    4.500    0.000    0.000 
#    0.000    0.000    0.000    0.000    0.000    0.000 
#
# Total GULP energy -793229.310589 kJ/mol
# GULP energy per Si atom -12394.207978 kJ/mol
# Density = 2.005592 g / cm^3
# Si number density = 20.101676 Si / 1000 Ang^3
#
#
#
# Elastic Constant Matrix: (Units=GPa)
#
#
# Indices 1 2 3 4 5 6 
#
# 1 67.6886 13.6810 32.5843 0.0000 0.0000 0.0000
# 2 13.6810 53.4307 38.5893 0.0000 0.0000 0.0000
# 3 32.5843 38.5893 145.5202 0.0000 0.0000 0.0000
# 4 0.0000 0.0000 0.0000 9.0264 0.0000 0.0000
# 5 0.0000 0.0000 0.0000 0.0000 9.1299 0.0000
# 6 0.0000 0.0000 0.0000 0.0000 0.0000 20.4440
#
#
#
# Elastic Compliance Matrix: (Units=1/GPa)
#
#
# Indices 1 2 3 4 5 6 
#
# 1 0.016721 -0.001951 -0.003227 0.000000 0.000000 0.000000
# 2 -0.001951 0.023377 -0.005762 0.000000 0.000000 0.000000
# 3 -0.003227 -0.005762 0.009122 0.000000 0.000000 0.000000
# 4 0.000000 0.000000 0.000000 0.110787 0.000000 0.000000
# 5 0.000000 0.000000 0.000000 0.000000 0.109531 0.000000
# 6 0.000000 0.000000 0.000000 0.000000 0.000000 0.048914
#
#
# Mechanical properties :
#
#
# Convention : Reuss Voigt Hill
#
# Bulk Modulus (GPa) = 36.57563 48.48316 42.52939
# Shear Modulus (GPa) = 14.30836 19.83904 17.07370
#
# Velocity S-wave (km/s) = 2.67085 3.14496 2.91755
# Velocity P-wave (km/s) = 5.26745 6.11220 5.70548
#
# Compressibility (1/GPa) = 0.02734061
#
# Stress axis : x y z
#
# Youngs Moduli (GPa) = 59.80434 42.77687 109.61921
#
# Poissons Ratio (x) = 0.08346 0.35372
# Poissons Ratio (y) = 0.11668 0.63166
# Poissons Ratio (z) = 0.19298 0.24649
#
# Static dielectric constant tensor:
#      x y z
#    x 3.788060 0.000000 0.000000 
#    y 0.000000 3.083790 0.000000 
#    z 0.000000 0.000000 4.370260 
# 
# 
# High freq. dielectric constant tensor:
#      x y z
#    x 1.800560 0.000000 0.000000 
#    y 0.000000 1.730500 0.000000 
#    z 0.000000 0.000000 1.812710 
# 
# From -- ./inp_files/22719.got.cif
#   From: 2010.03.12/outbox.cif.g09.slc.cpg/sg55_12_cif.got.tgz:22719.got - 2010.04.16 15:19:21.
