data_PCOD8227071
_publ_section_title
;
Structure prediction by ZEFSAII (Michael W. Deem and Ramdas Pophale) SiO2 
 PCOD8227071
Probable space group: P B A M
;
_chemical_formula_sum "Si O2"
_cell_formula_units_Z 40
_cell_length_a 18.479775
_cell_length_b 5.201880
_cell_length_c 18.169414
_cell_angle_alpha 90.000000
_cell_angle_beta 90.000000
_cell_angle_gamma 90.000000
_cell_volume 1746.617991
_symmetry_space_group_name_H-M "P B A M"
_symmetry_group_IT_number 55
_symmetry_cell_setting 'orthorhombic'
loop_
_space_group_symop_operation_xyz
x,y,z
-x,-y,z
1/2+x,1/2-y,-z
1/2-x,1/2+y,-z
-x,-y,-z
x,y,-z
1/2-x,1/2+y,z
1/2+x,1/2-y,z
loop_
_atom_site_type_symbol
_atom_site_label
_atom_site_fract_x
_atom_site_fract_y
_atom_site_fract_z
Si Si1 0.216895 0.904823 0.915956
Si Si2 0.586530 0.512309 0.296735
Si Si3 0.295704 0.431652 0.414243
Si Si4 0.067745 0.159114 0.083382
Si Si5 0.418469 0.987263 0.217320
O O1 0.262368 0.135816 0.876554
O O2 0.132401 0.956761 0.912415
O O3 0.245150 0.876056 0.000000
O O4 0.500000 0.500000 0.309920
O O5 0.626966 0.559665 0.373494
O O6 0.617594 0.249336 0.261532
O O7 0.613485 0.734387 0.238778
O O8 0.314893 0.436334 0.500000
O O9 0.246372 0.673407 0.391994
O O10 0.083706 0.417822 0.129811
O O11 0.052371 0.249001 0.000000
O O12 0.000000 0.000000 0.117339
O O13 0.500000 0.000000 0.245483
#
# Coordination Sequence:
#
# PCOD8227071 Si02
#       5
#     8   8   8   8   8
#     4   9  19  36  54  74 106 143 178 228 296 359
#     4  10  21  39  62  86 119 165 208 244 291 360
#     4  10  21  39  64  96 133 164 194 245 304 352
#     4  10  21  38  62  89 116 154 208 263 315 373
#     4  10  21  38  58  84 120 158 200 256 312 353
#
# _framework density 22.901401
#
# number of rings (size 3 to 8) (size 9 to 14) (size 15 to 20)
#    0.000    2.200    0.000    3.000    0.000    4.000 
#    0.000   13.000    0.000    7.800    0.000    0.000 
#    0.000    0.000    0.000    0.000    0.000    0.000 
#
# Total GULP energy -495836.082093 kJ/mol
# GULP energy per Si atom -12395.902052 kJ/mol
# Density = 2.284928 g / cm^3
# Si number density = 22.901401 Si / 1000 Ang^3
#
#
#
# Elastic Constant Matrix: (Units=GPa)
#
#
# Indices 1 2 3 4 5 6 
#
# 1 75.2513 29.1791 32.3724 0.0000 0.0000 0.0000
# 2 29.1791 155.5873 33.2557 0.0000 0.0000 0.0000
# 3 32.3724 33.2557 98.1027 0.0000 0.0000 0.0000
# 4 0.0000 0.0000 0.0000 17.8361 0.0000 0.0000
# 5 0.0000 0.0000 0.0000 0.0000 6.7498 0.0000
# 6 0.0000 0.0000 0.0000 0.0000 0.0000 22.2473
#
#
#
# Elastic Compliance Matrix: (Units=1/GPa)
#
#
# Indices 1 2 3 4 5 6 
#
# 1 0.016058 -0.002026 -0.004612 0.000000 0.000000 0.000000
# 2 -0.002026 0.007185 -0.001767 0.000000 0.000000 0.000000
# 3 -0.004612 -0.001767 0.012314 0.000000 0.000000 0.000000
# 4 0.000000 0.000000 0.000000 0.056066 0.000000 0.000000
# 5 0.000000 0.000000 0.000000 0.000000 0.148152 0.000000
# 6 0.000000 0.000000 0.000000 0.000000 0.000000 0.044949
#
#
# Mechanical properties :
#
#
# Convention : Reuss Voigt Hill
#
# Bulk Modulus (GPa) = 53.34092 57.61730 55.47911
# Shear Modulus (GPa) = 16.24512 24.97559 20.61035
#
# Velocity S-wave (km/s) = 2.66625 3.30596 3.00319
# Velocity P-wave (km/s) = 5.72893 6.30761 6.02522
#
# Compressibility (1/GPa) = 0.01874733
#
# Stress axis : x y z
#
# Youngs Moduli (GPa) = 62.27232 139.18107 81.20547
#
# Poissons Ratio (x) = 0.28195 0.37455
# Poissons Ratio (y) = 0.12615 0.14350
# Poissons Ratio (z) = 0.28722 0.24595
#
# Static dielectric constant tensor:
#      x y z
#    x 3.941510 0.000000 0.000000 
#    y 0.000000 4.686530 0.000000 
#    z 0.000000 0.000000 3.825930 
# 
# 
# High freq. dielectric constant tensor:
#      x y z
#    x 1.890790 0.000000 0.000000 
#    y 0.000000 1.929280 0.000000 
#    z 0.000000 0.000000 1.870900 
# 
# From -- ./inp_files/20335.got.cif
#   From: 2010.03.12/outbox.cif.g09.slc.cpg/sg55_11_cif.got.tgz:20335.got - 2010.04.16 15:19:21.
