data_PCOD8227807
_publ_section_title
;
Structure prediction by ZEFSAII (Michael W. Deem and Ramdas Pophale) SiO2 
 PCOD8227807
Probable space group: P B A M
;
_chemical_formula_sum "Si O2"
_cell_formula_units_Z 40
_cell_length_a 19.910506
_cell_length_b 8.602607
_cell_length_c 10.849727
_cell_angle_alpha 90.000000
_cell_angle_beta 90.000000
_cell_angle_gamma 90.000000
_cell_volume 1858.365742
_symmetry_space_group_name_H-M "P B A M"
_symmetry_group_IT_number 55
_symmetry_cell_setting 'orthorhombic'
loop_
_space_group_symop_operation_xyz
x,y,z
-x,-y,z
1/2+x,1/2-y,-z
1/2-x,1/2+y,-z
-x,-y,-z
x,y,-z
1/2-x,1/2+y,z
1/2+x,1/2-y,z
loop_
_atom_site_type_symbol
_atom_site_label
_atom_site_fract_x
_atom_site_fract_y
_atom_site_fract_z
Si Si1 0.208765 0.240043 0.500000
Si Si2 0.310211 0.587486 0.755061
Si Si3 0.688708 0.087142 0.860592
Si Si4 0.433874 0.407954 0.856073
Si Si5 0.346000 0.089853 0.500000
Si Si6 0.930056 0.421603 0.257442
O O1 0.178465 0.155449 0.380794
O O2 0.188039 0.419912 0.500000
O O3 0.289437 0.224282 0.500000
O O4 0.307027 0.727318 0.852543
O O5 0.240662 0.492046 0.765178
O O6 0.370720 0.472260 0.781988
O O7 0.613540 0.037259 0.826615
O O8 0.706257 0.037270 0.000000
O O9 0.500000 0.500000 0.815695
O O10 0.444727 0.229955 0.822483
O O11 0.419054 0.425938 0.000000
O O12 0.391928 0.119173 0.617701
O O13 0.000000 0.500000 0.292497
#
# Coordination Sequence:
#
# PCOD8227807 Si02
#       6
#     4   8   8   8   4   8
#     4  12  24  46  74 100 135 182 227 290 338 408
#     4  12  24  44  69 102 140 177 237 287 349 411
#     4  12  24  41  69 102 140 183 229 288 347 411
#     4  11  26  47  71 102 141 185 233 286 349 422
#     4  12  27  48  70 105 139 179 237 287 349 410
#     4  12  26  46  70 100 141 185 232 289 346 414
#
# _framework density 21.524289
#
# number of rings (size 3 to 8) (size 9 to 14) (size 15 to 20)
#    0.000    0.200    4.000    5.100    2.800    3.200 
#    0.000    1.000    0.000    0.000    0.000    0.000 
#    0.000    0.000    0.000    0.000    0.000    0.000 
#
# Total GULP energy -496359.907462 kJ/mol
# GULP energy per Si atom -12408.997687 kJ/mol
# Density = 2.147530 g / cm^3
# Si number density = 21.524289 Si / 1000 Ang^3
#
#
#
# Elastic Constant Matrix: (Units=GPa)
#
#
# Indices 1 2 3 4 5 6 
#
# 1 134.1486 33.0252 19.0967 0.0000 0.0000 0.0000
# 2 33.0252 73.9688 -10.0624 0.0000 0.0000 0.0000
# 3 19.0967 -10.0624 84.8447 0.0000 0.0000 0.0000
# 4 0.0000 0.0000 0.0000 29.5346 0.0000 0.0000
# 5 0.0000 0.0000 0.0000 0.0000 -19.4443 0.0000
# 6 0.0000 0.0000 0.0000 0.0000 0.0000 41.5810
#
#
#
# Elastic Compliance Matrix: (Units=1/GPa)
#
#
# Indices 1 2 3 4 5 6 
#
# 1 0.008870 -0.004301 -0.002507 0.000000 0.000000 0.000000
# 2 -0.004301 0.015827 0.002845 0.000000 0.000000 0.000000
# 3 -0.002507 0.002845 0.012688 0.000000 0.000000 0.000000
# 4 0.000000 0.000000 0.000000 0.033859 0.000000 0.000000
# 5 0.000000 0.000000 0.000000 0.000000 -0.051429 0.000000
# 6 0.000000 0.000000 0.000000 0.000000 0.000000 0.024049
#
#
# Mechanical properties :
#
#
# Convention : Reuss Voigt Hill
#
# Bulk Modulus (GPa) = 33.94529 41.89789 37.92159
# Shear Modulus (GPa) = 81.15686 27.06109 54.10897
#
# Velocity S-wave (km/s) = 6.14708 3.54960 5.01928
# Velocity P-wave (km/s) = 8.13555 6.02554 7.15871
#
# Compressibility (1/GPa) = 0.02945917
#
# Stress axis : x y z
#
# Youngs Moduli (GPa) = 112.73764 63.18446 78.81557
#
# Poissons Ratio (x) = 0.27177 0.19756
# Poissons Ratio (y) = 0.48492 -0.22424
# Poissons Ratio (z) = 0.28259 -0.17977
#
# Static dielectric constant tensor:
#      x y z
#    x 3.893310 0.000000 0.000000 
#    y 0.000000 3.909000 0.000000 
#    z 0.000000 0.000000 3.933960 
# 
# 
# High freq. dielectric constant tensor:
#      x y z
#    x 1.849520 0.000000 0.000000 
#    y 0.000000 1.855840 0.000000 
#    z 0.000000 0.000000 1.858820 
# 
# From -- ./inp_files/14681.got.cif
#   From: 2010.03.12/outbox.cif.g09.slc.cpg/sg55_8_cif.got.tgz:14681.got - 2010.04.16 15:19:21.
