data_PCOD8227979
_publ_section_title
;
Structure prediction by ZEFSAII (Michael W. Deem and Ramdas Pophale) SiO2 
 PCOD8227979
Probable space group: P C C N
;
_chemical_formula_sum "Si O2"
_cell_formula_units_Z 60
_cell_length_a 14.839549
_cell_length_b 8.424419
_cell_length_c 23.610965
_cell_angle_alpha 90.000000
_cell_angle_beta 90.000000
_cell_angle_gamma 90.000000
_cell_volume 2951.714839
_symmetry_space_group_name_H-M "P C C N"
_symmetry_group_IT_number 56
_symmetry_cell_setting 'orthorhombic'
loop_
_space_group_symop_operation_xyz
x,y,z
1/2-x,1/2-y,z
1/2+x,-y,1/2-z
-x,1/2+y,1/2-z
-x,-y,-z
1/2+x,1/2+y,-z
1/2-x,y,1/2+z
x,1/2-y,1/2+z
loop_
_atom_site_type_symbol
_atom_site_label
_atom_site_fract_x
_atom_site_fract_y
_atom_site_fract_z
Si Si1 0.939657 0.897476 0.291211
Si Si2 0.750000 0.250000 0.524600
Si Si3 0.519811 0.848628 0.917324
Si Si4 0.208029 0.911366 0.770118
Si Si5 0.347106 0.266381 0.384999
Si Si6 0.882182 0.414722 0.608402
Si Si7 0.369617 0.029558 0.986852
Si Si8 0.392514 0.413477 0.275195
O O1 0.941452 0.911410 0.358637
O O2 0.912386 0.723327 0.270286
O O3 0.867047 0.026853 0.272469
O O4 0.037824 0.941818 0.265058
O O5 0.811627 0.359836 0.562473
O O6 0.689502 0.378626 0.489691
O O7 0.476252 0.676100 0.904142
O O8 0.450635 0.967542 0.947265
O O9 0.602924 0.853209 0.961741
O O10 0.250000 0.750000 0.746139
O O11 0.159795 0.876997 0.830238
O O12 0.289050 0.036151 0.771696
O O13 0.250000 0.250000 0.354051
O O14 0.319059 0.360356 0.441758
O O15 0.410772 0.354500 0.339621
O O16 0.398361 0.101969 0.398622
#
# Coordination Sequence:
#
# PCOD8227979 Si02
#       8
#     8   4   8   8   8   8   8   8
#     4  12  24  40  63  94 130 169 210 260 328 396
#     4  10  18  34  66  88 114 164 214 270 312 380
#     4  10  23  41  59  90 124 171 205 266 325 389
#     4  12  23  40  63  94 130 169 214 265 323 392
#     4  12  20  36  62  96 121 158 218 277 313 371
#     4  11  20  35  64  93 118 159 216 269 321 366
#     4  10  21  40  63  86 126 160 221 265 322 380
#     4  12  23  40  64  96 128 169 212 269 320 387
#
# _framework density 20.327165999999998
#
# number of rings (size 3 to 8) (size 9 to 14) (size 15 to 20)
#    0.000    0.800    6.000    2.800    0.000    0.533 
#    1.200    1.333    0.000    0.000    0.000    0.000 
#    0.000    0.000    0.000    0.000    0.000    0.000 
#
# Total GULP energy -743495.191674 kJ/mol
# GULP energy per Si atom -12391.586528 kJ/mol
# Density = 2.028090 g / cm^3
# Si number density = 20.327166 Si / 1000 Ang^3
#
#
#
# Elastic Constant Matrix: (Units=GPa)
#
#
# Indices 1 2 3 4 5 6 
#
# 1 87.9790 38.1785 48.1745 0.0000 0.0000 0.0000
# 2 38.1785 102.7697 39.4932 0.0000 0.0000 0.0000
# 3 48.1745 39.4932 92.6546 0.0000 0.0000 0.0000
# 4 0.0000 0.0000 0.0000 25.6988 0.0000 0.0000
# 5 0.0000 0.0000 0.0000 0.0000 24.1740 0.0000
# 6 0.0000 0.0000 0.0000 0.0000 0.0000 36.5717
#
#
#
# Elastic Compliance Matrix: (Units=1/GPa)
#
#
# Indices 1 2 3 4 5 6 
#
# 1 0.016861 -0.003462 -0.007291 0.000000 0.000000 0.000000
# 2 -0.003462 0.012347 -0.003463 0.000000 0.000000 0.000000
# 3 -0.007291 -0.003463 0.016060 0.000000 0.000000 0.000000
# 4 0.000000 0.000000 0.000000 0.038912 0.000000 0.000000
# 5 0.000000 0.000000 0.000000 0.000000 0.041367 0.000000
# 6 0.000000 0.000000 0.000000 0.000000 0.000000 0.027344
#
#
# Mechanical properties :
#
#
# Convention : Reuss Voigt Hill
#
# Bulk Modulus (GPa) = 59.39578 59.45504 59.42541
# Shear Modulus (GPa) = 26.74733 27.79272 27.27002
#
# Velocity S-wave (km/s) = 3.63139 3.70167 3.66670
# Velocity P-wave (km/s) = 6.84587 6.89800 6.87199
#
# Compressibility (1/GPa) = 0.01683621
#
# Stress axis : x y z
#
# Youngs Moduli (GPa) = 59.30858 80.98893 62.26767
#
# Poissons Ratio (x) = 0.28038 0.45399
# Poissons Ratio (y) = 0.20532 0.21563
# Poissons Ratio (z) = 0.43242 0.28046
#
# Static dielectric constant tensor:
#      x y z
#    x 3.766510 0.000000 0.000000 
#    y 0.000000 3.811720 0.000000 
#    z 0.000000 0.000000 3.568900 
# 
# 
# High freq. dielectric constant tensor:
#      x y z
#    x 1.790800 0.000000 0.000000 
#    y 0.000000 1.805190 0.000000 
#    z 0.000000 0.000000 1.770080 
# 
# From -- ./inp_files/21139.got.cif
#   From: 2010.03.12/outbox.cif.g09.slc.cpg/sg56_11_cif.got.tgz:21139.got - 2010.04.16 15:33:40.
