data_PCOD8227108
_publ_section_title
;
Structure prediction by ZEFSAII (Michael W. Deem and Ramdas Pophale) SiO2 
 PCOD8227108
Probable space group: P B A M
;
_chemical_formula_sum "Si O2"
_cell_formula_units_Z 48
_cell_length_a 9.479276
_cell_length_b 19.726471
_cell_length_c 13.158398
_cell_angle_alpha 90.000000
_cell_angle_beta 90.000000
_cell_angle_gamma 90.000000
_cell_volume 2460.523884
_symmetry_space_group_name_H-M "P B A M"
_symmetry_group_IT_number 55
_symmetry_cell_setting 'orthorhombic'
loop_
_space_group_symop_operation_xyz
x,y,z
-x,-y,z
1/2+x,1/2-y,-z
1/2-x,1/2+y,-z
-x,-y,-z
x,y,-z
1/2-x,1/2+y,z
1/2+x,1/2-y,z
loop_
_atom_site_type_symbol
_atom_site_label
_atom_site_fract_x
_atom_site_fract_y
_atom_site_fract_z
Si Si1 0.350122 0.125544 0.621123
Si Si2 0.262746 0.747598 0.752549
Si Si3 0.675539 0.111302 0.685517
Si Si4 0.016667 0.719330 0.885568
Si Si5 0.846096 0.993665 0.613972
Si Si6 0.081695 0.430027 0.111908
O O1 0.344633 0.134724 0.500000
O O2 0.276765 0.189202 0.674176
O O3 0.511704 0.115227 0.653958
O O4 0.258885 0.061921 0.662465
O O5 0.250086 0.815861 0.686192
O O6 0.418277 0.745466 0.800714
O O7 0.168972 0.746444 0.854111
O O8 0.694524 0.077103 0.797753
O O9 0.765006 0.065244 0.609694
O O10 0.017034 0.637094 0.878442
O O11 0.981817 0.743583 0.000000
O O12 0.876214 0.969155 0.500000
O O13 0.000000 0.000000 0.669460
O O14 0.000000 0.500000 0.127637
O O15 0.154317 0.430243 0.000000
#
# Coordination Sequence:
#
# PCOD8227108 Si02
#       6
#     8   8   8   8   8   8
#     4  11  23  40  61  87 121 159 206 249 297 364
#     4  11  22  39  57  92 119 160 204 246 301 352
#     4  11  22  38  62  86 121 161 200 248 298 364
#     4  10  21  38  61  86 121 158 199 251 304 362
#     4  10  23  40  62  89 117 156 198 247 308 363
#     4   9  17  32  57  87 113 146 195 246 293 348
#
# _framework density 19.508040000000001
#
# number of rings (size 3 to 8) (size 9 to 14) (size 15 to 20)
#    0.000    1.667    3.333    2.500    2.333    3.333 
#    0.000    0.000    0.000    0.500    0.000    0.000 
#    0.000    0.000    0.000    0.000    0.000    0.000 
#
# Total GULP energy -594747.614779 kJ/mol
# GULP energy per Si atom -12390.575308 kJ/mol
# Density = 1.946364 g / cm^3
# Si number density = 19.508040 Si / 1000 Ang^3
#
#
#
# Elastic Constant Matrix: (Units=GPa)
#
#
# Indices 1 2 3 4 5 6 
#
# 1 81.8487 70.0068 25.1797 0.0000 0.0000 0.0000
# 2 70.0068 121.7155 35.0849 0.0000 0.0000 0.0000
# 3 25.1797 35.0849 84.7709 0.0000 0.0000 0.0000
# 4 0.0000 0.0000 0.0000 32.0804 0.0000 0.0000
# 5 0.0000 0.0000 0.0000 0.0000 27.7915 0.0000
# 6 0.0000 0.0000 0.0000 0.0000 0.0000 30.4952
#
#
#
# Elastic Compliance Matrix: (Units=1/GPa)
#
#
# Indices 1 2 3 4 5 6 
#
# 1 0.024244 -0.013476 -0.001624 0.000000 0.000000 0.000000
# 2 -0.013476 0.016820 -0.002958 0.000000 0.000000 0.000000
# 3 -0.001624 -0.002958 0.013503 0.000000 0.000000 0.000000
# 4 0.000000 0.000000 0.000000 0.031172 0.000000 0.000000
# 5 0.000000 0.000000 0.000000 0.000000 0.035982 0.000000
# 6 0.000000 0.000000 0.000000 0.000000 0.000000 0.032792
#
#
# Mechanical properties :
#
#
# Convention : Reuss Voigt Hill
#
# Bulk Modulus (GPa) = 54.20044 60.98643 57.59344
# Shear Modulus (GPa) = 25.40923 28.61098 27.01011
#
# Velocity S-wave (km/s) = 3.61293 3.83381 3.72501
# Velocity P-wave (km/s) = 6.72669 7.13635 6.93455
#
# Compressibility (1/GPa) = 0.01845003
#
# Stress axis : x y z
#
# Youngs Moduli (GPa) = 41.24814 59.45419 74.05632
#
# Poissons Ratio (x) = 0.80121 0.12024
# Poissons Ratio (y) = 0.55586 0.21909
# Poissons Ratio (z) = 0.06697 0.17589
#
# Static dielectric constant tensor:
#      x y z
#    x 3.446890 0.000000 0.000000 
#    y 0.000000 3.626770 0.000000 
#    z 0.000000 0.000000 3.790600 
# 
# 
# High freq. dielectric constant tensor:
#      x y z
#    x 1.741480 0.000000 0.000000 
#    y 0.000000 1.764640 0.000000 
#    z 0.000000 0.000000 1.767330 
# 
# From -- ./inp_files/17327.got.cif
#   From: 2010.03.12/outbox.cif.g09.slc.cpg/sg55_9_cif.got.tgz:17327.got - 2010.04.16 15:19:21.
