data_PCOD8227843
_publ_section_title
;
Structure prediction by ZEFSAII (Michael W. Deem and Ramdas Pophale) SiO2 
 PCOD8227843
Probable space group: P B A M
;
_chemical_formula_sum "Si O2"
_cell_formula_units_Z 48
_cell_length_a 9.000000
_cell_length_b 30.000000
_cell_length_c 9.000000
_cell_angle_alpha 90.000000
_cell_angle_beta 90.000000
_cell_angle_gamma 90.000000
_cell_volume 2430.000000
_symmetry_space_group_name_H-M "P B A M"
_symmetry_group_IT_number 55
_symmetry_cell_setting 'orthorhombic'
loop_
_space_group_symop_operation_xyz
x,y,z
-x,-y,z
1/2+x,1/2-y,-z
1/2-x,1/2+y,-z
-x,-y,-z
x,y,-z
1/2-x,1/2+y,z
1/2+x,1/2-y,z
loop_
_atom_site_type_symbol
_atom_site_label
_atom_site_fract_x
_atom_site_fract_y
_atom_site_fract_z
Si Si1 0.643222 0.550783 0.177632
Si Si2 0.177428 0.201355 0.829232
Si Si3 0.332985 0.290641 0.173394
Si Si4 0.179781 0.371649 0.675813
Si Si5 0.663588 0.459758 0.326044
Si Si6 0.656803 0.874547 0.670109
O O1 0.754655 0.588902 0.226328
O O2 0.708515 0.504488 0.239541
O O3 0.484412 0.560649 0.252495
O O4 0.626895 0.549242 0.000000
O O5 0.270958 0.243367 0.772161
O O6 0.226378 0.156475 0.751256
O O7 0.006649 0.210357 0.796486
O O8 0.210208 0.193668 0.000000
O O9 0.261515 0.326586 0.281342
O O10 0.294937 0.300321 0.000000
O O11 0.195929 0.381369 0.500000
O O12 0.009575 0.367241 0.727109
O O13 0.634610 0.469558 0.500000
O O14 0.798516 0.425771 0.303237
O O15 0.668470 0.861277 0.500000
#
# Coordination Sequence:
#
# PCOD8227843 Si02
#       6
#     8   8   8   8   8   8
#     4  11  22  37  58  86 115 146 186 233 281 337
#     4  10  21  37  60  85 114 147 184 229 280 333
#     4  10  21  38  59  86 114 147 187 230 279 334
#     4  11  23  39  57  81 113 151 189 231 279 331
#     4  10  20  38  61  84 112 149 189 233 281 334
#     4  10  23  39  57  82 113 148 190 232 277 331
#
# _framework density 19.753086
#
# number of rings (size 3 to 8) (size 9 to 14) (size 15 to 20)
#    0.000    1.667    0.000    5.500    0.000    8.667 
#    0.000    3.333    0.000    0.000    0.000    0.000 
#    0.000    0.000    0.000    0.000    0.000    0.000 
#
# Total GULP energy -595336.555973 kJ/mol
# GULP energy per Si atom -12402.844916 kJ/mol
# Density = 1.970813 g / cm^3
# Si number density = 19.753086 Si / 1000 Ang^3
#
#
#
# Elastic Constant Matrix: (Units=GPa)
#
#
# Indices 1 2 3 4 5 6 
#
# 1 69.4707 54.0446 39.6153 0.0000 0.0000 0.0000
# 2 54.0446 97.1067 40.3477 0.0000 0.0000 0.0000
# 3 39.6153 40.3477 99.7496 0.0000 0.0000 0.0000
# 4 0.0000 0.0000 0.0000 35.8546 0.0000 0.0000
# 5 0.0000 0.0000 0.0000 0.0000 27.5770 0.0000
# 6 0.0000 0.0000 0.0000 0.0000 0.0000 179.5094
#
#
#
# Elastic Compliance Matrix: (Units=1/GPa)
#
#
# Indices 1 2 3 4 5 6 
#
# 1 0.027899 -0.013130 -0.005769 0.000000 0.000000 0.000000
# 2 -0.013130 0.018558 -0.002292 0.000000 0.000000 0.000000
# 3 -0.005769 -0.002292 0.013243 0.000000 0.000000 0.000000
# 4 0.000000 0.000000 0.000000 0.027890 0.000000 0.000000
# 5 0.000000 0.000000 0.000000 0.000000 0.036262 0.000000
# 6 0.000000 0.000000 0.000000 0.000000 0.000000 0.005571
#
#
# Mechanical properties :
#
#
# Convention : Reuss Voigt Hill
#
# Bulk Modulus (GPa) = 57.74319 59.37137 58.55728
# Shear Modulus (GPa) = 28.15673 57.40949 42.78311
#
# Velocity S-wave (km/s) = 3.77959 5.39691 4.65897
# Velocity P-wave (km/s) = 6.95291 8.30407 7.65835
#
# Compressibility (1/GPa) = 0.01731806
#
# Stress axis : x y z
#
# Youngs Moduli (GPa) = 35.84389 53.88591 75.51017
#
# Poissons Ratio (x) = 0.70752 0.43561
# Poissons Ratio (y) = 0.47063 0.17306
# Poissons Ratio (z) = 0.20678 0.12350
#
# Static dielectric constant tensor:
#      x y z
#    x 3.645650 0.000000 0.000000 
#    y 0.000000 3.731700 0.000000 
#    z 0.000000 0.000000 3.565790 
# 
# 
# High freq. dielectric constant tensor:
#      x y z
#    x 1.772480 0.000000 0.000000 
#    y 0.000000 1.777930 0.000000 
#    z 0.000000 0.000000 1.773980 
# 
# From -- ./inp_files/2812.got.cif
#   From: 2010.03.12/outbox.ucp.g09.slc.cvg/sg55_2_cif.got.tgz:2812.got - 2010.05.04 19:23:19.
