data_PCOD8227480
_publ_section_title
;
Structure prediction by ZEFSAII (Michael W. Deem and Ramdas Pophale) SiO2 
 PCOD8227480
Probable space group: P B A M
;
_chemical_formula_sum "Si O2"
_cell_formula_units_Z 40
_cell_length_a 21.091897
_cell_length_b 10.288495
_cell_length_c 8.707098
_cell_angle_alpha 90.000000
_cell_angle_beta 90.000000
_cell_angle_gamma 90.000000
_cell_volume 1889.474022
_symmetry_space_group_name_H-M "P B A M"
_symmetry_group_IT_number 55
_symmetry_cell_setting 'orthorhombic'
loop_
_space_group_symop_operation_xyz
x,y,z
-x,-y,z
1/2+x,1/2-y,-z
1/2-x,1/2+y,-z
-x,-y,-z
x,y,-z
1/2-x,1/2+y,z
1/2+x,1/2-y,z
loop_
_atom_site_type_symbol
_atom_site_label
_atom_site_fract_x
_atom_site_fract_y
_atom_site_fract_z
Si Si1 0.688827 0.026311 0.676748
Si Si2 0.790321 0.815604 0.677162
Si Si3 0.042479 0.826807 0.319082
Si Si4 0.933800 0.437580 0.820204
Si Si5 0.415767 0.587524 0.180212
O O1 0.669296 0.007820 0.500000
O O2 0.732404 0.906253 0.732304
O O3 0.624707 0.031074 0.777222
O O4 0.726307 0.162902 0.699314
O O5 0.806939 0.846841 0.500000
O O6 0.849756 0.845450 0.783674
O O7 0.039121 0.842628 0.500000
O O8 0.077498 0.694990 0.272697
O O9 0.971642 0.825295 0.251253
O O10 0.083554 0.944098 0.251278
O O11 0.000000 0.500000 0.766562
O O12 0.934655 0.408585 0.000000
O O13 0.426806 0.578804 0.000000
#
# Coordination Sequence:
#
# PCOD8227480 Si02
#       5
#     8   8   8   8   8
#     4  10  23  41  64  93 126 168 216 262 310 374
#     4  10  22  41  63  91 126 167 214 260 310 372
#     4  11  22  38  63  92 123 164 211 259 313 375
#     4  11  24  41  62  91 128 165 208 263 322 379
#     4  11  22  38  61  92 128 164 205 258 318 376
#
# _framework density 21.169912
#
# number of rings (size 3 to 8) (size 9 to 14) (size 15 to 20)
#    0.000    1.400    0.000    6.600    2.800    6.400 
#    0.000    0.000    0.000    0.000    0.000    0.000 
#    0.000    0.000    0.000    0.000    0.000    0.000 
#
# Total GULP energy -496220.664325 kJ/mol
# GULP energy per Si atom -12405.516608 kJ/mol
# Density = 2.112173 g / cm^3
# Si number density = 21.169912 Si / 1000 Ang^3
#
#
#
# Elastic Constant Matrix: (Units=GPa)
#
#
# Indices 1 2 3 4 5 6 
#
# 1 97.8574 52.0066 26.7727 0.0000 0.0000 0.0000
# 2 52.0066 126.7166 36.7770 0.0000 0.0000 0.0000
# 3 26.7727 36.7770 120.2287 0.0000 0.0000 0.0000
# 4 0.0000 0.0000 0.0000 29.3467 0.0000 0.0000
# 5 0.0000 0.0000 0.0000 0.0000 26.5231 0.0000
# 6 0.0000 0.0000 0.0000 0.0000 0.0000 32.3370
#
#
#
# Elastic Compliance Matrix: (Units=1/GPa)
#
#
# Indices 1 2 3 4 5 6 
#
# 1 0.013286 -0.005042 -0.001416 0.000000 0.000000 0.000000
# 2 -0.005042 0.010574 -0.002112 0.000000 0.000000 0.000000
# 3 -0.001416 -0.002112 0.009279 0.000000 0.000000 0.000000
# 4 0.000000 0.000000 0.000000 0.034075 0.000000 0.000000
# 5 0.000000 0.000000 0.000000 0.000000 0.037703 0.000000
# 6 0.000000 0.000000 0.000000 0.000000 0.000000 0.030924
#
#
# Mechanical properties :
#
#
# Convention : Reuss Voigt Hill
#
# Bulk Modulus (GPa) = 62.50405 63.99060 63.24732
# Shear Modulus (GPa) = 31.58290 32.92445 32.25368
#
# Velocity S-wave (km/s) = 3.86667 3.94794 3.90752
# Velocity P-wave (km/s) = 7.03732 7.14664 7.09219
#
# Compressibility (1/GPa) = 0.01599896
#
# Stress axis : x y z
#
# Youngs Moduli (GPa) = 75.26797 94.57422 107.77230
#
# Poissons Ratio (x) = 0.47681 0.15264
# Poissons Ratio (y) = 0.37948 0.22758
# Poissons Ratio (z) = 0.10660 0.19971
#
# Static dielectric constant tensor:
#      x y z
#    x 3.664920 0.000000 0.000000 
#    y 0.000000 3.979870 0.000000 
#    z 0.000000 0.000000 3.723960 
# 
# 
# High freq. dielectric constant tensor:
#      x y z
#    x 1.821030 0.000000 0.000000 
#    y 0.000000 1.844160 0.000000 
#    z 0.000000 0.000000 1.828700 
# 
# From -- ./inp_files/8486.got.cif
#   From: 2010.03.12/outbox.cif.g09.slc.cpg/sg55_5_cif.got.tgz:8486.got - 2010.04.16 15:19:21.
