data_PCOD8227883
_publ_section_title
;
Structure prediction by ZEFSAII (Michael W. Deem and Ramdas Pophale) SiO2 
 PCOD8227883
Probable space group: P C C N
;
_chemical_formula_sum "Si O2"
_cell_formula_units_Z 64
_cell_length_a 12.550391
_cell_length_b 17.032055
_cell_length_c 16.835926
_cell_angle_alpha 90.000000
_cell_angle_beta 90.000000
_cell_angle_gamma 90.000000
_cell_volume 3598.829860
_symmetry_space_group_name_H-M "P C C N"
_symmetry_group_IT_number 56
_symmetry_cell_setting 'orthorhombic'
loop_
_space_group_symop_operation_xyz
x,y,z
1/2-x,1/2-y,z
1/2+x,-y,1/2-z
-x,1/2+y,1/2-z
-x,-y,-z
1/2+x,1/2+y,-z
1/2-x,y,1/2+z
x,1/2-y,1/2+z
loop_
_atom_site_type_symbol
_atom_site_label
_atom_site_fract_x
_atom_site_fract_y
_atom_site_fract_z
Si Si1 0.424532 0.492459 0.574923
Si Si2 0.129401 0.770109 0.245774
Si Si3 0.970780 0.105511 0.281942
Si Si4 0.608509 0.085279 0.365856
Si Si5 0.615775 0.512090 0.158068
Si Si6 0.760590 0.446943 0.511106
Si Si7 0.405480 0.887711 0.874161
Si Si8 0.821101 0.525008 0.238001
O O1 0.500000 0.500000 0.500000
O O2 0.431233 0.565145 0.636726
O O3 0.304214 0.488534 0.541672
O O4 0.469946 0.411965 0.613519
O O5 0.250000 0.750000 0.262702
O O6 0.059596 0.696435 0.218221
O O7 0.126644 0.832421 0.175718
O O8 0.087403 0.804636 0.329635
O O9 0.919254 0.066266 0.204039
O O10 0.098660 0.097657 0.274208
O O11 0.653596 0.096451 0.454784
O O12 0.482185 0.068814 0.361471
O O13 0.672689 0.012423 0.325932
O O14 0.670902 0.491853 0.075731
O O15 0.702178 0.554750 0.216238
O O16 0.672270 0.385900 0.547875
O O17 0.352928 0.953785 0.819352
#
# Coordination Sequence:
#
# PCOD8227883 Si02
#       8
#     8   8   8   8   8   8   8   8
#     4   9  17  32  55  80 101 131 180 224 256 300
#     4  11  20  33  50  75 108 137 166 210 265 323
#     4  10  19  33  53  77 103 136 176 216 263 319
#     4  10  20  31  50  77 102 132 172 216 262 315
#     4  10  19  34  53  73 101 135 177 219 258 311
#     4  10  17  30  51  76 103 135 173 217 264 304
#     4   8  17  31  50  75 103 135 170 210 259 314
#     4   8  16  32  52  71  94 131 175 218 257 302
#
# _framework density 17.783556999999998
#
# number of rings (size 3 to 8) (size 9 to 14) (size 15 to 20)
#    0.000    2.500    0.000    5.625    0.000    0.000 
#    0.000    8.750    0.000    0.000    0.000   12.250 
#    0.000    0.000    0.000    0.000    0.000    0.000 
#
# Total GULP energy -792919.951832 kJ/mol
# GULP energy per Si atom -12389.374247 kJ/mol
# Density = 1.774308 g / cm^3
# Si number density = 17.783557 Si / 1000 Ang^3
#
#
#
# Elastic Constant Matrix: (Units=GPa)
#
#
# Indices 1 2 3 4 5 6 
#
# 1 108.2013 38.1311 45.4930 0.0000 0.0000 0.0000
# 2 38.1311 80.3841 37.6085 0.0000 0.0000 0.0000
# 3 45.4930 37.6085 86.6011 0.0000 0.0000 0.0000
# 4 0.0000 0.0000 0.0000 24.7492 0.0000 0.0000
# 5 0.0000 0.0000 0.0000 0.0000 34.3843 0.0000
# 6 0.0000 0.0000 0.0000 0.0000 0.0000 20.8262
#
#
#
# Elastic Compliance Matrix: (Units=1/GPa)
#
#
# Indices 1 2 3 4 5 6 
#
# 1 0.012653 -0.003630 -0.005071 0.000000 0.000000 0.000000
# 2 -0.003630 0.016654 -0.005325 0.000000 0.000000 0.000000
# 3 -0.005071 -0.005325 0.016524 0.000000 0.000000 0.000000
# 4 0.000000 0.000000 0.000000 0.040405 0.000000 0.000000
# 5 0.000000 0.000000 0.000000 0.000000 0.029083 0.000000
# 6 0.000000 0.000000 0.000000 0.000000 0.000000 0.048017
#
#
# Mechanical properties :
#
#
# Convention : Reuss Voigt Hill
#
# Bulk Modulus (GPa) = 56.24708 57.51683 56.88196
# Shear Modulus (GPa) = 25.34043 26.25553 25.79798
#
# Velocity S-wave (km/s) = 3.77893 3.84656 3.81289
# Velocity P-wave (km/s) = 7.12304 7.22087 7.17212
#
# Compressibility (1/GPa) = 0.01777870
#
# Stress axis : x y z
#
# Youngs Moduli (GPa) = 79.03187 60.04679 60.51979
#
# Poissons Ratio (x) = 0.21796 0.30687
# Poissons Ratio (y) = 0.28687 0.32229
# Poissons Ratio (z) = 0.40074 0.31977
#
# Static dielectric constant tensor:
#      x y z
#    x 3.698910 0.000000 0.000000 
#    y 0.000000 3.043080 0.000000 
#    z 0.000000 0.000000 3.656980 
# 
# 
# High freq. dielectric constant tensor:
#      x y z
#    x 1.700230 0.000000 0.000000 
#    y 0.000000 1.631410 0.000000 
#    z 0.000000 0.000000 1.705750 
# 
# From -- ./inp_files/15801.got.cif
#   From: 2010.03.12/outbox.cif.g09.slc.cpg/sg56_8_cif.got.tgz:15801.got - 2010.04.16 15:33:40.
