data_PCOD8227014
_publ_section_title
;
Structure prediction by ZEFSAII (Michael W. Deem and Ramdas Pophale) SiO2 
 PCOD8227014
Probable space group: P B A M
;
_chemical_formula_sum "Si O2"
_cell_formula_units_Z 64
_cell_length_a 12.851478
_cell_length_b 26.641536
_cell_length_c 9.191054
_cell_angle_alpha 90.000000
_cell_angle_beta 90.000000
_cell_angle_gamma 90.000000
_cell_volume 3146.861688
_symmetry_space_group_name_H-M "P B A M"
_symmetry_group_IT_number 55
_symmetry_cell_setting 'orthorhombic'
loop_
_space_group_symop_operation_xyz
x,y,z
-x,-y,z
1/2+x,1/2-y,-z
1/2-x,1/2+y,-z
-x,-y,-z
x,y,-z
1/2-x,1/2+y,z
1/2+x,1/2-y,z
loop_
_atom_site_type_symbol
_atom_site_label
_atom_site_fract_x
_atom_site_fract_y
_atom_site_fract_z
Si Si1 0.223893 0.946701 0.672277
Si Si2 0.123980 0.630178 0.168465
Si Si3 0.996284 0.907350 0.329993
Si Si4 0.303290 0.772646 0.166328
Si Si5 0.889619 0.619675 0.833110
Si Si6 0.634226 0.767698 0.338364
Si Si7 0.799236 0.950993 0.828116
Si Si8 0.937920 0.796667 0.661199
O O1 0.234020 0.954065 0.500000
O O2 0.110990 0.925171 0.715531
O O3 0.314139 0.909408 0.724643
O O4 0.242244 0.998693 0.754115
O O5 0.144862 0.679247 0.260999
O O6 0.213234 0.590712 0.209667
O O7 0.009833 0.606915 0.203536
O O8 0.128305 0.645507 0.000000
O O9 0.975834 0.917919 0.500000
O O10 0.911296 0.937464 0.237868
O O11 0.989565 0.848739 0.289663
O O12 0.375095 0.820825 0.192571
O O13 0.196292 0.776788 0.255525
O O14 0.352481 0.720138 0.222530
O O15 0.275295 0.765060 0.000000
O O16 0.862531 0.605410 0.000000
O O17 0.679637 0.773511 0.500000
O O18 0.517063 0.749348 0.342156
O O19 0.810967 0.958818 0.000000
O O20 0.889034 0.803210 0.500000
#
# Coordination Sequence:
#
# PCOD8227014 Si02
#       8
#     8   8   8   8   8   8   8   8
#     4  11  24  42  65  90 121 160 204 258 317 375
#     4  10  22  42  63  88 125 165 207 254 309 368
#     4  10  22  41  62  88 124 161 200 252 312 371
#     4  11  22  36  58  86 120 161 201 244 294 355
#     4  10  22  41  63  88 123 163 205 254 304 364
#     4  11  22  36  58  88 123 161 202 249 298 356
#     4  11  24  41  64  91 120 158 206 260 314 371
#     4  10  21  37  58  86 119 156 196 239 294 356
#
# _framework density 20.337721999999999
#
# number of rings (size 3 to 8) (size 9 to 14) (size 15 to 20)
#    0.000    1.500    1.250    3.375    0.000    9.500 
#    0.000    2.500    0.000    0.000    0.000    0.000 
#    0.000    0.000    0.000    0.000    0.000    0.000 
#
# Total GULP energy -793658.309692 kJ/mol
# GULP energy per Si atom -12400.911089 kJ/mol
# Density = 2.029143 g / cm^3
# Si number density = 20.337722 Si / 1000 Ang^3
#
#
#
# Elastic Constant Matrix: (Units=GPa)
#
#
# Indices 1 2 3 4 5 6 
#
# 1 83.4002 7.7570 31.9502 0.0000 0.0000 0.0000
# 2 7.7570 77.7584 36.4528 0.0000 0.0000 0.0000
# 3 31.9502 36.4528 92.9087 0.0000 0.0000 0.0000
# 4 0.0000 0.0000 0.0000 33.5562 0.0000 0.0000
# 5 0.0000 0.0000 0.0000 0.0000 34.0470 0.0000
# 6 0.0000 0.0000 0.0000 0.0000 0.0000 33.7625
#
#
#
# Elastic Compliance Matrix: (Units=1/GPa)
#
#
# Indices 1 2 3 4 5 6 
#
# 1 0.013879 0.001045 -0.005183 0.000000 0.000000 0.000000
# 2 0.001045 0.015838 -0.006573 0.000000 0.000000 0.000000
# 3 -0.005183 -0.006573 0.015125 0.000000 0.000000 0.000000
# 4 0.000000 0.000000 0.000000 0.029801 0.000000 0.000000
# 5 0.000000 0.000000 0.000000 0.000000 0.029371 0.000000
# 6 0.000000 0.000000 0.000000 0.000000 0.000000 0.029619
#
#
# Mechanical properties :
#
#
# Convention : Reuss Voigt Hill
#
# Bulk Modulus (GPa) = 42.70035 45.15414 43.92724
# Shear Modulus (GPa) = 30.70128 32.13364 31.41746
#
# Velocity S-wave (km/s) = 3.88954 3.97924 3.93464
# Velocity P-wave (km/s) = 6.41970 6.58504 6.50290
#
# Compressibility (1/GPa) = 0.02341901
#
# Stress axis : x y z
#
# Youngs Moduli (GPa) = 72.05304 63.14082 66.11750
#
# Poissons Ratio (x) = -0.06599 0.34267
# Poissons Ratio (y) = -0.07531 0.43461
# Poissons Ratio (z) = 0.37344 0.41504
#
# Static dielectric constant tensor:
#      x y z
#    x 3.815720 0.000000 0.000000 
#    y 0.000000 3.653540 0.000000 
#    z 0.000000 0.000000 3.745520 
# 
# 
# High freq. dielectric constant tensor:
#      x y z
#    x 1.805630 0.000000 0.000000 
#    y 0.000000 1.793660 0.000000 
#    z 0.000000 0.000000 1.798040 
# 
# From -- ./inp_files/6493.got.cif
#   From: 2010.03.12/outbox.cif.g09.slc.cpg/sg55_4_cif.got.tgz:6493.got - 2010.04.16 15:19:21.
