data_PCOD8227430
_publ_section_title
;
Structure prediction by ZEFSAII (Michael W. Deem and Ramdas Pophale) SiO2 
 PCOD8227430
Probable space group: P B A M
;
_chemical_formula_sum "Si O2"
_cell_formula_units_Z 48
_cell_length_a 8.605364
_cell_length_b 20.010205
_cell_length_c 14.161099
_cell_angle_alpha 90.000000
_cell_angle_beta 90.000000
_cell_angle_gamma 90.000000
_cell_volume 2438.471826
_symmetry_space_group_name_H-M "P B A M"
_symmetry_group_IT_number 55
_symmetry_cell_setting 'orthorhombic'
loop_
_space_group_symop_operation_xyz
x,y,z
-x,-y,z
1/2+x,1/2-y,-z
1/2-x,1/2+y,-z
-x,-y,-z
x,y,-z
1/2-x,1/2+y,z
1/2+x,1/2-y,z
loop_
_atom_site_type_symbol
_atom_site_label
_atom_site_fract_x
_atom_site_fract_y
_atom_site_fract_z
Si Si1 0.902300 0.272459 0.604872
Si Si2 0.090031 0.435096 0.767759
Si Si3 0.880813 0.054867 0.889544
Si Si4 0.868029 0.317922 0.198704
Si Si5 0.538267 0.306082 0.889858
Si Si6 0.288453 0.847224 0.603786
O O1 0.840274 0.294430 0.500000
O O2 0.819835 0.312974 0.690430
O O3 0.873720 0.192593 0.619045
O O4 0.085078 0.287596 0.612311
O O5 0.212903 0.457752 0.845598
O O6 0.184160 0.404392 0.679846
O O7 0.000000 0.500000 0.730335
O O8 0.970227 0.384077 0.816639
O O9 0.938176 0.128987 0.864522
O O10 0.862445 0.044054 0.000000
O O11 0.000000 0.000000 0.848027
O O12 0.974646 0.254822 0.171514
O O13 0.717342 0.320874 0.133591
O O14 0.525836 0.287813 0.000000
O O15 0.294093 0.880976 0.500000
#
# Coordination Sequence:
#
# PCOD8227430 Si02
#       6
#     8   8   8   8   8   8
#     4   9  17  31  52  79 107 136 174 218 265 316
#     4  11  23  37  55  79 108 146 188 229 277 331
#     4  10  22  40  59  79 106 143 185 228 276 329
#     4  11  21  35  56  83 113 145 183 226 277 330
#     4  11  22  36  56  82 112 143 178 225 278 333
#     4   9  18  33  55  82 111 142 177 221 272 327
#
# _framework density 19.684460999999999
#
# number of rings (size 3 to 8) (size 9 to 14) (size 15 to 20)
#    0.000    1.833    0.000    5.500    0.000    3.333 
#    0.000    0.000    0.000    0.500    0.000    0.000 
#    0.000    0.000    0.000    0.000    0.000    0.000 
#
# Total GULP energy -595114.330863 kJ/mol
# GULP energy per Si atom -12398.215226 kJ/mol
# Density = 1.963966 g / cm^3
# Si number density = 19.684461 Si / 1000 Ang^3
#
#
#
# Elastic Constant Matrix: (Units=GPa)
#
#
# Indices 1 2 3 4 5 6 
#
# 1 70.4850 33.1374 34.4134 0.0000 0.0000 0.0000
# 2 33.1374 103.7493 46.3785 0.0000 0.0000 0.0000
# 3 34.4134 46.3785 71.9729 0.0000 0.0000 0.0000
# 4 0.0000 0.0000 0.0000 23.6102 0.0000 0.0000
# 5 0.0000 0.0000 0.0000 0.0000 25.7769 0.0000
# 6 0.0000 0.0000 0.0000 0.0000 0.0000 39.6486
#
#
#
# Elastic Compliance Matrix: (Units=1/GPa)
#
#
# Indices 1 2 3 4 5 6 
#
# 1 0.019083 -0.002832 -0.007299 0.000000 0.000000 0.000000
# 2 -0.002832 0.013959 -0.007641 0.000000 0.000000 0.000000
# 3 -0.007299 -0.007641 0.022308 0.000000 0.000000 0.000000
# 4 0.000000 0.000000 0.000000 0.042355 0.000000 0.000000
# 5 0.000000 0.000000 0.000000 0.000000 0.038794 0.000000
# 6 0.000000 0.000000 0.000000 0.000000 0.000000 0.025222
#
#
# Mechanical properties :
#
#
# Convention : Reuss Voigt Hill
#
# Bulk Modulus (GPa) = 50.49208 52.67397 51.58302
# Shear Modulus (GPa) = 24.52592 26.62564 25.57578
#
# Velocity S-wave (km/s) = 3.53364 3.68179 3.60847
# Velocity P-wave (km/s) = 6.50809 6.70010 6.60479
#
# Compressibility (1/GPa) = 0.01980509
#
# Stress axis : x y z
#
# Youngs Moduli (GPa) = 52.40362 71.63953 44.82720
#
# Poissons Ratio (x) = 0.20288 0.32721
# Poissons Ratio (y) = 0.14841 0.34251
# Poissons Ratio (z) = 0.38251 0.54738
#
# Static dielectric constant tensor:
#      x y z
#    x 3.564050 0.000000 0.000000 
#    y 0.000000 3.487130 0.000000 
#    z 0.000000 0.000000 3.749940 
# 
# 
# High freq. dielectric constant tensor:
#      x y z
#    x 1.766160 0.000000 0.000000 
#    y 0.000000 1.748850 0.000000 
#    z 0.000000 0.000000 1.779060 
# 
# From -- ./inp_files/17313.got.cif
#   From: 2010.03.12/outbox.cif.g09.slc.cpg/sg55_9_cif.got.tgz:17313.got - 2010.04.16 15:19:21.
