data_PCOD8227569
_publ_section_title
;
Structure prediction by ZEFSAII (Michael W. Deem and Ramdas Pophale) SiO2 
 PCOD8227569
Probable space group: P B A M
;
_chemical_formula_sum "Si O2"
_cell_formula_units_Z 48
_cell_length_a 18.490352
_cell_length_b 14.768641
_cell_length_c 8.894416
_cell_angle_alpha 90.000000
_cell_angle_beta 90.000000
_cell_angle_gamma 90.000000
_cell_volume 2428.863735
_symmetry_space_group_name_H-M "P B A M"
_symmetry_group_IT_number 55
_symmetry_cell_setting 'orthorhombic'
loop_
_space_group_symop_operation_xyz
x,y,z
-x,-y,z
1/2+x,1/2-y,-z
1/2-x,1/2+y,-z
-x,-y,-z
x,y,-z
1/2-x,1/2+y,z
1/2+x,1/2-y,z
loop_
_atom_site_type_symbol
_atom_site_label
_atom_site_fract_x
_atom_site_fract_y
_atom_site_fract_z
Si Si1 0.714414 0.003135 0.175726
Si Si2 0.015329 0.897030 0.674031
Si Si3 0.680440 0.644366 0.674803
Si Si4 0.932195 0.560959 0.676992
Si Si5 0.417799 0.749921 0.176033
Si Si6 0.255338 0.698965 0.174724
O O1 0.747638 0.906029 0.215432
O O2 0.770722 0.077462 0.229270
O O3 0.638400 0.013869 0.256990
O O4 0.701243 0.016919 0.000000
O O5 0.997177 0.878904 0.500000
O O6 0.097671 0.874723 0.712018
O O7 0.964818 0.835377 0.775594
O O8 0.000000 0.000000 0.718939
O O9 0.697805 0.630864 0.500000
O O10 0.697738 0.746588 0.725209
O O11 0.923301 0.568352 0.500000
O O12 0.945494 0.660924 0.740583
O O13 0.000000 0.500000 0.724045
O O14 0.335030 0.731539 0.220117
O O15 0.426683 0.765056 0.000000
O O16 0.239182 0.716648 0.000000
#
# Coordination Sequence:
#
# PCOD8227569 Si02
#       6
#     8   8   8   8   8   8
#     4  11  23  41  65  92 125 162 207 259 313 373
#     4  10  23  42  63  91 128 166 207 257 311 371
#     4  11  23  39  63  93 123 163 208 254 312 370
#     4  11  25  43  63  90 126 167 212 262 314 374
#     4  11  23  41  66  94 126 167 210 256 315 374
#     4  10  23  41  62  91 124 161 202 256 315 370
#
# _framework density 19.762326999999999
#
# number of rings (size 3 to 8) (size 9 to 14) (size 15 to 20)
#    0.000    1.333    1.667    3.000    2.333    5.000 
#    0.000    0.000    0.000    0.000    0.000    0.000 
#    0.000    0.000    0.000    0.000    0.000    0.000 
#
# Total GULP energy -595550.319449 kJ/mol
# GULP energy per Si atom -12407.298322 kJ/mol
# Density = 1.971735 g / cm^3
# Si number density = 19.762327 Si / 1000 Ang^3
#
#
#
# Elastic Constant Matrix: (Units=GPa)
#
#
# Indices 1 2 3 4 5 6 
#
# 1 93.0934 42.1201 46.1204 0.0000 0.0000 0.0000
# 2 42.1201 105.3199 43.6051 0.0000 0.0000 0.0000
# 3 46.1204 43.6051 57.5218 0.0000 0.0000 0.0000
# 4 0.0000 0.0000 0.0000 42.4844 0.0000 0.0000
# 5 0.0000 0.0000 0.0000 0.0000 25.7335 0.0000
# 6 0.0000 0.0000 0.0000 0.0000 0.0000 36.9547
#
#
#
# Elastic Compliance Matrix: (Units=1/GPa)
#
#
# Indices 1 2 3 4 5 6 
#
# 1 0.018049 -0.001788 -0.013116 0.000000 0.000000 0.000000
# 2 -0.001788 0.014015 -0.009191 0.000000 0.000000 0.000000
# 3 -0.013116 -0.009191 0.034868 0.000000 0.000000 0.000000
# 4 0.000000 0.000000 0.000000 0.023538 0.000000 0.000000
# 5 0.000000 0.000000 0.000000 0.000000 0.038860 0.000000
# 6 0.000000 0.000000 0.000000 0.000000 0.000000 0.027060
#
#
# Mechanical properties :
#
#
# Convention : Reuss Voigt Hill
#
# Bulk Modulus (GPa) = 53.35414 57.73626 55.54520
# Shear Modulus (GPa) = 23.71611 29.30716 26.51164
#
# Velocity S-wave (km/s) = 3.46796 3.85513 3.66666
# Velocity P-wave (km/s) = 6.56446 7.00676 6.78922
#
# Compressibility (1/GPa) = 0.01874269
#
# Stress axis : x y z
#
# Youngs Moduli (GPa) = 55.40555 71.35150 28.67938
#
# Poissons Ratio (x) = 0.12756 0.37616
# Poissons Ratio (y) = 0.09905 0.26359
# Poissons Ratio (z) = 0.72670 0.65578
#
# Static dielectric constant tensor:
#      x y z
#    x 4.188050 0.000000 0.000000 
#    y 0.000000 3.755440 0.000000 
#    z 0.000000 0.000000 3.650300 
# 
# 
# High freq. dielectric constant tensor:
#      x y z
#    x 1.780350 0.000000 0.000000 
#    y 0.000000 1.788440 0.000000 
#    z 0.000000 0.000000 1.777750 
# 
# From -- ./inp_files/7409.got.cif
#   From: 2010.03.12/outbox.cif.g09.slc.cpg/sg55_4_cif.got.tgz:7409.got - 2010.04.16 15:19:21.
