data_PCOD8227934
_publ_section_title
;
Structure prediction by ZEFSAII (Michael W. Deem and Ramdas Pophale) SiO2 
 PCOD8227934
Probable space group: P C C N
;
_chemical_formula_sum "Si O2"
_cell_formula_units_Z 60
_cell_length_a 14.806130
_cell_length_b 12.828834
_cell_length_c 18.010209
_cell_angle_alpha 90.000000
_cell_angle_beta 90.000000
_cell_angle_gamma 90.000000
_cell_volume 3420.956064
_symmetry_space_group_name_H-M "P C C N"
_symmetry_group_IT_number 56
_symmetry_cell_setting 'orthorhombic'
loop_
_space_group_symop_operation_xyz
x,y,z
1/2-x,1/2-y,z
1/2+x,-y,1/2-z
-x,1/2+y,1/2-z
-x,-y,-z
1/2+x,1/2+y,-z
1/2-x,y,1/2+z
x,1/2-y,1/2+z
loop_
_atom_site_type_symbol
_atom_site_label
_atom_site_fract_x
_atom_site_fract_y
_atom_site_fract_z
Si Si1 0.714957 0.867163 0.576796
Si Si2 0.636510 0.532676 0.303591
Si Si3 0.039734 0.368430 0.327284
Si Si4 0.426192 0.055894 0.696278
Si Si5 0.065501 0.822558 0.718211
Si Si6 0.731342 0.629976 0.908834
Si Si7 0.750000 0.250000 0.710449
Si Si8 0.290912 0.523562 0.311462
O O1 0.750000 0.750000 0.585695
O O2 0.615953 0.869817 0.610797
O O3 0.710392 0.906388 0.492139
O O4 0.780902 0.948294 0.617938
O O5 0.576509 0.615966 0.257368
O O6 0.580223 0.430113 0.327202
O O7 0.676629 0.577803 0.379291
O O8 0.714087 0.497099 0.248074
O O9 0.972943 0.462310 0.348629
O O10 0.986948 0.259537 0.333027
O O11 0.500878 0.145207 0.712617
O O12 0.351212 0.106162 0.644760
O O13 0.385574 0.005837 0.772370
O O14 0.161674 0.774091 0.740584
O O15 0.750000 0.750000 0.907301
O O16 0.720502 0.353945 0.663813
#
# Coordination Sequence:
#
# PCOD8227934 Si02
#       8
#     8   8   8   8   8   8   4   8
#     4  10  21  35  56  78 108 145 181 220 264 317
#     4   8  18  31  52  80 102 136 174 215 261 313
#     4  10  18  32  53  84 105 134 175 223 265 308
#     4  10  19  32  56  85 102 136 177 228 261 309
#     4  10  18  30  54  79 109 130 173 222 269 313
#     4  10  20  36  55  75 109 145 178 217 264 316
#     4  10  18  32  52  78 110 142 164 218 278 324
#     4   9  17  33  54  79 108 136 176 216 265 318
#
# _framework density 17.538957
#
# number of rings (size 3 to 8) (size 9 to 14) (size 15 to 20)
#    0.000    2.400    1.333    2.400    0.000    4.267 
#    0.000    0.000    5.867    4.800    0.000    0.000 
#    0.000    0.000    0.000    0.000    0.000    0.000 
#
# Total GULP energy -743526.765630 kJ/mol
# GULP energy per Si atom -12392.112760 kJ/mol
# Density = 1.749904 g / cm^3
# Si number density = 17.538957 Si / 1000 Ang^3
#
#
#
# Elastic Constant Matrix: (Units=GPa)
#
#
# Indices 1 2 3 4 5 6 
#
# 1 85.7988 18.6511 36.3693 0.0000 0.0000 0.0000
# 2 18.6511 72.5770 39.0053 0.0000 0.0000 0.0000
# 3 36.3693 39.0053 88.8330 0.0000 0.0000 0.0000
# 4 0.0000 0.0000 0.0000 9.7478 0.0000 0.0000
# 5 0.0000 0.0000 0.0000 0.0000 39.8385 0.0000
# 6 0.0000 0.0000 0.0000 0.0000 0.0000 35.3090
#
#
#
# Elastic Compliance Matrix: (Units=1/GPa)
#
#
# Indices 1 2 3 4 5 6 
#
# 1 0.014128 -0.000683 -0.005484 0.000000 0.000000 0.000000
# 2 -0.000683 0.018067 -0.007653 0.000000 0.000000 0.000000
# 3 -0.005484 -0.007653 0.016863 0.000000 0.000000 0.000000
# 4 0.000000 0.000000 0.000000 0.102587 0.000000 0.000000
# 5 0.000000 0.000000 0.000000 0.000000 0.025101 0.000000
# 6 0.000000 0.000000 0.000000 0.000000 0.000000 0.028321
#
#
# Mechanical properties :
#
#
# Convention : Reuss Voigt Hill
#
# Bulk Modulus (GPa) = 46.69263 48.36226 47.52744
# Shear Modulus (GPa) = 20.84645 27.19128 24.01886
#
# Velocity S-wave (km/s) = 3.45132 3.94170 3.70463
# Velocity P-wave (km/s) = 6.52397 6.95342 6.74212
#
# Compressibility (1/GPa) = 0.02141666
#
# Stress axis : x y z
#
# Youngs Moduli (GPa) = 70.77905 55.34891 59.30186
#
# Poissons Ratio (x) = 0.03782 0.32523
# Poissons Ratio (y) = 0.04837 0.45385
# Poissons Ratio (z) = 0.38818 0.42360
#
# Static dielectric constant tensor:
#      x y z
#    x 3.531660 0.000000 0.000000 
#    y 0.000000 3.583090 0.000000 
#    z 0.000000 0.000000 3.034020 
# 
# 
# High freq. dielectric constant tensor:
#      x y z
#    x 1.694670 0.000000 0.000000 
#    y 0.000000 1.697330 0.000000 
#    z 0.000000 0.000000 1.624740 
# 
# From -- ./inp_files/16303.got.cif
#   From: 2010.03.12/outbox.cif.g09.slc.cpg/sg56_9_cif.got.tgz:16303.got - 2010.04.16 15:33:40.
