data_PCOD8227600
_publ_section_title
;
Structure prediction by ZEFSAII (Michael W. Deem and Ramdas Pophale) SiO2 
 PCOD8227600
Probable space group: P B A M
;
_chemical_formula_sum "Si O2"
_cell_formula_units_Z 40
_cell_length_a 28.604977
_cell_length_b 7.777902
_cell_length_c 8.404071
_cell_angle_alpha 90.000000
_cell_angle_beta 90.000000
_cell_angle_gamma 90.000000
_cell_volume 1869.794089
_symmetry_space_group_name_H-M "P B A M"
_symmetry_group_IT_number 55
_symmetry_cell_setting 'orthorhombic'
loop_
_space_group_symop_operation_xyz
x,y,z
-x,-y,z
1/2+x,1/2-y,-z
1/2-x,1/2+y,-z
-x,-y,-z
x,y,-z
1/2-x,1/2+y,z
1/2+x,1/2-y,z
loop_
_atom_site_type_symbol
_atom_site_label
_atom_site_fract_x
_atom_site_fract_y
_atom_site_fract_z
Si Si1 0.294330 0.326724 0.684299
Si Si2 0.553718 0.472198 0.186566
Si Si3 0.800158 0.809095 0.817094
Si Si4 0.388587 0.196730 0.187845
Si Si5 0.109057 0.340041 0.684362
O O1 0.287678 0.281177 0.500000
O O2 0.246859 0.292309 0.778573
O O3 0.306866 0.525955 0.705339
O O4 0.335085 0.209591 0.755841
O O5 0.500000 0.500000 0.229476
O O6 0.582618 0.637419 0.247221
O O7 0.570547 0.303483 0.278312
O O8 0.561722 0.442731 0.000000
O O9 0.843925 0.685897 0.786271
O O10 0.800046 0.868605 0.000000
O O11 0.411179 0.026701 0.266462
O O12 0.391513 0.180028 0.000000
O O13 0.121845 0.336025 0.500000
#
# Coordination Sequence:
#
# PCOD8227600 Si02
#       5
#     8   8   8   8   8
#     4  12  24  40  62  94 133 171 217 273 332 388
#     4  10  23  45  72  99 130 173 226 280 334 397
#     4  12  24  41  63  91 129 175 223 267 323 395
#     4  11  23  42  68  96 132 176 222 271 328 397
#     4  12  25  42  66  97 135 174 218 277 336 391
#
# _framework density 21.39273
#
# number of rings (size 3 to 8) (size 9 to 14) (size 15 to 20)
#    0.000    0.600    2.000    7.200    0.000    2.000 
#    0.000    4.000    0.000    0.000    0.000    0.000 
#    0.000    0.000    0.000    0.000    0.000    0.000 
#
# Total GULP energy -496353.502587 kJ/mol
# GULP energy per Si atom -12408.837565 kJ/mol
# Density = 2.134404 g / cm^3
# Si number density = 21.392730 Si / 1000 Ang^3
#
#
#
# Elastic Constant Matrix: (Units=GPa)
#
#
# Indices 1 2 3 4 5 6 
#
# 1 104.1033 24.6752 18.3212 0.0000 0.0000 0.0000
# 2 24.6752 120.2503 12.5158 0.0000 0.0000 0.0000
# 3 18.3212 12.5158 70.9092 0.0000 0.0000 0.0000
# 4 0.0000 0.0000 0.0000 33.2376 0.0000 0.0000
# 5 0.0000 0.0000 0.0000 0.0000 15.8624 0.0000
# 6 0.0000 0.0000 0.0000 0.0000 0.0000 26.1063
#
#
#
# Elastic Compliance Matrix: (Units=1/GPa)
#
#
# Indices 1 2 3 4 5 6 
#
# 1 0.010474 -0.001903 -0.002370 0.000000 0.000000 0.000000
# 2 -0.001903 0.008817 -0.001065 0.000000 0.000000 0.000000
# 3 -0.002370 -0.001065 0.014903 0.000000 0.000000 0.000000
# 4 0.000000 0.000000 0.000000 0.030086 0.000000 0.000000
# 5 0.000000 0.000000 0.000000 0.000000 0.063042 0.000000
# 6 0.000000 0.000000 0.000000 0.000000 0.000000 0.038305
#
#
# Mechanical properties :
#
#
# Convention : Reuss Voigt Hill
#
# Bulk Modulus (GPa) = 42.51922 45.14304 43.83113
# Shear Modulus (GPa) = 27.15289 31.02463 29.08876
#
# Velocity S-wave (km/s) = 3.56653 3.81234 3.69148
# Velocity P-wave (km/s) = 6.07280 6.36603 6.22114
#
# Compressibility (1/GPa) = 0.02351878
#
# Stress axis : x y z
#
# Youngs Moduli (GPa) = 95.47482 113.41466 67.10092
#
# Poissons Ratio (x) = 0.21577 0.15906
# Poissons Ratio (y) = 0.18164 0.07144
# Poissons Ratio (z) = 0.22631 0.12075
#
# Static dielectric constant tensor:
#      x y z
#    x 3.797910 0.000000 0.000000 
#    y 0.000000 4.022470 0.000000 
#    z 0.000000 0.000000 3.797480 
# 
# 
# High freq. dielectric constant tensor:
#      x y z
#    x 1.833400 0.000000 0.000000 
#    y 0.000000 1.854820 0.000000 
#    z 0.000000 0.000000 1.843600 
# 
# From -- ./inp_files/10002.got.cif
#   From: 2010.03.12/outbox.cif.g09.slc.cpg/sg55_6_cif.got.tgz:10002.got - 2010.04.16 15:19:21.
