data_PCOD8227852
_publ_section_title
;
Structure prediction by ZEFSAII (Michael W. Deem and Ramdas Pophale) SiO2 
 PCOD8227852
Probable space group: P C C N
;
_chemical_formula_sum "Si O2"
_cell_formula_units_Z 60
_cell_length_a 11.258369
_cell_length_b 14.832990
_cell_length_c 23.867855
_cell_angle_alpha 90.000000
_cell_angle_beta 90.000000
_cell_angle_gamma 90.000000
_cell_volume 3985.819004
_symmetry_space_group_name_H-M "P C C N"
_symmetry_group_IT_number 56
_symmetry_cell_setting 'orthorhombic'
loop_
_space_group_symop_operation_xyz
x,y,z
1/2-x,1/2-y,z
1/2+x,-y,1/2-z
-x,1/2+y,1/2-z
-x,-y,-z
1/2+x,1/2+y,-z
1/2-x,y,1/2+z
x,1/2-y,1/2+z
loop_
_atom_site_type_symbol
_atom_site_label
_atom_site_fract_x
_atom_site_fract_y
_atom_site_fract_z
Si Si1 0.789448 0.149872 0.249761
Si Si2 0.853738 0.548620 0.954351
Si Si3 0.250000 0.750000 0.430410
Si Si4 0.083038 0.596063 0.828327
Si Si5 0.619249 0.416123 0.547034
Si Si6 0.552716 0.299422 0.152325
Si Si7 0.646198 0.002225 0.834936
Si Si8 0.204855 0.348845 0.626201
O O1 0.750000 0.250000 0.267367
O O2 0.684368 0.097670 0.218050
O O3 0.905872 0.154899 0.210533
O O4 0.815580 0.094402 0.305768
O O5 0.872175 0.479878 0.901633
O O6 0.754037 0.622815 0.936251
O O7 0.979899 0.596036 0.967175
O O8 0.816973 0.493152 0.009633
O O9 0.319983 0.679189 0.468947
O O10 0.161319 0.692561 0.390965
O O11 0.138336 0.561903 0.887324
O O12 0.023833 0.694040 0.838597
O O13 0.978098 0.530501 0.807792
O O14 0.437996 0.350958 0.128143
O O15 0.744322 0.921742 0.828803
O O16 0.250000 0.250000 0.642482
#
# Coordination Sequence:
#
# PCOD8227852 Si02
#       8
#     8   8   4   8   8   8   8   8
#     4  10  19  31  46  69 100 131 159 197 240 289
#     4   8  18  29  46  69  92 120 156 192 245 275
#     4  10  16  28  50  70  86 120 166 194 230 278
#     4   9  16  31  50  70  89 122 171 191 234 281
#     4   9  14  31  48  67  92 117 157 200 221 289
#     4  10  16  29  47  69  93 121 156 204 236 268
#     4   9  19  29  45  72  94 123 159 192 240 289
#     4  10  17  30  46  71  96 116 157 206 236 278
#
# _framework density 15.053367
#
# number of rings (size 3 to 8) (size 9 to 14) (size 15 to 20)
#    0.800    1.867    4.667    0.800    1.867    0.000 
#    1.200    0.667    0.000    0.000    0.000    4.667 
#    0.000    0.000    0.000    0.000    0.000    0.000 
#
# Total GULP energy -743345.677214 kJ/mol
# GULP energy per Si atom -12389.094620 kJ/mol
# Density = 1.501911 g / cm^3
# Si number density = 15.053367 Si / 1000 Ang^3
#
#
#
# Elastic Constant Matrix: (Units=GPa)
#
#
# Indices 1 2 3 4 5 6 
#
# 1 93.1996 42.6019 33.0905 0.0000 0.0000 0.0000
# 2 42.6019 80.6918 44.4826 0.0000 0.0000 0.0000
# 3 33.0905 44.4826 56.7971 0.0000 0.0000 0.0000
# 4 0.0000 0.0000 0.0000 30.7474 0.0000 0.0000
# 5 0.0000 0.0000 0.0000 0.0000 18.3225 0.0000
# 6 0.0000 0.0000 0.0000 0.0000 0.0000 25.4046
#
#
#
# Elastic Compliance Matrix: (Units=1/GPa)
#
#
# Indices 1 2 3 4 5 6 
#
# 1 0.014739 -0.005363 -0.004386 0.000000 0.000000 0.000000
# 2 -0.005363 0.023760 -0.015484 0.000000 0.000000 0.000000
# 3 -0.004386 -0.015484 0.032289 0.000000 0.000000 0.000000
# 4 0.000000 0.000000 0.000000 0.032523 0.000000 0.000000
# 5 0.000000 0.000000 0.000000 0.000000 0.054578 0.000000
# 6 0.000000 0.000000 0.000000 0.000000 0.000000 0.039363
#
#
# Mechanical properties :
#
#
# Convention : Reuss Voigt Hill
#
# Bulk Modulus (GPa) = 49.21153 52.33761 50.77457
# Shear Modulus (GPa) = 19.64700 22.26248 20.95474
#
# Velocity S-wave (km/s) = 3.61661 3.84982 3.73504
# Velocity P-wave (km/s) = 7.08535 7.38952 7.23903
#
# Compressibility (1/GPa) = 0.02032044
#
# Stress axis : x y z
#
# Youngs Moduli (GPa) = 67.84884 42.08731 30.97055
#
# Poissons Ratio (x) = 0.22573 0.13585
# Poissons Ratio (y) = 0.36390 0.47954
# Poissons Ratio (z) = 0.29761 0.65167
#
# Static dielectric constant tensor:
#      x y z
#    x 2.925290 0.000000 0.000000 
#    y 0.000000 2.731630 0.000000 
#    z 0.000000 0.000000 2.662510 
# 
# 
# High freq. dielectric constant tensor:
#      x y z
#    x 1.579790 0.000000 0.000000 
#    y 0.000000 1.557910 0.000000 
#    z 0.000000 0.000000 1.547670 
# 
# From -- ./inp_files/21030.got.cif
#   From: 2010.03.12/outbox.cif.g09.slc.cpg/sg56_11_cif.got.tgz:21030.got - 2010.04.16 15:33:40.
