data_PCOD8227547
_publ_section_title
;
Structure prediction by ZEFSAII (Michael W. Deem and Ramdas Pophale) SiO2 
 PCOD8227547
Probable space group: P B A M
;
_chemical_formula_sum "Si O2"
_cell_formula_units_Z 48
_cell_length_a 8.079017
_cell_length_b 28.570131
_cell_length_c 9.236901
_cell_angle_alpha 90.000000
_cell_angle_beta 90.000000
_cell_angle_gamma 90.000000
_cell_volume 2132.048317
_symmetry_space_group_name_H-M "P B A M"
_symmetry_group_IT_number 55
_symmetry_cell_setting 'orthorhombic'
loop_
_space_group_symop_operation_xyz
x,y,z
-x,-y,z
1/2+x,1/2-y,-z
1/2-x,1/2+y,-z
-x,-y,-z
x,y,-z
1/2-x,1/2+y,z
1/2+x,1/2-y,z
loop_
_atom_site_type_symbol
_atom_site_label
_atom_site_fract_x
_atom_site_fract_y
_atom_site_fract_z
Si Si1 0.813980 0.816589 0.153174
Si Si2 0.180903 0.904756 0.827870
Si Si3 0.282656 0.316166 0.653395
Si Si4 0.501494 0.944880 0.667106
Si Si5 0.858021 0.905004 0.670596
Si Si6 0.016013 0.733035 0.249375
O O1 0.858197 0.849752 0.288933
O O2 0.622590 0.802365 0.152984
O O3 0.908168 0.767216 0.150275
O O4 0.850703 0.842950 0.000000
O O5 0.169097 0.849376 0.788478
O O6 0.351875 0.924228 0.762052
O O7 0.015744 0.928531 0.755331
O O8 0.180216 0.912267 0.000000
O O9 0.318715 0.342347 0.500000
O O10 0.375067 0.266534 0.649950
O O11 0.090504 0.302759 0.655243
O O12 0.473302 0.930398 0.500000
O O13 0.682261 0.926941 0.720986
O O14 0.500000 0.000000 0.687364
O O15 0.883913 0.911866 0.500000
#
# Coordination Sequence:
#
# PCOD8227547 Si02
#       6
#     8   8   8   8   8   8
#     4  11  22  38  58  86 125 169 216 264 318 379
#     4  12  26  43  67  99 137 177 215 266 330 394
#     4  11  22  39  60  87 123 167 220 270 317 374
#     4  10  24  48  76 103 130 165 212 267 329 399
#     4  11  24  43  69  98 131 172 218 270 325 388
#     4  10  23  35  57  88 123 167 217 271 321 367
#
# _framework density 22.513562
#
# number of rings (size 3 to 8) (size 9 to 14) (size 15 to 20)
#    0.000    1.167    1.667    4.000    0.000   11.667 
#    0.000    3.333    0.000    0.000    0.000    0.000 
#    0.000    0.000    0.000    0.000    0.000    0.000 
#
# Total GULP energy -594744.706029 kJ/mol
# GULP energy per Si atom -12390.514709 kJ/mol
# Density = 2.246232 g / cm^3
# Si number density = 22.513562 Si / 1000 Ang^3
#
#
#
# Elastic Constant Matrix: (Units=GPa)
#
#
# Indices 1 2 3 4 5 6 
#
# 1 186.6772 28.2873 70.0795 0.0000 0.0000 0.0000
# 2 28.2873 53.5399 24.2345 0.0000 0.0000 0.0000
# 3 70.0795 24.2345 156.1086 0.0000 0.0000 0.0000
# 4 0.0000 0.0000 0.0000 18.1355 0.0000 0.0000
# 5 0.0000 0.0000 0.0000 0.0000 24.4403 0.0000
# 6 0.0000 0.0000 0.0000 0.0000 0.0000 13.2050
#
#
#
# Elastic Compliance Matrix: (Units=1/GPa)
#
#
# Indices 1 2 3 4 5 6 
#
# 1 0.006706 -0.002345 -0.002646 0.000000 0.000000 0.000000
# 2 -0.002345 0.020909 -0.002193 0.000000 0.000000 0.000000
# 3 -0.002646 -0.002193 0.007934 0.000000 0.000000 0.000000
# 4 0.000000 0.000000 0.000000 0.055141 0.000000 0.000000
# 5 0.000000 0.000000 0.000000 0.000000 0.040916 0.000000
# 6 0.000000 0.000000 0.000000 0.000000 0.000000 0.075729
#
#
# Mechanical properties :
#
#
# Convention : Reuss Voigt Hill
#
# Bulk Modulus (GPa) = 47.21396 71.28092 59.24744
# Shear Modulus (GPa) = 21.85663 29.40445 25.63054
#
# Velocity S-wave (km/s) = 3.11918 3.61789 3.37775
# Velocity P-wave (km/s) = 5.83003 7.01300 6.44870
#
# Compressibility (1/GPa) = 0.02118018
#
# Stress axis : x y z
#
# Youngs Moduli (GPa) = 149.12958 47.82530 126.03669
#
# Poissons Ratio (x) = 0.11215 0.33352
# Poissons Ratio (y) = 0.34972 0.27643
# Poissons Ratio (z) = 0.39462 0.10489
#
# Static dielectric constant tensor:
#      x y z
#    x 4.656080 0.000000 0.000000 
#    y 0.000000 3.754170 0.000000 
#    z 0.000000 0.000000 3.889510 
# 
# 
# High freq. dielectric constant tensor:
#      x y z
#    x 1.923500 0.000000 0.000000 
#    y 0.000000 1.854720 0.000000 
#    z 0.000000 0.000000 1.876530 
# 
# From -- ./inp_files/2908.got.cif
#   From: 2010.03.12/outbox.cif.g09.slc.cpg/sg55_2_cif.got.tgz:2908.got - 2010.04.16 15:19:21.
