data_PCOD8227831
_publ_section_title
;
Structure prediction by ZEFSAII (Michael W. Deem and Ramdas Pophale) SiO2 
 PCOD8227831
Probable space group: P B A M
;
_chemical_formula_sum "Si O2"
_cell_formula_units_Z 64
_cell_length_a 12.836760
_cell_length_b 28.648753
_cell_length_c 9.249165
_cell_angle_alpha 90.000000
_cell_angle_beta 90.000000
_cell_angle_gamma 90.000000
_cell_volume 3401.446713
_symmetry_space_group_name_H-M "P B A M"
_symmetry_group_IT_number 55
_symmetry_cell_setting 'orthorhombic'
loop_
_space_group_symop_operation_xyz
x,y,z
-x,-y,z
1/2+x,1/2-y,-z
1/2-x,1/2+y,-z
-x,-y,-z
x,y,-z
1/2-x,1/2+y,z
1/2+x,1/2-y,z
loop_
_atom_site_type_symbol
_atom_site_label
_atom_site_fract_x
_atom_site_fract_y
_atom_site_fract_z
Si Si1 0.182475 0.160439 0.337673
Si Si2 0.171397 0.923960 0.828325
Si Si3 0.250835 0.021882 0.831275
Si Si4 0.189622 0.731259 0.169507
Si Si5 0.501625 0.833818 0.830043
Si Si6 0.766983 0.670731 0.170449
Si Si7 0.560947 0.410510 0.832192
Si Si8 0.877191 0.407872 0.337250
O O1 0.149057 0.173915 0.500000
O O2 0.215757 0.206614 0.252500
O O3 0.086191 0.136407 0.256371
O O4 0.277361 0.124798 0.337953
O O5 0.221969 0.876997 0.760613
O O6 0.051483 0.928331 0.779381
O O7 0.235322 0.969096 0.773944
O O8 0.176333 0.923108 0.000000
O O9 0.143070 0.048727 0.800959
O O10 0.346939 0.044095 0.743279
O O11 0.279529 0.024018 0.000000
O O12 0.193807 0.785660 0.215777
O O13 0.078040 0.709107 0.212739
O O14 0.211300 0.724907 0.000000
O O15 0.385715 0.820168 0.779247
O O16 0.531590 0.881591 0.748911
O O17 0.508814 0.844163 0.000000
O O18 0.765125 0.664996 0.000000
O O19 0.560400 0.396411 0.000000
O O20 0.914576 0.419056 0.500000
#
# Coordination Sequence:
#
# PCOD8227831 Si02
#       8
#     8   8   8   8   8   8   8   8
#     4   9  17  29  46  70  97 123 155 194 235 281
#     4   9  17  29  46  70 100 130 161 200 242 283
#     4   9  16  28  48  73  98 126 162 200 238 284
#     4   9  17  30  49  71  93 119 153 192 232 278
#     4   9  17  31  51  72  94 121 154 192 234 281
#     4   9  18  31  48  72  98 123 155 195 237 280
#     4   9  16  27  47  73  99 127 159 197 242 288
#     4   9  17  30  49  71  94 122 157 197 239 281
#
# _framework density 18.815524
#
# number of rings (size 3 to 8) (size 9 to 14) (size 15 to 20)
#    0.000    3.000    0.000    1.125    0.000    5.500 
#    0.000    5.625    0.000   12.750    0.000    0.000 
#    0.000    0.000    0.000    0.000    0.000    0.000 
#
# Total GULP energy -793397.989484 kJ/mol
# GULP energy per Si atom -12396.843586 kJ/mol
# Density = 1.877270 g / cm^3
# Si number density = 18.815524 Si / 1000 Ang^3
#
#
#
# Elastic Constant Matrix: (Units=GPa)
#
#
# Indices 1 2 3 4 5 6 
#
# 1 61.9681 40.9069 18.7948 0.0000 0.0000 0.0000
# 2 40.9069 131.6235 32.2600 0.0000 0.0000 0.0000
# 3 18.7948 32.2600 52.7494 0.0000 0.0000 0.0000
# 4 0.0000 0.0000 0.0000 7.0514 0.0000 0.0000
# 5 0.0000 0.0000 0.0000 0.0000 8.4546 0.0000
# 6 0.0000 0.0000 0.0000 0.0000 0.0000 25.7651
#
#
#
# Elastic Compliance Matrix: (Units=1/GPa)
#
#
# Indices 1 2 3 4 5 6 
#
# 1 0.021035 -0.005529 -0.004113 0.000000 0.000000 0.000000
# 2 -0.005529 0.010390 -0.004384 0.000000 0.000000 0.000000
# 3 -0.004113 -0.004384 0.023105 0.000000 0.000000 0.000000
# 4 0.000000 0.000000 0.000000 0.141815 0.000000 0.000000
# 5 0.000000 0.000000 0.000000 0.000000 0.118278 0.000000
# 6 0.000000 0.000000 0.000000 0.000000 0.000000 0.038812
#
#
# Mechanical properties :
#
#
# Convention : Reuss Voigt Hill
#
# Bulk Modulus (GPa) = 37.77007 47.80716 42.78862
# Shear Modulus (GPa) = 12.81019 18.54619 15.67819
#
# Velocity S-wave (km/s) = 2.61210 3.14297 2.88975
# Velocity P-wave (km/s) = 5.40508 6.21567 5.82449
#
# Compressibility (1/GPa) = 0.02647599
#
# Stress axis : x y z
#
# Youngs Moduli (GPa) = 47.54008 96.24236 43.28158
#
# Poissons Ratio (x) = 0.53215 0.17803
# Poissons Ratio (y) = 0.26286 0.18976
# Poissons Ratio (z) = 0.19555 0.42197
#
# Static dielectric constant tensor:
#      x y z
#    x 3.369200 0.000000 0.000000 
#    y 0.000000 3.604560 0.000000 
#    z 0.000000 0.000000 3.260250 
# 
# 
# High freq. dielectric constant tensor:
#      x y z
#    x 1.715430 0.000000 0.000000 
#    y 0.000000 1.730110 0.000000 
#    z 0.000000 0.000000 1.695400 
# 
# From -- ./inp_files/4695.got.cif
#   From: 2010.03.12/outbox.cif.g09.slc.cpg/sg55_3_cif.got.tgz:4695.got - 2010.04.16 15:19:21.
