data_PCOD8227075
_publ_section_title
;
Structure prediction by ZEFSAII (Michael W. Deem and Ramdas Pophale) SiO2 
 PCOD8227075
Probable space group: P B A M
;
_chemical_formula_sum "Si O2"
_cell_formula_units_Z 36
_cell_length_a 5.012826
_cell_length_b 13.183934
_cell_length_c 26.134556
_cell_angle_alpha 90.000000
_cell_angle_beta 90.000000
_cell_angle_gamma 90.000000
_cell_volume 1727.200586
_symmetry_space_group_name_H-M "P B A M"
_symmetry_group_IT_number 55
_symmetry_cell_setting 'orthorhombic'
loop_
_space_group_symop_operation_xyz
x,y,z
-x,-y,z
1/2+x,1/2-y,-z
1/2-x,1/2+y,-z
-x,-y,-z
x,y,-z
1/2-x,1/2+y,z
1/2+x,1/2-y,z
loop_
_atom_site_type_symbol
_atom_site_label
_atom_site_fract_x
_atom_site_fract_y
_atom_site_fract_z
Si Si1 0.441801 0.316359 0.554590
Si Si2 0.442628 0.814337 0.000000
Si Si3 0.448994 0.181159 0.109310
Si Si4 0.000000 0.000000 0.259031
Si Si5 0.000000 0.500000 0.186715
Si Si6 0.048820 0.180622 0.336828
O O1 0.492586 0.375570 0.500000
O O2 0.134010 0.282412 0.555663
O O3 0.508563 0.375613 0.607441
O O4 0.513046 0.872227 0.053092
O O5 0.129601 0.786894 0.000000
O O6 0.651994 0.275212 0.115226
O O7 0.501921 0.099570 0.152417
O O8 0.001257 0.900050 0.293128
O O9 0.749934 0.002512 0.222895
O O10 0.344983 0.225410 0.331450
#
# Coordination Sequence:
#
# PCOD8227075 Si02
#       6
#     8   4   8   4   4   8
#     4   8  14  27  50  78 104 133 172 217 271 333
#     4   8  16  33  58  85 112 142 176 219 272 333
#     4  10  21  39  61  86 116 146 181 227 278 330
#     4  12  26  40  55  83 112 144 200 236 260 328
#     4  12  26  39  58  84 111 150 192 232 274 318
#     4  10  21  38  59  80 109 148 182 227 285 326
#
# _framework density 20.842977000000001
#
# number of rings (size 3 to 8) (size 9 to 14) (size 15 to 20)
#    0.000    2.222    0.000    2.667    0.000    5.778 
#    0.000    0.556    0.000    9.333    0.000   17.111 
#    0.000    0.000    0.000    0.000    0.000    0.000 
#
# Total GULP energy -445980.294713 kJ/mol
# GULP energy per Si atom -12388.341520 kJ/mol
# Density = 2.079554 g / cm^3
# Si number density = 20.842977 Si / 1000 Ang^3
#
#
#
# Elastic Constant Matrix: (Units=GPa)
#
#
# Indices 1 2 3 4 5 6 
#
# 1 109.2798 11.7101 43.5667 0.0000 0.0000 0.0000
# 2 11.7101 51.5069 61.2955 0.0000 0.0000 0.0000
# 3 43.5667 61.2955 221.9785 0.0000 0.0000 0.0000
# 4 0.0000 0.0000 0.0000 -630.9830 0.0000 0.0000
# 5 0.0000 0.0000 0.0000 0.0000 35.0364 0.0000
# 6 0.0000 0.0000 0.0000 0.0000 0.0000 18.0688
#
#
#
# Elastic Compliance Matrix: (Units=1/GPa)
#
#
# Indices 1 2 3 4 5 6 
#
# 1 0.009928 0.000092 -0.001974 0.000000 0.000000 0.000000
# 2 0.000092 0.028918 -0.008003 0.000000 0.000000 0.000000
# 3 -0.001974 -0.008003 0.007102 0.000000 0.000000 0.000000
# 4 0.000000 0.000000 0.000000 -0.001585 0.000000 0.000000
# 5 0.000000 0.000000 0.000000 0.000000 0.028542 0.000000
# 6 0.000000 0.000000 0.000000 0.000000 0.000000 0.055344
#
#
# Mechanical properties :
#
#
# Convention : Reuss Voigt Hill
#
# Bulk Modulus (GPa) = 38.20014 68.43442 53.31728
# Shear Modulus (GPa) = 31.89871 -97.82937 -32.96533
#
# Velocity S-wave (km/s) = 3.91631 -6.85844 -3.98125
# Velocity P-wave (km/s) = 6.23036 5.46014 2.12183
#
# Compressibility (1/GPa) = 0.02617792
#
# Stress axis : x y z
#
# Youngs Moduli (GPa) = 100.72615 34.58017 140.79903
#
# Poissons Ratio (x) = -0.00318 0.27792
# Poissons Ratio (y) = -0.00926 1.12686
# Poissons Ratio (z) = 0.19882 0.27676
#
# Static dielectric constant tensor:
#      x y z
#    x 3.925090 0.000000 0.000000 
#    y 0.000000 3.084240 0.000000 
#    z 0.000000 0.000000 4.522870 
# 
# 
# High freq. dielectric constant tensor:
#      x y z
#    x 1.839650 0.000000 0.000000 
#    y 0.000000 1.745050 0.000000 
#    z 0.000000 0.000000 1.856100 
# 
# From -- ./inp_files/23242.got.cif
#   From: 2010.03.12/outbox.cif.g09.slc.cpg/sg55_12_cif.got.tgz:23242.got - 2010.04.16 15:19:21.
