data_PCOD8227955
_publ_section_title
;
Structure prediction by ZEFSAII (Michael W. Deem and Ramdas Pophale) SiO2 
 PCOD8227955
Probable space group: P C C N
;
_chemical_formula_sum "Si O2"
_cell_formula_units_Z 64
_cell_length_a 8.759949
_cell_length_b 14.784215
_cell_length_c 22.740162
_cell_angle_alpha 90.000000
_cell_angle_beta 90.000000
_cell_angle_gamma 90.000000
_cell_volume 2945.054945
_symmetry_space_group_name_H-M "P C C N"
_symmetry_group_IT_number 56
_symmetry_cell_setting 'orthorhombic'
loop_
_space_group_symop_operation_xyz
x,y,z
1/2-x,1/2-y,z
1/2+x,-y,1/2-z
-x,1/2+y,1/2-z
-x,-y,-z
1/2+x,1/2+y,-z
1/2-x,y,1/2+z
x,1/2-y,1/2+z
loop_
_atom_site_type_symbol
_atom_site_label
_atom_site_fract_x
_atom_site_fract_y
_atom_site_fract_z
Si Si1 0.418368 0.784354 0.756637
Si Si2 0.808130 0.052727 0.050450
Si Si3 0.568219 0.232947 0.869425
Si Si4 0.460385 0.641244 0.846314
Si Si5 0.563869 0.405035 0.930111
Si Si6 0.279887 0.533885 0.279092
Si Si7 0.045823 0.032477 0.385521
Si Si8 0.236992 0.026351 0.151756
O O1 0.250000 0.750000 0.747953
O O2 0.501972 0.753582 0.696032
O O3 0.482945 0.740042 0.817208
O O4 0.412271 0.891890 0.766148
O O5 0.847850 0.133801 0.096966
O O6 0.639618 0.009467 0.059497
O O7 0.820065 0.094600 0.985563
O O8 0.923619 0.970119 0.057869
O O9 0.750000 0.250000 0.871268
O O10 0.498978 0.305078 0.916131
O O11 0.516623 0.134500 0.892401
O O12 0.383958 0.576948 0.796611
O O13 0.629682 0.610454 0.865677
O O14 0.657700 0.435069 0.872202
O O15 0.340029 0.467940 0.329840
O O16 0.246038 0.475829 0.221698
O O17 0.903518 0.964214 0.376927
#
# Coordination Sequence:
#
# PCOD8227955 Si02
#       8
#     8   8   8   8   8   8   8   8
#     4   9  16  31  56  83 121 159 204 244 297 364
#     4   9  22  40  58  86 114 159 203 246 314 363
#     4  11  19  35  58  93 117 155 201 253 307 354
#     4   9  19  33  57  81 114 162 197 235 304 374
#     4  10  20  39  63  80 117 158 203 252 303 376
#     4  10  18  33  54  87 120 160 202 251 303 364
#     4  11  22  35  59  90 123 152 207 258 300 365
#     4  11  18  33  56  83 119 157 197 247 308 358
#
# _framework density 21.731342000000001
#
# number of rings (size 3 to 8) (size 9 to 14) (size 15 to 20)
#    0.000    2.000    2.500    3.000    0.000    1.000 
#    0.000    3.750    2.750    0.000    0.000    0.000 
#    0.000    0.000    0.000    0.000    0.000    0.000 
#
# Total GULP energy -793111.165064 kJ/mol
# GULP energy per Si atom -12392.361954 kJ/mol
# Density = 2.168188 g / cm^3
# Si number density = 21.731342 Si / 1000 Ang^3
#
#
#
# Elastic Constant Matrix: (Units=GPa)
#
#
# Indices 1 2 3 4 5 6 
#
# 1 84.3034 16.1549 20.0488 0.0000 0.0000 0.0000
# 2 16.1549 72.3397 33.9984 0.0000 0.0000 0.0000
# 3 20.0488 33.9984 91.9844 0.0000 0.0000 0.0000
# 4 0.0000 0.0000 0.0000 28.6894 0.0000 0.0000
# 5 0.0000 0.0000 0.0000 0.0000 27.2965 0.0000
# 6 0.0000 0.0000 0.0000 0.0000 0.0000 20.1251
#
#
#
# Elastic Compliance Matrix: (Units=1/GPa)
#
#
# Indices 1 2 3 4 5 6 
#
# 1 0.012714 -0.001860 -0.002084 0.000000 0.000000 0.000000
# 2 -0.001860 0.017002 -0.005879 0.000000 0.000000 0.000000
# 3 -0.002084 -0.005879 0.013498 0.000000 0.000000 0.000000
# 4 0.000000 0.000000 0.000000 0.034856 0.000000 0.000000
# 5 0.000000 0.000000 0.000000 0.000000 0.036635 0.000000
# 6 0.000000 0.000000 0.000000 0.000000 0.000000 0.049689
#
#
# Mechanical properties :
#
#
# Convention : Reuss Voigt Hill
#
# Bulk Modulus (GPa) = 42.42763 43.22576 42.82669
# Shear Modulus (GPa) = 26.05587 27.11722 26.58655
#
# Velocity S-wave (km/s) = 3.46641 3.53631 3.50154
# Velocity P-wave (km/s) = 5.96552 6.05047 6.00814
#
# Compressibility (1/GPa) = 0.02356955
#
# Stress axis : x y z
#
# Youngs Moduli (GPa) = 78.65422 58.81691 74.08297
#
# Poissons Ratio (x) = 0.10940 0.15436
# Poissons Ratio (y) = 0.14630 0.43551
# Poissons Ratio (z) = 0.16389 0.34577
#
# Static dielectric constant tensor:
#      x y z
#    x 3.796340 0.000000 0.000000 
#    y 0.000000 3.991970 0.000000 
#    z 0.000000 0.000000 4.118520 
# 
# 
# High freq. dielectric constant tensor:
#      x y z
#    x 1.834920 0.000000 0.000000 
#    y 0.000000 1.830570 0.000000 
#    z 0.000000 0.000000 1.848000 
# 
# From -- ./inp_files/20715.got.cif
#   From: 2010.03.12/outbox.cif.g09.slc.cpg/sg56_11_cif.got.tgz:20715.got - 2010.04.16 15:33:40.
