data_PCOD8227213
_publ_section_title
;
Structure prediction by ZEFSAII (Michael W. Deem and Ramdas Pophale) SiO2 
 PCOD8227213
Probable space group: P B A M
;
_chemical_formula_sum "Si O2"
_cell_formula_units_Z 56
_cell_length_a 19.728408
_cell_length_b 16.227629
_cell_length_c 8.599850
_cell_angle_alpha 90.000000
_cell_angle_beta 90.000000
_cell_angle_gamma 90.000000
_cell_volume 2753.201436
_symmetry_space_group_name_H-M "P B A M"
_symmetry_group_IT_number 55
_symmetry_cell_setting 'orthorhombic'
loop_
_space_group_symop_operation_xyz
x,y,z
-x,-y,z
1/2+x,1/2-y,-z
1/2-x,1/2+y,-z
-x,-y,-z
x,y,-z
1/2-x,1/2+y,z
1/2+x,1/2-y,z
loop_
_atom_site_type_symbol
_atom_site_label
_atom_site_fract_x
_atom_site_fract_y
_atom_site_fract_z
Si Si1 0.814976 0.989092 0.819524
Si Si2 0.527726 0.737395 0.180011
Si Si3 0.142408 0.658226 0.677602
Si Si4 0.056446 0.934651 0.319031
Si Si5 0.111419 0.321036 0.180214
Si Si6 0.175982 0.475856 0.319595
Si Si7 0.297995 0.684949 0.321597
O O1 0.824522 0.905519 0.722270
O O2 0.875573 0.050934 0.778995
O O3 0.744862 0.034538 0.778138
O O4 0.816061 0.966690 0.000000
O O5 0.593394 0.793258 0.207727
O O6 0.528899 0.655940 0.283798
O O7 0.461813 0.788298 0.231396
O O8 0.524025 0.712072 0.000000
O O9 0.119566 0.672932 0.500000
O O10 0.139237 0.561749 0.721072
O O11 0.217867 0.691927 0.704532
O O12 0.073623 0.943087 0.500000
O O13 0.000000 0.000000 0.266541
O O14 0.124806 0.402828 0.279547
O O15 0.167801 0.252468 0.213087
O O16 0.113502 0.344516 0.000000
O O17 0.196384 0.474284 0.500000
O O18 0.317672 0.701805 0.500000
#
# Coordination Sequence:
#
# PCOD8227213 Si02
#       7
#     8   8   8   8   8   8   8
#     4  11  22  38  62  91 123 158 199 252 309 369
#     4  11  25  41  60  89 125 164 204 253 312 370
#     4   9  21  41  63  88 119 158 205 255 306 364
#     4  11  24  41  63  89 122 164 208 253 305 370
#     4  11  24  40  60  90 125 162 205 253 310 369
#     4  10  22  41  64  90 120 158 206 255 305 365
#     4  10  21  39  63  90 122 161 204 254 307 364
#
# _framework density 20.339959
#
# number of rings (size 3 to 8) (size 9 to 14) (size 15 to 20)
#    0.000    1.571    0.000    5.143    2.000    9.714 
#    0.000    2.857    0.000    0.000    0.000    0.000 
#    0.000    0.000    0.000    0.000    0.000    0.000 
#
# Total GULP energy -694842.159328 kJ/mol
# GULP energy per Si atom -12407.895702 kJ/mol
# Density = 2.029366 g / cm^3
# Si number density = 20.339959 Si / 1000 Ang^3
#
#
#
# Elastic Constant Matrix: (Units=GPa)
#
#
# Indices 1 2 3 4 5 6 
#
# 1 96.2727 50.0198 37.2826 0.0000 0.0000 0.0000
# 2 50.0198 76.7015 24.8415 0.0000 0.0000 0.0000
# 3 37.2826 24.8415 61.1620 0.0000 0.0000 0.0000
# 4 0.0000 0.0000 0.0000 33.3405 0.0000 0.0000
# 5 0.0000 0.0000 0.0000 0.0000 32.5442 0.0000
# 6 0.0000 0.0000 0.0000 0.0000 0.0000 32.4258
#
#
#
# Elastic Compliance Matrix: (Units=1/GPa)
#
#
# Indices 1 2 3 4 5 6 
#
# 1 0.018088 -0.009471 -0.007179 0.000000 0.000000 0.000000
# 2 -0.009471 0.019971 -0.002338 0.000000 0.000000 0.000000
# 3 -0.007179 -0.002338 0.021676 0.000000 0.000000 0.000000
# 4 0.000000 0.000000 0.000000 0.029994 0.000000 0.000000
# 5 0.000000 0.000000 0.000000 0.000000 0.030727 0.000000
# 6 0.000000 0.000000 0.000000 0.000000 0.000000 0.030840
#
#
# Mechanical properties :
#
#
# Convention : Reuss Voigt Hill
#
# Bulk Modulus (GPa) = 45.95927 50.93601 48.44764
# Shear Modulus (GPa) = 25.44200 27.79493 26.61846
#
# Velocity S-wave (km/s) = 3.54056 3.70066 3.62149
# Velocity P-wave (km/s) = 6.27365 6.58457 6.43099
#
# Compressibility (1/GPa) = 0.02175840
#
# Stress axis : x y z
#
# Youngs Moduli (GPa) = 55.28508 50.07246 46.13377
#
# Poissons Ratio (x) = 0.47422 0.33121
# Poissons Ratio (y) = 0.52359 0.10788
# Poissons Ratio (z) = 0.39691 0.11709
#
# Static dielectric constant tensor:
#      x y z
#    x 3.667410 0.000000 0.000000 
#    y 0.000000 3.671870 0.000000 
#    z 0.000000 0.000000 3.635920 
# 
# 
# High freq. dielectric constant tensor:
#      x y z
#    x 1.796950 0.000000 0.000000 
#    y 0.000000 1.799560 0.000000 
#    z 0.000000 0.000000 1.801080 
# 
# From -- ./inp_files/8741.got.cif
#   From: 2010.03.12/outbox.cif.g09.slc.cpg/sg55_5_cif.got.tgz:8741.got - 2010.04.16 15:19:21.
