data_PCOD8227904
_publ_section_title
;
Structure prediction by ZEFSAII (Michael W. Deem and Ramdas Pophale) SiO2 
 PCOD8227904
Probable space group: P C C N
;
_chemical_formula_sum "Si O2"
_cell_formula_units_Z 60
_cell_length_a 14.587605
_cell_length_b 17.969075
_cell_length_c 11.877913
_cell_angle_alpha 90.000000
_cell_angle_beta 90.000000
_cell_angle_gamma 90.000000
_cell_volume 3113.507071
_symmetry_space_group_name_H-M "P C C N"
_symmetry_group_IT_number 56
_symmetry_cell_setting 'orthorhombic'
loop_
_space_group_symop_operation_xyz
x,y,z
1/2-x,1/2-y,z
1/2+x,-y,1/2-z
-x,1/2+y,1/2-z
-x,-y,-z
1/2+x,1/2+y,-z
1/2-x,y,1/2+z
x,1/2-y,1/2+z
loop_
_atom_site_type_symbol
_atom_site_label
_atom_site_fract_x
_atom_site_fract_y
_atom_site_fract_z
Si Si1 0.617722 0.461203 0.134653
Si Si2 0.674057 0.568889 0.952864
Si Si3 0.003499 0.343271 0.541381
Si Si4 0.250000 0.250000 0.731497
Si Si5 0.305655 0.989444 0.758843
Si Si6 0.423396 0.189133 0.102674
Si Si7 0.825953 0.871550 0.602247
Si Si8 0.511421 0.090041 0.294270
O O1 0.579975 0.378595 0.112080
O O2 0.715620 0.449397 0.193713
O O3 0.548174 0.514166 0.203725
O O4 0.628301 0.498226 0.012855
O O5 0.594213 0.620682 0.904608
O O6 0.731244 0.536607 0.848391
O O7 0.730614 0.619912 0.036778
O O8 0.998847 0.360731 0.407613
O O9 0.008896 0.256614 0.570205
O O10 0.176408 0.209304 0.652329
O O11 0.307986 0.192385 0.806461
O O12 0.381960 0.929158 0.725767
O O13 0.350169 0.048202 0.845631
O O14 0.477210 0.137766 0.189209
O O15 0.407265 0.148158 0.983425
#
# Coordination Sequence:
#
# PCOD8227904 Si02
#       8
#     8   8   8   4   8   8   8   8
#     4  10  20  36  63  90 113 158 211 244 293 367
#     4  10  17  35  60  88 116 154 195 245 298 368
#     4  11  20  38  62  86 120 157 205 246 303 368
#     4  12  22  38  58  90 132 164 188 242 326 374
#     4  11  21  36  63  86 123 160 203 254 304 354
#     4  12  24  36  59  90 127 159 199 255 306 372
#     4  11  22  34  56  94 126 156 193 247 313 373
#     4  11  22  41  63  91 119 161 205 251 306 367
#
# _framework density 19.270873999999999
#
# number of rings (size 3 to 8) (size 9 to 14) (size 15 to 20)
#    0.000    1.067    2.667    8.400    0.000    0.533 
#    0.000    0.667    0.000    1.600    0.000    0.000 
#    0.000    0.000    0.000    0.000    0.000    0.000 
#
# Total GULP energy -743892.011811 kJ/mol
# GULP energy per Si atom -12398.200197 kJ/mol
# Density = 1.922701 g / cm^3
# Si number density = 19.270874 Si / 1000 Ang^3
#
#
#
# Elastic Constant Matrix: (Units=GPa)
#
#
# Indices 1 2 3 4 5 6 
#
# 1 51.8408 30.5605 20.4552 0.0000 0.0000 0.0000
# 2 30.5605 75.1281 36.2831 0.0000 0.0000 0.0000
# 3 20.4552 36.2831 79.3890 0.0000 0.0000 0.0000
# 4 0.0000 0.0000 0.0000 30.5193 0.0000 0.0000
# 5 0.0000 0.0000 0.0000 0.0000 35.0323 0.0000
# 6 0.0000 0.0000 0.0000 0.0000 0.0000 25.9981
#
#
#
# Elastic Compliance Matrix: (Units=1/GPa)
#
#
# Indices 1 2 3 4 5 6 
#
# 1 0.025717 -0.009318 -0.002368 0.000000 0.000000 0.000000
# 2 -0.009318 0.020457 -0.006948 0.000000 0.000000 0.000000
# 3 -0.002368 -0.006948 0.016382 0.000000 0.000000 0.000000
# 4 0.000000 0.000000 0.000000 0.032766 0.000000 0.000000
# 5 0.000000 0.000000 0.000000 0.000000 0.028545 0.000000
# 6 0.000000 0.000000 0.000000 0.000000 0.000000 0.038464
#
#
# Mechanical properties :
#
#
# Convention : Reuss Voigt Hill
#
# Bulk Modulus (GPa) = 39.54488 42.32839 40.93664
# Shear Modulus (GPa) = 24.03526 26.24723 25.14124
#
# Velocity S-wave (km/s) = 3.53545 3.69455 3.61588
# Velocity P-wave (km/s) = 6.10172 6.34131 6.22267
#
# Compressibility (1/GPa) = 0.02528772
#
# Stress axis : x y z
#
# Youngs Moduli (GPa) = 38.88502 48.88411 61.04287
#
# Poissons Ratio (x) = 0.45548 0.14453
# Poissons Ratio (y) = 0.36231 0.42416
# Poissons Ratio (z) = 0.09207 0.33967
#
# Static dielectric constant tensor:
#      x y z
#    x 3.364930 0.000000 0.000000 
#    y 0.000000 3.485390 0.000000 
#    z 0.000000 0.000000 3.747420 
# 
# 
# High freq. dielectric constant tensor:
#      x y z
#    x 1.731270 0.000000 0.000000 
#    y 0.000000 1.735920 0.000000 
#    z 0.000000 0.000000 1.764620 
# 
# From -- ./inp_files/8023.got.cif
#   From: 2010.03.12/outbox.cif.g09.slc.cpg/sg56_5_cif.got.tgz:8023.got - 2010.04.16 15:33:40.
