data_PCOD8227654
_publ_section_title
;
Structure prediction by ZEFSAII (Michael W. Deem and Ramdas Pophale) SiO2 
 PCOD8227654
Probable space group: P B A M
;
_chemical_formula_sum "Si O2"
_cell_formula_units_Z 56
_cell_length_a 13.549398
_cell_length_b 29.899769
_cell_length_c 8.965560
_cell_angle_alpha 90.000000
_cell_angle_beta 90.000000
_cell_angle_gamma 90.000000
_cell_volume 3632.162367
_symmetry_space_group_name_H-M "P B A M"
_symmetry_group_IT_number 55
_symmetry_cell_setting 'orthorhombic'
loop_
_space_group_symop_operation_xyz
x,y,z
-x,-y,z
1/2+x,1/2-y,-z
1/2-x,1/2+y,-z
-x,-y,-z
x,y,-z
1/2-x,1/2+y,z
1/2+x,1/2-y,z
loop_
_atom_site_type_symbol
_atom_site_label
_atom_site_fract_x
_atom_site_fract_y
_atom_site_fract_z
Si Si1 0.382656 0.500006 0.836307
Si Si2 0.793820 0.185168 0.173922
Si Si3 0.275938 0.682294 0.825292
Si Si4 0.111691 0.095902 0.821434
Si Si5 0.609626 0.595461 0.177980
Si Si6 0.404057 0.767651 0.170932
Si Si7 0.106294 0.732677 0.675661
O O1 0.500000 0.500000 0.851912
O O2 0.352039 0.547135 0.757049
O O3 0.352768 0.452909 0.755575
O O4 0.333718 0.500225 0.000000
O O5 0.817435 0.134969 0.230057
O O6 0.678979 0.194890 0.203641
O O7 0.863546 0.219204 0.261158
O O8 0.819644 0.191270 0.000000
O O9 0.315237 0.634670 0.764975
O O10 0.359596 0.719060 0.792113
O O11 0.175995 0.693570 0.738625
O O12 0.251180 0.681377 0.000000
O O13 0.000858 0.106472 0.764460
O O14 0.111175 0.094396 0.000000
O O15 0.608168 0.591130 0.000000
O O16 0.494632 0.778231 0.278429
O O17 0.439761 0.769752 0.000000
O O18 0.115711 0.733482 0.500000
#
# Coordination Sequence:
#
# PCOD8227654 Si02
#       7
#     8   8   8   8   8   8   8
#     4   7  10  16  29  55  88 111 125 150 192 237
#     4   9  17  29  45  62  80 107 140 168 197 238
#     4   9  17  29  45  62  81 108 140 168 196 238
#     4   8  12  19  35  60  87 111 131 155 192 237
#     4   8  12  20  36  59  86 110 131 157 192 236
#     4   9  17  29  43  58  78 105 137 170 201 236
#     4  11  21  30  41  58  82 108 134 170 209 241
#
# _framework density 15.417813000000001
#
# number of rings (size 3 to 8) (size 9 to 14) (size 15 to 20)
#    0.000    3.286    0.000    4.714    0.000    4.571 
#    0.000    0.000    0.000    0.000    0.000    2.000 
#    0.000   12.571    0.000    0.000    0.000    0.000 
#
# Total GULP energy -693790.263979 kJ/mol
# GULP energy per Si atom -12389.111857 kJ/mol
# Density = 1.538272 g / cm^3
# Si number density = 15.417813 Si / 1000 Ang^3
#
#
#
# Elastic Constant Matrix: (Units=GPa)
#
#
# Indices 1 2 3 4 5 6 
#
# 1 83.8567 63.9203 32.0679 0.0000 0.0000 0.0000
# 2 63.9203 165.6703 27.5333 0.0000 0.0000 0.0000
# 3 32.0679 27.5333 40.9178 0.0000 0.0000 0.0000
# 4 0.0000 0.0000 0.0000 3.9352 0.0000 0.0000
# 5 0.0000 0.0000 0.0000 0.0000 4.8877 0.0000
# 6 0.0000 0.0000 0.0000 0.0000 0.0000 24.4785
#
#
#
# Elastic Compliance Matrix: (Units=1/GPa)
#
#
# Indices 1 2 3 4 5 6 
#
# 1 0.021487 -0.006183 -0.012679 0.000000 0.000000 0.000000
# 2 -0.006183 0.008575 -0.000925 0.000000 0.000000 0.000000
# 3 -0.012679 -0.000925 0.034998 0.000000 0.000000 0.000000
# 4 0.000000 0.000000 0.000000 0.254115 0.000000 0.000000
# 5 0.000000 0.000000 0.000000 0.000000 0.204595 0.000000
# 6 0.000000 0.000000 0.000000 0.000000 0.000000 0.040852
#
#
# Mechanical properties :
#
#
# Convention : Reuss Voigt Hill
#
# Bulk Modulus (GPa) = 39.23559 59.72086 49.47822
# Shear Modulus (GPa) = 8.16072 17.78850 12.97461
#
# Velocity S-wave (km/s) = 2.30316 3.40039 2.90407
# Velocity P-wave (km/s) = 5.70755 7.36451 6.58833
#
# Compressibility (1/GPa) = 0.02548706
#
# Stress axis : x y z
#
# Youngs Moduli (GPa) = 46.54026 116.61367 28.57298
#
# Poissons Ratio (x) = 0.72103 0.36228
# Poissons Ratio (y) = 0.28776 0.02642
# Poissons Ratio (z) = 0.59008 0.10781
#
# Static dielectric constant tensor:
#      x y z
#    x 2.748090 0.000000 0.000000 
#    y 0.000000 3.456360 0.000000 
#    z 0.000000 0.000000 2.521500 
# 
# 
# High freq. dielectric constant tensor:
#      x y z
#    x 1.560340 0.000000 0.000000 
#    y 0.000000 1.600510 0.000000 
#    z 0.000000 0.000000 1.545250 
# 
# From -- ./inp_files/6852.got.cif
#   From: 2010.03.12/outbox.cif.g09.slc.cpg/sg55_4_cif.got.tgz:6852.got - 2010.04.16 15:19:21.
