data_PCOD8227770
_publ_section_title
;
Structure prediction by ZEFSAII (Michael W. Deem and Ramdas Pophale) SiO2 
 PCOD8227770
Probable space group: P B A M
;
_chemical_formula_sum "Si O2"
_cell_formula_units_Z 40
_cell_length_a 10.253523
_cell_length_b 10.261316
_cell_length_c 17.985617
_cell_angle_alpha 90.000000
_cell_angle_beta 90.000000
_cell_angle_gamma 90.000000
_cell_volume 1892.350211
_symmetry_space_group_name_H-M "P B A M"
_symmetry_group_IT_number 55
_symmetry_cell_setting 'orthorhombic'
loop_
_space_group_symop_operation_xyz
x,y,z
-x,-y,z
1/2+x,1/2-y,-z
1/2-x,1/2+y,-z
-x,-y,-z
x,y,-z
1/2-x,1/2+y,z
1/2+x,1/2-y,z
loop_
_atom_site_type_symbol
_atom_site_label
_atom_site_fract_x
_atom_site_fract_y
_atom_site_fract_z
Si Si1 0.142534 0.863349 0.912713
Si Si2 0.404555 0.603708 0.701380
Si Si3 0.711679 0.994656 0.581563
Si Si4 0.352400 0.653234 0.859532
Si Si5 0.515881 0.208257 0.581434
O O1 0.252358 0.754761 0.896338
O O2 0.001531 0.815447 0.882886
O O3 0.184910 0.003893 0.879545
O O4 0.129307 0.882364 0.000000
O O5 0.500000 0.500000 0.740698
O O6 0.308414 0.525358 0.648517
O O7 0.335900 0.676178 0.770250
O O8 0.494483 0.693111 0.649257
O O9 0.776475 0.970918 0.500000
O O10 0.592564 0.898542 0.593095
O O11 0.659174 0.142392 0.585122
O O12 0.499565 0.275612 0.500000
#
# Coordination Sequence:
#
# PCOD8227770 Si02
#       5
#     8   8   8   8   8
#     4  11  23  49  73 100 135 174 217 271 330 405
#     4  12  25  38  61  93 130 161 209 259 320 381
#     4   9  21  40  61  85 120 169 218 264 314 365
#     4  11  26  42  71 105 137 174 220 269 335 398
#     4   9  21  40  61  85 120 169 218 264 314 365
#
# _framework density 21.137736
#
# number of rings (size 3 to 8) (size 9 to 14) (size 15 to 20)
#    0.000    1.600    2.000    4.200    8.400    2.400 
#    0.000    2.000    0.000    0.000    0.000    0.000 
#    0.000    0.000    0.000    0.000    0.000    0.000 
#
# Total GULP energy -495773.624909 kJ/mol
# GULP energy per Si atom -12394.340623 kJ/mol
# Density = 2.108963 g / cm^3
# Si number density = 21.137736 Si / 1000 Ang^3
#
#
#
# Elastic Constant Matrix: (Units=GPa)
#
#
# Indices 1 2 3 4 5 6 
#
# 1 87.6466 42.5748 26.7915 0.0000 0.0000 0.0000
# 2 42.5748 90.8175 27.2863 0.0000 0.0000 0.0000
# 3 26.7915 27.2863 147.4085 0.0000 0.0000 0.0000
# 4 0.0000 0.0000 0.0000 53.8996 0.0000 0.0000
# 5 0.0000 0.0000 0.0000 0.0000 33.5178 0.0000
# 6 0.0000 0.0000 0.0000 0.0000 0.0000 37.0286
#
#
#
# Elastic Compliance Matrix: (Units=1/GPa)
#
#
# Indices 1 2 3 4 5 6 
#
# 1 0.015088 -0.006617 -0.001517 0.000000 0.000000 0.000000
# 2 -0.006617 0.014562 -0.001493 0.000000 0.000000 0.000000
# 3 -0.001517 -0.001493 0.007336 0.000000 0.000000 0.000000
# 4 0.000000 0.000000 0.000000 0.018553 0.000000 0.000000
# 5 0.000000 0.000000 0.000000 0.000000 0.029835 0.000000
# 6 0.000000 0.000000 0.000000 0.000000 0.000000 0.027006
#
#
# Mechanical properties :
#
#
# Convention : Reuss Voigt Hill
#
# Bulk Modulus (GPa) = 56.39905 57.68643 57.04274
# Shear Modulus (GPa) = 36.35203 40.17052 38.26128
#
# Velocity S-wave (km/s) = 4.15151 4.36411 4.25913
# Velocity P-wave (km/s) = 7.05122 7.26250 7.15764
#
# Compressibility (1/GPa) = 0.01773079
#
# Stress axis : x y z
#
# Youngs Moduli (GPa) = 66.27990 68.67348 136.31468
#
# Poissons Ratio (x) = 0.45442 0.20683
# Poissons Ratio (y) = 0.43858 0.20349
# Poissons Ratio (z) = 0.10057 0.10252
#
# Static dielectric constant tensor:
#      x y z
#    x 4.263800 0.000000 0.000000 
#    y 0.000000 4.492240 0.000000 
#    z 0.000000 0.000000 3.948830 
# 
# 
# High freq. dielectric constant tensor:
#      x y z
#    x 1.825340 0.000000 0.000000 
#    y 0.000000 1.825660 0.000000 
#    z 0.000000 0.000000 1.842770 
# 
# From -- ./inp_files/21182.got.cif
#   From: 2010.03.12/outbox.cif.g09.slc.cpg/sg55_11_cif.got.tgz:21182.got - 2010.04.16 15:19:21.
