data_PCOD8227163
_publ_section_title
;
Structure prediction by ZEFSAII (Michael W. Deem and Ramdas Pophale) SiO2 
 PCOD8227163
Probable space group: P B A M
;
_chemical_formula_sum "Si O2"
_cell_formula_units_Z 40
_cell_length_a 26.981459
_cell_length_b 9.350235
_cell_length_c 7.679485
_cell_angle_alpha 90.000000
_cell_angle_beta 90.000000
_cell_angle_gamma 90.000000
_cell_volume 1937.403378
_symmetry_space_group_name_H-M "P B A M"
_symmetry_group_IT_number 55
_symmetry_cell_setting 'orthorhombic'
loop_
_space_group_symop_operation_xyz
x,y,z
-x,-y,z
1/2+x,1/2-y,-z
1/2-x,1/2+y,-z
-x,-y,-z
x,y,-z
1/2-x,1/2+y,z
1/2+x,1/2-y,z
loop_
_atom_site_type_symbol
_atom_site_label
_atom_site_fract_x
_atom_site_fract_y
_atom_site_fract_z
Si Si1 0.289862 0.301920 0.293998
Si Si2 0.397866 0.802342 0.196346
Si Si3 0.382795 0.481011 0.805110
Si Si4 0.025159 0.350893 0.500000
Si Si5 0.953872 0.103083 0.500000
Si Si6 0.194792 0.477071 0.294436
O O1 0.296569 0.312727 0.500000
O O2 0.331587 0.397027 0.204883
O O3 0.237661 0.368459 0.233413
O O4 0.293276 0.137863 0.229366
O O5 0.373448 0.648083 0.238984
O O6 0.442830 0.827074 0.327315
O O7 0.356689 0.925209 0.213282
O O8 0.419121 0.806848 0.000000
O O9 0.421950 0.415752 0.672791
O O10 0.404427 0.464582 0.000000
O O11 0.000000 0.500000 0.500000
O O12 0.975545 0.259346 0.500000
O O13 0.000000 0.000000 0.500000
O O14 0.189164 0.475044 0.500000
#
# Coordination Sequence:
#
# PCOD8227163 Si02
#       6
#     8   8   8   4   4   8
#     4  10  21  38  65  98 131 172 213 257 314 379
#     4  11  24  43  66  96 130 168 212 262 318 379
#     4  11  24  41  67  98 129 165 214 262 316 381
#     4  12  28  46  69  92 129 166 213 268 325 380
#     4  12  24  46  71  92 123 170 211 268 321 374
#     4  10  21  38  65  96 132 172 213 257 313 380
#
# _framework density 20.646190000000001
#
# number of rings (size 3 to 8) (size 9 to 14) (size 15 to 20)
#    0.000    1.200    4.000    1.200    2.800    4.800 
#    0.000    0.000    0.000    0.000    0.000    0.000 
#    0.000    0.000    0.000    0.000    0.000    0.000 
#
# Total GULP energy -496082.037351 kJ/mol
# GULP energy per Si atom -12402.050934 kJ/mol
# Density = 2.059920 g / cm^3
# Si number density = 20.646190 Si / 1000 Ang^3
#
#
#
# Elastic Constant Matrix: (Units=GPa)
#
#
# Indices 1 2 3 4 5 6 
#
# 1 86.3332 43.5121 49.7865 0.0000 0.0000 0.0000
# 2 43.5121 163.5338 45.0310 0.0000 0.0000 0.0000
# 3 49.7865 45.0310 106.5882 0.0000 0.0000 0.0000
# 4 0.0000 0.0000 0.0000 18.5347 0.0000 0.0000
# 5 0.0000 0.0000 0.0000 0.0000 -3.5902 0.0000
# 6 0.0000 0.0000 0.0000 0.0000 0.0000 51.0187
#
#
#
# Elastic Compliance Matrix: (Units=1/GPa)
#
#
# Indices 1 2 3 4 5 6 
#
# 1 0.016784 -0.002611 -0.006737 0.000000 0.000000 0.000000
# 2 -0.002611 0.007326 -0.001876 0.000000 0.000000 0.000000
# 3 -0.006737 -0.001876 0.013321 0.000000 0.000000 0.000000
# 4 0.000000 0.000000 0.000000 0.053953 0.000000 0.000000
# 5 0.000000 0.000000 0.000000 0.000000 -0.278532 0.000000
# 6 0.000000 0.000000 0.000000 0.000000 0.000000 0.019601
#
#
# Mechanical properties :
#
#
# Convention : Reuss Voigt Hill
#
# Bulk Modulus (GPa) = 66.73422 70.34604 68.54013
# Shear Modulus (GPa) = -35.68695 27.73433 -3.97631
#
# Velocity S-wave (km/s) = -4.16203 3.66910 -1.38928
# Velocity P-wave (km/s) = 3.04897 7.21775 5.54040
#
# Compressibility (1/GPa) = 0.01498482
#
# Stress axis : x y z
#
# Youngs Moduli (GPa) = 59.58180 136.49888 75.06989
#
# Poissons Ratio (x) = 0.35636 0.50571
# Poissons Ratio (y) = 0.15555 0.14081
# Poissons Ratio (z) = 0.40138 0.25602
#
# Static dielectric constant tensor:
#      x y z
#    x 3.788220 0.000000 0.000000 
#    y 0.000000 4.086050 0.000000 
#    z 0.000000 0.000000 3.759800 
# 
# 
# High freq. dielectric constant tensor:
#      x y z
#    x 1.803280 0.000000 0.000000 
#    y 0.000000 1.823540 0.000000 
#    z 0.000000 0.000000 1.812380 
# 
# From -- ./inp_files/9343.got.cif
#   From: 2010.03.12/outbox.cif.g09.slc.cpg/sg55_5_cif.got.tgz:9343.got - 2010.04.16 15:19:21.
