data_PCOD8227312
_publ_section_title
;
Structure prediction by ZEFSAII (Michael W. Deem and Ramdas Pophale) SiO2 
 PCOD8227312
Probable space group: P B A M
;
_chemical_formula_sum "Si O2"
_cell_formula_units_Z 64
_cell_length_a 23.734604
_cell_length_b 15.325938
_cell_length_c 8.522602
_cell_angle_alpha 90.000000
_cell_angle_beta 90.000000
_cell_angle_gamma 90.000000
_cell_volume 3100.139682
_symmetry_space_group_name_H-M "P B A M"
_symmetry_group_IT_number 55
_symmetry_cell_setting 'orthorhombic'
loop_
_space_group_symop_operation_xyz
x,y,z
-x,-y,z
1/2+x,1/2-y,-z
1/2-x,1/2+y,-z
-x,-y,-z
x,y,-z
1/2-x,1/2+y,z
1/2+x,1/2-y,z
loop_
_atom_site_type_symbol
_atom_site_label
_atom_site_fract_x
_atom_site_fract_y
_atom_site_fract_z
Si Si1 0.679832 0.749884 0.185938
Si Si2 0.379209 0.591570 0.317216
Si Si3 0.616241 0.920514 0.816951
Si Si4 0.004369 0.349174 0.180217
Si Si5 0.499646 0.664162 0.316673
Si Si6 0.192332 0.243528 0.816482
Si Si7 0.879044 0.603673 0.319162
Si Si8 0.606651 0.588848 0.184052
O O1 0.650191 0.837508 0.250978
O O2 0.743984 0.744386 0.243786
O O3 0.647233 0.664981 0.249771
O O4 0.676521 0.750381 0.000000
O O5 0.378915 0.569763 0.500000
O O6 0.439594 0.627624 0.262203
O O7 0.332385 0.662819 0.279215
O O8 0.364899 0.503762 0.222286
O O9 0.549580 0.909691 0.788127
O O10 0.637659 0.005169 0.724347
O O11 0.629054 0.933731 0.000000
O O12 0.054978 0.380415 0.289533
O O13 0.986626 0.250488 0.217837
O O14 0.023687 0.356400 0.000000
O O15 0.499459 0.686394 0.500000
O O16 0.547161 0.593300 0.275112
O O17 0.157933 0.331377 0.784736
O O18 0.189729 0.221849 0.000000
O O19 0.865834 0.622057 0.500000
O O20 0.596092 0.598651 0.000000
#
# Coordination Sequence:
#
# PCOD8227312 Si02
#       8
#     8   8   8   8   8   8   8   8
#     4   9  21  42  65  90 118 154 207 264 304 345
#     4  11  24  41  60  90 129 162 197 250 310 364
#     4  10  21  41  65  91 122 157 201 253 302 358
#     4  11  21  37  65  93 121 159 204 249 300 364
#     4  11  22  37  60  90 129 164 194 246 312 365
#     4  11  23  42  67  88 114 160 212 256 302 358
#     4  12  25  40  59  91 130 162 198 248 305 368
#     4  11  22  40  65  93 123 160 207 252 298 364
#
# _framework density 20.644231000000001
#
# number of rings (size 3 to 8) (size 9 to 14) (size 15 to 20)
#    0.000    1.250    2.500    3.750    0.000    6.500 
#    0.000    8.750    0.000    0.000    0.000    0.000 
#    0.000    0.000    0.000    0.000    0.000    0.000 
#
# Total GULP energy -794039.264728 kJ/mol
# GULP energy per Si atom -12406.863511 kJ/mol
# Density = 2.059724 g / cm^3
# Si number density = 20.644231 Si / 1000 Ang^3
#
#
#
# Elastic Constant Matrix: (Units=GPa)
#
#
# Indices 1 2 3 4 5 6 
#
# 1 108.4987 34.3750 25.2535 0.0000 0.0000 0.0000
# 2 34.3750 127.4934 17.9196 0.0000 0.0000 0.0000
# 3 25.2535 17.9196 44.6299 0.0000 0.0000 0.0000
# 4 0.0000 0.0000 0.0000 29.2715 0.0000 0.0000
# 5 0.0000 0.0000 0.0000 0.0000 11.1736 0.0000
# 6 0.0000 0.0000 0.0000 0.0000 0.0000 13.1830
#
#
#
# Elastic Compliance Matrix: (Units=1/GPa)
#
#
# Indices 1 2 3 4 5 6 
#
# 1 0.011195 -0.002255 -0.005429 0.000000 0.000000 0.000000
# 2 -0.002255 0.008767 -0.002244 0.000000 0.000000 0.000000
# 3 -0.005429 -0.002244 0.026379 0.000000 0.000000 0.000000
# 4 0.000000 0.000000 0.000000 0.034163 0.000000 0.000000
# 5 0.000000 0.000000 0.000000 0.000000 0.089497 0.000000
# 6 0.000000 0.000000 0.000000 0.000000 0.000000 0.075855
#
#
# Mechanical properties :
#
#
# Convention : Reuss Voigt Hill
#
# Bulk Modulus (GPa) = 37.75749 48.41316 43.08532
# Shear Modulus (GPa) = 18.21222 24.26388 21.23805
#
# Velocity S-wave (km/s) = 2.97340 3.43204 3.21092
# Velocity P-wave (km/s) = 5.48794 6.26157 5.88747
#
# Compressibility (1/GPa) = 0.02648481
#
# Stress axis : x y z
#
# Youngs Moduli (GPa) = 89.32673 114.06386 37.90832
#
# Poissons Ratio (x) = 0.25725 0.20580
# Poissons Ratio (y) = 0.20146 0.08506
# Poissons Ratio (z) = 0.48495 0.25595
#
# Static dielectric constant tensor:
#      x y z
#    x 3.762530 0.000000 0.000000 
#    y 0.000000 3.844660 0.000000 
#    z 0.000000 0.000000 3.554790 
# 
# 
# High freq. dielectric constant tensor:
#      x y z
#    x 1.803070 0.000000 0.000000 
#    y 0.000000 1.821890 0.000000 
#    z 0.000000 0.000000 1.796410 
# 
# From -- ./inp_files/9663.got.cif
#   From: 2010.03.12/outbox.cif.g09.slc.cpg/sg55_5_cif.got.tgz:9663.got - 2010.04.16 15:19:21.
