data_PCOD8227787
_publ_section_title
;
Structure prediction by ZEFSAII (Michael W. Deem and Ramdas Pophale) SiO2 
 PCOD8227787
Probable space group: P B A M
;
_chemical_formula_sum "Si O2"
_cell_formula_units_Z 32
_cell_length_a 5.415615
_cell_length_b 16.271851
_cell_length_c 15.843856
_cell_angle_alpha 90.000000
_cell_angle_beta 90.000000
_cell_angle_gamma 90.000000
_cell_volume 1396.193552
_symmetry_space_group_name_H-M "P B A M"
_symmetry_group_IT_number 55
_symmetry_cell_setting 'orthorhombic'
loop_
_space_group_symop_operation_xyz
x,y,z
-x,-y,z
1/2+x,1/2-y,-z
1/2-x,1/2+y,-z
-x,-y,-z
x,y,-z
1/2-x,1/2+y,z
1/2+x,1/2-y,z
loop_
_atom_site_type_symbol
_atom_site_label
_atom_site_fract_x
_atom_site_fract_y
_atom_site_fract_z
Si Si1 0.500000 0.500000 0.222411
Si Si2 0.752853 0.804199 0.500000
Si Si3 0.167214 0.419750 0.094793
Si Si4 0.371594 0.079987 0.350817
Si Si5 0.045914 0.299798 0.225147
O O1 0.390884 0.431280 0.159666
O O2 0.313725 0.549612 0.279684
O O3 0.497346 0.752326 0.500000
O O4 0.764355 0.863902 0.419507
O O5 0.026722 0.340202 0.131664
O O6 0.000000 0.500000 0.095744
O O7 0.262135 0.401647 0.000000
O O8 0.575428 0.132451 0.299752
O O9 0.500000 0.000000 0.393838
O O10 0.285112 0.244378 0.238155
#
# Coordination Sequence:
#
# PCOD8227787 Si02
#       5
#     4   4   8   8   8
#     4  12  21  45  78 108 144 192 266 311 363 434
#     4  12  31  53  76 116 158 190 238 308 389 450
#     4  11  24  44  70 105 146 200 258 313 366 440
#     4  12  26  47  78 109 146 198 257 304 368 452
#     4  12  25  44  70 104 149 194 242 305 379 439
#
# _framework density 22.919457000000001
#
# number of rings (size 3 to 8) (size 9 to 14) (size 15 to 20)
#    0.000    0.250    5.000    3.750    3.500    1.500 
#    0.000    0.000    0.000    0.000    0.000    0.000 
#    0.000    0.000    0.000    0.000    0.000    0.000 
#
# Total GULP energy -396741.353826 kJ/mol
# GULP energy per Si atom -12398.167307 kJ/mol
# Density = 2.286729 g / cm^3
# Si number density = 22.919457 Si / 1000 Ang^3
#
#
#
# Elastic Constant Matrix: (Units=GPa)
#
#
# Indices 1 2 3 4 5 6 
#
# 1 114.5246 44.4119 23.6588 0.0000 0.0000 0.0000
# 2 44.4119 119.0892 43.2669 0.0000 0.0000 0.0000
# 3 23.6588 43.2669 136.1578 0.0000 0.0000 0.0000
# 4 0.0000 0.0000 0.0000 -31.7186 0.0000 0.0000
# 5 0.0000 0.0000 0.0000 0.0000 0.0621 0.0000
# 6 0.0000 0.0000 0.0000 0.0000 0.0000 24.2687
#
#
#
# Elastic Compliance Matrix: (Units=1/GPa)
#
#
# Indices 1 2 3 4 5 6 
#
# 1 0.010257 -0.003592 -0.000641 0.000000 0.000000 0.000000
# 2 -0.003592 0.010751 -0.002792 0.000000 0.000000 0.000000
# 3 -0.000641 -0.002792 0.008343 0.000000 0.000000 0.000000
# 4 0.000000 0.000000 0.000000 -0.031527 0.000000 0.000000
# 5 0.000000 0.000000 0.000000 0.000000 16.100507 0.000000
# 6 0.000000 0.000000 0.000000 0.000000 0.000000 0.041205
#
#
# Mechanical properties :
#
#
# Convention : Reuss Voigt Hill
#
# Bulk Modulus (GPa) = 65.35617 65.82740 65.59179
# Shear Modulus (GPa) = 0.30943 15.75139 8.03041
#
# Velocity S-wave (km/s) = 0.36783 2.62439 1.87386
# Velocity P-wave (km/s) = 5.36264 6.16172 5.77601
#
# Compressibility (1/GPa) = 0.01530077
#
# Stress axis : x y z
#
# Youngs Moduli (GPa) = 97.49213 93.01254 119.86051
#
# Poissons Ratio (x) = 0.33414 0.07680
# Poissons Ratio (y) = 0.35023 0.33467
# Poissons Ratio (z) = 0.06247 0.25971
#
# Static dielectric constant tensor:
#      x y z
#    x 4.118010 0.000000 0.000000 
#    y 0.000000 5.073160 0.000000 
#    z 0.000000 0.000000 4.449210 
# 
# 
# High freq. dielectric constant tensor:
#      x y z
#    x 1.899400 0.000000 0.000000 
#    y 0.000000 1.923140 0.000000 
#    z 0.000000 0.000000 1.913440 
# 
# From -- ./inp_files/16455.got.cif
#   From: 2010.03.12/outbox.cif.g09.slc.cpg/sg55_9_cif.got.tgz:16455.got - 2010.04.16 15:19:21.
