data_PCOD8227266
_publ_section_title
;
Structure prediction by ZEFSAII (Michael W. Deem and Ramdas Pophale) SiO2 
 PCOD8227266
Probable space group: P B A M
;
_chemical_formula_sum "Si O2"
_cell_formula_units_Z 48
_cell_length_a 14.997510
_cell_length_b 18.681351
_cell_length_c 8.557591
_cell_angle_alpha 90.000000
_cell_angle_beta 90.000000
_cell_angle_gamma 90.000000
_cell_volume 2397.612348
_symmetry_space_group_name_H-M "P B A M"
_symmetry_group_IT_number 55
_symmetry_cell_setting 'orthorhombic'
loop_
_space_group_symop_operation_xyz
x,y,z
-x,-y,z
1/2+x,1/2-y,-z
1/2-x,1/2+y,-z
-x,-y,-z
x,y,-z
1/2-x,1/2+y,z
1/2+x,1/2-y,z
loop_
_atom_site_type_symbol
_atom_site_label
_atom_site_fract_x
_atom_site_fract_y
_atom_site_fract_z
Si Si1 0.354595 0.066572 0.181341
Si Si2 0.501436 0.669067 0.320606
Si Si3 0.847077 0.914316 0.179369
Si Si4 0.993787 0.677098 0.181864
Si Si5 0.157531 0.414141 0.680569
Si Si6 0.654613 0.577062 0.819422
O O1 0.257073 0.099215 0.214239
O O2 0.426843 0.124427 0.233510
O O3 0.370406 0.995155 0.280316
O O4 0.364543 0.045387 0.000000
O O5 0.526077 0.656220 0.500000
O O6 0.402779 0.639048 0.287489
O O7 0.504582 0.752441 0.284072
O O8 0.571960 0.628051 0.213281
O O9 0.873017 0.995857 0.221271
O O10 0.870077 0.897050 0.000000
O O11 0.899590 0.640491 0.216419
O O12 0.999841 0.696943 0.000000
O O13 0.138737 0.398914 0.500000
O O14 0.260896 0.399300 0.717337
O O15 0.682847 0.581912 0.000000
#
# Coordination Sequence:
#
# PCOD8227266 Si02
#       6
#     8   8   8   8   8   8
#     4   9  20  39  63  87 111 148 196 239 280 338
#     4  12  25  38  55  85 122 154 190 240 296 344
#     4   9  19  38  62  86 112 147 194 239 282 341
#     4  11  23  40  60  82 115 159 201 236 280 344
#     4  11  22  37  60  90 120 148 185 239 295 341
#     4  10  21  40  64  86 112 151 196 237 281 343
#
# _framework density 20.019918000000001
#
# number of rings (size 3 to 8) (size 9 to 14) (size 15 to 20)
#    0.000    1.667    0.000    6.000    0.000   10.000 
#    0.000    5.000    0.000    0.000    0.000    0.000 
#    0.000    0.000    0.000    0.000    0.000    0.000 
#
# Total GULP energy -595515.343694 kJ/mol
# GULP energy per Si atom -12406.569660 kJ/mol
# Density = 1.997435 g / cm^3
# Si number density = 20.019918 Si / 1000 Ang^3
#
#
#
# Elastic Constant Matrix: (Units=GPa)
#
#
# Indices 1 2 3 4 5 6 
#
# 1 59.1183 12.4791 24.2079 0.0000 0.0000 0.0000
# 2 12.4791 42.0634 24.3498 0.0000 0.0000 0.0000
# 3 24.2079 24.3498 59.0282 0.0000 0.0000 0.0000
# 4 0.0000 0.0000 0.0000 29.8277 0.0000 0.0000
# 5 0.0000 0.0000 0.0000 0.0000 24.2151 0.0000
# 6 0.0000 0.0000 0.0000 0.0000 0.0000 12.6022
#
#
#
# Elastic Compliance Matrix: (Units=1/GPa)
#
#
# Indices 1 2 3 4 5 6 
#
# 1 0.020410 -0.001589 -0.007715 0.000000 0.000000 0.000000
# 2 -0.001589 0.031355 -0.012283 0.000000 0.000000 0.000000
# 3 -0.007715 -0.012283 0.025172 0.000000 0.000000 0.000000
# 4 0.000000 0.000000 0.000000 0.033526 0.000000 0.000000
# 5 0.000000 0.000000 0.000000 0.000000 0.041297 0.000000
# 6 0.000000 0.000000 0.000000 0.000000 0.000000 0.079351
#
#
# Mechanical properties :
#
#
# Convention : Reuss Voigt Hill
#
# Bulk Modulus (GPa) = 29.61760 31.36482 30.49121
# Shear Modulus (GPa) = 17.51082 19.94053 18.72567
#
# Velocity S-wave (km/s) = 2.96069 3.15943 3.06167
# Velocity P-wave (km/s) = 5.14915 5.38610 5.26896
#
# Compressibility (1/GPa) = 0.03376371
#
# Stress axis : x y z
#
# Youngs Moduli (GPa) = 48.99631 31.89250 39.72725
#
# Poissons Ratio (x) = 0.05068 0.30648
# Poissons Ratio (y) = 0.07786 0.48796
# Poissons Ratio (z) = 0.37799 0.39173
#
# Static dielectric constant tensor:
#      x y z
#    x 3.679260 0.000000 0.000000 
#    y 0.000000 3.546090 0.000000 
#    z 0.000000 0.000000 3.517070 
# 
# 
# High freq. dielectric constant tensor:
#      x y z
#    x 1.792030 0.000000 0.000000 
#    y 0.000000 1.775020 0.000000 
#    z 0.000000 0.000000 1.779950 
# 
# From -- ./inp_files/5562.got.cif
#   From: 2010.03.12/outbox.cif.g09.slc.cpg/sg55_3_cif.got.tgz:5562.got - 2010.04.16 15:19:21.
