data_PCOD8227295
_publ_section_title
;
Structure prediction by ZEFSAII (Michael W. Deem and Ramdas Pophale) SiO2 
 PCOD8227295
Probable space group: P B A M
;
_chemical_formula_sum "Si O2"
_cell_formula_units_Z 48
_cell_length_a 9.369725
_cell_length_b 30.989879
_cell_length_c 7.718980
_cell_angle_alpha 90.000000
_cell_angle_beta 90.000000
_cell_angle_gamma 90.000000
_cell_volume 2241.334318
_symmetry_space_group_name_H-M "P B A M"
_symmetry_group_IT_number 55
_symmetry_cell_setting 'orthorhombic'
loop_
_space_group_symop_operation_xyz
x,y,z
-x,-y,z
1/2+x,1/2-y,-z
1/2-x,1/2+y,-z
-x,-y,-z
x,y,-z
1/2-x,1/2+y,z
1/2+x,1/2-y,z
loop_
_atom_site_type_symbol
_atom_site_label
_atom_site_fract_x
_atom_site_fract_y
_atom_site_fract_z
Si Si1 0.031261 0.634338 0.701594
Si Si2 0.651317 0.369573 0.698986
Si Si3 0.409794 0.957231 0.698682
Si Si4 0.207739 0.976042 0.000000
Si Si5 0.330957 0.792368 0.698393
Si Si6 0.512465 0.712470 0.802537
Si Si7 0.403334 0.565176 0.000000
O O1 0.019504 0.643229 0.500000
O O2 0.191602 0.646124 0.762143
O O3 0.003516 0.584519 0.748010
O O4 0.913713 0.666572 0.785361
O O5 0.657469 0.386652 0.500000
O O6 0.538454 0.331049 0.709321
O O7 0.603503 0.407686 0.824351
O O8 0.356047 0.954798 0.500000
O O9 0.500000 0.000000 0.732162
O O10 0.276482 0.957422 0.825502
O O11 0.049799 0.959567 0.000000
O O12 0.218445 0.028257 0.000000
O O13 0.289816 0.801059 0.500000
O O14 0.438146 0.752201 0.707377
O O15 0.183734 0.783685 0.797847
O O16 0.461264 0.711530 0.000000
#
# Coordination Sequence:
#
# PCOD8227295 Si02
#       7
#     8   8   8   4   8   8   4
#     4   9  21  39  64  96 128 168 223 275 326 393
#     4  11  23  44  69  93 131 177 219 273 331 390
#     4  10  21  40  67  97 130 171 226 279 332 397
#     4  11  25  42  64  93 136 176 211 278 338 390
#     4  11  23  42  67  95 129 176 223 267 330 399
#     4  12  25  43  64  97 136 172 219 275 332 395
#     4  11  26  44  62  97 133 171 228 267 326 409
#
# _framework density 21.415814000000001
#
# number of rings (size 3 to 8) (size 9 to 14) (size 15 to 20)
#    0.000    1.333    0.833    4.250    2.333    4.667 
#    4.500    1.667    0.000    0.000    0.000    0.000 
#    0.000    0.000    0.000    0.000    0.000    0.000 
#
# Total GULP energy -595269.083265 kJ/mol
# GULP energy per Si atom -12401.439235 kJ/mol
# Density = 2.136707 g / cm^3
# Si number density = 21.415814 Si / 1000 Ang^3
#
#
#
# Elastic Constant Matrix: (Units=GPa)
#
#
# Indices 1 2 3 4 5 6 
#
# 1 124.9770 55.2266 23.0159 0.0000 0.0000 0.0000
# 2 55.2266 118.4122 22.1733 0.0000 0.0000 0.0000
# 3 23.0159 22.1733 97.8365 0.0000 0.0000 0.0000
# 4 0.0000 0.0000 0.0000 -4.9426 0.0000 0.0000
# 5 0.0000 0.0000 0.0000 0.0000 31.9736 0.0000
# 6 0.0000 0.0000 0.0000 0.0000 0.0000 37.2034
#
#
#
# Elastic Compliance Matrix: (Units=1/GPa)
#
#
# Indices 1 2 3 4 5 6 
#
# 1 0.010256 -0.004523 -0.001388 0.000000 0.000000 0.000000
# 2 -0.004523 0.010814 -0.001387 0.000000 0.000000 0.000000
# 3 -0.001388 -0.001387 0.010862 0.000000 0.000000 0.000000
# 4 0.000000 0.000000 0.000000 -0.202323 0.000000 0.000000
# 5 0.000000 0.000000 0.000000 0.000000 0.031276 0.000000
# 6 0.000000 0.000000 0.000000 0.000000 0.000000 0.026879
#
#
# Mechanical properties :
#
#
# Convention : Reuss Voigt Hill
#
# Bulk Modulus (GPa) = 57.68125 60.22859 58.95492
# Shear Modulus (GPa) = -54.43012 28.90087 -12.76462
#
# Velocity S-wave (km/s) = -5.04688 3.67755 -2.44404
# Velocity P-wave (km/s) = 2.63988 6.79831 4.42990
#
# Compressibility (1/GPa) = 0.01733666
#
# Stress axis : x y z
#
# Youngs Moduli (GPa) = 97.50502 92.46871 92.06537
#
# Poissons Ratio (x) = 0.41828 0.12774
# Poissons Ratio (y) = 0.44106 0.12768
# Poissons Ratio (z) = 0.13529 0.12824
#
# Static dielectric constant tensor:
#      x y z
#    x 3.871760 0.000000 0.000000 
#    y 0.000000 4.059410 0.000000 
#    z 0.000000 0.000000 3.795290 
# 
# 
# High freq. dielectric constant tensor:
#      x y z
#    x 1.844340 0.000000 0.000000 
#    y 0.000000 1.847870 0.000000 
#    z 0.000000 0.000000 1.841020 
# 
# From -- ./inp_files/2938.got.cif
#   From: 2010.03.12/outbox.cif.g09.slc.cpg/sg55_2_cif.got.tgz:2938.got - 2010.04.16 15:19:21.
