data_PCOD8227250
_publ_section_title
;
Structure prediction by ZEFSAII (Michael W. Deem and Ramdas Pophale) SiO2 
 PCOD8227250
Probable space group: P B A M
;
_chemical_formula_sum "Si O2"
_cell_formula_units_Z 64
_cell_length_a 13.293180
_cell_length_b 14.973753
_cell_length_c 16.270161
_cell_angle_alpha 90.000000
_cell_angle_beta 90.000000
_cell_angle_gamma 90.000000
_cell_volume 3238.555924
_symmetry_space_group_name_H-M "P B A M"
_symmetry_group_IT_number 55
_symmetry_cell_setting 'orthorhombic'
loop_
_space_group_symop_operation_xyz
x,y,z
-x,-y,z
1/2+x,1/2-y,-z
1/2-x,1/2+y,-z
-x,-y,-z
x,y,-z
1/2-x,1/2+y,z
1/2+x,1/2-y,z
loop_
_atom_site_type_symbol
_atom_site_label
_atom_site_fract_x
_atom_site_fract_y
_atom_site_fract_z
Si Si1 0.981585 0.600097 0.905450
Si Si2 0.841394 0.006238 0.260398
Si Si3 0.757449 0.894372 0.404728
Si Si4 0.489725 0.636507 0.776117
Si Si5 0.287549 0.851405 0.809581
Si Si6 0.882470 0.735331 0.337773
Si Si7 0.532049 0.905974 0.595185
Si Si8 0.111459 0.766496 0.904955
O O1 0.080320 0.662313 0.894382
O O2 0.000000 0.500000 0.872204
O O3 0.893466 0.645327 0.854364
O O4 0.947563 0.596261 0.000000
O O5 0.756852 0.048648 0.200720
O O6 0.926471 0.081275 0.274304
O O7 0.800719 0.974925 0.349064
O O8 0.888982 0.922391 0.211165
O O9 0.762538 0.924493 0.500000
O O10 0.824575 0.805637 0.395099
O O11 0.642932 0.875297 0.374027
O O12 0.465906 0.720958 0.720415
O O13 0.527868 0.668328 0.865089
O O14 0.299052 0.813189 0.717841
O O15 0.217322 0.783497 0.860469
O O16 0.944571 0.665736 0.391829
O O17 0.543317 0.923425 0.500000
O O18 0.500000 0.000000 0.638151
O O19 0.120117 0.793081 0.000000
#
# Coordination Sequence:
#
# PCOD8227250 Si02
#       8
#     8   8   8   8   8   8   8   8
#     4  10  22  40  59  86 121 155 197 249 301 357
#     4   9  20  37  59  85 118 150 199 245 296 351
#     4  10  22  40  61  88 122 158 199 247 303 362
#     4   9  19  39  57  84 118 153 195 250 289 358
#     4  11  22  36  61  90 116 158 201 249 296 360
#     4  11  22  36  60  88 119 155 201 246 294 353
#     4  10  22  40  59  85 120 155 196 245 300 358
#     4  10  21  40  62  86 122 161 200 248 305 362
#
# _framework density 19.761894999999999
#
# number of rings (size 3 to 8) (size 9 to 14) (size 15 to 20)
#    0.000    2.000    1.250    1.500    3.500    3.500 
#    0.000   11.875    0.000    0.000    0.000    0.000 
#    0.000    0.000    0.000    0.000    0.000    0.000 
#
# Total GULP energy -793453.561939 kJ/mol
# GULP energy per Si atom -12397.711905 kJ/mol
# Density = 1.971692 g / cm^3
# Si number density = 19.761895 Si / 1000 Ang^3
#
#
#
# Elastic Constant Matrix: (Units=GPa)
#
#
# Indices 1 2 3 4 5 6 
#
# 1 101.1332 44.6863 36.4258 0.0000 0.0000 0.0000
# 2 44.6863 103.5432 27.5567 0.0000 0.0000 0.0000
# 3 36.4258 27.5567 69.2630 0.0000 0.0000 0.0000
# 4 0.0000 0.0000 0.0000 27.7749 0.0000 0.0000
# 5 0.0000 0.0000 0.0000 0.0000 31.9062 0.0000
# 6 0.0000 0.0000 0.0000 0.0000 0.0000 31.2059
#
#
#
# Elastic Compliance Matrix: (Units=1/GPa)
#
#
# Indices 1 2 3 4 5 6 
#
# 1 0.013864 -0.004522 -0.005492 0.000000 0.000000 0.000000
# 2 -0.004522 0.012276 -0.002506 0.000000 0.000000 0.000000
# 3 -0.005492 -0.002506 0.018323 0.000000 0.000000 0.000000
# 4 0.000000 0.000000 0.000000 0.036004 0.000000 0.000000
# 5 0.000000 0.000000 0.000000 0.000000 0.031342 0.000000
# 6 0.000000 0.000000 0.000000 0.000000 0.000000 0.032045
#
#
# Mechanical properties :
#
#
# Convention : Reuss Voigt Hill
#
# Bulk Modulus (GPa) = 51.48446 54.58635 53.03541
# Shear Modulus (GPa) = 28.51135 29.19545 28.85340
#
# Velocity S-wave (km/s) = 3.80247 3.84781 3.82521
# Velocity P-wave (km/s) = 6.73701 6.88643 6.81213
#
# Compressibility (1/GPa) = 0.01942334
#
# Stress axis : x y z
#
# Youngs Moduli (GPa) = 72.12914 81.45831 54.57558
#
# Poissons Ratio (x) = 0.36833 0.29974
# Poissons Ratio (y) = 0.32614 0.13678
# Poissons Ratio (z) = 0.39615 0.20415
#
# Static dielectric constant tensor:
#      x y z
#    x 3.735520 0.000000 0.000000 
#    y 0.000000 3.737620 0.000000 
#    z 0.000000 0.000000 3.421810 
# 
# 
# High freq. dielectric constant tensor:
#      x y z
#    x 1.778980 0.000000 0.000000 
#    y 0.000000 1.777230 0.000000 
#    z 0.000000 0.000000 1.755690 
# 
# From -- ./inp_files/21342.got.cif
#   From: 2010.03.12/outbox.cif.g09.slc.cpg/sg55_11_cif.got.tgz:21342.got - 2010.04.16 15:19:21.
