data_PCOD8227712
_publ_section_title
;
Structure prediction by ZEFSAII (Michael W. Deem and Ramdas Pophale) SiO2 
 PCOD8227712
Probable space group: P B A M
;
_chemical_formula_sum "Si O2"
_cell_formula_units_Z 48
_cell_length_a 28.033402
_cell_length_b 9.896713
_cell_length_c 8.348264
_cell_angle_alpha 90.000000
_cell_angle_beta 90.000000
_cell_angle_gamma 90.000000
_cell_volume 2316.130126
_symmetry_space_group_name_H-M "P B A M"
_symmetry_group_IT_number 55
_symmetry_cell_setting 'orthorhombic'
loop_
_space_group_symop_operation_xyz
x,y,z
-x,-y,z
1/2+x,1/2-y,-z
1/2-x,1/2+y,-z
-x,-y,-z
x,y,-z
1/2-x,1/2+y,z
1/2+x,1/2-y,z
loop_
_atom_site_type_symbol
_atom_site_label
_atom_site_fract_x
_atom_site_fract_y
_atom_site_fract_z
Si Si1 0.562971 0.754079 0.815149
Si Si2 0.104331 0.006880 0.685901
Si Si3 0.045795 0.240993 0.814330
Si Si4 0.208228 0.094124 0.309331
Si Si5 0.789916 0.602306 0.690578
Si Si6 0.105780 0.479649 0.314521
O O1 0.594820 0.651291 0.712171
O O2 0.508573 0.747843 0.755209
O O3 0.582615 0.903916 0.791342
O O4 0.566326 0.713011 0.000000
O O5 0.099829 0.044305 0.500000
O O6 0.065292 0.090377 0.785870
O O7 0.156953 0.042273 0.750687
O O8 0.076335 0.342632 0.707051
O O9 0.049885 0.281442 0.000000
O O10 0.210314 0.091953 0.500000
O O11 0.217395 0.245447 0.243454
O O12 0.248605 0.994130 0.239018
O O13 0.788460 0.606092 0.500000
O O14 0.840625 0.544561 0.748050
O O15 0.105061 0.521925 0.500000
#
# Coordination Sequence:
#
# PCOD8227712 Si02
#       6
#     8   8   8   8   8   8
#     4  11  25  41  58  85 120 162 203 237 294 365
#     4  11  22  38  62  92 120 151 199 252 294 338
#     4  11  23  41  62  83 118 164 199 237 298 363
#     4   9  18  33  56  87 120 151 187 236 294 352
#     4   9  18  33  56  87 120 151 187 236 294 352
#     4  11  22  38  62  92 120 151 199 252 294 338
#
# _framework density 20.724225000000001
#
# number of rings (size 3 to 8) (size 9 to 14) (size 15 to 20)
#    0.000    1.667    1.667    3.000    2.333    6.667 
#    0.000    0.000    0.000    6.000    0.000    0.000 
#    0.000    0.000    0.000    0.000    0.000    0.000 
#
# Total GULP energy -595471.516791 kJ/mol
# GULP energy per Si atom -12405.656600 kJ/mol
# Density = 2.067706 g / cm^3
# Si number density = 20.724225 Si / 1000 Ang^3
#
#
#
# Elastic Constant Matrix: (Units=GPa)
#
#
# Indices 1 2 3 4 5 6 
#
# 1 156.0098 53.0262 31.7314 0.0000 0.0000 0.0000
# 2 53.0262 87.1588 19.7039 0.0000 0.0000 0.0000
# 3 31.7314 19.7039 29.7906 0.0000 0.0000 0.0000
# 4 0.0000 0.0000 0.0000 25.8824 0.0000 0.0000
# 5 0.0000 0.0000 0.0000 0.0000 -3.6509 0.0000
# 6 0.0000 0.0000 0.0000 0.0000 0.0000 47.1787
#
#
#
# Elastic Compliance Matrix: (Units=1/GPa)
#
#
# Indices 1 2 3 4 5 6 
#
# 1 0.009228 -0.003989 -0.007191 0.000000 0.000000 0.000000
# 2 -0.003989 0.015214 -0.005815 0.000000 0.000000 0.000000
# 3 -0.007191 -0.005815 0.045073 0.000000 0.000000 0.000000
# 4 0.000000 0.000000 0.000000 0.038636 0.000000 0.000000
# 5 0.000000 0.000000 0.000000 0.000000 -0.273907 0.000000
# 6 0.000000 0.000000 0.000000 0.000000 0.000000 0.021196
#
#
# Mechanical properties :
#
#
# Convention : Reuss Voigt Hill
#
# Bulk Modulus (GPa) = 28.14765 53.54246 40.84506
# Shear Modulus (GPa) = -50.64414 25.11522 -12.76446
#
# Velocity S-wave (km/s) = -4.94876 3.48498 -2.48447
# Velocity P-wave (km/s) = 4.36373 6.48731 3.39434
#
# Compressibility (1/GPa) = 0.03552694
#
# Stress axis : x y z
#
# Youngs Moduli (GPa) = 108.36351 65.72721 22.18614
#
# Poissons Ratio (x) = 0.26216 0.15955
# Poissons Ratio (y) = 0.43222 0.12900
# Poissons Ratio (z) = 0.77927 0.38217
#
# Static dielectric constant tensor:
#      x y z
#    x 3.938540 0.000000 0.000000 
#    y 0.000000 3.767760 0.000000 
#    z 0.000000 0.000000 3.269640 
# 
# 
# High freq. dielectric constant tensor:
#      x y z
#    x 1.822510 0.000000 0.000000 
#    y 0.000000 1.823120 0.000000 
#    z 0.000000 0.000000 1.778000 
# 
# From -- ./inp_files/2778.got.cif
#   From: 2010.03.12/outbox.cif.g09.slc.cpg/sg55_2_cif.got.tgz:2778.got - 2010.04.16 15:19:21.
