data_PCOD8227841
_publ_section_title
;
Structure prediction by ZEFSAII (Michael W. Deem and Ramdas Pophale) SiO2 
 PCOD8227841
Probable space group: P B A M
;
_chemical_formula_sum "Si O2"
_cell_formula_units_Z 48
_cell_length_a 30.000000
_cell_length_b 9.000000
_cell_length_c 9.000000
_cell_angle_alpha 90.000000
_cell_angle_beta 90.000000
_cell_angle_gamma 90.000000
_cell_volume 2430.000000
_symmetry_space_group_name_H-M "P B A M"
_symmetry_group_IT_number 55
_symmetry_cell_setting 'orthorhombic'
loop_
_space_group_symop_operation_xyz
x,y,z
-x,-y,z
1/2+x,1/2-y,-z
1/2-x,1/2+y,-z
-x,-y,-z
x,y,-z
1/2-x,1/2+y,z
1/2+x,1/2-y,z
loop_
_atom_site_type_symbol
_atom_site_label
_atom_site_fract_x
_atom_site_fract_y
_atom_site_fract_z
Si Si1 0.530444 0.718570 0.331958
Si Si2 0.733760 0.583091 0.821255
Si Si3 0.938000 0.881393 0.334491
Si Si4 0.142226 0.035286 0.163120
Si Si5 0.887989 0.303359 0.166178
Si Si6 0.198578 0.620719 0.322402
O O1 0.530028 0.780771 0.500000
O O2 0.550006 0.553731 0.333308
O O3 0.479740 0.712345 0.266102
O O4 0.561996 0.823305 0.231709
O O5 0.692841 0.472461 0.775505
O O6 0.723625 0.745723 0.759929
O O7 0.777989 0.528221 0.737929
O O8 0.739430 0.590667 0.000000
O O9 0.930534 0.823821 0.500000
O O10 0.890769 0.856173 0.253275
O O11 0.123593 0.869268 0.160346
O O12 0.143149 0.104607 0.000000
O O13 0.853073 0.387204 0.273055
O O14 0.886283 0.371057 0.000000
O O15 0.201789 0.634979 0.500000
#
# Coordination Sequence:
#
# PCOD8227841 Si02
#       6
#     8   8   8   8   8   8
#     4   8  13  21  32  50  76 108 143 179 218 265
#     4  10  20  35  51  69  95 127 159 195 238 284
#     4   8  13  20  32  50  76 108 141 177 220 265
#     4   8  15  25  38  56  80 111 147 182 221 269
#     4   9  16  26  39  57  82 115 149 184 227 274
#     4  11  21  33  50  72  95 123 159 199 238 281
#
# _framework density 19.753086
#
# number of rings (size 3 to 8) (size 9 to 14) (size 15 to 20)
#    0.000    3.000    0.000    4.500    0.000    5.333 
#    0.000    3.333    0.000    0.000    0.000    0.000 
#    0.000    1.333    0.000   14.000    0.000   18.667 
#
# Total GULP energy -594703.606067 kJ/mol
# GULP energy per Si atom -12389.658460 kJ/mol
# Density = 1.970813 g / cm^3
# Si number density = 19.753086 Si / 1000 Ang^3
#
#
#
# Elastic Constant Matrix: (Units=GPa)
#
#
# Indices 1 2 3 4 5 6 
#
# 1 18.7351 -10.2148 7.2775 0.0000 0.0000 0.0000
# 2 -10.2148 7.5527 2.1905 0.0000 0.0000 0.0000
# 3 7.2775 2.1905 91.0176 0.0000 0.0000 0.0000
# 4 0.0000 0.0000 0.0000 12.8387 0.0000 0.0000
# 5 0.0000 0.0000 0.0000 0.0000 39.2343 0.0000
# 6 0.0000 0.0000 0.0000 0.0000 0.0000 14.3852
#
#
#
# Elastic Compliance Matrix: (Units=1/GPa)
#
#
# Indices 1 2 3 4 5 6 
#
# 1 0.265981 0.368472 -0.030135 0.000000 0.000000 0.000000
# 2 0.368472 0.643791 -0.044956 0.000000 0.000000 0.000000
# 3 -0.030135 -0.044956 0.014478 0.000000 0.000000 0.000000
# 4 0.000000 0.000000 0.000000 0.077890 0.000000 0.000000
# 5 0.000000 0.000000 0.000000 0.000000 0.025488 0.000000
# 6 0.000000 0.000000 0.000000 0.000000 0.000000 0.069516
#
#
# Mechanical properties :
#
#
# Convention : Reuss Voigt Hill
#
# Bulk Modulus (GPa) = 0.66181 12.86797 6.76489
# Shear Modulus (GPa) = 4.93071 21.16179 13.04625
#
# Velocity S-wave (km/s) = 1.58164 3.27665 2.57274
# Velocity P-wave (km/s) = 1.91604 4.56550 3.50107
#
# Compressibility (1/GPa) = 1.51101259
#
# Stress axis : x y z
#
# Youngs Moduli (GPa) = 3.75967 1.55330 69.06874
#
# Poissons Ratio (x) = -0.57235 2.08138
# Poissons Ratio (y) = -1.38533 3.10505
# Poissons Ratio (z) = 0.11330 0.06983
#
# Static dielectric constant tensor:
#      x y z
#    x 4.058450 0.000000 0.000000 
#    y 0.000000 2.846140 0.000000 
#    z 0.000000 0.000000 3.733590 
# 
# 
# High freq. dielectric constant tensor:
#      x y z
#    x 1.785130 0.000000 0.000000 
#    y 0.000000 1.695400 0.000000 
#    z 0.000000 0.000000 1.766710 
# 
# From -- ./inp_files/4371.got.cif
#   From: 2010.03.12/outbox.ucp.g09.slc.cvg/sg55_3_cif.got.tgz:4371.got - 2010.05.04 19:23:19.
