data_PCOD8227631
_publ_section_title
;
Structure prediction by ZEFSAII (Michael W. Deem and Ramdas Pophale) SiO2 
 PCOD8227631
Probable space group: P B A M
;
_chemical_formula_sum "Si O2"
_cell_formula_units_Z 64
_cell_length_a 14.809118
_cell_length_b 9.247107
_cell_length_c 22.528988
_cell_angle_alpha 90.000000
_cell_angle_beta 90.000000
_cell_angle_gamma 90.000000
_cell_volume 3085.153381
_symmetry_space_group_name_H-M "P B A M"
_symmetry_group_IT_number 55
_symmetry_cell_setting 'orthorhombic'
loop_
_space_group_symop_operation_xyz
x,y,z
-x,-y,z
1/2+x,1/2-y,-z
1/2-x,1/2+y,-z
-x,-y,-z
x,y,-z
1/2-x,1/2+y,z
1/2+x,1/2-y,z
loop_
_atom_site_type_symbol
_atom_site_label
_atom_site_fract_x
_atom_site_fract_y
_atom_site_fract_z
Si Si1 0.831540 0.753083 0.727015
Si Si2 0.694911 0.382960 0.144957
Si Si3 0.027298 0.839116 0.743283
Si Si4 0.252721 0.998497 0.347680
Si Si5 0.088354 0.585794 0.566770
Si Si6 0.421406 0.387085 0.612841
Si Si7 0.864191 0.213807 0.855975
Si Si8 0.972437 0.834901 0.933941
O O1 0.801564 0.806318 0.791160
O O2 0.787015 0.601794 0.706933
O O3 0.801728 0.867487 0.678225
O O4 0.940154 0.741477 0.728959
O O5 0.682994 0.555490 0.144188
O O6 0.794001 0.336801 0.122442
O O7 0.617596 0.310550 0.104685
O O8 0.082001 0.852385 0.682912
O O9 0.092469 0.761891 0.790675
O O10 0.000000 0.000000 0.768276
O O11 0.337303 0.049599 0.385120
O O12 0.182617 0.934278 0.396343
O O13 0.120483 0.548637 0.500000
O O14 0.060230 0.752935 0.570480
O O15 0.000000 0.500000 0.584796
O O16 0.500000 0.500000 0.596999
O O17 0.943626 0.241971 0.902780
O O18 0.956373 0.771535 0.000000
O O19 0.000000 0.000000 0.937858
#
# Coordination Sequence:
#
# PCOD8227631 Si02
#       8
#     8   8   8   8   8   8   8   8
#     4  12  21  38  65  94 129 165 202 260 327 382
#     4  11  21  36  61  91 122 167 210 261 318 380
#     4  11  18  36  62  89 127 161 197 255 317 380
#     4  12  24  41  66  97 128 162 208 261 323 381
#     4  11  27  48  65  90 129 170 216 269 315 374
#     4  11  22  40  69  98 123 165 212 257 322 387
#     4  11  21  37  60  89 127 164 211 261 319 371
#     4   9  19  38  62  87 122 171 220 255 304 383
#
# _framework density 20.744512
#
# number of rings (size 3 to 8) (size 9 to 14) (size 15 to 20)
#    0.000    1.000    6.250    2.625    0.000    1.250 
#    0.000    0.625    0.000    0.750    0.000    0.000 
#    0.000    0.000    0.000    0.000    0.000    0.000 
#
# Total GULP energy -793365.776647 kJ/mol
# GULP energy per Si atom -12396.340260 kJ/mol
# Density = 2.069730 g / cm^3
# Si number density = 20.744512 Si / 1000 Ang^3
#
#
#
# Elastic Constant Matrix: (Units=GPa)
#
#
# Indices 1 2 3 4 5 6 
#
# 1 146.7299 41.0848 38.2041 0.0000 0.0000 0.0000
# 2 41.0848 54.8901 21.1236 0.0000 0.0000 0.0000
# 3 38.2041 21.1236 61.6025 0.0000 0.0000 0.0000
# 4 0.0000 0.0000 0.0000 17.1627 0.0000 0.0000
# 5 0.0000 0.0000 0.0000 0.0000 39.3738 0.0000
# 6 0.0000 0.0000 0.0000 0.0000 0.0000 31.5232
#
#
#
# Elastic Compliance Matrix: (Units=1/GPa)
#
#
# Indices 1 2 3 4 5 6 
#
# 1 0.009381 -0.005510 -0.003928 0.000000 0.000000 0.000000
# 2 -0.005510 0.024224 -0.004889 0.000000 0.000000 0.000000
# 3 -0.003928 -0.004889 0.020346 0.000000 0.000000 0.000000
# 4 0.000000 0.000000 0.000000 0.058266 0.000000 0.000000
# 5 0.000000 0.000000 0.000000 0.000000 0.025398 0.000000
# 6 0.000000 0.000000 0.000000 0.000000 0.000000 0.031723
#
#
# Mechanical properties :
#
#
# Convention : Reuss Voigt Hill
#
# Bulk Modulus (GPa) = 39.53267 51.56083 45.54675
# Shear Modulus (GPa) = 24.22200 28.46593 26.34397
#
# Velocity S-wave (km/s) = 3.42077 3.70836 3.56747
# Velocity P-wave (km/s) = 5.89072 6.57610 6.24282
#
# Compressibility (1/GPa) = 0.02529553
#
# Stress axis : x y z
#
# Youngs Moduli (GPa) = 106.60048 41.28167 49.14966
#
# Poissons Ratio (x) = 0.22745 0.19308
# Poissons Ratio (y) = 0.58733 0.24031
# Poissons Ratio (z) = 0.41877 0.20184
#
# Static dielectric constant tensor:
#      x y z
#    x 4.051880 0.000000 0.000000 
#    y 0.000000 3.628420 0.000000 
#    z 0.000000 0.000000 3.745350 
# 
# 
# High freq. dielectric constant tensor:
#      x y z
#    x 1.834880 0.000000 0.000000 
#    y 0.000000 1.784630 0.000000 
#    z 0.000000 0.000000 1.801790 
# 
# From -- ./inp_files/23612.got.cif
#   From: 2010.03.12/outbox.cif.g09.slc.cpg/sg55_12_cif.got.tgz:23612.got - 2010.04.16 15:19:21.
