data_PCOD8227033
_publ_section_title
;
Structure prediction by ZEFSAII (Michael W. Deem and Ramdas Pophale) SiO2 
 PCOD8227033
Probable space group: P B A M
;
_chemical_formula_sum "Si O2"
_cell_formula_units_Z 56
_cell_length_a 8.386761
_cell_length_b 14.958692
_cell_length_c 21.306054
_cell_angle_alpha 90.000000
_cell_angle_beta 90.000000
_cell_angle_gamma 90.000000
_cell_volume 2672.950465
_symmetry_space_group_name_H-M "P B A M"
_symmetry_group_IT_number 55
_symmetry_cell_setting 'orthorhombic'
loop_
_space_group_symop_operation_xyz
x,y,z
-x,-y,z
1/2+x,1/2-y,-z
1/2-x,1/2+y,-z
-x,-y,-z
x,y,-z
1/2-x,1/2+y,z
1/2+x,1/2-y,z
loop_
_atom_site_type_symbol
_atom_site_label
_atom_site_fract_x
_atom_site_fract_y
_atom_site_fract_z
Si Si1 0.182899 0.519392 0.833048
Si Si2 0.327707 0.528746 0.427118
Si Si3 0.385922 0.340847 0.823575
Si Si4 0.086709 0.092632 0.068871
Si Si5 0.857791 0.647956 0.572149
Si Si6 0.180845 0.699015 0.629105
Si Si7 0.784251 0.816806 0.234004
O O1 0.283965 0.431538 0.815013
O O2 0.251365 0.572286 0.893336
O O3 0.194725 0.588447 0.775081
O O4 0.000000 0.500000 0.847602
O O5 0.500000 0.500000 0.403130
O O6 0.330720 0.553537 0.500000
O O7 0.198427 0.452210 0.413364
O O8 0.290132 0.616340 0.388771
O O9 0.472107 0.340868 0.891660
O O10 0.525364 0.333366 0.770766
O O11 0.268739 0.256206 0.818437
O O12 0.123803 0.134709 0.000000
O O13 0.000000 0.000000 0.058911
O O14 0.915831 0.655176 0.500000
O O15 0.712929 0.716018 0.584430
O O16 0.997168 0.672931 0.620410
O O17 0.227514 0.723791 0.699973
#
# Coordination Sequence:
#
# PCOD8227033 Si02
#       7
#     8   8   8   8   8   8   8
#     4  10  21  37  60  89 123 164 201 249 311 361
#     4  10  22  40  60  83 113 149 192 247 308 367
#     4  10  21  40  60  84 123 161 200 251 303 352
#     4   8  16  34  60  87 116 155 200 245 295 349
#     4  11  23  40  61  85 116 151 193 250 311 366
#     4  12  24  38  60  87 114 154 200 247 302 369
#     4  11  23  38  58  85 119 160 204 250 299 365
#
# _framework density 20.950631000000001
#
# number of rings (size 3 to 8) (size 9 to 14) (size 15 to 20)
#    0.000    1.714    0.000    5.571    0.000    6.000 
#    0.000    2.857    0.000    3.429    0.000    0.000 
#    0.000    0.000    0.000    0.000    0.000    0.000 
#
# Total GULP energy -694385.319361 kJ/mol
# GULP energy per Si atom -12399.737846 kJ/mol
# Density = 2.090295 g / cm^3
# Si number density = 20.950631 Si / 1000 Ang^3
#
#
#
# Elastic Constant Matrix: (Units=GPa)
#
#
# Indices 1 2 3 4 5 6 
#
# 1 107.4945 17.9563 26.5404 0.0000 0.0000 0.0000
# 2 17.9563 91.2504 23.9339 0.0000 0.0000 0.0000
# 3 26.5404 23.9339 76.6388 0.0000 0.0000 0.0000
# 4 0.0000 0.0000 0.0000 17.6202 0.0000 0.0000
# 5 0.0000 0.0000 0.0000 0.0000 15.6577 0.0000
# 6 0.0000 0.0000 0.0000 0.0000 0.0000 38.3514
#
#
#
# Elastic Compliance Matrix: (Units=1/GPa)
#
#
# Indices 1 2 3 4 5 6 
#
# 1 0.010289 -0.001187 -0.003192 0.000000 0.000000 0.000000
# 2 -0.001187 0.012074 -0.003359 0.000000 0.000000 0.000000
# 3 -0.003192 -0.003359 0.015203 0.000000 0.000000 0.000000
# 4 0.000000 0.000000 0.000000 0.056753 0.000000 0.000000
# 5 0.000000 0.000000 0.000000 0.000000 0.063866 0.000000
# 6 0.000000 0.000000 0.000000 0.000000 0.000000 0.026075
#
#
# Mechanical properties :
#
#
# Convention : Reuss Voigt Hill
#
# Bulk Modulus (GPa) = 45.27442 45.80499 45.53970
# Shear Modulus (GPa) = 24.14284 28.12273 26.13278
#
# Velocity S-wave (km/s) = 3.39834 3.66776 3.53562
# Velocity P-wave (km/s) = 6.08730 6.31248 6.20091
#
# Compressibility (1/GPa) = 0.02208753
#
# Stress axis : x y z
#
# Youngs Moduli (GPa) = 97.18775 82.82513 65.77706
#
# Poissons Ratio (x) = 0.09835 0.20999
# Poissons Ratio (y) = 0.11540 0.22097
# Poissons Ratio (z) = 0.31026 0.27824
#
# Static dielectric constant tensor:
#      x y z
#    x 3.839910 0.000000 0.000000 
#    y 0.000000 3.818540 0.000000 
#    z 0.000000 0.000000 3.836710 
# 
# 
# High freq. dielectric constant tensor:
#      x y z
#    x 1.827180 0.000000 0.000000 
#    y 0.000000 1.825120 0.000000 
#    z 0.000000 0.000000 1.805070 
# 
# From -- ./inp_files/22628.got.cif
#   From: 2010.03.12/outbox.cif.g09.slc.cpg/sg55_12_cif.got.tgz:22628.got - 2010.04.16 15:19:21.
