data_PCOD8227400
_publ_section_title
;
Structure prediction by ZEFSAII (Michael W. Deem and Ramdas Pophale) SiO2 
 PCOD8227400
Probable space group: P B A M
;
_chemical_formula_sum "Si O2"
_cell_formula_units_Z 28
_cell_length_a 11.114215
_cell_length_b 4.981808
_cell_length_c 20.228250
_cell_angle_alpha 90.000000
_cell_angle_beta 90.000000
_cell_angle_gamma 90.000000
_cell_volume 1120.015652
_symmetry_space_group_name_H-M "P B A M"
_symmetry_group_IT_number 55
_symmetry_cell_setting 'orthorhombic'
loop_
_space_group_symop_operation_xyz
x,y,z
-x,-y,z
1/2+x,1/2-y,-z
1/2-x,1/2+y,-z
-x,-y,-z
x,y,-z
1/2-x,1/2+y,z
1/2+x,1/2-y,z
loop_
_atom_site_type_symbol
_atom_site_label
_atom_site_fract_x
_atom_site_fract_y
_atom_site_fract_z
Si Si1 0.671325 0.787341 0.575078
Si Si2 0.000000 0.000000 0.108153
Si Si3 0.000000 0.000000 0.669155
Si Si4 0.833517 0.228543 0.000000
Si Si5 0.168891 0.136730 0.781669
O O1 0.624611 0.753774 0.500000
O O2 0.783510 0.588177 0.588564
O O3 0.562247 0.724341 0.623787
O O4 0.084180 0.184992 0.154610
O O5 0.083271 0.806295 0.064196
O O6 0.907009 0.833337 0.714543
O O7 0.780127 0.527196 0.000000
O O8 0.219897 0.835922 0.783416
#
# Coordination Sequence:
#
# PCOD8227400 Si02
#       5
#     8   4   4   4   8
#     4  10  22  39  59  86 118 152 195 245 297 358
#     4  10  24  41  67  90 122 166 196 240 302 346
#     4  11  23  39  63  87 117 158 198 244 303 349
#     4  11  24  41  64  96 126 155 200 247 290 350
#     4  11  25  42  61  89 122 157 202 247 290 351
#
# _framework density 24.999649000000002
#
# number of rings (size 3 to 8) (size 9 to 14) (size 15 to 20)
#    0.000    1.429    0.000    3.857    0.000   12.571 
#    0.000    4.286    0.000    0.000    0.000    0.000 
#    0.000    0.000    0.000    0.000    0.000    0.000 
#
# Total GULP energy -347428.675257 kJ/mol
# GULP energy per Si atom -12408.166973 kJ/mol
# Density = 2.494275 g / cm^3
# Si number density = 24.999649 Si / 1000 Ang^3
#
#
#
# Elastic Constant Matrix: (Units=GPa)
#
#
# Indices 1 2 3 4 5 6 
#
# 1 117.8822 6.5506 62.7497 0.0000 0.0000 0.0000
# 2 6.5506 52.0288 5.2478 0.0000 0.0000 0.0000
# 3 62.7497 5.2478 159.7956 0.0000 0.0000 0.0000
# 4 0.0000 0.0000 0.0000 11.1363 0.0000 0.0000
# 5 0.0000 0.0000 0.0000 0.0000 111.6745 0.0000
# 6 0.0000 0.0000 0.0000 0.0000 0.0000 12.6167
#
#
#
# Elastic Compliance Matrix: (Units=1/GPa)
#
#
# Indices 1 2 3 4 5 6 
#
# 1 0.010770 -0.000932 -0.004199 0.000000 0.000000 0.000000
# 2 -0.000932 0.019365 -0.000270 0.000000 0.000000 0.000000
# 3 -0.004199 -0.000270 0.007916 0.000000 0.000000 0.000000
# 4 0.000000 0.000000 0.000000 0.089797 0.000000 0.000000
# 5 0.000000 0.000000 0.000000 0.000000 0.008955 0.000000
# 6 0.000000 0.000000 0.000000 0.000000 0.000000 0.079260
#
#
# Mechanical properties :
#
#
# Convention : Reuss Voigt Hill
#
# Bulk Modulus (GPa) = 36.69927 53.20031 44.94979
# Shear Modulus (GPa) = 21.19134 44.09607 32.64371
#
# Velocity S-wave (km/s) = 2.91463 4.20440 3.61746
# Velocity P-wave (km/s) = 5.10280 6.70044 5.95544
#
# Compressibility (1/GPa) = 0.02724850
#
# Stress axis : x y z
#
# Youngs Moduli (GPa) = 92.85248 51.64027 126.33339
#
# Poissons Ratio (x) = 0.04815 0.53041
# Poissons Ratio (y) = 0.08658 0.03408
# Poissons Ratio (z) = 0.38984 0.01393
#
# Static dielectric constant tensor:
#      x y z
#    x 4.542350 0.000000 0.000000 
#    y 0.000000 3.980670 0.000000 
#    z 0.000000 0.000000 4.865610 
# 
# 
# High freq. dielectric constant tensor:
#      x y z
#    x 2.007940 0.000000 0.000000 
#    y 0.000000 1.974880 0.000000 
#    z 0.000000 0.000000 2.019250 
# 
# From -- ./inp_files/22786.got.cif
#   From: 2010.03.12/outbox.cif.g09.slc.cpg/sg55_12_cif.got.tgz:22786.got - 2010.04.16 15:19:21.
