data_PCOD8227326
_publ_section_title
;
Structure prediction by ZEFSAII (Michael W. Deem and Ramdas Pophale) SiO2 
 PCOD8227326
Probable space group: P B A M
;
_chemical_formula_sum "Si O2"
_cell_formula_units_Z 60
_cell_length_a 14.222220
_cell_length_b 15.337678
_cell_length_c 13.751467
_cell_angle_alpha 90.000000
_cell_angle_beta 90.000000
_cell_angle_gamma 90.000000
_cell_volume 2999.687679
_symmetry_space_group_name_H-M "P B A M"
_symmetry_group_IT_number 55
_symmetry_cell_setting 'orthorhombic'
loop_
_space_group_symop_operation_xyz
x,y,z
-x,-y,z
1/2+x,1/2-y,-z
1/2-x,1/2+y,-z
-x,-y,-z
x,y,-z
1/2-x,1/2+y,z
1/2+x,1/2-y,z
loop_
_atom_site_type_symbol
_atom_site_label
_atom_site_fract_x
_atom_site_fract_y
_atom_site_fract_z
Si Si1 0.554080 0.258455 0.752918
Si Si2 0.500000 0.000000 0.263604
Si Si3 0.217154 0.934813 0.890530
Si Si4 0.574427 0.119994 0.107596
Si Si5 0.832760 0.234011 0.233437
Si Si6 0.707326 0.392226 0.229979
Si Si7 0.193389 0.318938 0.608998
Si Si8 0.681141 0.980432 0.390490
O O1 0.586786 0.219740 0.858062
O O2 0.442375 0.258886 0.743299
O O3 0.603320 0.352825 0.751525
O O4 0.595558 0.199155 0.665271
O O5 0.508132 0.081613 0.191065
O O6 0.585070 0.974196 0.331880
O O7 0.329242 0.932521 0.892301
O O8 0.179078 0.850361 0.834483
O O9 0.191244 0.026396 0.841497
O O10 0.176031 0.932777 0.000000
O O11 0.528226 0.116408 0.000000
O O12 0.783501 0.321112 0.186856
O O13 0.780274 0.225549 0.336439
O O14 0.740917 0.423748 0.335930
O O15 0.185823 0.281403 0.500000
O O16 0.215487 0.420719 0.607878
O O17 0.667268 0.944719 0.500000
#
# Coordination Sequence:
#
# PCOD8227326 Si02
#       8
#     8   4   8   8   8   8   8   8
#     4  11  23  40  65  93 132 167 212 262 317 387
#     4  12  18  38  62  96 124 160 208 258 328 378
#     4  11  23  43  66  90 126 170 215 261 320 383
#     4  11  22  39  61  91 127 161 204 263 318 376
#     4  11  23  43  65  94 128 168 211 267 315 380
#     4  11  22  42  65  93 128 168 214 266 324 381
#     4  10  21  42  64  89 129 169 210 265 317 370
#     4  11  22  38  64  92 127 167 212 266 319 379
#
# _framework density 20.002082999999999
#
# number of rings (size 3 to 8) (size 9 to 14) (size 15 to 20)
#    0.000    1.067    6.667    1.200    0.000    4.800 
#    0.000    0.667    0.000    1.600    0.000    0.000 
#    0.000    0.000    0.000    0.000    0.000    0.000 
#
# Total GULP energy -743710.942796 kJ/mol
# GULP energy per Si atom -12395.182380 kJ/mol
# Density = 1.995656 g / cm^3
# Si number density = 20.002083 Si / 1000 Ang^3
#
#
#
# Elastic Constant Matrix: (Units=GPa)
#
#
# Indices 1 2 3 4 5 6 
#
# 1 96.8611 27.0649 36.2701 0.0000 0.0000 0.0000
# 2 27.0649 111.5470 51.6463 0.0000 0.0000 0.0000
# 3 36.2701 51.6463 157.5484 0.0000 0.0000 0.0000
# 4 0.0000 0.0000 0.0000 17.5703 0.0000 0.0000
# 5 0.0000 0.0000 0.0000 0.0000 5.1047 0.0000
# 6 0.0000 0.0000 0.0000 0.0000 0.0000 25.8656
#
#
#
# Elastic Compliance Matrix: (Units=1/GPa)
#
#
# Indices 1 2 3 4 5 6 
#
# 1 0.011617 -0.001863 -0.002064 0.000000 0.000000 0.000000
# 2 -0.001863 0.010868 -0.003134 0.000000 0.000000 0.000000
# 3 -0.002064 -0.003134 0.007850 0.000000 0.000000 0.000000
# 4 0.000000 0.000000 0.000000 0.056914 0.000000 0.000000
# 5 0.000000 0.000000 0.000000 0.000000 0.195898 0.000000
# 6 0.000000 0.000000 0.000000 0.000000 0.000000 0.038661
#
#
# Mechanical properties :
#
#
# Convention : Reuss Voigt Hill
#
# Bulk Modulus (GPa) = 61.67663 66.21325 63.94494
# Shear Modulus (GPa) = 14.64841 26.43980 20.54410
#
# Velocity S-wave (km/s) = 2.70912 3.63967 3.20831
# Velocity P-wave (km/s) = 6.37870 7.13008 6.76483
#
# Compressibility (1/GPa) = 0.01621360
#
# Stress axis : x y z
#
# Youngs Moduli (GPa) = 86.07725 92.01491 127.39491
#
# Poissons Ratio (x) = 0.17145 0.26291
# Poissons Ratio (y) = 0.16039 0.39921
# Poissons Ratio (z) = 0.17764 0.28834
#
# Static dielectric constant tensor:
#      x y z
#    x 3.492060 0.000000 0.000000 
#    y 0.000000 3.973370 0.000000 
#    z 0.000000 0.000000 3.960870 
# 
# 
# High freq. dielectric constant tensor:
#      x y z
#    x 1.762550 0.000000 0.000000 
#    y 0.000000 1.792420 0.000000 
#    z 0.000000 0.000000 1.783090 
# 
# From -- ./inp_files/19073.got.cif
#   From: 2010.03.12/outbox.cif.g09.slc.cpg/sg55_10_cif.got.tgz:19073.got - 2010.04.16 15:19:21.
