data_PCOD8227798
_publ_section_title
;
Structure prediction by ZEFSAII (Michael W. Deem and Ramdas Pophale) SiO2 
 PCOD8227798
Probable space group: P B A M
;
_chemical_formula_sum "Si O2"
_cell_formula_units_Z 32
_cell_length_a 10.643840
_cell_length_b 8.525801
_cell_length_c 14.833564
_cell_angle_alpha 90.000000
_cell_angle_beta 90.000000
_cell_angle_gamma 90.000000
_cell_volume 1346.105314
_symmetry_space_group_name_H-M "P B A M"
_symmetry_group_IT_number 55
_symmetry_cell_setting 'orthorhombic'
loop_
_space_group_symop_operation_xyz
x,y,z
-x,-y,z
1/2+x,1/2-y,-z
1/2-x,1/2+y,-z
-x,-y,-z
x,y,-z
1/2-x,1/2+y,z
1/2+x,1/2-y,z
loop_
_atom_site_type_symbol
_atom_site_label
_atom_site_fract_x
_atom_site_fract_y
_atom_site_fract_z
Si Si1 0.372225 0.805844 0.669262
Si Si2 0.414304 0.639521 0.150998
Si Si3 0.562628 0.808362 0.000000
Si Si4 0.736411 0.526257 0.000000
Si Si5 0.633507 0.857674 0.602401
O O1 0.351615 0.738876 0.769391
O O2 0.509983 0.756644 0.631151
O O3 0.259856 0.742359 0.607500
O O4 0.359077 0.993653 0.669035
O O5 0.500000 0.500000 0.191459
O O6 0.490390 0.762815 0.090225
O O7 0.310802 0.555738 0.090678
O O8 0.610911 0.992857 0.000000
O O9 0.695910 0.707493 0.000000
O O10 0.616133 0.915993 0.500000
#
# Coordination Sequence:
#
# PCOD8227798 Si02
#       5
#     8   8   4   4   8
#     4  11  25  42  71  99 132 173 226 279 331 414
#     4   9  21  39  59  93 129 171 220 266 326 390
#     4   9  19  39  60  86 132 172 213 267 326 385
#     4   9  19  37  62  82 128 172 207 267 315 388
#     4  11  25  47  68  97 135 174 221 283 346 404
#
# _framework density 23.772283999999999
#
# number of rings (size 3 to 8) (size 9 to 14) (size 15 to 20)
#    0.000    2.000    0.000    4.500    7.000    2.000 
#    4.500    3.750    0.000    0.000    0.000    0.000 
#    0.000    0.000    0.000    0.000    0.000    0.000 
#
# Total GULP energy -396723.390779 kJ/mol
# GULP energy per Si atom -12397.605962 kJ/mol
# Density = 2.371818 g / cm^3
# Si number density = 23.772284 Si / 1000 Ang^3
#
#
#
# Elastic Constant Matrix: (Units=GPa)
#
#
# Indices 1 2 3 4 5 6 
#
# 1 121.3451 18.5206 19.7408 0.0000 0.0000 0.0000
# 2 18.5206 57.0059 21.6089 0.0000 0.0000 0.0000
# 3 19.7408 21.6089 103.8193 0.0000 0.0000 0.0000
# 4 0.0000 0.0000 0.0000 24.6355 0.0000 0.0000
# 5 0.0000 0.0000 0.0000 0.0000 27.9018 0.0000
# 6 0.0000 0.0000 0.0000 0.0000 0.0000 41.1059
#
#
#
# Elastic Compliance Matrix: (Units=1/GPa)
#
#
# Indices 1 2 3 4 5 6 
#
# 1 0.008800 -0.002415 -0.001171 0.000000 0.000000 0.000000
# 2 -0.002415 0.019708 -0.003643 0.000000 0.000000 0.000000
# 3 -0.001171 -0.003643 0.010613 0.000000 0.000000 0.000000
# 4 0.000000 0.000000 0.000000 0.040592 0.000000 0.000000
# 5 0.000000 0.000000 0.000000 0.000000 0.035840 0.000000
# 6 0.000000 0.000000 0.000000 0.000000 0.000000 0.024327
#
#
# Mechanical properties :
#
#
# Convention : Reuss Voigt Hill
#
# Bulk Modulus (GPa) = 40.54596 44.65678 42.60137
# Shear Modulus (GPa) = 30.75827 33.54863 32.15345
#
# Velocity S-wave (km/s) = 3.60094 3.76074 3.68171
# Velocity P-wave (km/s) = 5.86362 6.13869 6.00273
#
# Compressibility (1/GPa) = 0.02466337
#
# Stress axis : x y z
#
# Youngs Moduli (GPa) = 113.63594 50.74199 94.22509
#
# Poissons Ratio (x) = 0.12256 0.11030
# Poissons Ratio (y) = 0.27447 0.34323
# Poissons Ratio (z) = 0.13302 0.18484
#
# Static dielectric constant tensor:
#      x y z
#    x 4.600780 0.000000 0.000000 
#    y 0.000000 4.295790 0.000000 
#    z 0.000000 0.000000 3.989540 
# 
# 
# High freq. dielectric constant tensor:
#      x y z
#    x 1.962470 0.000000 0.000000 
#    y 0.000000 1.941100 0.000000 
#    z 0.000000 0.000000 1.932810 
# 
# From -- ./inp_files/16867.got.cif
#   From: 2010.03.12/outbox.cif.g09.slc.cpg/sg55_9_cif.got.tgz:16867.got - 2010.04.16 15:19:21.
