data_PCOD8227578
_publ_section_title
;
Structure prediction by ZEFSAII (Michael W. Deem and Ramdas Pophale) SiO2 
 PCOD8227578
Probable space group: P B A M
;
_chemical_formula_sum "Si O2"
_cell_formula_units_Z 64
_cell_length_a 11.768397
_cell_length_b 30.451859
_cell_length_c 8.556188
_cell_angle_alpha 90.000000
_cell_angle_beta 90.000000
_cell_angle_gamma 90.000000
_cell_volume 3066.277381
_symmetry_space_group_name_H-M "P B A M"
_symmetry_group_IT_number 55
_symmetry_cell_setting 'orthorhombic'
loop_
_space_group_symop_operation_xyz
x,y,z
-x,-y,z
1/2+x,1/2-y,-z
1/2-x,1/2+y,-z
-x,-y,-z
x,y,-z
1/2-x,1/2+y,z
1/2+x,1/2-y,z
loop_
_atom_site_type_symbol
_atom_site_label
_atom_site_fract_x
_atom_site_fract_y
_atom_site_fract_z
Si Si1 0.709929 0.543275 0.319128
Si Si2 0.204764 0.794917 0.181697
Si Si3 0.348311 0.871729 0.318115
Si Si4 0.752695 0.446713 0.321267
Si Si5 0.013202 0.071293 0.179817
Si Si6 0.909269 0.375371 0.179099
Si Si7 0.772159 0.802644 0.819442
Si Si8 0.003061 0.162378 0.679613
O O1 0.677005 0.548815 0.500000
O O2 0.788118 0.583401 0.261483
O O3 0.779221 0.498152 0.291511
O O4 0.592902 0.540047 0.221290
O O5 0.299538 0.830930 0.221786
O O6 0.252028 0.747422 0.227762
O O7 0.089440 0.800789 0.279278
O O8 0.174598 0.796956 0.000000
O O9 0.325228 0.863448 0.500000
O O10 0.481908 0.876091 0.289659
O O11 0.777220 0.433551 0.500000
O O12 0.620668 0.438442 0.287545
O O13 0.831720 0.417844 0.210313
O O14 0.972573 0.120840 0.213002
O O15 0.047119 0.065054 0.000000
O O16 0.840105 0.330976 0.214744
O O17 0.949158 0.376706 0.000000
O O18 0.871275 0.820336 0.710020
O O19 0.809050 0.807592 0.000000
O O20 0.991563 0.148601 0.500000
#
# Coordination Sequence:
#
# PCOD8227578 Si02
#       8
#     8   8   8   8   8   8   8   8
#     4  10  23  42  64  91 127 168 209 257 317 377
#     4  11  24  43  67  95 128 168 210 258 315 374
#     4  11  24  43  65  91 126 168 212 261 311 372
#     4  11  23  41  65  93 125 165 210 260 317 376
#     4  12  23  38  63  95 130 166 207 258 317 372
#     4  11  24  43  65  91 125 167 211 261 314 375
#     4  10  24  44  66  92 127 168 209 254 313 375
#     4  12  24  40  66  97 130 166 209 259 314 370
#
# _framework density 20.872214
#
# number of rings (size 3 to 8) (size 9 to 14) (size 15 to 20)
#    0.000    1.000    2.500    4.125    1.750    5.000 
#    0.000    2.500    0.000    0.000    0.000    0.000 
#    0.000    0.000    0.000    0.000    0.000    0.000 
#
# Total GULP energy -794071.700680 kJ/mol
# GULP energy per Si atom -12407.370323 kJ/mol
# Density = 2.082471 g / cm^3
# Si number density = 20.872214 Si / 1000 Ang^3
#
#
#
# Elastic Constant Matrix: (Units=GPa)
#
#
# Indices 1 2 3 4 5 6 
#
# 1 87.2357 20.5419 13.2247 0.0000 0.0000 0.0000
# 2 20.5419 111.8543 24.8010 0.0000 0.0000 0.0000
# 3 13.2247 24.8010 59.2836 0.0000 0.0000 0.0000
# 4 0.0000 0.0000 0.0000 28.3340 0.0000 0.0000
# 5 0.0000 0.0000 0.0000 0.0000 35.9812 0.0000
# 6 0.0000 0.0000 0.0000 0.0000 0.0000 21.1255
#
#
#
# Elastic Compliance Matrix: (Units=1/GPa)
#
#
# Indices 1 2 3 4 5 6 
#
# 1 0.012185 -0.001802 -0.001964 0.000000 0.000000 0.000000
# 2 -0.001802 0.010121 -0.003832 0.000000 0.000000 0.000000
# 3 -0.001964 -0.003832 0.018909 0.000000 0.000000 0.000000
# 4 0.000000 0.000000 0.000000 0.035293 0.000000 0.000000
# 5 0.000000 0.000000 0.000000 0.000000 0.027792 0.000000
# 6 0.000000 0.000000 0.000000 0.000000 0.000000 0.047336
#
#
# Mechanical properties :
#
#
# Convention : Reuss Voigt Hill
#
# Bulk Modulus (GPa) = 38.43419 41.72319 40.07869
# Shear Modulus (GPa) = 28.48887 30.40855 29.44871
#
# Velocity S-wave (km/s) = 3.69849 3.82107 3.76028
# Velocity P-wave (km/s) = 6.05743 6.28495 6.17224
#
# Compressibility (1/GPa) = 0.02601850
#
# Stress axis : x y z
#
# Youngs Moduli (GPa) = 82.06565 98.80607 52.88394
#
# Poissons Ratio (x) = 0.17808 0.10388
# Poissons Ratio (y) = 0.14791 0.20265
# Poissons Ratio (z) = 0.16120 0.37862
#
# Static dielectric constant tensor:
#      x y z
#    x 3.630230 0.000000 0.000000 
#    y 0.000000 3.999700 0.000000 
#    z 0.000000 0.000000 3.709210 
# 
# 
# High freq. dielectric constant tensor:
#      x y z
#    x 1.815660 0.000000 0.000000 
#    y 0.000000 1.829550 0.000000 
#    z 0.000000 0.000000 1.818210 
# 
# From -- ./inp_files/4666.got.cif
#   From: 2010.03.12/outbox.cif.g09.slc.cpg/sg55_3_cif.got.tgz:4666.got - 2010.04.16 15:19:21.
