data_PCOD8227936
_publ_section_title
;
Structure prediction by ZEFSAII (Michael W. Deem and Ramdas Pophale) SiO2 
 PCOD8227936
Probable space group: P C C N
;
_chemical_formula_sum "Si O2"
_cell_formula_units_Z 64
_cell_length_a 20.208178
_cell_length_b 19.424258
_cell_length_c 8.896789
_cell_angle_alpha 90.000000
_cell_angle_beta 90.000000
_cell_angle_gamma 90.000000
_cell_volume 3492.246472
_symmetry_space_group_name_H-M "P C C N"
_symmetry_group_IT_number 56
_symmetry_cell_setting 'orthorhombic'
loop_
_space_group_symop_operation_xyz
x,y,z
1/2-x,1/2-y,z
1/2+x,-y,1/2-z
-x,1/2+y,1/2-z
-x,-y,-z
1/2+x,1/2+y,-z
1/2-x,y,1/2+z
x,1/2-y,1/2+z
loop_
_atom_site_type_symbol
_atom_site_label
_atom_site_fract_x
_atom_site_fract_y
_atom_site_fract_z
Si Si1 0.684876 0.470029 0.460414
Si Si2 0.324563 0.697891 0.034015
Si Si3 0.546877 0.458758 0.105558
Si Si4 0.840800 0.330632 0.128377
Si Si5 0.496171 0.819609 0.820131
Si Si6 0.192342 0.940237 0.890225
Si Si7 0.479026 0.686167 0.978996
Si Si8 0.055146 0.460502 0.089547
O O1 0.666620 0.406950 0.567509
O O2 0.756339 0.493099 0.528062
O O3 0.692483 0.448019 0.288062
O O4 0.629026 0.529300 0.480186
O O5 0.308838 0.681349 0.207227
O O6 0.304582 0.776197 0.985920
O O7 0.288640 0.639542 0.930637
O O8 0.402232 0.701059 0.999903
O O9 0.620586 0.453297 0.035241
O O10 0.514893 0.382834 0.122788
O O11 0.554375 0.500052 0.255629
O O12 0.500000 0.500000 0.000000
O O13 0.919391 0.324319 0.142964
O O14 0.518300 0.746251 0.890348
O O15 0.511962 0.823134 0.642917
O O16 0.538595 0.880015 0.898844
O O17 0.000000 0.500000 0.000000
#
# Coordination Sequence:
#
# PCOD8227936 Si02
#       8
#     8   8   8   8   8   8   8   8
#     4  11  22  36  53  74 108 145 186 232 268 327
#     4   9  18  31  49  74 104 146 184 220 264 321
#     4  10  20  37  57  82 112 145 180 231 281 337
#     4  10  18  31  51  73 107 146 185 222 265 318
#     4  10  19  33  51  81 114 147 181 228 276 333
#     4  10  22  35  51  76 106 141 183 226 275 327
#     4   9  19  31  53  78 114 146 180 224 278 331
#     4  11  22  34  56  83 114 146 190 232 276 326
#
# _framework density 18.326312000000001
#
# number of rings (size 3 to 8) (size 9 to 14) (size 15 to 20)
#    0.000    2.000    2.500    1.500    1.750    4.500 
#    0.000    2.500    0.000    0.000    0.000    0.875 
#    0.000    0.000    0.000    0.000    0.000    0.000 
#
# Total GULP energy -793132.433403 kJ/mol
# GULP energy per Si atom -12392.694272 kJ/mol
# Density = 1.828460 g / cm^3
# Si number density = 18.326312 Si / 1000 Ang^3
#
#
#
# Elastic Constant Matrix: (Units=GPa)
#
#
# Indices 1 2 3 4 5 6 
#
# 1 67.7801 34.9325 20.4179 0.0000 0.0000 0.0000
# 2 34.9325 97.7510 16.0593 0.0000 0.0000 0.0000
# 3 20.4179 16.0593 60.0387 0.0000 0.0000 0.0000
# 4 0.0000 0.0000 0.0000 29.3416 0.0000 0.0000
# 5 0.0000 0.0000 0.0000 0.0000 20.9250 0.0000
# 6 0.0000 0.0000 0.0000 0.0000 0.0000 32.0163
#
#
#
# Elastic Compliance Matrix: (Units=1/GPa)
#
#
# Indices 1 2 3 4 5 6 
#
# 1 0.019401 -0.006118 -0.004961 0.000000 0.000000 0.000000
# 2 -0.006118 0.012630 -0.001298 0.000000 0.000000 0.000000
# 3 -0.004961 -0.001298 0.018690 0.000000 0.000000 0.000000
# 4 0.000000 0.000000 0.000000 0.034081 0.000000 0.000000
# 5 0.000000 0.000000 0.000000 0.000000 0.047790 0.000000
# 6 0.000000 0.000000 0.000000 0.000000 0.000000 0.031234
#
#
# Mechanical properties :
#
#
# Convention : Reuss Voigt Hill
#
# Bulk Modulus (GPa) = 38.51060 40.93212 39.72136
# Shear Modulus (GPa) = 25.35027 26.73392 26.04209
#
# Velocity S-wave (km/s) = 3.72327 3.82353 3.77373
# Velocity P-wave (km/s) = 6.28833 6.47118 6.38041
#
# Compressibility (1/GPa) = 0.02596688
#
# Stress axis : x y z
#
# Youngs Moduli (GPa) = 51.54273 79.17870 53.50368
#
# Poissons Ratio (x) = 0.48443 0.26546
# Poissons Ratio (y) = 0.31535 0.06942
# Poissons Ratio (z) = 0.25573 0.10274
#
# Static dielectric constant tensor:
#      x y z
#    x 3.461050 0.000000 0.000000 
#    y 0.000000 3.392400 0.000000 
#    z 0.000000 0.000000 3.421060 
# 
# 
# High freq. dielectric constant tensor:
#      x y z
#    x 1.697980 0.000000 0.000000 
#    y 0.000000 1.691020 0.000000 
#    z 0.000000 0.000000 1.717180 
# 
# From -- ./inp_files/4563.got.cif
#   From: 2010.03.12/outbox.cif.g09.slc.cpg/sg56_3_cif.got.tgz:4563.got - 2010.04.16 15:33:40.
