data_PCOD8227808
_publ_section_title
;
Structure prediction by ZEFSAII (Michael W. Deem and Ramdas Pophale) SiO2 
 PCOD8227808
Probable space group: P B A M
;
_chemical_formula_sum "Si O2"
_cell_formula_units_Z 48
_cell_length_a 8.310218
_cell_length_b 14.557471
_cell_length_c 17.975882
_cell_angle_alpha 90.000000
_cell_angle_beta 90.000000
_cell_angle_gamma 90.000000
_cell_volume 2174.645942
_symmetry_space_group_name_H-M "P B A M"
_symmetry_group_IT_number 55
_symmetry_cell_setting 'orthorhombic'
loop_
_space_group_symop_operation_xyz
x,y,z
-x,-y,z
1/2+x,1/2-y,-z
1/2-x,1/2+y,-z
-x,-y,-z
x,y,-z
1/2-x,1/2+y,z
1/2+x,1/2-y,z
loop_
_atom_site_type_symbol
_atom_site_label
_atom_site_fract_x
_atom_site_fract_y
_atom_site_fract_z
Si Si1 0.320947 0.535495 0.176204
Si Si2 0.170846 0.350733 0.851764
Si Si3 0.694984 0.878629 0.326740
Si Si4 0.677478 0.534271 0.585801
Si Si5 0.673391 0.817175 0.914654
Si Si6 0.332152 0.813201 0.683798
O O1 0.500000 0.500000 0.190253
O O2 0.215019 0.456724 0.136834
O O3 0.241314 0.563308 0.253992
O O4 0.318634 0.621274 0.119164
O O5 0.273337 0.288679 0.908769
O O6 0.222847 0.320836 0.769085
O O7 0.982314 0.337834 0.865277
O O8 0.814182 0.792940 0.339982
O O9 0.515239 0.842305 0.323690
O O10 0.704692 0.949181 0.395490
O O11 0.500000 0.500000 0.606415
O O12 0.695983 0.561109 0.500000
O O13 0.717131 0.624216 0.633610
O O14 0.640031 0.842016 0.000000
#
# Coordination Sequence:
#
# PCOD8227808 Si02
#       6
#     8   8   8   8   8   8
#     4  12  26  42  72 102 137 185 240 290 351 425
#     4  12  24  44  70 102 138 186 239 289 351 427
#     4  12  25  43  71 106 139 186 237 294 344 420
#     4  11  26  47  73 109 149 186 231 292 357 418
#     4  12  27  46  70 102 143 185 235 301 361 419
#     4  12  24  42  74 103 139 190 240 286 348 422
#
# _framework density 22.072558000000001
#
# number of rings (size 3 to 8) (size 9 to 14) (size 15 to 20)
#    0.000    0.167    5.000    4.000    2.333    4.333 
#    0.000    0.000    0.000    0.000    0.000    0.000 
#    0.000    0.000    0.000    0.000    0.000    0.000 
#
# Total GULP energy -595540.723374 kJ/mol
# GULP energy per Si atom -12407.098404 kJ/mol
# Density = 2.202232 g / cm^3
# Si number density = 22.072558 Si / 1000 Ang^3
#
#
#
# Elastic Constant Matrix: (Units=GPa)
#
#
# Indices 1 2 3 4 5 6 
#
# 1 111.8166 39.7454 30.6146 0.0000 0.0000 0.0000
# 2 39.7454 132.0020 33.4697 0.0000 0.0000 0.0000
# 3 30.6146 33.4697 111.1408 0.0000 0.0000 0.0000
# 4 0.0000 0.0000 0.0000 33.9855 0.0000 0.0000
# 5 0.0000 0.0000 0.0000 0.0000 28.2305 0.0000
# 6 0.0000 0.0000 0.0000 0.0000 0.0000 45.4830
#
#
#
# Elastic Compliance Matrix: (Units=1/GPa)
#
#
# Indices 1 2 3 4 5 6 
#
# 1 0.010445 -0.002615 -0.002090 0.000000 0.000000 0.000000
# 2 -0.002615 0.008857 -0.001947 0.000000 0.000000 0.000000
# 3 -0.002090 -0.001947 0.010159 0.000000 0.000000 0.000000
# 4 0.000000 0.000000 0.000000 0.029424 0.000000 0.000000
# 5 0.000000 0.000000 0.000000 0.000000 0.035423 0.000000
# 6 0.000000 0.000000 0.000000 0.000000 0.000000 0.021986
#
#
# Mechanical properties :
#
#
# Convention : Reuss Voigt Hill
#
# Bulk Modulus (GPa) = 61.88882 62.51321 62.20101
# Shear Modulus (GPa) = 37.04162 38.28177 37.66169
#
# Velocity S-wave (km/s) = 4.10100 4.16908 4.13518
# Velocity P-wave (km/s) = 7.10802 7.18040 7.14430
#
# Compressibility (1/GPa) = 0.01615801
#
# Stress axis : x y z
#
# Youngs Moduli (GPa) = 95.74075 112.90930 98.43037
#
# Poissons Ratio (x) = 0.29527 0.20568
# Poissons Ratio (y) = 0.25037 0.19163
# Poissons Ratio (z) = 0.20006 0.21981
#
# Static dielectric constant tensor:
#      x y z
#    x 3.973670 0.000000 0.000000 
#    y 0.000000 4.347120 0.000000 
#    z 0.000000 0.000000 3.847790 
# 
# 
# High freq. dielectric constant tensor:
#      x y z
#    x 1.875950 0.000000 0.000000 
#    y 0.000000 1.888280 0.000000 
#    z 0.000000 0.000000 1.857250 
# 
# From -- ./inp_files/20783.got.cif
#   From: 2010.03.12/outbox.cif.g09.slc.cpg/sg55_11_cif.got.tgz:20783.got - 2010.04.16 15:19:21.
