data_PCOD8227412
_publ_section_title
;
Structure prediction by ZEFSAII (Michael W. Deem and Ramdas Pophale) SiO2 
 PCOD8227412
Probable space group: P B A M
;
_chemical_formula_sum "Si O2"
_cell_formula_units_Z 64
_cell_length_a 30.326419
_cell_length_b 11.878329
_cell_length_c 8.967918
_cell_angle_alpha 90.000000
_cell_angle_beta 90.000000
_cell_angle_gamma 90.000000
_cell_volume 3230.487832
_symmetry_space_group_name_H-M "P B A M"
_symmetry_group_IT_number 55
_symmetry_cell_setting 'orthorhombic'
loop_
_space_group_symop_operation_xyz
x,y,z
-x,-y,z
1/2+x,1/2-y,-z
1/2-x,1/2+y,-z
-x,-y,-z
x,y,-z
1/2-x,1/2+y,z
1/2+x,1/2-y,z
loop_
_atom_site_type_symbol
_atom_site_label
_atom_site_fract_x
_atom_site_fract_y
_atom_site_fract_z
Si Si1 0.379336 0.155066 0.824457
Si Si2 0.709796 0.454493 0.323993
Si Si3 0.327892 0.746336 0.171145
Si Si4 0.454476 0.558937 0.172725
Si Si5 0.700788 0.001411 0.171600
Si Si6 0.582692 0.242822 0.325237
Si Si7 0.949871 0.498107 0.675701
Si Si8 0.130327 0.913057 0.175041
O O1 0.422714 0.102685 0.749672
O O2 0.374597 0.283800 0.773194
O O3 0.335099 0.089604 0.774063
O O4 0.385992 0.143527 0.000000
O O5 0.705653 0.452957 0.500000
O O6 0.707645 0.327418 0.260578
O O7 0.757154 0.500997 0.277305
O O8 0.671569 0.533175 0.259204
O O9 0.320527 0.877263 0.193413
O O10 0.375162 0.713571 0.235464
O O11 0.325895 0.709165 0.000000
O O12 0.500000 0.500000 0.211004
O O13 0.455310 0.671596 0.273358
O O14 0.414610 0.476342 0.218172
O O15 0.451585 0.593229 0.000000
O O16 0.714635 0.980194 0.000000
O O17 0.591398 0.252274 0.500000
O O18 0.571342 0.116532 0.277764
O O19 0.948861 0.478758 0.500000
O O20 0.000000 0.500000 0.734757
O O21 0.140194 0.919713 0.000000
#
# Coordination Sequence:
#
# PCOD8227412 Si02
#       8
#     8   8   8   8   8   8   8   8
#     4  10  22  41  64  91 119 157 209 254 298 355
#     4  12  26  41  62  93 126 160 202 248 303 367
#     4  11  22  41  67  90 119 158 203 254 306 359
#     4  10  22  39  61  90 122 162 206 252 309 362
#     4  10  23  42  64  90 120 159 205 252 305 360
#     4  11  22  38  62  90 121 159 205 255 306 361
#     4  10  23  41  60  88 127 166 200 244 307 368
#     4  10  22  41  62  87 125 164 202 253 302 357
#
# _framework density 19.811250999999999
#
# number of rings (size 3 to 8) (size 9 to 14) (size 15 to 20)
#    0.000    1.500    2.500    1.875    3.500    3.000 
#    0.000    0.000    0.000    0.000    0.000    0.000 
#    0.000    0.000    0.000    0.000    0.000    0.000 
#
# Total GULP energy -793872.803864 kJ/mol
# GULP energy per Si atom -12404.262560 kJ/mol
# Density = 1.976616 g / cm^3
# Si number density = 19.811251 Si / 1000 Ang^3
#
#
#
# Elastic Constant Matrix: (Units=GPa)
#
#
# Indices 1 2 3 4 5 6 
#
# 1 113.4188 30.6300 42.7636 0.0000 0.0000 0.0000
# 2 30.6300 106.4950 42.8694 0.0000 0.0000 0.0000
# 3 42.7636 42.8694 74.5008 0.0000 0.0000 0.0000
# 4 0.0000 0.0000 0.0000 26.5086 0.0000 0.0000
# 5 0.0000 0.0000 0.0000 0.0000 21.1020 0.0000
# 6 0.0000 0.0000 0.0000 0.0000 0.0000 24.3899
#
#
#
# Elastic Compliance Matrix: (Units=1/GPa)
#
#
# Indices 1 2 3 4 5 6 
#
# 1 0.011309 -0.000832 -0.006012 0.000000 0.000000 0.000000
# 2 -0.000832 0.012282 -0.006590 0.000000 0.000000 0.000000
# 3 -0.006012 -0.006590 0.020665 0.000000 0.000000 0.000000
# 4 0.000000 0.000000 0.000000 0.037724 0.000000 0.000000
# 5 0.000000 0.000000 0.000000 0.000000 0.047389 0.000000
# 6 0.000000 0.000000 0.000000 0.000000 0.000000 0.041001
#
#
# Mechanical properties :
#
#
# Convention : Reuss Voigt Hill
#
# Bulk Modulus (GPa) = 57.51147 58.54897 58.03022
# Shear Modulus (GPa) = 24.62648 26.27687 25.45167
#
# Velocity S-wave (km/s) = 3.52952 3.64587 3.58817
# Velocity P-wave (km/s) = 6.76038 6.88046 6.82069
#
# Compressibility (1/GPa) = 0.01738783
#
# Stress axis : x y z
#
# Youngs Moduli (GPa) = 88.42904 81.41877 48.38984
#
# Poissons Ratio (x) = 0.06777 0.29093
# Poissons Ratio (y) = 0.07360 0.31887
# Poissons Ratio (z) = 0.53165 0.53652
#
# Static dielectric constant tensor:
#      x y z
#    x 3.668330 0.000000 0.000000 
#    y 0.000000 3.756360 0.000000 
#    z 0.000000 0.000000 3.485850 
# 
# 
# High freq. dielectric constant tensor:
#      x y z
#    x 1.778490 0.000000 0.000000 
#    y 0.000000 1.787740 0.000000 
#    z 0.000000 0.000000 1.764170 
# 
# From -- ./inp_files/10764.got.cif
#   From: 2010.03.12/outbox.cif.g09.slc.cpg/sg55_6_cif.got.tgz:10764.got - 2010.04.16 15:19:21.
