data_PCOD8227988
_publ_section_title
;
Structure prediction by ZEFSAII (Michael W. Deem and Ramdas Pophale) SiO2 
 PCOD8227988
Probable space group: P C C N
;
_chemical_formula_sum "Si O2"
_cell_formula_units_Z 40
_cell_length_a 15.331731
_cell_length_b 22.628495
_cell_length_c 5.269228
_cell_angle_alpha 90.000000
_cell_angle_beta 90.000000
_cell_angle_gamma 90.000000
_cell_volume 1828.074338
_symmetry_space_group_name_H-M "P C C N"
_symmetry_group_IT_number 56
_symmetry_cell_setting 'orthorhombic'
loop_
_space_group_symop_operation_xyz
x,y,z
1/2-x,1/2-y,z
1/2+x,-y,1/2-z
-x,1/2+y,1/2-z
-x,-y,-z
1/2+x,1/2+y,-z
1/2-x,y,1/2+z
x,1/2-y,1/2+z
loop_
_atom_site_type_symbol
_atom_site_label
_atom_site_fract_x
_atom_site_fract_y
_atom_site_fract_z
Si Si1 0.125188 0.215082 0.252264
Si Si2 0.693162 0.399925 0.229965
Si Si3 0.149864 0.031320 0.763137
Si Si4 0.656253 0.581756 0.736788
Si Si5 0.580769 0.285026 0.252015
O O1 0.156182 0.250246 0.501672
O O2 0.171263 0.151680 0.252450
O O3 0.022152 0.205526 0.252765
O O4 0.762786 0.395157 0.455174
O O5 0.640389 0.461057 0.250180
O O6 0.622675 0.349014 0.259105
O O7 0.251148 0.049286 0.778095
O O8 0.104484 0.061857 0.517841
O O9 0.103924 0.057881 0.016144
O O10 0.611895 0.249269 0.500222
#
# Coordination Sequence:
#
# PCOD8227988 Si02
#       5
#     8   8   8   8   8
#     4  10  21  39  58  80 113 151 185 227 276 327
#     4  12  21  37  61  82 115 148 181 230 284 325
#     4  10  19  35  53  83 113 144 183 229 275 322
#     4  10  18  35  58  78 111 152 176 228 281 320
#     4  10  23  40  57  83 115 146 188 230 272 331
#
# _framework density 21.880949999999999
#
# number of rings (size 3 to 8) (size 9 to 14) (size 15 to 20)
#    0.000    1.600    4.000    2.400    0.000    2.400 
#    0.000   14.000    0.000    0.000    0.000    0.000 
#    0.000    0.000    0.000    0.000    0.000    0.000 
#
# Total GULP energy -495988.518038 kJ/mol
# GULP energy per Si atom -12399.712951 kJ/mol
# Density = 2.183115 g / cm^3
# Si number density = 21.880950 Si / 1000 Ang^3
#
#
#
# Elastic Constant Matrix: (Units=GPa)
#
#
# Indices 1 2 3 4 5 6 
#
# 1 13.1665 22.3252 6.8304 0.0000 0.0000 0.0000
# 2 22.3252 189.5712 56.5737 0.0000 0.0000 0.0000
# 3 6.8304 56.5737 198.3314 0.0000 0.0000 0.0000
# 4 0.0000 0.0000 0.0000 43.6297 0.0000 0.0000
# 5 0.0000 0.0000 0.0000 0.0000 37.2000 0.0000
# 6 0.0000 0.0000 0.0000 0.0000 0.0000 12.1987
#
#
#
# Elastic Compliance Matrix: (Units=1/GPa)
#
#
# Indices 1 2 3 4 5 6 
#
# 1 0.094902 -0.011150 -0.000088 0.000000 0.000000 0.000000
# 2 -0.011150 0.007076 -0.001634 0.000000 0.000000 0.000000
# 3 -0.000088 -0.001634 0.005511 0.000000 0.000000 0.000000
# 4 0.000000 0.000000 0.000000 0.022920 0.000000 0.000000
# 5 0.000000 0.000000 0.000000 0.000000 0.026882 0.000000
# 6 0.000000 0.000000 0.000000 0.000000 0.000000 0.081976
#
#
# Mechanical properties :
#
#
# Convention : Reuss Voigt Hill
#
# Bulk Modulus (GPa) = 12.23321 63.61417 37.92369
# Shear Modulus (GPa) = 17.10805 39.62834 28.36820
#
# Velocity S-wave (km/s) = 2.79923 4.26031 3.60457
# Velocity P-wave (km/s) = 4.00631 7.30317 5.89011
#
# Compressibility (1/GPa) = 0.08174469
#
# Stress axis : x y z
#
# Youngs Moduli (GPa) = 10.53718 141.32430 181.44545
#
# Poissons Ratio (x) = 1.57578 0.01593
# Poissons Ratio (y) = 0.11749 0.29655
# Poissons Ratio (z) = 0.00093 0.23098
#
# Static dielectric constant tensor:
#      x y z
#    x 3.296860 0.000000 0.000000 
#    y 0.000000 4.006320 0.000000 
#    z 0.000000 0.000000 8.446940 
# 
# 
# High freq. dielectric constant tensor:
#      x y z
#    x 1.803990 0.000000 0.000000 
#    y 0.000000 1.875850 0.000000 
#    z 0.000000 0.000000 1.898430 
# 
# From -- ./inp_files/625.got.cif
#   From: 2010.03.12/outbox.cif.g09.slc.cpg/sg56_1_cif.got.tgz:625.got - 2010.04.16 15:33:40.
