data_PCOD8227818
_publ_section_title
;
Structure prediction by ZEFSAII (Michael W. Deem and Ramdas Pophale) SiO2 
 PCOD8227818
Probable space group: P B A M
;
_chemical_formula_sum "Si O2"
_cell_formula_units_Z 64
_cell_length_a 12.845874
_cell_length_b 27.778487
_cell_length_c 12.767256
_cell_angle_alpha 90.000000
_cell_angle_beta 90.000000
_cell_angle_gamma 90.000000
_cell_volume 4555.854148
_symmetry_space_group_name_H-M "P B A M"
_symmetry_group_IT_number 55
_symmetry_cell_setting 'orthorhombic'
loop_
_space_group_symop_operation_xyz
x,y,z
-x,-y,z
1/2+x,1/2-y,-z
1/2-x,1/2+y,-z
-x,-y,-z
x,y,-z
1/2-x,1/2+y,z
1/2+x,1/2-y,z
loop_
_atom_site_type_symbol
_atom_site_label
_atom_site_fract_x
_atom_site_fract_y
_atom_site_fract_z
Si Si1 0.536668 0.726084 0.122664
Si Si2 0.393497 0.103072 0.878965
Si Si3 0.762260 0.171923 0.880297
Si Si4 0.645373 0.808454 0.753899
Si Si5 0.844485 0.750865 0.244454
Si Si6 0.451988 0.828473 0.377072
Si Si7 0.116454 0.400991 0.215286
Si Si8 0.121386 0.497206 0.115309
O O1 0.616154 0.681990 0.144017
O O2 0.587741 0.776209 0.158915
O O3 0.436084 0.716340 0.195232
O O4 0.508570 0.729742 0.000000
O O5 0.329314 0.141032 0.809895
O O6 0.517872 0.108907 0.860179
O O7 0.346697 0.050710 0.846346
O O8 0.371839 0.112861 0.000000
O O9 0.695485 0.218799 0.851711
O O10 0.721721 0.126028 0.817606
O O11 0.743444 0.160649 0.000000
O O12 0.752623 0.785105 0.712600
O O13 0.570994 0.817097 0.654193
O O14 0.880772 0.715940 0.338147
O O15 0.441617 0.833047 0.500000
O O16 0.414995 0.880221 0.329479
O O17 0.146704 0.457704 0.205934
O O18 0.000000 0.500000 0.096283
O O19 0.171303 0.484548 0.000000
#
# Coordination Sequence:
#
# PCOD8227818 Si02
#       8
#     8   8   8   8   8   8   8   8
#     4   9  16  24  35  55  80 100 122 150 180 223
#     4   9  15  22  36  59  82 103 129 156 183 226
#     4   9  15  22  35  55  76 100 125 148 182 225
#     4   9  17  27  39  54  75 101 128 156 188 221
#     4   9  17  27  38  53  74 101 126 154 189 225
#     4   9  18  29  40  55  72  95 130 164 196 233
#     4   9  15  24  38  53  76 102 128 160 195 228
#     4   8  13  21  35  56  79 102 127 154 185 225
#
# _framework density 14.04786
#
# number of rings (size 3 to 8) (size 9 to 14) (size 15 to 20)
#    0.000    3.125    0.000    3.375    0.000    2.000 
#    0.000    0.000    0.000    9.375    0.000    0.875 
#    0.000    4.000    0.000    0.000    0.000   44.125 
#
# Total GULP energy -792938.959984 kJ/mol
# GULP energy per Si atom -12389.671250 kJ/mol
# Density = 1.401589 g / cm^3
# Si number density = 14.047860 Si / 1000 Ang^3
#
#
#
# Elastic Constant Matrix: (Units=GPa)
#
#
# Indices 1 2 3 4 5 6 
#
# 1 57.2216 34.3750 32.8169 0.0000 0.0000 0.0000
# 2 34.3750 87.8054 39.4725 0.0000 0.0000 0.0000
# 3 32.8169 39.4725 85.0253 0.0000 0.0000 0.0000
# 4 0.0000 0.0000 0.0000 9.0788 0.0000 0.0000
# 5 0.0000 0.0000 0.0000 0.0000 10.1845 0.0000
# 6 0.0000 0.0000 0.0000 0.0000 0.0000 14.2374
#
#
#
# Elastic Compliance Matrix: (Units=1/GPa)
#
#
# Indices 1 2 3 4 5 6 
#
# 1 0.025456 -0.007013 -0.006570 0.000000 0.000000 0.000000
# 2 -0.007013 0.016324 -0.004872 0.000000 0.000000 0.000000
# 3 -0.006570 -0.004872 0.016559 0.000000 0.000000 0.000000
# 4 0.000000 0.000000 0.000000 0.110147 0.000000 0.000000
# 5 0.000000 0.000000 0.000000 0.000000 0.098188 0.000000
# 6 0.000000 0.000000 0.000000 0.000000 0.000000 0.070237
#
#
# Mechanical properties :
#
#
# Convention : Reuss Voigt Hill
#
# Bulk Modulus (GPa) = 46.66139 49.26455 47.96297
# Shear Modulus (GPa) = 13.12460 14.92600 14.02530
#
# Velocity S-wave (km/s) = 3.05991 3.26315 3.16317
# Velocity P-wave (km/s) = 6.76552 7.02444 6.89619
#
# Compressibility (1/GPa) = 0.02143100
#
# Stress axis : x y z
#
# Youngs Moduli (GPa) = 39.28286 61.25842 60.39135
#
# Poissons Ratio (x) = 0.42958 0.39676
# Poissons Ratio (y) = 0.27547 0.29422
# Poissons Ratio (z) = 0.25808 0.29844
#
# Static dielectric constant tensor:
#      x y z
#    x 2.721430 0.000000 0.000000 
#    y 0.000000 3.062950 0.000000 
#    z 0.000000 0.000000 2.480350 
# 
# 
# High freq. dielectric constant tensor:
#      x y z
#    x 1.510200 0.000000 0.000000 
#    y 0.000000 1.527800 0.000000 
#    z 0.000000 0.000000 1.510090 
# 
# From -- ./inp_files/13667.got.cif
#   From: 2010.03.12/outbox.cif.g09.slc.cpg/sg55_7_cif.got.tgz:13667.got - 2010.04.16 15:19:21.
