data_PCOD8227849
_publ_section_title
;
Structure prediction by ZEFSAII (Michael W. Deem and Ramdas Pophale) SiO2 
 PCOD8227849
Probable space group: P C C N
;
_chemical_formula_sum "Si O2"
_cell_formula_units_Z 48
_cell_length_a 9.260292
_cell_length_b 14.864844
_cell_length_c 18.696070
_cell_angle_alpha 90.000000
_cell_angle_beta 90.000000
_cell_angle_gamma 90.000000
_cell_volume 2573.566309
_symmetry_space_group_name_H-M "P C C N"
_symmetry_group_IT_number 56
_symmetry_cell_setting 'orthorhombic'
loop_
_space_group_symop_operation_xyz
x,y,z
1/2-x,1/2-y,z
1/2+x,-y,1/2-z
-x,1/2+y,1/2-z
-x,-y,-z
1/2+x,1/2+y,-z
1/2-x,y,1/2+z
x,1/2-y,1/2+z
loop_
_atom_site_type_symbol
_atom_site_label
_atom_site_fract_x
_atom_site_fract_y
_atom_site_fract_z
Si Si1 0.007191 0.082838 0.771832
Si Si2 0.033955 0.226331 0.321295
Si Si3 0.386333 0.575561 0.075226
Si Si4 0.291781 0.062290 0.473513
Si Si5 0.250000 0.250000 0.443014
Si Si6 0.250000 0.750000 0.608057
Si Si7 0.315624 0.039913 0.817635
O O1 0.032659 0.191120 0.763700
O O2 0.161057 0.032896 0.778732
O O3 0.904996 0.061695 0.840044
O O4 0.920881 0.041506 0.704810
O O5 0.112837 0.268058 0.391312
O O6 0.114598 0.136488 0.295104
O O7 0.869889 0.202816 0.341382
O O8 0.538229 0.568510 0.037082
O O9 0.318898 0.673266 0.058526
O O10 0.271857 0.503948 0.041109
O O11 0.230910 0.161944 0.492486
O O12 0.206139 0.029720 0.402872
#
# Coordination Sequence:
#
# PCOD8227849 Si02
#       7
#     8   8   8   8   4   4   8
#     4  10  19  34  56  81 106 143 183 224 275 319
#     4  10  18  34  54  76 106 143 184 216 259 330
#     4   9  18  33  56  79 106 140 180 228 271 320
#     4   9  17  34  58  76 105 144 182 220 276 320
#     4  10  14  34  56  76  94 148 184 208 256 336
#     4  10  18  30  56  84 100 134 190 222 258 324
#     4  10  20  33  57  81 108 143 183 226 266 324
#
# _framework density 18.651161999999999
#
# number of rings (size 3 to 8) (size 9 to 14) (size 15 to 20)
#    0.000    2.333    6.667    0.000    4.667    0.000 
#    0.000    3.333   14.667    0.000    0.000    0.000 
#    0.000    0.000    0.000    0.000    0.000    0.000 
#
# Total GULP energy -594717.553131 kJ/mol
# GULP energy per Si atom -12389.949024 kJ/mol
# Density = 1.860871 g / cm^3
# Si number density = 18.651162 Si / 1000 Ang^3
#
#
#
# Elastic Constant Matrix: (Units=GPa)
#
#
# Indices 1 2 3 4 5 6 
#
# 1 78.8120 35.7297 30.9972 0.0000 0.0000 0.0000
# 2 35.7297 134.3524 49.0668 0.0000 0.0000 0.0000
# 3 30.9972 49.0668 47.9066 0.0000 0.0000 0.0000
# 4 0.0000 0.0000 0.0000 19.7118 0.0000 0.0000
# 5 0.0000 0.0000 0.0000 0.0000 10.9428 0.0000
# 6 0.0000 0.0000 0.0000 0.0000 0.0000 33.1423
#
#
#
# Elastic Compliance Matrix: (Units=1/GPa)
#
#
# Indices 1 2 3 4 5 6 
#
# 1 0.017074 -0.000808 -0.010220 0.000000 0.000000 0.000000
# 2 -0.000808 0.011929 -0.011695 0.000000 0.000000 0.000000
# 3 -0.010220 -0.011695 0.039465 0.000000 0.000000 0.000000
# 4 0.000000 0.000000 0.000000 0.050731 0.000000 0.000000
# 5 0.000000 0.000000 0.000000 0.000000 0.091384 0.000000
# 6 0.000000 0.000000 0.000000 0.000000 0.000000 0.030173
#
#
# Mechanical properties :
#
#
# Convention : Reuss Voigt Hill
#
# Bulk Modulus (GPa) = 43.43673 54.73982 49.08827
# Shear Modulus (GPa) = 17.01390 22.44452 19.72921
#
# Velocity S-wave (km/s) = 3.02357 3.47275 3.25591
# Velocity P-wave (km/s) = 5.96061 6.74485 6.36482
#
# Compressibility (1/GPa) = 0.02302199
#
# Stress axis : x y z
#
# Youngs Moduli (GPa) = 58.56720 83.82737 25.33903
#
# Poissons Ratio (x) = 0.06777 0.25896
# Poissons Ratio (y) = 0.04735 0.29634
# Poissons Ratio (z) = 0.59854 0.98037
#
# Static dielectric constant tensor:
#      x y z
#    x 3.570880 0.000000 0.000000 
#    y 0.000000 3.640990 0.000000 
#    z 0.000000 0.000000 3.046560 
# 
# 
# High freq. dielectric constant tensor:
#      x y z
#    x 1.735620 0.000000 0.000000 
#    y 0.000000 1.730720 0.000000 
#    z 0.000000 0.000000 1.662650 
# 
# From -- ./inp_files/18102.got.cif
#   From: 2010.03.12/outbox.cif.g09.slc.cpg/sg56_10_cif.got.tgz:18102.got - 2010.04.16 15:33:40.
