data_PCOD8227902
_publ_section_title
;
Structure prediction by ZEFSAII (Michael W. Deem and Ramdas Pophale) SiO2 
 PCOD8227902
Probable space group: P C C N
;
_chemical_formula_sum "Si O2"
_cell_formula_units_Z 60
_cell_length_a 26.104304
_cell_length_b 7.366150
_cell_length_c 14.032815
_cell_angle_alpha 90.000000
_cell_angle_beta 90.000000
_cell_angle_gamma 90.000000
_cell_volume 2698.345003
_symmetry_space_group_name_H-M "P C C N"
_symmetry_group_IT_number 56
_symmetry_cell_setting 'orthorhombic'
loop_
_space_group_symop_operation_xyz
x,y,z
1/2-x,1/2-y,z
1/2+x,-y,1/2-z
-x,1/2+y,1/2-z
-x,-y,-z
1/2+x,1/2+y,-z
1/2-x,y,1/2+z
x,1/2-y,1/2+z
loop_
_atom_site_type_symbol
_atom_site_label
_atom_site_fract_x
_atom_site_fract_y
_atom_site_fract_z
Si Si1 0.951974 0.134052 0.187934
Si Si2 0.294819 0.102774 0.947513
Si Si3 0.250000 0.750000 0.912943
Si Si4 0.641808 0.841608 0.227706
Si Si5 0.637834 0.642294 0.942034
Si Si6 0.153880 0.550208 0.359808
Si Si7 0.532001 0.710863 0.664302
Si Si8 0.522130 0.807734 0.467997
O O1 0.891906 0.182913 0.177603
O O2 0.976876 0.166639 0.290598
O O3 0.984990 0.262370 0.116479
O O4 0.955886 0.923518 0.162541
O O5 0.250000 0.250000 0.932857
O O6 0.322314 0.053709 0.847086
O O7 0.272193 0.909236 0.981276
O O8 0.335348 0.170495 0.025303
O O9 0.293266 0.657860 0.845735
O O10 0.658426 0.901472 0.335015
O O11 0.653011 0.629097 0.205431
O O12 0.581234 0.890110 0.210262
O O13 0.578232 0.672120 0.924172
O O14 0.647500 0.494567 0.025921
O O15 0.524522 0.660817 0.553125
O O16 0.500000 0.000000 0.500000
#
# Coordination Sequence:
#
# PCOD8227902 Si02
#       8
#     8   8   4   8   8   8   8   8
#     4  10  20  36  60  93 127 166 211 258 320 396
#     4  11  23  44  67  92 129 174 220 272 329 385
#     4  12  24  48  68  88 132 174 216 282 334 374
#     4  10  20  38  67  94 125 171 216 264 329 394
#     4  11  19  39  70  94 128 169 222 268 327 403
#     4  10  22  43  62  94 132 169 215 273 328 384
#     4  10  19  34  60  91 128 166 206 252 320 391
#     4  10  17  34  63  90 127 172 208 254 325 395
#
# _framework density 22.235852999999999
#
# number of rings (size 3 to 8) (size 9 to 14) (size 15 to 20)
#    0.000    1.600    9.333    0.000    0.000    1.600 
#    0.000    6.000    0.000    0.000    0.000    0.000 
#    0.000    0.000    0.000    0.000    0.000    0.000 
#
# Total GULP energy -743316.869053 kJ/mol
# GULP energy per Si atom -12388.614484 kJ/mol
# Density = 2.218524 g / cm^3
# Si number density = 22.235853 Si / 1000 Ang^3
#
#
#
# Elastic Constant Matrix: (Units=GPa)
#
#
# Indices 1 2 3 4 5 6 
#
# 1 141.7353 26.3270 10.6834 0.0000 0.0000 0.0000
# 2 26.3270 44.6228 -3.1894 0.0000 0.0000 0.0000
# 3 10.6834 -3.1894 106.8237 0.0000 0.0000 0.0000
# 4 0.0000 0.0000 0.0000 12.9916 0.0000 0.0000
# 5 0.0000 0.0000 0.0000 0.0000 18.4167 0.0000
# 6 0.0000 0.0000 0.0000 0.0000 0.0000 35.4026
#
#
#
# Elastic Compliance Matrix: (Units=1/GPa)
#
#
# Indices 1 2 3 4 5 6 
#
# 1 0.008018 -0.004798 -0.000945 0.000000 0.000000 0.000000
# 2 -0.004798 0.025329 0.001236 0.000000 0.000000 0.000000
# 3 -0.000945 0.001236 0.009493 0.000000 0.000000 0.000000
# 4 0.000000 0.000000 0.000000 0.076973 0.000000 0.000000
# 5 0.000000 0.000000 0.000000 0.000000 0.054299 0.000000
# 6 0.000000 0.000000 0.000000 0.000000 0.000000 0.028247
#
#
# Mechanical properties :
#
#
# Convention : Reuss Voigt Hill
#
# Bulk Modulus (GPa) = 29.56339 40.09154 34.82747
# Shear Modulus (GPa) = 22.45706 30.65289 26.55498
#
# Velocity S-wave (km/s) = 3.18142 3.71689 3.45953
# Velocity P-wave (km/s) = 5.17875 6.04067 5.62624
#
# Compressibility (1/GPa) = 0.03382562
#
# Stress axis : x y z
#
# Youngs Moduli (GPa) = 124.72151 39.48016 105.34469
#
# Poissons Ratio (x) = 0.18943 0.09956
# Poissons Ratio (y) = 0.59842 -0.13022
# Poissons Ratio (z) = 0.11788 -0.04880
#
# Static dielectric constant tensor:
#      x y z
#    x 4.571640 0.000000 0.000000 
#    y 0.000000 3.730730 0.000000 
#    z 0.000000 0.000000 4.412250 
# 
# 
# High freq. dielectric constant tensor:
#      x y z
#    x 1.891460 0.000000 0.000000 
#    y 0.000000 1.844660 0.000000 
#    z 0.000000 0.000000 1.858490 
# 
# From -- ./inp_files/13416.got.cif
#   From: 2010.03.12/outbox.cif.g09.slc.cpg/sg56_7_cif.got.tgz:13416.got - 2010.04.16 15:33:40.
