data_PCOD8227130
_publ_section_title
;
Structure prediction by ZEFSAII (Michael W. Deem and Ramdas Pophale) SiO2 
 PCOD8227130
Probable space group: P B A M
;
_chemical_formula_sum "Si O2"
_cell_formula_units_Z 64
_cell_length_a 19.485466
_cell_length_b 19.302767
_cell_length_c 8.863409
_cell_angle_alpha 90.000000
_cell_angle_beta 90.000000
_cell_angle_gamma 90.000000
_cell_volume 3333.735618
_symmetry_space_group_name_H-M "P B A M"
_symmetry_group_IT_number 55
_symmetry_cell_setting 'orthorhombic'
loop_
_space_group_symop_operation_xyz
x,y,z
-x,-y,z
1/2+x,1/2-y,-z
1/2-x,1/2+y,-z
-x,-y,-z
x,y,-z
1/2-x,1/2+y,z
1/2+x,1/2-y,z
loop_
_atom_site_type_symbol
_atom_site_label
_atom_site_fract_x
_atom_site_fract_y
_atom_site_fract_z
Si Si1 0.412119 0.173916 0.826729
Si Si2 0.981944 0.792571 0.177173
Si Si3 0.219638 0.754556 0.169834
Si Si4 0.143430 0.282396 0.677000
Si Si5 0.072346 0.531945 0.324804
Si Si6 0.830619 0.573804 0.177511
Si Si7 0.461297 0.429239 0.324608
Si Si8 0.323556 0.406807 0.827960
O O1 0.458238 0.239022 0.780091
O O2 0.331957 0.191276 0.802064
O O3 0.431028 0.112307 0.715428
O O4 0.425952 0.152475 0.000000
O O5 0.003066 0.868514 0.230915
O O6 0.912457 0.769816 0.258227
O O7 0.968682 0.795090 0.000000
O O8 0.282088 0.750308 0.286266
O O9 0.175270 0.824062 0.190322
O O10 0.250165 0.753018 0.000000
O O11 0.133834 0.288760 0.500000
O O12 0.135097 0.358995 0.746382
O O13 0.088488 0.521782 0.500000
O O14 0.131615 0.495384 0.229041
O O15 0.000000 0.500000 0.278584
O O16 0.750980 0.565413 0.223898
O O17 0.837638 0.584486 0.000000
O O18 0.500000 0.500000 0.286435
O O19 0.465510 0.410646 0.500000
O O20 0.381840 0.439215 0.277827
O O21 0.339222 0.428301 0.000000
#
# Coordination Sequence:
#
# PCOD8227130 Si02
#       8
#     8   8   8   8   8   8   8   8
#     4  10  21  38  62  87 114 150 198 246 291 348
#     4  11  22  40  64  89 116 155 200 244 290 347
#     4   9  18  37  60  85 114 148 193 240 285 348
#     4  11  22  36  58  91 124 155 192 241 297 351
#     4  11  24  39  56  85 123 159 197 244 300 357
#     4  10  21  39  62  87 118 160 206 246 289 349
#     4  11  24  40  59  87 121 154 191 242 302 360
#     4   9  18  37  63  87 112 149 198 243 285 347
#
# _framework density 19.197683000000001
#
# number of rings (size 3 to 8) (size 9 to 14) (size 15 to 20)
#    0.000    1.750    1.250    4.125    0.000    8.000 
#    2.250    0.000    0.000    0.000    0.000    0.000 
#    0.000    0.000    0.000    0.000    0.000    0.000 
#
# Total GULP energy -793879.039199 kJ/mol
# GULP energy per Si atom -12404.359987 kJ/mol
# Density = 1.915399 g / cm^3
# Si number density = 19.197683 Si / 1000 Ang^3
#
#
#
# Elastic Constant Matrix: (Units=GPa)
#
#
# Indices 1 2 3 4 5 6 
#
# 1 103.0871 53.3539 50.4910 0.0000 0.0000 0.0000
# 2 53.3539 97.0770 49.5431 0.0000 0.0000 0.0000
# 3 50.4910 49.5431 92.8028 0.0000 0.0000 0.0000
# 4 0.0000 0.0000 0.0000 31.2174 0.0000 0.0000
# 5 0.0000 0.0000 0.0000 0.0000 25.8796 0.0000
# 6 0.0000 0.0000 0.0000 0.0000 0.0000 29.1328
#
#
#
# Elastic Compliance Matrix: (Units=1/GPa)
#
#
# Indices 1 2 3 4 5 6 
#
# 1 0.015209 -0.005685 -0.005240 0.000000 0.000000 0.000000
# 2 -0.005685 0.016283 -0.005600 0.000000 0.000000 0.000000
# 3 -0.005240 -0.005600 0.016616 0.000000 0.000000 0.000000
# 4 0.000000 0.000000 0.000000 0.032033 0.000000 0.000000
# 5 0.000000 0.000000 0.000000 0.000000 0.038641 0.000000
# 6 0.000000 0.000000 0.000000 0.000000 0.000000 0.034326
#
#
# Mechanical properties :
#
#
# Convention : Reuss Voigt Hill
#
# Bulk Modulus (GPa) = 66.40537 66.63809 66.52173
# Shear Modulus (GPa) = 26.15364 26.55120 26.35242
#
# Velocity S-wave (km/s) = 3.69498 3.72296 3.70900
# Velocity P-wave (km/s) = 7.27113 7.29846 7.28480
#
# Compressibility (1/GPa) = 0.01505902
#
# Stress axis : x y z
#
# Youngs Moduli (GPa) = 65.74923 61.41187 60.18271
#
# Poissons Ratio (x) = 0.34912 0.31536
# Poissons Ratio (y) = 0.37377 0.33703
# Poissons Ratio (z) = 0.34453 0.34391
#
# Static dielectric constant tensor:
#      x y z
#    x 3.867170 0.000000 0.000000 
#    y 0.000000 3.354330 0.000000 
#    z 0.000000 0.000000 3.468660 
# 
# 
# High freq. dielectric constant tensor:
#      x y z
#    x 1.757200 0.000000 0.000000 
#    y 0.000000 1.735230 0.000000 
#    z 0.000000 0.000000 1.749290 
# 
# From -- ./inp_files/7930.got.cif
#   From: 2010.03.12/outbox.cif.g09.slc.cpg/sg55_4_cif.got.tgz:7930.got - 2010.04.16 15:19:21.
