data_PCOD8227978
_publ_section_title
;
Structure prediction by ZEFSAII (Michael W. Deem and Ramdas Pophale) SiO2 
 PCOD8227978
Probable space group: P C C N
;
_chemical_formula_sum "Si O2"
_cell_formula_units_Z 60
_cell_length_a 17.556462
_cell_length_b 9.244120
_cell_length_c 16.437418
_cell_angle_alpha 90.000000
_cell_angle_beta 90.000000
_cell_angle_gamma 90.000000
_cell_volume 2667.694999
_symmetry_space_group_name_H-M "P C C N"
_symmetry_group_IT_number 56
_symmetry_cell_setting 'orthorhombic'
loop_
_space_group_symop_operation_xyz
x,y,z
1/2-x,1/2-y,z
1/2+x,-y,1/2-z
-x,1/2+y,1/2-z
-x,-y,-z
1/2+x,1/2+y,-z
1/2-x,y,1/2+z
x,1/2-y,1/2+z
loop_
_atom_site_type_symbol
_atom_site_label
_atom_site_fract_x
_atom_site_fract_y
_atom_site_fract_z
Si Si1 0.750000 0.250000 0.019862
Si Si2 0.914757 0.999869 0.301837
Si Si3 0.500833 0.778004 0.294101
Si Si4 0.443335 0.109876 0.544273
Si Si5 0.116378 0.092023 0.521350
Si Si6 0.274101 0.039745 0.568619
Si Si7 0.748839 0.418890 0.263979
Si Si8 0.362980 0.883593 0.875054
O O1 0.675059 0.251122 0.077123
O O2 0.742672 0.110914 0.964803
O O3 0.977835 0.122171 0.281741
O O4 0.839156 0.039168 0.251159
O O5 0.906030 0.003842 0.399539
O O6 0.935181 0.838736 0.269549
O O7 0.531984 0.888851 0.361903
O O8 0.432104 0.677864 0.324483
O O9 0.443989 0.275854 0.512337
O O10 0.500000 0.000000 0.500000
O O11 0.356045 0.065494 0.530072
O O12 0.204152 0.148097 0.541427
O O13 0.108271 0.005043 0.437829
O O14 0.282419 0.022850 0.665521
O O15 0.750000 0.250000 0.287988
O O16 0.798780 0.452825 0.184133
#
# Coordination Sequence:
#
# PCOD8227978 Si02
#       8
#     4   8   8   8   8   8   8   8
#     4  10  18  34  64  94 124 172 228 270 326 392
#     4  10  23  44  67  96 137 178 231 273 344 407
#     4  11  24  43  65 100 136 180 214 286 345 407
#     4  11  24  43  65  99 138 176 225 281 347 410
#     4   9  23  45  68  93 132 184 225 286 337 403
#     4  10  21  38  67  94 128 176 227 274 328 401
#     4  11  20  39  67  97 127 174 233 272 319 407
#     4  11  21  38  68  93 134 170 226 275 336 402
#
# _framework density 22.491329
#
# number of rings (size 3 to 8) (size 9 to 14) (size 15 to 20)
#    0.000    1.600    2.667    1.200    1.867    3.200 
#    7.200    0.000    2.933    0.000    0.000    0.000 
#    0.000    0.000    0.000    0.000    0.000    0.000 
#
# Total GULP energy -743657.865839 kJ/mol
# GULP energy per Si atom -12394.297764 kJ/mol
# Density = 2.244014 g / cm^3
# Si number density = 22.491329 Si / 1000 Ang^3
#
#
#
# Elastic Constant Matrix: (Units=GPa)
#
#
# Indices 1 2 3 4 5 6 
#
# 1 108.4197 47.9762 26.5632 0.0000 0.0000 0.0000
# 2 47.9762 79.0438 41.2411 0.0000 0.0000 0.0000
# 3 26.5632 41.2411 84.7529 0.0000 0.0000 0.0000
# 4 0.0000 0.0000 0.0000 31.9051 0.0000 0.0000
# 5 0.0000 0.0000 0.0000 0.0000 33.4675 0.0000
# 6 0.0000 0.0000 0.0000 0.0000 0.0000 47.5986
#
#
#
# Elastic Compliance Matrix: (Units=1/GPa)
#
#
# Indices 1 2 3 4 5 6 
#
# 1 0.012616 -0.007498 -0.000306 0.000000 0.000000 0.000000
# 2 -0.007498 0.021412 -0.008069 0.000000 0.000000 0.000000
# 3 -0.000306 -0.008069 0.015821 0.000000 0.000000 0.000000
# 4 0.000000 0.000000 0.000000 0.031343 0.000000 0.000000
# 5 0.000000 0.000000 0.000000 0.000000 0.029880 0.000000
# 6 0.000000 0.000000 0.000000 0.000000 0.000000 0.021009
#
#
# Mechanical properties :
#
#
# Convention : Reuss Voigt Hill
#
# Bulk Modulus (GPa) = 55.23635 55.97527 55.60581
# Shear Modulus (GPa) = 29.43564 33.02331 31.22948
#
# Velocity S-wave (km/s) = 3.62160 3.83596 3.73032
# Velocity P-wave (km/s) = 6.48847 6.67540 6.58260
#
# Compressibility (1/GPa) = 0.01810402
#
# Stress axis : x y z
#
# Youngs Moduli (GPa) = 79.26311 46.70199 63.20578
#
# Poissons Ratio (x) = 0.35017 0.01931
# Poissons Ratio (y) = 0.59432 0.51003
# Poissons Ratio (z) = 0.02422 0.37685
#
# Static dielectric constant tensor:
#      x y z
#    x 4.415170 0.000000 0.000000 
#    y 0.000000 4.187960 0.000000 
#    z 0.000000 0.000000 3.905400 
# 
# 
# High freq. dielectric constant tensor:
#      x y z
#    x 1.903430 0.000000 0.000000 
#    y 0.000000 1.877950 0.000000 
#    z 0.000000 0.000000 1.874080 
# 
# From -- ./inp_files/16647.got.cif
#   From: 2010.03.12/outbox.cif.g09.slc.cpg/sg56_9_cif.got.tgz:16647.got - 2010.04.16 15:33:40.
