data_PCOD8227399
_publ_section_title
;
Structure prediction by ZEFSAII (Michael W. Deem and Ramdas Pophale) SiO2 
 PCOD8227399
Probable space group: P B A M
;
_chemical_formula_sum "Si O2"
_cell_formula_units_Z 48
_cell_length_a 14.298913
_cell_length_b 19.980594
_cell_length_c 8.931468
_cell_angle_alpha 90.000000
_cell_angle_beta 90.000000
_cell_angle_gamma 90.000000
_cell_volume 2551.727332
_symmetry_space_group_name_H-M "P B A M"
_symmetry_group_IT_number 55
_symmetry_cell_setting 'orthorhombic'
loop_
_space_group_symop_operation_xyz
x,y,z
-x,-y,z
1/2+x,1/2-y,-z
1/2-x,1/2+y,-z
-x,-y,-z
x,y,-z
1/2-x,1/2+y,z
1/2+x,1/2-y,z
loop_
_atom_site_type_symbol
_atom_site_label
_atom_site_fract_x
_atom_site_fract_y
_atom_site_fract_z
Si Si1 0.983959 0.269729 0.824395
Si Si2 0.657057 0.178886 0.325315
Si Si3 0.704350 0.561956 0.674102
Si Si4 0.334930 0.570902 0.174381
Si Si5 0.490532 0.372247 0.676355
Si Si6 0.727655 0.794446 0.826557
O O1 0.007874 0.198272 0.754524
O O2 0.881083 0.294717 0.781552
O O3 0.057907 0.322917 0.759356
O O4 0.998673 0.263383 0.000000
O O5 0.638977 0.187659 0.500000
O O6 0.708461 0.109493 0.289064
O O7 0.720326 0.240455 0.273262
O O8 0.699969 0.542667 0.500000
O O9 0.718106 0.495600 0.771845
O O10 0.610186 0.599955 0.723332
O O11 0.431295 0.576272 0.266224
O O12 0.266982 0.632553 0.210234
O O13 0.358869 0.566180 0.000000
O O14 0.499376 0.362714 0.500000
O O15 0.741738 0.775343 0.000000
#
# Coordination Sequence:
#
# PCOD8227399 Si02
#       6
#     8   8   8   8   8   8
#     4  11  22  37  59  88 119 151 193 242 293 345
#     4  11  22  38  61  87 116 153 197 241 291 347
#     4  10  23  40  57  84 120 156 195 239 292 351
#     4  11  23  38  58  87 118 155 197 239 294 350
#     4  11  21  36  58  86 120 154 190 238 294 349
#     4  10  22  39  59  85 118 153 194 242 289 347
#
# _framework density 18.810787999999999
#
# number of rings (size 3 to 8) (size 9 to 14) (size 15 to 20)
#    0.000    1.333    3.333    2.500    0.000    6.000 
#    0.000    0.833    0.000    5.000    0.000    0.000 
#    0.000    0.000    0.000    0.000    0.000    0.000 
#
# Total GULP energy -595516.922407 kJ/mol
# GULP energy per Si atom -12406.602550 kJ/mol
# Density = 1.876797 g / cm^3
# Si number density = 18.810788 Si / 1000 Ang^3
#
#
#
# Elastic Constant Matrix: (Units=GPa)
#
#
# Indices 1 2 3 4 5 6 
#
# 1 91.9314 17.4416 39.2282 0.0000 0.0000 0.0000
# 2 17.4416 63.0306 33.7562 0.0000 0.0000 0.0000
# 3 39.2282 33.7562 76.8185 0.0000 0.0000 0.0000
# 4 0.0000 0.0000 0.0000 32.5373 0.0000 0.0000
# 5 0.0000 0.0000 0.0000 0.0000 31.1560 0.0000
# 6 0.0000 0.0000 0.0000 0.0000 0.0000 25.0054
#
#
#
# Elastic Compliance Matrix: (Units=1/GPa)
#
#
# Indices 1 2 3 4 5 6 
#
# 1 0.013909 -0.000059 -0.007077 0.000000 0.000000 0.000000
# 2 -0.000059 0.020748 -0.009087 0.000000 0.000000 0.000000
# 3 -0.007077 -0.009087 0.020625 0.000000 0.000000 0.000000
# 4 0.000000 0.000000 0.000000 0.030734 0.000000 0.000000
# 5 0.000000 0.000000 0.000000 0.000000 0.032097 0.000000
# 6 0.000000 0.000000 0.000000 0.000000 0.000000 0.039991
#
#
# Mechanical properties :
#
#
# Convention : Reuss Voigt Hill
#
# Bulk Modulus (GPa) = 43.79073 45.84806 44.81940
# Shear Modulus (GPa) = 25.23199 27.16339 26.19769
#
# Velocity S-wave (km/s) = 3.66643 3.80417 3.73593
# Velocity P-wave (km/s) = 6.42291 6.61224 6.51826
#
# Compressibility (1/GPa) = 0.02283588
#
# Stress axis : x y z
#
# Youngs Moduli (GPa) = 71.89825 48.19658 48.48543
#
# Poissons Ratio (x) = 0.00283 0.34312
# Poissons Ratio (y) = 0.00422 0.44061
# Poissons Ratio (z) = 0.50880 0.43798
#
# Static dielectric constant tensor:
#      x y z
#    x 3.644500 0.000000 0.000000 
#    y 0.000000 3.407630 0.000000 
#    z 0.000000 0.000000 3.496550 
# 
# 
# High freq. dielectric constant tensor:
#      x y z
#    x 1.735970 0.000000 0.000000 
#    y 0.000000 1.725240 0.000000 
#    z 0.000000 0.000000 1.739940 
# 
# From -- ./inp_files/5560.got.cif
#   From: 2010.03.12/outbox.cif.g09.slc.cpg/sg55_3_cif.got.tgz:5560.got - 2010.04.16 15:19:21.
