data_PCOD8227024
_publ_section_title
;
Structure prediction by ZEFSAII (Michael W. Deem and Ramdas Pophale) SiO2 
 PCOD8227024
Probable space group: P B A M
;
_chemical_formula_sum "Si O2"
_cell_formula_units_Z 48
_cell_length_a 8.893597
_cell_length_b 30.644570
_cell_length_c 8.460029
_cell_angle_alpha 90.000000
_cell_angle_beta 90.000000
_cell_angle_gamma 90.000000
_cell_volume 2305.700160
_symmetry_space_group_name_H-M "P B A M"
_symmetry_group_IT_number 55
_symmetry_cell_setting 'orthorhombic'
loop_
_space_group_symop_operation_xyz
x,y,z
-x,-y,z
1/2+x,1/2-y,-z
1/2-x,1/2+y,-z
-x,-y,-z
x,y,-z
1/2-x,1/2+y,z
1/2+x,1/2-y,z
loop_
_atom_site_type_symbol
_atom_site_label
_atom_site_fract_x
_atom_site_fract_y
_atom_site_fract_z
Si Si1 0.914637 0.286078 0.682552
Si Si2 0.406257 0.708018 0.819211
Si Si3 0.420931 0.371444 0.317052
Si Si4 0.914502 0.458263 0.185258
Si Si5 0.925265 0.625108 0.315242
Si Si6 0.076251 0.046238 0.183826
O O1 0.950354 0.276424 0.500000
O O2 0.980400 0.247436 0.787467
O O3 0.988143 0.331395 0.737152
O O4 0.736686 0.288117 0.705955
O O5 0.489281 0.662659 0.788632
O O6 0.352666 0.709217 0.000000
O O7 0.440305 0.358896 0.500000
O O8 0.247423 0.369519 0.266773
O O9 0.483154 0.419465 0.286015
O O10 0.745583 0.455042 0.252932
O O11 0.000000 0.500000 0.261497
O O12 0.006017 0.414730 0.219372
O O13 0.901478 0.465714 0.000000
O O14 0.945227 0.615575 0.500000
O O15 0.072634 0.059840 0.000000
O O16 0.000000 0.000000 0.211425
#
# Coordination Sequence:
#
# PCOD8227024 Si02
#       6
#     8   8   8   8   8   8
#     4  11  23  42  65  89 121 161 202 246 301 362
#     4  12  25  41  63  93 124 157 201 251 303 359
#     4  11  23  40  61  87 120 159 202 247 300 361
#     4  10  21  37  59  86 116 153 195 241 296 355
#     4  10  23  40  60  86 116 154 198 243 292 351
#     4  10  21  38  60  87 119 155 198 249 304 361
#
# _framework density 20.817969999999999
#
# number of rings (size 3 to 8) (size 9 to 14) (size 15 to 20)
#    0.000    1.333    0.000    5.500    0.000    9.333 
#    0.000    0.000    0.000    0.000    0.000    0.000 
#    0.000    0.000    0.000    0.000    0.000    0.000 
#
# Total GULP energy -595570.232642 kJ/mol
# GULP energy per Si atom -12407.713180 kJ/mol
# Density = 2.077059 g / cm^3
# Si number density = 20.817970 Si / 1000 Ang^3
#
#
#
# Elastic Constant Matrix: (Units=GPa)
#
#
# Indices 1 2 3 4 5 6 
#
# 1 137.2337 44.9766 13.1733 0.0000 0.0000 0.0000
# 2 44.9766 121.8497 18.2892 0.0000 0.0000 0.0000
# 3 13.1733 18.2892 42.6882 0.0000 0.0000 0.0000
# 4 0.0000 0.0000 0.0000 8.5364 0.0000 0.0000
# 5 0.0000 0.0000 0.0000 0.0000 28.7008 0.0000
# 6 0.0000 0.0000 0.0000 0.0000 0.0000 41.4194
#
#
#
# Elastic Compliance Matrix: (Units=1/GPa)
#
#
# Indices 1 2 3 4 5 6 
#
# 1 0.008361 -0.002884 -0.001344 0.000000 0.000000 0.000000
# 2 -0.002884 0.009766 -0.003294 0.000000 0.000000 0.000000
# 3 -0.001344 -0.003294 0.025252 0.000000 0.000000 0.000000
# 4 0.000000 0.000000 0.000000 0.117146 0.000000 0.000000
# 5 0.000000 0.000000 0.000000 0.000000 0.034842 0.000000
# 6 0.000000 0.000000 0.000000 0.000000 0.000000 0.024143
#
#
# Mechanical properties :
#
#
# Convention : Reuss Voigt Hill
#
# Bulk Modulus (GPa) = 35.29415 50.51663 42.90539
# Shear Modulus (GPa) = 20.49175 30.75348 25.62261
#
# Velocity S-wave (km/s) = 3.14081 3.84768 3.51207
# Velocity P-wave (km/s) = 5.49030 6.63763 6.09104
#
# Compressibility (1/GPa) = 0.02833331
#
# Stress axis : x y z
#
# Youngs Moduli (GPa) = 119.59942 102.39658 39.60116
#
# Poissons Ratio (x) = 0.29536 0.05324
# Poissons Ratio (y) = 0.34498 0.13044
# Poissons Ratio (z) = 0.16079 0.33729
#
# Static dielectric constant tensor:
#      x y z
#    x 3.948050 0.000000 0.000000 
#    y 0.000000 3.821990 0.000000 
#    z 0.000000 0.000000 3.556750 
# 
# 
# High freq. dielectric constant tensor:
#      x y z
#    x 1.833350 0.000000 0.000000 
#    y 0.000000 1.829790 0.000000 
#    z 0.000000 0.000000 1.803980 
# 
# From -- ./inp_files/2867.got.cif
#   From: 2010.03.12/outbox.cif.g09.slc.cpg/sg55_2_cif.got.tgz:2867.got - 2010.04.16 15:19:21.
