data_PCOD8227129
_publ_section_title
;
Structure prediction by ZEFSAII (Michael W. Deem and Ramdas Pophale) SiO2 
 PCOD8227129
Probable space group: P B A M
;
_chemical_formula_sum "Si O2"
_cell_formula_units_Z 40
_cell_length_a 17.571772
_cell_length_b 8.690903
_cell_length_c 13.532432
_cell_angle_alpha 90.000000
_cell_angle_beta 90.000000
_cell_angle_gamma 90.000000
_cell_volume 2066.599480
_symmetry_space_group_name_H-M "P B A M"
_symmetry_group_IT_number 55
_symmetry_cell_setting 'orthorhombic'
loop_
_space_group_symop_operation_xyz
x,y,z
-x,-y,z
1/2+x,1/2-y,-z
1/2-x,1/2+y,-z
-x,-y,-z
x,y,-z
1/2-x,1/2+y,z
1/2+x,1/2-y,z
loop_
_atom_site_type_symbol
_atom_site_label
_atom_site_fract_x
_atom_site_fract_y
_atom_site_fract_z
Si Si1 0.577050 0.567547 0.315646
Si Si2 0.807349 0.849830 0.774794
Si Si3 0.429214 0.105902 0.250215
Si Si4 0.688867 0.795315 0.611323
Si Si5 0.817116 0.540275 0.116159
O O1 0.500000 0.500000 0.367006
O O2 0.613585 0.430441 0.252804
O O3 0.551304 0.711867 0.245658
O O4 0.642085 0.631821 0.390868
O O5 0.757577 0.973635 0.832705
O O6 0.764978 0.782287 0.677180
O O7 0.828508 0.714190 0.849022
O O8 0.366869 0.077565 0.338309
O O9 0.500000 0.000000 0.277131
O O10 0.391925 0.057203 0.146167
O O11 0.710400 0.843512 0.500000
O O12 0.806934 0.533071 0.000000
#
# Coordination Sequence:
#
# PCOD8227129 Si02
#       5
#     8   8   8   8   8
#     4  10  21  38  62  86 124 162 198 250 304 358
#     4  11  20  40  59  89 123 157 202 256 301 360
#     4   9  20  39  57  85 123 158 197 254 304 360
#     4   9  21  37  59  87 118 161 205 243 301 364
#     4  11  21  36  62  88 116 160 209 252 307 364
#
# _framework density 19.355467999999998
#
# number of rings (size 3 to 8) (size 9 to 14) (size 15 to 20)
#    1.200    0.800    2.000    1.800    0.000    2.000 
#    0.000    1.000    0.000    4.200    0.000    0.000 
#    0.000    0.000    0.000    0.000    0.000    0.000 
#
# Total GULP energy -495587.326414 kJ/mol
# GULP energy per Si atom -12389.683160 kJ/mol
# Density = 1.931141 g / cm^3
# Si number density = 19.355468 Si / 1000 Ang^3
#
#
#
# Elastic Constant Matrix: (Units=GPa)
#
#
# Indices 1 2 3 4 5 6 
#
# 1 52.2384 40.8315 19.7086 0.0000 0.0000 0.0000
# 2 40.8315 80.3539 18.3283 0.0000 0.0000 0.0000
# 3 19.7086 18.3283 114.6238 0.0000 0.0000 0.0000
# 4 0.0000 0.0000 0.0000 19.6299 0.0000 0.0000
# 5 0.0000 0.0000 0.0000 0.0000 14.1990 0.0000
# 6 0.0000 0.0000 0.0000 0.0000 0.0000 34.1398
#
#
#
# Elastic Compliance Matrix: (Units=1/GPa)
#
#
# Indices 1 2 3 4 5 6 
#
# 1 0.032774 -0.015951 -0.003085 0.000000 0.000000 0.000000
# 2 -0.015951 0.020679 -0.000564 0.000000 0.000000 0.000000
# 3 -0.003085 -0.000564 0.009345 0.000000 0.000000 0.000000
# 4 0.000000 0.000000 0.000000 0.050943 0.000000 0.000000
# 5 0.000000 0.000000 0.000000 0.000000 0.070428 0.000000
# 6 0.000000 0.000000 0.000000 0.000000 0.000000 0.029291
#
#
# Mechanical properties :
#
#
# Convention : Reuss Voigt Hill
#
# Bulk Modulus (GPa) = 42.37406 44.99477 43.68441
# Shear Modulus (GPa) = 19.19206 24.81692 22.00449
#
# Velocity S-wave (km/s) = 3.15232 3.58462 3.37540
# Velocity P-wave (km/s) = 5.93208 6.35843 6.14895
#
# Compressibility (1/GPa) = 0.02359935
#
# Stress axis : x y z
#
# Youngs Moduli (GPa) = 30.51167 48.35882 107.01175
#
# Poissons Ratio (x) = 0.77135 0.33011
# Poissons Ratio (y) = 0.48668 0.06035
# Poissons Ratio (z) = 0.09412 0.02727
#
# Static dielectric constant tensor:
#      x y z
#    x 3.467190 0.000000 0.000000 
#    y 0.000000 3.548670 0.000000 
#    z 0.000000 0.000000 3.152940 
# 
# 
# High freq. dielectric constant tensor:
#      x y z
#    x 1.753660 0.000000 0.000000 
#    y 0.000000 1.758100 0.000000 
#    z 0.000000 0.000000 1.719270 
# 
# From -- ./inp_files/18746.got.cif
#   From: 2010.03.12/outbox.cif.g09.slc.cpg/sg55_10_cif.got.tgz:18746.got - 2010.04.16 15:19:21.
