data_PCOD8227777
_publ_section_title
;
Structure prediction by ZEFSAII (Michael W. Deem and Ramdas Pophale) SiO2 
 PCOD8227777
Probable space group: P B A M
;
_chemical_formula_sum "Si O2"
_cell_formula_units_Z 40
_cell_length_a 9.271266
_cell_length_b 9.962811
_cell_length_c 19.934200
_cell_angle_alpha 90.000000
_cell_angle_beta 90.000000
_cell_angle_gamma 90.000000
_cell_volume 1841.279612
_symmetry_space_group_name_H-M "P B A M"
_symmetry_group_IT_number 55
_symmetry_cell_setting 'orthorhombic'
loop_
_space_group_symop_operation_xyz
x,y,z
-x,-y,z
1/2+x,1/2-y,-z
1/2-x,1/2+y,-z
-x,-y,-z
x,y,-z
1/2-x,1/2+y,z
1/2+x,1/2-y,z
loop_
_atom_site_type_symbol
_atom_site_label
_atom_site_fract_x
_atom_site_fract_y
_atom_site_fract_z
Si Si1 0.711298 0.263856 0.341865
Si Si2 0.929511 0.639733 0.076941
Si Si3 0.465425 0.155263 0.576151
Si Si4 0.604854 0.613259 0.120670
Si Si5 0.657765 0.517280 0.729735
O O1 0.800557 0.315161 0.405848
O O2 0.551634 0.246920 0.370976
O O3 0.754439 0.120058 0.314335
O O4 0.727175 0.369383 0.280106
O O5 0.755207 0.637111 0.081948
O O6 0.000000 0.500000 0.100312
O O7 0.007290 0.752176 0.122714
O O8 0.969739 0.670618 0.000000
O O9 0.496007 0.199954 0.500000
O O10 0.500000 0.000000 0.586110
O O11 0.500000 0.500000 0.087121
O O12 0.651606 0.563011 0.193644
O O13 0.500000 0.500000 0.698778
#
# Coordination Sequence:
#
# PCOD8227777 Si02
#       5
#     8   8   8   8   8
#     4  12  23  45  66  97 133 179 222 283 341 411
#     4  11  25  45  72 103 139 183 232 289 350 412
#     4  11  24  42  66  99 134 175 229 287 348 408
#     4  11  26  45  68 106 140 183 233 285 349 421
#     4  11  26  42  67 100 137 176 226 276 346 409
#
# _framework density 21.724022999999999
#
# number of rings (size 3 to 8) (size 9 to 14) (size 15 to 20)
#    0.000    0.800    4.000    2.400    8.400    3.200 
#    0.000    1.000    0.000    0.000    0.000    0.000 
#    0.000    0.000    0.000    0.000    0.000    0.000 
#
# Total GULP energy -495878.063406 kJ/mol
# GULP energy per Si atom -12396.951585 kJ/mol
# Density = 2.167458 g / cm^3
# Si number density = 21.724023 Si / 1000 Ang^3
#
#
#
# Elastic Constant Matrix: (Units=GPa)
#
#
# Indices 1 2 3 4 5 6 
#
# 1 109.8982 37.6476 14.3897 0.0000 0.0000 0.0000
# 2 37.6476 133.1616 40.6096 0.0000 0.0000 0.0000
# 3 14.3897 40.6096 93.4003 0.0000 0.0000 0.0000
# 4 0.0000 0.0000 0.0000 28.5057 0.0000 0.0000
# 5 0.0000 0.0000 0.0000 0.0000 35.2248 0.0000
# 6 0.0000 0.0000 0.0000 0.0000 0.0000 36.5774
#
#
#
# Elastic Compliance Matrix: (Units=1/GPa)
#
#
# Indices 1 2 3 4 5 6 
#
# 1 0.010086 -0.002741 -0.000362 0.000000 0.000000 0.000000
# 2 -0.002741 0.009403 -0.003666 0.000000 0.000000 0.000000
# 3 -0.000362 -0.003666 0.012356 0.000000 0.000000 0.000000
# 4 0.000000 0.000000 0.000000 0.035081 0.000000 0.000000
# 5 0.000000 0.000000 0.000000 0.000000 0.028389 0.000000
# 6 0.000000 0.000000 0.000000 0.000000 0.000000 0.027339
#
#
# Mechanical properties :
#
#
# Convention : Reuss Voigt Hill
#
# Bulk Modulus (GPa) = 54.62500 57.97267 56.29883
# Shear Modulus (GPa) = 35.13856 36.31579 35.72717
#
# Velocity S-wave (km/s) = 4.02618 4.09306 4.05976
# Velocity P-wave (km/s) = 6.84200 7.00582 6.92439
#
# Compressibility (1/GPa) = 0.01830664
#
# Stress axis : x y z
#
# Youngs Moduli (GPa) = 99.15003 106.35383 80.93059
#
# Poissons Ratio (x) = 0.29152 0.02930
# Poissons Ratio (y) = 0.27177 0.29668
# Poissons Ratio (z) = 0.03590 0.38988
#
# Static dielectric constant tensor:
#      x y z
#    x 4.183060 0.000000 0.000000 
#    y 0.000000 4.090900 0.000000 
#    z 0.000000 0.000000 3.625950 
# 
# 
# High freq. dielectric constant tensor:
#      x y z
#    x 1.864910 0.000000 0.000000 
#    y 0.000000 1.868270 0.000000 
#    z 0.000000 0.000000 1.842530 
# 
# From -- ./inp_files/23404.got.cif
#   From: 2010.03.12/outbox.cif.g09.slc.cpg/sg55_12_cif.got.tgz:23404.got - 2010.04.16 15:19:21.
