data_PCOD8227553
_publ_section_title
;
Structure prediction by ZEFSAII (Michael W. Deem and Ramdas Pophale) SiO2 
 PCOD8227553
Probable space group: P B A M
;
_chemical_formula_sum "Si O2"
_cell_formula_units_Z 48
_cell_length_a 30.301713
_cell_length_b 9.095465
_cell_length_c 8.495136
_cell_angle_alpha 90.000000
_cell_angle_beta 90.000000
_cell_angle_gamma 90.000000
_cell_volume 2341.328887
_symmetry_space_group_name_H-M "P B A M"
_symmetry_group_IT_number 55
_symmetry_cell_setting 'orthorhombic'
loop_
_space_group_symop_operation_xyz
x,y,z
-x,-y,z
1/2+x,1/2-y,-z
1/2-x,1/2+y,-z
-x,-y,-z
x,y,-z
1/2-x,1/2+y,z
1/2+x,1/2-y,z
loop_
_atom_site_type_symbol
_atom_site_label
_atom_site_fract_x
_atom_site_fract_y
_atom_site_fract_z
Si Si1 0.371333 0.833548 0.184063
Si Si2 0.951043 0.826884 0.316520
Si Si3 0.631014 0.836437 0.815940
Si Si4 0.211815 0.856071 0.184158
Si Si5 0.210204 0.175552 0.318061
Si Si6 0.948369 0.163383 0.682782
O O1 0.421229 0.780600 0.212925
O O2 0.339189 0.726892 0.279951
O O3 0.366178 0.998577 0.252452
O O4 0.360275 0.824929 0.000000
O O5 0.941112 0.802856 0.500000
O O6 0.001749 0.788522 0.278635
O O7 0.940866 0.994628 0.268198
O O8 0.670702 0.737726 0.747145
O O9 0.583823 0.766443 0.780548
O O10 0.637455 0.847749 0.000000
O O11 0.256409 0.765359 0.208667
O O12 0.214532 0.004179 0.282713
O O13 0.206166 0.892688 0.000000
O O14 0.221236 0.203762 0.500000
O O15 0.938002 0.184618 0.500000
#
# Coordination Sequence:
#
# PCOD8227553 Si02
#       6
#     8   8   8   8   8   8
#     4  11  23  39  58  84 118 157 196 240 292 349
#     4   9  19  37  58  84 114 149 193 242 293 349
#     4  10  23  39  57  83 116 152 194 238 285 344
#     4  11  23  42  65  88 118 158 197 238 291 354
#     4  12  25  41  63  92 121 152 194 246 295 347
#     4   9  19  36  59  83 113 150 191 240 295 349
#
# _framework density 20.501179
#
# number of rings (size 3 to 8) (size 9 to 14) (size 15 to 20)
#    0.000    1.667    0.000    5.500    0.000    8.667 
#    0.000    5.000    0.000    0.000    0.000    0.000 
#    0.000    0.000    0.000    0.000    0.000    0.000 
#
# Total GULP energy -595457.736500 kJ/mol
# GULP energy per Si atom -12405.369510 kJ/mol
# Density = 2.045452 g / cm^3
# Si number density = 20.501179 Si / 1000 Ang^3
#
#
#
# Elastic Constant Matrix: (Units=GPa)
#
#
# Indices 1 2 3 4 5 6 
#
# 1 106.6117 45.7064 16.1601 0.0000 0.0000 0.0000
# 2 45.7064 114.8737 20.4042 0.0000 0.0000 0.0000
# 3 16.1601 20.4042 45.6829 0.0000 0.0000 0.0000
# 4 0.0000 0.0000 0.0000 30.2160 0.0000 0.0000
# 5 0.0000 0.0000 0.0000 0.0000 34.8066 0.0000
# 6 0.0000 0.0000 0.0000 0.0000 0.0000 41.8202
#
#
#
# Elastic Compliance Matrix: (Units=1/GPa)
#
#
# Indices 1 2 3 4 5 6 
#
# 1 0.011509 -0.004188 -0.002201 0.000000 0.000000 0.000000
# 2 -0.004188 0.010980 -0.003422 0.000000 0.000000 0.000000
# 3 -0.002201 -0.003422 0.024197 0.000000 0.000000 0.000000
# 4 0.000000 0.000000 0.000000 0.033095 0.000000 0.000000
# 5 0.000000 0.000000 0.000000 0.000000 0.028730 0.000000
# 6 0.000000 0.000000 0.000000 0.000000 0.000000 0.023912
#
#
# Mechanical properties :
#
#
# Convention : Reuss Voigt Hill
#
# Bulk Modulus (GPa) = 36.95074 47.96775 42.45925
# Shear Modulus (GPa) = 31.04307 33.69505 32.36906
#
# Velocity S-wave (km/s) = 3.89551 4.05849 3.97783
# Velocity P-wave (km/s) = 6.18839 6.73871 6.46940
#
# Compressibility (1/GPa) = 0.02706305
#
# Stress axis : x y z
#
# Youngs Moduli (GPa) = 86.88831 91.07791 41.32733
#
# Poissons Ratio (x) = 0.38147 0.09094
# Poissons Ratio (y) = 0.36392 0.14144
# Poissons Ratio (z) = 0.19120 0.31171
#
# Static dielectric constant tensor:
#      x y z
#    x 3.756730 0.000000 0.000000 
#    y 0.000000 3.827880 0.000000 
#    z 0.000000 0.000000 3.475060 
# 
# 
# High freq. dielectric constant tensor:
#      x y z
#    x 1.813690 0.000000 0.000000 
#    y 0.000000 1.808460 0.000000 
#    z 0.000000 0.000000 1.790960 
# 
# From -- ./inp_files/2810.got.cif
#   From: 2010.03.12/outbox.cif.g09.slc.cpg/sg55_2_cif.got.tgz:2810.got - 2010.04.16 15:19:21.
