data_PCOD8227151
_publ_section_title
;
Structure prediction by ZEFSAII (Michael W. Deem and Ramdas Pophale) SiO2 
 PCOD8227151
Probable space group: P B A M
;
_chemical_formula_sum "Si O2"
_cell_formula_units_Z 36
_cell_length_a 7.158507
_cell_length_b 16.054066
_cell_length_c 15.104360
_cell_angle_alpha 90.000000
_cell_angle_beta 90.000000
_cell_angle_gamma 90.000000
_cell_volume 1735.840537
_symmetry_space_group_name_H-M "P B A M"
_symmetry_group_IT_number 55
_symmetry_cell_setting 'orthorhombic'
loop_
_space_group_symop_operation_xyz
x,y,z
-x,-y,z
1/2+x,1/2-y,-z
1/2-x,1/2+y,-z
-x,-y,-z
x,y,-z
1/2-x,1/2+y,z
1/2+x,1/2-y,z
loop_
_atom_site_type_symbol
_atom_site_label
_atom_site_fract_x
_atom_site_fract_y
_atom_site_fract_z
Si Si1 0.913091 0.910483 0.897273
Si Si2 0.411788 0.133042 0.783634
Si Si3 0.672983 0.681490 0.767865
Si Si4 0.000000 0.500000 0.647176
Si Si5 0.867882 0.075762 0.597567
O O1 0.695043 0.905359 0.869049
O O2 0.022873 0.840509 0.842568
O O3 0.930698 0.888895 0.000000
O O4 0.000000 0.000000 0.874517
O O5 0.315173 0.219573 0.755328
O O6 0.630915 0.145103 0.802879
O O7 0.385840 0.066859 0.705573
O O8 0.613524 0.645926 0.672292
O O9 0.153867 0.454329 0.588119
O O10 0.925574 0.110521 0.500000
O O11 0.000000 0.000000 0.625859
#
# Coordination Sequence:
#
# PCOD8227151 Si02
#       5
#     8   8   8   4   8
#     4  11  24  42  65  93 126 164 209 257 312 381
#     4  11  22  40  64  90 123 169 207 260 313 375
#     4  11  22  40  63  92 130 163 210 258 321 366
#     4  10  21  38  65  86 122 164 209 252 309 374
#     4  10  21  38  63  92 125 165 208 253 309 375
#
# _framework density 20.739232999999999
#
# number of rings (size 3 to 8) (size 9 to 14) (size 15 to 20)
#    0.000    1.333    2.222    5.000    0.000    1.778 
#    0.000    8.333    0.000    0.000    0.000    0.000 
#    0.000    0.000    0.000    0.000    0.000    0.000 
#
# Total GULP energy -446426.206179 kJ/mol
# GULP energy per Si atom -12400.727949 kJ/mol
# Density = 2.069203 g / cm^3
# Si number density = 20.739233 Si / 1000 Ang^3
#
#
#
# Elastic Constant Matrix: (Units=GPa)
#
#
# Indices 1 2 3 4 5 6 
#
# 1 89.3463 19.6906 46.9358 0.0000 0.0000 0.0000
# 2 19.6906 115.3302 61.2317 0.0000 0.0000 0.0000
# 3 46.9358 61.2317 128.9347 0.0000 0.0000 0.0000
# 4 0.0000 0.0000 0.0000 14.0928 0.0000 0.0000
# 5 0.0000 0.0000 0.0000 0.0000 405.7340 0.0000
# 6 0.0000 0.0000 0.0000 0.0000 0.0000 35.9573
#
#
#
# Elastic Compliance Matrix: (Units=1/GPa)
#
#
# Indices 1 2 3 4 5 6 
#
# 1 0.013854 0.000418 -0.005241 0.000000 0.000000 0.000000
# 2 0.000418 0.011607 -0.005664 0.000000 0.000000 0.000000
# 3 -0.005241 -0.005664 0.012354 0.000000 0.000000 0.000000
# 4 0.000000 0.000000 0.000000 0.070958 0.000000 0.000000
# 5 0.000000 0.000000 0.000000 0.000000 0.002465 0.000000
# 6 0.000000 0.000000 0.000000 0.000000 0.000000 0.027811
#
#
# Mechanical properties :
#
#
# Convention : Reuss Voigt Hill
#
# Bulk Modulus (GPa) = 59.38834 65.48082 62.43458
# Shear Modulus (GPa) = 30.18651 104.87368 67.53009
#
# Velocity S-wave (km/s) = 3.81928 7.11882 5.71246
# Velocity P-wave (km/s) = 6.93881 9.96052 8.58368
#
# Compressibility (1/GPa) = 0.01683832
#
# Stress axis : x y z
#
# Youngs Moduli (GPa) = 72.18202 86.15744 80.94682
#
# Poissons Ratio (x) = -0.03597 0.42428
# Poissons Ratio (y) = -0.03014 0.45849
# Poissons Ratio (z) = 0.37834 0.48800
#
# Static dielectric constant tensor:
#      x y z
#    x 3.914840 0.000000 0.000000 
#    y 0.000000 3.789440 0.000000 
#    z 0.000000 0.000000 3.549900 
# 
# 
# High freq. dielectric constant tensor:
#      x y z
#    x 1.828610 0.000000 0.000000 
#    y 0.000000 1.809630 0.000000 
#    z 0.000000 0.000000 1.798840 
# 
# From -- ./inp_files/16993.got.cif
#   From: 2010.03.12/outbox.cif.g09.slc.cpg/sg55_9_cif.got.tgz:16993.got - 2010.04.16 15:19:21.
