data_PCOD8227674
_publ_section_title
;
Structure prediction by ZEFSAII (Michael W. Deem and Ramdas Pophale) SiO2 
 PCOD8227674
Probable space group: P B A M
;
_chemical_formula_sum "Si O2"
_cell_formula_units_Z 48
_cell_length_a 10.244039
_cell_length_b 27.932848
_cell_length_c 8.380850
_cell_angle_alpha 90.000000
_cell_angle_beta 90.000000
_cell_angle_gamma 90.000000
_cell_volume 2398.139868
_symmetry_space_group_name_H-M "P B A M"
_symmetry_group_IT_number 55
_symmetry_cell_setting 'orthorhombic'
loop_
_space_group_symop_operation_xyz
x,y,z
-x,-y,z
1/2+x,1/2-y,-z
1/2-x,1/2+y,-z
-x,-y,-z
x,y,-z
1/2-x,1/2+y,z
1/2+x,1/2-y,z
loop_
_atom_site_type_symbol
_atom_site_label
_atom_site_fract_x
_atom_site_fract_y
_atom_site_fract_z
Si Si1 0.848169 0.949358 0.313416
Si Si2 0.731161 0.352601 0.814274
Si Si3 0.503957 0.705785 0.684703
Si Si4 0.755355 0.141841 0.684257
Si Si5 0.632600 0.550078 0.185042
Si Si6 0.007204 0.309295 0.816252
O O1 0.818641 0.948326 0.500000
O O2 0.763147 0.908812 0.226107
O O3 0.001327 0.939985 0.284328
O O4 0.803476 0.000227 0.241185
O O5 0.618980 0.328582 0.709028
O O6 0.867153 0.329033 0.763257
O O7 0.701072 0.344458 0.000000
O O8 0.514018 0.720501 0.500000
O O9 0.634539 0.679023 0.743245
O O10 0.487205 0.752693 0.790736
O O11 0.776614 0.129546 0.500000
O O12 0.765783 0.092695 0.783411
O O13 0.614385 0.164598 0.709426
O O14 0.595701 0.547175 0.000000
O O15 0.036425 0.320757 0.000000
#
# Coordination Sequence:
#
# PCOD8227674 Si02
#       6
#     8   8   8   8   8   8
#     4  11  21  36  60  90 122 154 197 246 296 352
#     4  11  23  40  62  89 121 158 202 248 300 356
#     4  11  23  39  62  89 118 156 203 251 298 353
#     4  11  23  40  62  90 122 158 201 247 299 356
#     4  11  21  36  61  90 121 155 196 245 297 350
#     4  11  25  41  59  86 122 161 201 247 300 357
#
# _framework density 20.015514
#
# number of rings (size 3 to 8) (size 9 to 14) (size 15 to 20)
#    0.000    1.000    1.667    7.000    0.000    7.333 
#    0.000    0.833    0.000    5.000    0.000    0.000 
#    0.000    0.000    0.000    0.000    0.000    0.000 
#
# Total GULP energy -595598.325546 kJ/mol
# GULP energy per Si atom -12408.298449 kJ/mol
# Density = 1.996996 g / cm^3
# Si number density = 20.015514 Si / 1000 Ang^3
#
#
#
# Elastic Constant Matrix: (Units=GPa)
#
#
# Indices 1 2 3 4 5 6 
#
# 1 84.9741 34.6532 22.1775 0.0000 0.0000 0.0000
# 2 34.6532 128.5095 18.9761 0.0000 0.0000 0.0000
# 3 22.1775 18.9761 60.3288 0.0000 0.0000 0.0000
# 4 0.0000 0.0000 0.0000 34.7702 0.0000 0.0000
# 5 0.0000 0.0000 0.0000 0.0000 24.6336 0.0000
# 6 0.0000 0.0000 0.0000 0.0000 0.0000 -1.0363
#
#
#
# Elastic Compliance Matrix: (Units=1/GPa)
#
#
# Indices 1 2 3 4 5 6 
#
# 1 0.014170 -0.003201 -0.004202 0.000000 0.000000 0.000000
# 2 -0.003201 0.008883 -0.001618 0.000000 0.000000 0.000000
# 3 -0.004202 -0.001618 0.018630 0.000000 0.000000 0.000000
# 4 0.000000 0.000000 0.000000 0.028760 0.000000 0.000000
# 5 0.000000 0.000000 0.000000 0.000000 0.040595 0.000000
# 6 0.000000 0.000000 0.000000 0.000000 0.000000 -0.965005
#
#
# Mechanical properties :
#
#
# Convention : Reuss Voigt Hill
#
# Bulk Modulus (GPa) = 42.29772 47.26955 44.78364
# Shear Modulus (GPa) = -6.03833 24.87387 9.41777
#
# Velocity S-wave (km/s) = -1.73878 3.52906 2.17151
# Velocity P-wave (km/s) = 4.14092 6.34613 5.35820
#
# Compressibility (1/GPa) = 0.02364193
#
# Stress axis : x y z
#
# Youngs Moduli (GPa) = 70.57013 112.56899 53.67819
#
# Poissons Ratio (x) = 0.36028 0.22558
# Poissons Ratio (y) = 0.22586 0.08683
# Poissons Ratio (z) = 0.29657 0.18210
#
# Static dielectric constant tensor:
#      x y z
#    x 3.414060 0.000000 0.000000 
#    y 0.000000 3.858650 0.000000 
#    z 0.000000 0.000000 3.573950 
# 
# 
# High freq. dielectric constant tensor:
#      x y z
#    x 1.758250 0.000000 0.000000 
#    y 0.000000 1.797270 0.000000 
#    z 0.000000 0.000000 1.793040 
# 
# From -- ./inp_files/4093.got.cif
#   From: 2010.03.12/outbox.cif.g09.slc.cpg/sg55_3_cif.got.tgz:4093.got - 2010.04.16 15:19:21.
