data_PCOD8227567
_publ_section_title
;
Structure prediction by ZEFSAII (Michael W. Deem and Ramdas Pophale) SiO2 
 PCOD8227567
Probable space group: P B A M
;
_chemical_formula_sum "Si O2"
_cell_formula_units_Z 64
_cell_length_a 28.693778
_cell_length_b 12.648029
_cell_length_c 9.191323
_cell_angle_alpha 90.000000
_cell_angle_beta 90.000000
_cell_angle_gamma 90.000000
_cell_volume 3335.712519
_symmetry_space_group_name_H-M "P B A M"
_symmetry_group_IT_number 55
_symmetry_cell_setting 'orthorhombic'
loop_
_space_group_symop_operation_xyz
x,y,z
-x,-y,z
1/2+x,1/2-y,-z
1/2-x,1/2+y,-z
-x,-y,-z
x,y,-z
1/2-x,1/2+y,z
1/2+x,1/2-y,z
loop_
_atom_site_type_symbol
_atom_site_label
_atom_site_fract_x
_atom_site_fract_y
_atom_site_fract_z
Si Si1 0.176775 0.678072 0.161128
Si Si2 0.207202 0.445299 0.840388
Si Si3 0.968169 0.188315 0.828628
Si Si4 0.206703 0.869997 0.330601
Si Si5 0.393516 0.452744 0.668486
Si Si6 0.080442 0.604330 0.829920
Si Si7 0.937190 0.824059 0.669911
Si Si8 0.103361 0.377673 0.829224
O O1 0.204651 0.570365 0.149741
O O2 0.206023 0.754427 0.262439
O O3 0.126583 0.658125 0.237730
O O4 0.171026 0.728647 0.000000
O O5 0.246701 0.424965 0.723479
O O6 0.157714 0.395268 0.793571
O O7 0.220987 0.400241 0.000000
O O8 0.962293 0.315582 0.799121
O O9 0.013933 0.150011 0.746319
O O10 0.924508 0.122798 0.769194
O O11 0.973050 0.166635 0.000000
O O12 0.211194 0.856732 0.500000
O O13 0.160386 0.935819 0.288178
O O14 0.403080 0.423658 0.500000
O O15 0.404284 0.575506 0.698203
O O16 0.074034 0.482799 0.776394
O O17 0.091672 0.593536 0.000000
O O18 0.945989 0.804726 0.500000
O O19 0.913747 0.721171 0.737561
O O20 0.094822 0.355244 0.000000
#
# Coordination Sequence:
#
# PCOD8227567 Si02
#       8
#     8   8   8   8   8   8   8   8
#     4   9  17  35  58  80 108 144 186 234 288 336
#     4   9  20  37  59  84 112 147 188 235 287 342
#     4  11  21  36  62  90 111 143 193 244 289 340
#     4  11  22  35  56  85 114 147 189 234 285 345
#     4  10  23  41  56  77 115 157 191 232 287 342
#     4   8  16  33  59  85 110 140 179 237 291 331
#     4  11  24  40  56  79 120 162 190 229 287 344
#     4   9  19  39  61  82 111 148 191 234 283 341
#
# _framework density 19.186306999999999
#
# number of rings (size 3 to 8) (size 9 to 14) (size 15 to 20)
#    0.000    2.250    1.250    3.000    0.000    5.500 
#    0.000    8.125    0.000    0.000    0.000    0.000 
#    0.000    0.000    0.000    0.000    0.000    0.000 
#
# Total GULP energy -793384.719776 kJ/mol
# GULP energy per Si atom -12396.636246 kJ/mol
# Density = 1.914264 g / cm^3
# Si number density = 19.186307 Si / 1000 Ang^3
#
#
#
# Elastic Constant Matrix: (Units=GPa)
#
#
# Indices 1 2 3 4 5 6 
#
# 1 51.7168 19.3165 33.7497 0.0000 0.0000 0.0000
# 2 19.3165 90.1665 41.0045 0.0000 0.0000 0.0000
# 3 33.7497 41.0045 86.4151 0.0000 0.0000 0.0000
# 4 0.0000 0.0000 0.0000 10.2121 0.0000 0.0000
# 5 0.0000 0.0000 0.0000 0.0000 32.8044 0.0000
# 6 0.0000 0.0000 0.0000 0.0000 0.0000 25.7910
#
#
#
# Elastic Compliance Matrix: (Units=1/GPa)
#
#
# Indices 1 2 3 4 5 6 
#
# 1 0.026054 -0.001217 -0.009598 0.000000 0.000000 0.000000
# 2 -0.001217 0.014199 -0.006262 0.000000 0.000000 0.000000
# 3 -0.009598 -0.006262 0.018292 0.000000 0.000000 0.000000
# 4 0.000000 0.000000 0.000000 0.097923 0.000000 0.000000
# 5 0.000000 0.000000 0.000000 0.000000 0.030484 0.000000
# 6 0.000000 0.000000 0.000000 0.000000 0.000000 0.038773
#
#
# Mechanical properties :
#
#
# Convention : Reuss Voigt Hill
#
# Bulk Modulus (GPa) = 40.99884 46.27110 43.63497
# Shear Modulus (GPa) = 18.65598 22.71000 20.68299
#
# Velocity S-wave (km/s) = 3.12165 3.44416 3.28687
# Velocity P-wave (km/s) = 5.86584 6.32340 6.09892
#
# Compressibility (1/GPa) = 0.02439093
#
# Stress axis : x y z
#
# Youngs Moduli (GPa) = 38.38147 70.42660 54.66800
#
# Poissons Ratio (x) = 0.08569 0.52472
# Poissons Ratio (y) = 0.04670 0.34235
# Poissons Ratio (z) = 0.36839 0.44104
#
# Static dielectric constant tensor:
#      x y z
#    x 3.484680 0.000000 0.000000 
#    y 0.000000 3.568320 0.000000 
#    z 0.000000 0.000000 3.462470 
# 
# 
# High freq. dielectric constant tensor:
#      x y z
#    x 1.743310 0.000000 0.000000 
#    y 0.000000 1.752990 0.000000 
#    z 0.000000 0.000000 1.733550 
# 
# From -- ./inp_files/10862.got.cif
#   From: 2010.03.12/outbox.cif.g09.slc.cpg/sg55_6_cif.got.tgz:10862.got - 2010.04.16 15:19:21.
