data_PCOD8227455
_publ_section_title
;
Structure prediction by ZEFSAII (Michael W. Deem and Ramdas Pophale) SiO2 
 PCOD8227455
Probable space group: P B A M
;
_chemical_formula_sum "Si O2"
_cell_formula_units_Z 56
_cell_length_a 15.289008
_cell_length_b 20.994377
_cell_length_c 8.703622
_cell_angle_alpha 90.000000
_cell_angle_beta 90.000000
_cell_angle_gamma 90.000000
_cell_volume 2793.716423
_symmetry_space_group_name_H-M "P B A M"
_symmetry_group_IT_number 55
_symmetry_cell_setting 'orthorhombic'
loop_
_space_group_symop_operation_xyz
x,y,z
-x,-y,z
1/2+x,1/2-y,-z
1/2-x,1/2+y,-z
-x,-y,-z
x,y,-z
1/2-x,1/2+y,z
1/2+x,1/2-y,z
loop_
_atom_site_type_symbol
_atom_site_label
_atom_site_fract_x
_atom_site_fract_y
_atom_site_fract_z
Si Si1 0.507151 0.816391 0.678725
Si Si2 0.632432 0.714258 0.817687
Si Si3 0.296620 0.977030 0.676060
Si Si4 0.367480 0.521554 0.827406
Si Si5 0.309991 0.831921 0.318340
Si Si6 0.563613 0.941379 0.170340
Si Si7 0.481511 0.397472 0.831022
O O1 0.520255 0.801976 0.500000
O O2 0.580283 0.777858 0.773131
O O3 0.405477 0.802426 0.726766
O O4 0.525832 0.890212 0.711063
O O5 0.731498 0.710579 0.752111
O O6 0.573803 0.656937 0.742537
O O7 0.642174 0.709355 0.000000
O O8 0.326967 0.978159 0.500000
O O9 0.305560 0.905112 0.742983
O O10 0.199081 0.002675 0.694587
O O11 0.345918 0.030210 0.773051
O O12 0.428367 0.461312 0.844769
O O13 0.422904 0.582985 0.763783
O O14 0.328594 0.535314 0.000000
O O15 0.297748 0.832176 0.500000
O O16 0.500000 0.000000 0.166434
O O17 0.574410 0.911285 0.000000
O O18 0.498655 0.368962 0.000000
#
# Coordination Sequence:
#
# PCOD8227455 Si02
#       7
#     8   8   8   8   8   8   8
#     4  11  24  44  65  87 122 163 203 252 310 371
#     4  11  22  39  64  92 121 160 210 258 306 362
#     4  11  21  35  58  89 121 154 196 244 300 363
#     4   9  16  32  55  82 116 155 198 243 296 351
#     4  10  22  40  63  88 118 162 205 244 304 372
#     4  11  23  39  63  92 119 150 195 252 310 363
#     4   8  16  31  55  83 115 153 194 246 299 348
#
# _framework density 20.044983999999999
#
# number of rings (size 3 to 8) (size 9 to 14) (size 15 to 20)
#    0.000    1.857    2.857    2.571    0.000    2.286 
#    2.571    2.857    0.000    0.000    0.000    0.000 
#    0.000    0.000    0.000    0.000    0.000    0.000 
#
# Total GULP energy -693750.136233 kJ/mol
# GULP energy per Si atom -12388.395290 kJ/mol
# Density = 1.999936 g / cm^3
# Si number density = 20.044984 Si / 1000 Ang^3
#
#
#
# Elastic Constant Matrix: (Units=GPa)
#
#
# Indices 1 2 3 4 5 6 
#
# 1 119.9633 47.1963 30.8316 0.0000 0.0000 0.0000
# 2 47.1963 65.9996 22.8444 0.0000 0.0000 0.0000
# 3 30.8316 22.8444 44.0061 0.0000 0.0000 0.0000
# 4 0.0000 0.0000 0.0000 27.3926 0.0000 0.0000
# 5 0.0000 0.0000 0.0000 0.0000 22.0954 0.0000
# 6 0.0000 0.0000 0.0000 0.0000 0.0000 33.9070
#
#
#
# Elastic Compliance Matrix: (Units=1/GPa)
#
#
# Indices 1 2 3 4 5 6 
#
# 1 0.012439 -0.007166 -0.004995 0.000000 0.000000 0.000000
# 2 -0.007166 0.022599 -0.006711 0.000000 0.000000 0.000000
# 3 -0.004995 -0.006711 0.029707 0.000000 0.000000 0.000000
# 4 0.000000 0.000000 0.000000 0.036506 0.000000 0.000000
# 5 0.000000 0.000000 0.000000 0.000000 0.045258 0.000000
# 6 0.000000 0.000000 0.000000 0.000000 0.000000 0.029492
#
#
# Mechanical properties :
#
#
# Convention : Reuss Voigt Hill
#
# Bulk Modulus (GPa) = 37.03490 47.96817 42.50153
# Shear Modulus (GPa) = 22.44706 25.28545 23.86625
#
# Velocity S-wave (km/s) = 3.35002 3.55552 3.45430
# Velocity P-wave (km/s) = 5.78615 6.39045 6.09579
#
# Compressibility (1/GPa) = 0.02700156
#
# Stress axis : x y z
#
# Youngs Moduli (GPa) = 80.39252 44.24986 33.66172
#
# Poissons Ratio (x) = 0.31710 0.16814
# Poissons Ratio (y) = 0.57611 0.22589
# Poissons Ratio (z) = 0.40155 0.29695
#
# Static dielectric constant tensor:
#      x y z
#    x 3.769270 0.000000 0.000000 
#    y 0.000000 3.632100 0.000000 
#    z 0.000000 0.000000 3.492310 
# 
# 
# High freq. dielectric constant tensor:
#      x y z
#    x 1.792430 0.000000 0.000000 
#    y 0.000000 1.765950 0.000000 
#    z 0.000000 0.000000 1.763650 
# 
# From -- ./inp_files/6012.got.cif
#   From: 2010.03.12/outbox.cif.g09.slc.cpg/sg55_4_cif.got.tgz:6012.got - 2010.04.16 15:19:21.
