data_PCOD8227453
_publ_section_title
;
Structure prediction by ZEFSAII (Michael W. Deem and Ramdas Pophale) SiO2 
 PCOD8227453
Probable space group: P B A M
;
_chemical_formula_sum "Si O2"
_cell_formula_units_Z 64
_cell_length_a 30.204219
_cell_length_b 11.825442
_cell_length_c 8.860319
_cell_angle_alpha 90.000000
_cell_angle_beta 90.000000
_cell_angle_gamma 90.000000
_cell_volume 3164.713146
_symmetry_space_group_name_H-M "P B A M"
_symmetry_group_IT_number 55
_symmetry_cell_setting 'orthorhombic'
loop_
_space_group_symop_operation_xyz
x,y,z
-x,-y,z
1/2+x,1/2-y,-z
1/2-x,1/2+y,-z
-x,-y,-z
x,y,-z
1/2-x,1/2+y,z
1/2+x,1/2-y,z
loop_
_atom_site_type_symbol
_atom_site_label
_atom_site_fract_x
_atom_site_fract_y
_atom_site_fract_z
Si Si1 0.922121 0.229865 0.177336
Si Si2 0.883433 0.835985 0.824978
Si Si3 0.332933 0.262652 0.324370
Si Si4 0.044954 0.560523 0.677109
Si Si5 0.876133 0.575898 0.176018
Si Si6 0.050975 0.999944 0.677755
Si Si7 0.692333 0.510681 0.173524
Si Si8 0.709430 0.933810 0.826298
O O1 0.874662 0.279511 0.225816
O O2 0.958039 0.316453 0.244135
O O3 0.925354 0.105225 0.244352
O O4 0.927167 0.223410 0.000000
O O5 0.875984 0.706969 0.775510
O O6 0.924739 0.886176 0.731454
O O7 0.837972 0.902246 0.790094
O O8 0.896051 0.845183 0.000000
O O9 0.344171 0.253110 0.500000
O O10 0.321080 0.390500 0.286008
O O11 0.293936 0.177283 0.278110
O O12 0.048347 0.579666 0.500000
O O13 0.086525 0.487650 0.730112
O O14 0.000000 0.500000 0.725274
O O15 0.827817 0.526307 0.215393
O O16 0.887051 0.560795 0.000000
O O17 0.055710 0.987366 0.500000
O O18 0.000000 0.000000 0.728724
O O19 0.743038 0.485420 0.208676
O O20 0.685589 0.549428 0.000000
O O21 0.705863 0.896045 0.000000
#
# Coordination Sequence:
#
# PCOD8227453 Si02
#       8
#     8   8   8   8   8   8   8   8
#     4  12  24  42  68  93 122 163 214 267 313 367
#     4  10  22  40  62  92 127 165 210 258 305 366
#     4  12  24  40  64  93 128 165 208 263 319 375
#     4  11  25  43  64  92 127 166 206 256 318 377
#     4  10  22  40  62  92 127 165 210 258 305 366
#     4  11  25  43  64  92 127 166 206 256 318 377
#     4  10  22  40  66  94 124 166 212 258 309 369
#     4  10  22  40  66  94 124 166 212 258 309 369
#
# _framework density 20.223002000000001
#
# number of rings (size 3 to 8) (size 9 to 14) (size 15 to 20)
#    0.000    1.250    2.500    3.000    3.500    3.000 
#    0.000    0.000    0.000    0.000    0.000    0.000 
#    0.000    0.000    0.000    0.000    0.000    0.000 
#
# Total GULP energy -793951.726767 kJ/mol
# GULP energy per Si atom -12405.495731 kJ/mol
# Density = 2.017697 g / cm^3
# Si number density = 20.223002 Si / 1000 Ang^3
#
#
#
# Elastic Constant Matrix: (Units=GPa)
#
#
# Indices 1 2 3 4 5 6 
#
# 1 101.6020 13.1872 28.4031 0.0000 0.0000 0.0000
# 2 13.1872 96.7215 27.7687 0.0000 0.0000 0.0000
# 3 28.4031 27.7687 69.0261 0.0000 0.0000 0.0000
# 4 0.0000 0.0000 0.0000 27.0103 0.0000 0.0000
# 5 0.0000 0.0000 0.0000 0.0000 15.1561 0.0000
# 6 0.0000 0.0000 0.0000 0.0000 0.0000 26.4855
#
#
#
# Elastic Compliance Matrix: (Units=1/GPa)
#
#
# Indices 1 2 3 4 5 6 
#
# 1 0.011126 -0.000229 -0.004486 0.000000 0.000000 0.000000
# 2 -0.000229 0.011694 -0.004610 0.000000 0.000000 0.000000
# 3 -0.004486 -0.004610 0.018188 0.000000 0.000000 0.000000
# 4 0.000000 0.000000 0.000000 0.037023 0.000000 0.000000
# 5 0.000000 0.000000 0.000000 0.000000 0.065980 0.000000
# 6 0.000000 0.000000 0.000000 0.000000 0.000000 0.037756
#
#
# Mechanical properties :
#
#
# Convention : Reuss Voigt Hill
#
# Bulk Modulus (GPa) = 44.72801 45.11863 44.92332
# Shear Modulus (GPa) = 24.05351 26.92977 25.49164
#
# Velocity S-wave (km/s) = 3.45253 3.65312 3.55424
# Velocity P-wave (km/s) = 6.16917 6.33662 6.25346
#
# Compressibility (1/GPa) = 0.02235736
#
# Stress axis : x y z
#
# Youngs Moduli (GPa) = 89.87836 85.51593 54.98182
#
# Poissons Ratio (x) = 0.01958 0.24665
# Poissons Ratio (y) = 0.02058 0.25347
# Poissons Ratio (z) = 0.40320 0.39423
#
# Static dielectric constant tensor:
#      x y z
#    x 3.865760 0.000000 0.000000 
#    y 0.000000 3.770520 0.000000 
#    z 0.000000 0.000000 3.577670 
# 
# 
# High freq. dielectric constant tensor:
#      x y z
#    x 1.796040 0.000000 0.000000 
#    y 0.000000 1.802100 0.000000 
#    z 0.000000 0.000000 1.785430 
# 
# From -- ./inp_files/10749.got.cif
#   From: 2010.03.12/outbox.cif.g09.slc.cpg/sg55_6_cif.got.tgz:10749.got - 2010.04.16 15:19:21.
