data_PCOD8227052
_publ_section_title
;
Structure prediction by ZEFSAII (Michael W. Deem and Ramdas Pophale) SiO2 
 PCOD8227052
Probable space group: P B A M
;
_chemical_formula_sum "Si O2"
_cell_formula_units_Z 64
_cell_length_a 28.831994
_cell_length_b 12.563890
_cell_length_c 8.518045
_cell_angle_alpha 90.000000
_cell_angle_beta 90.000000
_cell_angle_gamma 90.000000
_cell_volume 3085.593666
_symmetry_space_group_name_H-M "P B A M"
_symmetry_group_IT_number 55
_symmetry_cell_setting 'orthorhombic'
loop_
_space_group_symop_operation_xyz
x,y,z
-x,-y,z
1/2+x,1/2-y,-z
1/2-x,1/2+y,-z
-x,-y,-z
x,y,-z
1/2-x,1/2+y,z
1/2+x,1/2-y,z
loop_
_atom_site_type_symbol
_atom_site_label
_atom_site_fract_x
_atom_site_fract_y
_atom_site_fract_z
Si Si1 0.940061 0.247544 0.181281
Si Si2 0.879447 0.829251 0.684399
Si Si3 0.338887 0.286412 0.184474
Si Si4 0.052329 0.530206 0.680214
Si Si5 0.870055 0.604092 0.184589
Si Si6 0.019030 0.110522 0.683934
Si Si7 0.694512 0.485966 0.185435
Si Si8 0.703526 0.930527 0.813512
O O1 0.891887 0.195343 0.241514
O O2 0.934052 0.373184 0.206653
O O3 0.982815 0.204208 0.281777
O O4 0.949817 0.222487 0.000000
O O5 0.881605 0.806579 0.500000
O O6 0.859297 0.725668 0.771762
O O7 0.930454 0.859227 0.752588
O O8 0.845259 0.925797 0.720349
O O9 0.308773 0.389136 0.228502
O O10 0.315867 0.180221 0.259132
O O11 0.340768 0.266797 0.000000
O O12 0.060330 0.562735 0.500000
O O13 0.083271 0.428895 0.725225
O O14 0.000000 0.500000 0.713487
O O15 0.828042 0.529051 0.243462
O O16 0.877590 0.592528 0.000000
O O17 0.024512 0.095490 0.500000
O O18 0.000000 0.000000 0.759236
O O19 0.744223 0.446692 0.247693
O O20 0.687706 0.467299 0.000000
O O21 0.704421 0.927435 0.000000
#
# Coordination Sequence:
#
# PCOD8227052 Si02
#       8
#     8   8   8   8   8   8   8   8
#     4  11  21  35  58  87 120 153 195 255 303 351
#     4  11  24  41  59  86 127 161 195 249 303 357
#     4   9  18  35  58  90 123 147 189 250 300 344
#     4  11  23  38  56  82 118 158 198 242 301 364
#     4  11  22  39  63  89 119 156 204 251 300 362
#     4  10  22  40  60  82 116 164 208 245 299 368
#     4  10  21  37  65  91 114 154 201 245 294 357
#     4   9  19  36  61  91 118 149 193 249 303 349
#
# _framework density 20.741551000000001
#
# number of rings (size 3 to 8) (size 9 to 14) (size 15 to 20)
#    0.000    1.750    1.250    3.000    1.750    5.250 
#    0.000    1.875    0.000    0.000    0.000    0.000 
#    0.000    0.000    0.000    0.000    0.000    0.000 
#
# Total GULP energy -793806.267377 kJ/mol
# GULP energy per Si atom -12403.222928 kJ/mol
# Density = 2.069434 g / cm^3
# Si number density = 20.741551 Si / 1000 Ang^3
#
#
#
# Elastic Constant Matrix: (Units=GPa)
#
#
# Indices 1 2 3 4 5 6 
#
# 1 159.5249 60.6094 27.5626 0.0000 0.0000 0.0000
# 2 60.6094 122.1747 7.8709 0.0000 0.0000 0.0000
# 3 27.5626 7.8709 19.9911 0.0000 0.0000 0.0000
# 4 0.0000 0.0000 0.0000 26.7131 0.0000 0.0000
# 5 0.0000 0.0000 0.0000 0.0000 12.8149 0.0000
# 6 0.0000 0.0000 0.0000 0.0000 0.0000 36.6446
#
#
#
# Elastic Compliance Matrix: (Units=1/GPa)
#
#
# Indices 1 2 3 4 5 6 
#
# 1 0.009927 -0.004148 -0.012054 0.000000 0.000000 0.000000
# 2 -0.004148 0.010131 0.001731 0.000000 0.000000 0.000000
# 3 -0.012054 0.001731 0.065960 0.000000 0.000000 0.000000
# 4 0.000000 0.000000 0.000000 0.037435 0.000000 0.000000
# 5 0.000000 0.000000 0.000000 0.000000 0.078034 0.000000
# 6 0.000000 0.000000 0.000000 0.000000 0.000000 0.027289
#
#
# Mechanical properties :
#
#
# Convention : Reuss Voigt Hill
#
# Bulk Modulus (GPa) = 17.52068 54.86405 36.19237
# Shear Modulus (GPa) = 18.06710 28.94438 23.50574
#
# Velocity S-wave (km/s) = 2.95457 3.73966 3.37006
# Velocity P-wave (km/s) = 4.48384 6.71978 5.71228
#
# Compressibility (1/GPa) = 0.05707541
#
# Stress axis : x y z
#
# Youngs Moduli (GPa) = 100.73136 98.70264 15.16064
#
# Poissons Ratio (x) = 0.40945 0.18275
# Poissons Ratio (y) = 0.41786 -0.02624
# Poissons Ratio (z) = 1.21422 -0.17081
#
# Static dielectric constant tensor:
#      x y z
#    x 3.925330 0.000000 0.000000 
#    y 0.000000 3.832410 0.000000 
#    z 0.000000 0.000000 3.361050 
# 
# 
# High freq. dielectric constant tensor:
#      x y z
#    x 1.823280 0.000000 0.000000 
#    y 0.000000 1.822190 0.000000 
#    z 0.000000 0.000000 1.779000 
# 
# From -- ./inp_files/10797.got.cif
#   From: 2010.03.12/outbox.cif.g09.slc.cpg/sg55_6_cif.got.tgz:10797.got - 2010.04.16 15:19:21.
