data_PCOD8227952
_publ_section_title
;
Structure prediction by ZEFSAII (Michael W. Deem and Ramdas Pophale) SiO2 
 PCOD8227952
Probable space group: P C C N
;
_chemical_formula_sum "Si O2"
_cell_formula_units_Z 64
_cell_length_a 26.107732
_cell_length_b 14.655205
_cell_length_c 9.224594
_cell_angle_alpha 90.000000
_cell_angle_beta 90.000000
_cell_angle_gamma 90.000000
_cell_volume 3529.460327
_symmetry_space_group_name_H-M "P C C N"
_symmetry_group_IT_number 56
_symmetry_cell_setting 'orthorhombic'
loop_
_space_group_symop_operation_xyz
x,y,z
1/2-x,1/2-y,z
1/2+x,-y,1/2-z
-x,1/2+y,1/2-z
-x,-y,-z
1/2+x,1/2+y,-z
1/2-x,y,1/2+z
x,1/2-y,1/2+z
loop_
_atom_site_type_symbol
_atom_site_label
_atom_site_fract_x
_atom_site_fract_y
_atom_site_fract_z
Si Si1 0.560754 0.852890 0.096513
Si Si2 0.014249 0.654238 0.338477
Si Si3 0.060993 0.149223 0.916176
Si Si4 0.104403 0.533283 0.454783
Si Si5 0.198344 0.843287 0.956134
Si Si6 0.196476 0.656733 0.803414
Si Si7 0.897006 0.028457 0.705449
Si Si8 0.991189 0.357679 0.157398
O O1 0.505217 0.860206 0.174969
O O2 0.584233 0.750338 0.111833
O O3 0.604169 0.923109 0.152756
O O4 0.543552 0.873948 0.932767
O O5 0.059450 0.585147 0.371242
O O6 0.033078 0.757288 0.368444
O O7 0.961185 0.636788 0.423135
O O8 0.010455 0.131532 0.820961
O O9 0.104682 0.071690 0.898437
O O10 0.158839 0.576895 0.417214
O O11 0.094172 0.539500 0.624765
O O12 0.178471 0.750769 0.879154
O O13 0.251303 0.873931 0.881942
O O14 0.204201 0.829306 0.130063
O O15 0.155296 0.578468 0.839405
O O16 0.945912 0.071845 0.623906
#
# Coordination Sequence:
#
# PCOD8227952 Si02
#       8
#     8   8   8   8   8   8   8   8
#     4  10  21  33  49  76 110 140 173 218 253 295
#     4  10  18  33  52  73 108 142 174 207 250 309
#     4  10  19  34  52  71 107 143 175 207 248 308
#     4  11  20  33  57  76  98 143 181 206 252 319
#     4  10  21  39  58  81 106 134 169 212 267 312
#     4  10  21  39  59  79 108 134 167 216 263 316
#     4  11  20  34  54  77 104 137 177 213 258 306
#     4  10  20  32  47  80 109 137 174 213 256 296
#
# _framework density 18.133084
#
# number of rings (size 3 to 8) (size 9 to 14) (size 15 to 20)
#    0.000    1.750    2.500    3.750    0.000    0.000 
#    9.000    0.000    0.000    0.750    0.000    3.500 
#    0.000    0.000    0.000    0.000    0.000    0.000 
#
# Total GULP energy -793278.428780 kJ/mol
# GULP energy per Si atom -12394.975450 kJ/mol
# Density = 1.809181 g / cm^3
# Si number density = 18.133084 Si / 1000 Ang^3
#
#
#
# Elastic Constant Matrix: (Units=GPa)
#
#
# Indices 1 2 3 4 5 6 
#
# 1 85.8191 78.5949 25.3682 0.0000 0.0000 0.0000
# 2 78.5949 146.0648 33.2008 0.0000 0.0000 0.0000
# 3 25.3682 33.2008 57.4938 0.0000 0.0000 0.0000
# 4 0.0000 0.0000 0.0000 25.9561 0.0000 0.0000
# 5 0.0000 0.0000 0.0000 0.0000 18.6681 0.0000
# 6 0.0000 0.0000 0.0000 0.0000 0.0000 30.4494
#
#
#
# Elastic Compliance Matrix: (Units=1/GPa)
#
#
# Indices 1 2 3 4 5 6 
#
# 1 0.023584 -0.011885 -0.003543 0.000000 0.000000 0.000000
# 2 -0.011885 0.013870 -0.002765 0.000000 0.000000 0.000000
# 3 -0.003543 -0.002765 0.020553 0.000000 0.000000 0.000000
# 4 0.000000 0.000000 0.000000 0.038527 0.000000 0.000000
# 5 0.000000 0.000000 0.000000 0.000000 0.053567 0.000000
# 6 0.000000 0.000000 0.000000 0.000000 0.000000 0.032841
#
#
# Mechanical properties :
#
#
# Convention : Reuss Voigt Hill
#
# Bulk Modulus (GPa) = 46.25155 62.63395 54.44275
# Shear Modulus (GPa) = 22.07151 25.16230 23.61691
#
# Velocity S-wave (km/s) = 3.49262 3.72915 3.61282
# Velocity P-wave (km/s) = 6.46735 7.29098 6.89148
#
# Compressibility (1/GPa) = 0.02162090
#
# Stress axis : x y z
#
# Youngs Moduli (GPa) = 42.40135 72.09856 48.65373
#
# Poissons Ratio (x) = 0.85688 0.17238
# Poissons Ratio (y) = 0.50394 0.13455
# Poissons Ratio (z) = 0.15023 0.19938
#
# Static dielectric constant tensor:
#      x y z
#    x 3.008460 0.000000 0.000000 
#    y 0.000000 3.552970 0.000000 
#    z 0.000000 0.000000 3.442250 
# 
# 
# High freq. dielectric constant tensor:
#      x y z
#    x 1.657230 0.000000 0.000000 
#    y 0.000000 1.709650 0.000000 
#    z 0.000000 0.000000 1.715790 
# 
# From -- ./inp_files/5242.got.cif
#   From: 2010.03.12/outbox.cif.g09.slc.cpg/sg56_3_cif.got.tgz:5242.got - 2010.04.16 15:33:40.
