data_PCOD8227887
_publ_section_title
;
Structure prediction by ZEFSAII (Michael W. Deem and Ramdas Pophale) SiO2 
 PCOD8227887
Probable space group: P C C N
;
_chemical_formula_sum "Si O2"
_cell_formula_units_Z 56
_cell_length_a 19.527931
_cell_length_b 8.746624
_cell_length_c 18.485355
_cell_angle_alpha 90.000000
_cell_angle_beta 90.000000
_cell_angle_gamma 90.000000
_cell_volume 3157.362777
_symmetry_space_group_name_H-M "P C C N"
_symmetry_group_IT_number 56
_symmetry_cell_setting 'orthorhombic'
loop_
_space_group_symop_operation_xyz
x,y,z
1/2-x,1/2-y,z
1/2+x,-y,1/2-z
-x,1/2+y,1/2-z
-x,-y,-z
1/2+x,1/2+y,-z
1/2-x,y,1/2+z
x,1/2-y,1/2+z
loop_
_atom_site_type_symbol
_atom_site_label
_atom_site_fract_x
_atom_site_fract_y
_atom_site_fract_z
Si Si1 0.418491 0.354258 0.445185
Si Si2 0.680226 0.682017 0.960251
Si Si3 0.773366 0.092939 0.774559
Si Si4 0.651652 0.885301 0.827051
Si Si5 0.674733 0.685462 0.693568
Si Si6 0.427632 0.904914 0.066387
Si Si7 0.317211 0.838585 0.575449
O O1 0.389205 0.222632 0.497262
O O2 0.372118 0.343346 0.374713
O O3 0.496978 0.335720 0.421705
O O4 0.415568 0.511540 0.489855
O O5 0.750000 0.750000 0.996618
O O6 0.676883 0.749535 0.879168
O O7 0.683944 0.500972 0.963440
O O8 0.750000 0.250000 0.733481
O O9 0.822930 0.146653 0.838382
O O10 0.711350 0.006368 0.814284
O O11 0.815891 0.985646 0.722383
O O12 0.635815 0.799712 0.750532
O O13 0.590603 0.982636 0.865331
O O14 0.750000 0.750000 0.673596
O O15 0.383235 0.755587 0.054301
O O16 0.250000 0.750000 0.549254
#
# Coordination Sequence:
#
# PCOD8227887 Si02
#       7
#     8   8   8   8   8   8   8
#     4  10  23  39  54  77 121 156 181 230 289 333
#     4  11  18  33  58  84 106 147 192 229 271 344
#     4  10  17  31  57  87 106 134 179 245 276 319
#     4  10  17  33  57  80 106 141 190 227 278 331
#     4  10  20  36  56  83 112 146 183 235 290 333
#     4  10  21  39  57  78 115 155 190 227 276 340
#     4  11  18  31  60  87 101 135 195 242 265 321
#
# _framework density 17.736321
#
# number of rings (size 3 to 8) (size 9 to 14) (size 15 to 20)
#    0.000    1.714    5.714    1.714    0.000    0.571 
#    2.571    5.000    0.000    0.000    0.000    0.000 
#    0.000    0.000    0.000    0.000    0.000    0.000 
#
# Total GULP energy -693850.576643 kJ/mol
# GULP energy per Si atom -12390.188869 kJ/mol
# Density = 1.769595 g / cm^3
# Si number density = 17.736321 Si / 1000 Ang^3
#
#
#
# Elastic Constant Matrix: (Units=GPa)
#
#
# Indices 1 2 3 4 5 6 
#
# 1 123.5682 62.3458 53.9546 0.0000 0.0000 0.0000
# 2 62.3458 141.0927 37.4924 0.0000 0.0000 0.0000
# 3 53.9546 37.4924 84.5147 0.0000 0.0000 0.0000
# 4 0.0000 0.0000 0.0000 11.4020 0.0000 0.0000
# 5 0.0000 0.0000 0.0000 0.0000 29.5088 0.0000
# 6 0.0000 0.0000 0.0000 0.0000 0.0000 27.7526
#
#
#
# Elastic Compliance Matrix: (Units=1/GPa)
#
#
# Indices 1 2 3 4 5 6 
#
# 1 0.012942 -0.003994 -0.006490 0.000000 0.000000 0.000000
# 2 -0.003994 0.009267 -0.001561 0.000000 0.000000 0.000000
# 3 -0.006490 -0.001561 0.016668 0.000000 0.000000 0.000000
# 4 0.000000 0.000000 0.000000 0.087704 0.000000 0.000000
# 5 0.000000 0.000000 0.000000 0.000000 0.033888 0.000000
# 6 0.000000 0.000000 0.000000 0.000000 0.000000 0.036033
#
#
# Mechanical properties :
#
#
# Convention : Reuss Voigt Hill
#
# Bulk Modulus (GPa) = 67.63105 72.97348 70.30227
# Shear Modulus (GPa) = 22.17075 26.75820 24.46447
#
# Velocity S-wave (km/s) = 3.53940 3.88837 3.71798
# Velocity P-wave (km/s) = 7.41062 7.83531 7.62592
#
# Compressibility (1/GPa) = 0.01478611
#
# Stress axis : x y z
#
# Youngs Moduli (GPa) = 77.26924 107.90609 59.99409
#
# Poissons Ratio (x) = 0.43098 0.38938
# Poissons Ratio (y) = 0.30862 0.09367
# Poissons Ratio (z) = 0.50150 0.16848
#
# Static dielectric constant tensor:
#      x y z
#    x 3.274520 0.000000 0.000000 
#    y 0.000000 3.525620 0.000000 
#    z 0.000000 0.000000 3.192740 
# 
# 
# High freq. dielectric constant tensor:
#      x y z
#    x 1.668700 0.000000 0.000000 
#    y 0.000000 1.700570 0.000000 
#    z 0.000000 0.000000 1.670880 
# 
# From -- ./inp_files/19497.got.cif
#   From: 2010.03.12/outbox.cif.g09.slc.cpg/sg56_10_cif.got.tgz:19497.got - 2010.04.16 15:33:40.
