data_PCOD8227473
_publ_section_title
;
Structure prediction by ZEFSAII (Michael W. Deem and Ramdas Pophale) SiO2 
 PCOD8227473
Probable space group: P B A M
;
_chemical_formula_sum "Si O2"
_cell_formula_units_Z 64
_cell_length_a 9.557692
_cell_length_b 17.160358
_cell_length_c 19.392152
_cell_angle_alpha 90.000000
_cell_angle_beta 90.000000
_cell_angle_gamma 90.000000
_cell_volume 3180.573100
_symmetry_space_group_name_H-M "P B A M"
_symmetry_group_IT_number 55
_symmetry_cell_setting 'orthorhombic'
loop_
_space_group_symop_operation_xyz
x,y,z
-x,-y,z
1/2+x,1/2-y,-z
1/2-x,1/2+y,-z
-x,-y,-z
x,y,-z
1/2-x,1/2+y,z
1/2+x,1/2-y,z
loop_
_atom_site_type_symbol
_atom_site_label
_atom_site_fract_x
_atom_site_fract_y
_atom_site_fract_z
Si Si1 0.039531 0.654816 0.777456
Si Si2 0.032438 0.837823 0.786450
Si Si3 0.583391 0.318649 0.925924
Si Si4 0.725598 0.090163 0.712117
Si Si5 0.361114 0.672087 0.422400
Si Si6 0.795298 0.912519 0.293675
Si Si7 0.313886 0.326290 0.578750
Si Si8 0.406817 0.164493 0.074579
O O1 0.000016 0.746145 0.778654
O O2 0.935650 0.605628 0.729557
O O3 0.190268 0.646944 0.742885
O O4 0.045479 0.618752 0.855977
O O5 0.990752 0.865908 0.863807
O O6 0.948500 0.890854 0.732990
O O7 0.192500 0.856686 0.767981
O O8 0.748400 0.306257 0.911710
O O9 0.511262 0.235764 0.931723
O O10 0.562852 0.362430 0.000000
O O11 0.759549 0.109387 0.632503
O O12 0.757131 0.000165 0.724260
O O13 0.338938 0.643061 0.500000
O O14 0.301262 0.602203 0.375726
O O15 0.272993 0.748861 0.406324
O O16 0.523269 0.691635 0.407581
O O17 0.289677 0.355641 0.500000
O O18 0.415023 0.118538 0.000000
#
# Coordination Sequence:
#
# PCOD8227473 Si02
#       8
#     8   8   8   8   8   8   8   8
#     4  11  23  40  62  89 118 163 204 248 297 358
#     4  11  21  38  64  88 115 157 203 252 293 352
#     4   9  18  32  55  88 119 150 196 256 306 346
#     4  12  26  39  59  90 126 160 198 247 301 356
#     4  10  22  40  65  92 120 156 201 248 297 355
#     4  12  24  41  59  89 127 157 196 246 305 353
#     4  10  22  41  64  91 120 157 202 247 296 355
#     4   9  18  33  56  87 119 150 197 257 305 347
#
# _framework density 20.122160000000001
#
# number of rings (size 3 to 8) (size 9 to 14) (size 15 to 20)
#    0.000    1.500    2.500    3.000    7.000    0.500 
#    0.000    1.250    0.000    6.000    0.000    0.000 
#    0.000    0.000    0.000    0.000    0.000    0.000 
#
# Total GULP energy -793227.417087 kJ/mol
# GULP energy per Si atom -12394.178392 kJ/mol
# Density = 2.007636 g / cm^3
# Si number density = 20.122160 Si / 1000 Ang^3
#
#
#
# Elastic Constant Matrix: (Units=GPa)
#
#
# Indices 1 2 3 4 5 6 
#
# 1 68.1931 13.6645 32.2062 0.0000 0.0000 0.0000
# 2 13.6645 50.7838 38.8993 0.0000 0.0000 0.0000
# 3 32.2062 38.8993 149.7639 0.0000 0.0000 0.0000
# 4 0.0000 0.0000 0.0000 8.9487 0.0000 0.0000
# 5 0.0000 0.0000 0.0000 0.0000 34.9635 0.0000
# 6 0.0000 0.0000 0.0000 0.0000 0.0000 19.5639
#
#
#
# Elastic Compliance Matrix: (Units=1/GPa)
#
#
# Indices 1 2 3 4 5 6 
#
# 1 0.016508 -0.002150 -0.002991 0.000000 0.000000 0.000000
# 2 -0.002150 0.024862 -0.005995 0.000000 0.000000 0.000000
# 3 -0.002991 -0.005995 0.008878 0.000000 0.000000 0.000000
# 4 0.000000 0.000000 0.000000 0.111748 0.000000 0.000000
# 5 0.000000 0.000000 0.000000 0.000000 0.028601 0.000000
# 6 0.000000 0.000000 0.000000 0.000000 0.000000 0.051115
#
#
# Mechanical properties :
#
#
# Convention : Reuss Voigt Hill
#
# Bulk Modulus (GPa) = 35.74799 48.69785 42.22292
# Shear Modulus (GPa) = 18.29422 24.95994 21.62708
#
# Velocity S-wave (km/s) = 3.01850 3.52578 3.28195
# Velocity P-wave (km/s) = 5.47289 6.38972 5.94899
#
# Compressibility (1/GPa) = 0.02797360
#
# Stress axis : x y z
#
# Youngs Moduli (GPa) = 60.57690 40.22180 112.64258
#
# Poissons Ratio (x) = 0.08650 0.33696
# Poissons Ratio (y) = 0.13027 0.67531
# Poissons Ratio (z) = 0.18121 0.24114
#
# Static dielectric constant tensor:
#      x y z
#    x 3.780040 0.000000 0.000000 
#    y 0.000000 3.086070 0.000000 
#    z 0.000000 0.000000 5.065060 
# 
# 
# High freq. dielectric constant tensor:
#      x y z
#    x 1.800510 0.000000 0.000000 
#    y 0.000000 1.731080 0.000000 
#    z 0.000000 0.000000 1.813980 
# 
# From -- ./inp_files/22701.got.cif
#   From: 2010.03.12/outbox.cif.g09.slc.cpg/sg55_12_cif.got.tgz:22701.got - 2010.04.16 15:19:21.
