data_PCOD8227316
_publ_section_title
;
Structure prediction by ZEFSAII (Michael W. Deem and Ramdas Pophale) SiO2 
 PCOD8227316
Probable space group: P B A M
;
_chemical_formula_sum "Si O2"
_cell_formula_units_Z 40
_cell_length_a 9.118889
_cell_length_b 26.698798
_cell_length_c 7.969825
_cell_angle_alpha 90.000000
_cell_angle_beta 90.000000
_cell_angle_gamma 90.000000
_cell_volume 1940.360496
_symmetry_space_group_name_H-M "P B A M"
_symmetry_group_IT_number 55
_symmetry_cell_setting 'orthorhombic'
loop_
_space_group_symop_operation_xyz
x,y,z
-x,-y,z
1/2+x,1/2-y,-z
1/2-x,1/2+y,-z
-x,-y,-z
x,y,-z
1/2-x,1/2+y,z
1/2+x,1/2-y,z
loop_
_atom_site_type_symbol
_atom_site_label
_atom_site_fract_x
_atom_site_fract_y
_atom_site_fract_z
Si Si1 0.630208 0.038175 0.318127
Si Si2 0.310310 0.791250 0.000000
Si Si3 0.995780 0.362172 0.815568
Si Si4 0.138320 0.027707 0.811618
Si Si5 0.962978 0.812982 0.000000
Si Si6 0.183550 0.135359 0.310226
O O1 0.708406 0.041255 0.500000
O O2 0.578263 0.093421 0.275349
O O3 0.500000 0.000000 0.329606
O O4 0.739080 0.015536 0.180947
O O5 0.385868 0.816864 0.835331
O O6 0.134175 0.797428 0.000000
O O7 0.350874 0.733262 0.000000
O O8 0.849866 0.344565 0.717560
O O9 0.942672 0.380779 0.000000
O O10 0.186804 0.075041 0.701058
O O11 0.103992 0.046155 0.000000
O O12 0.000000 0.000000 0.729329
O O13 0.929572 0.843394 0.828538
O O14 0.135400 0.150690 0.500000
#
# Coordination Sequence:
#
# PCOD8227316 Si02
#       6
#     8   4   8   8   4   8
#     4  11  22  35  57  94 137 179 225 269 313 386
#     4  10  26  46  80  96 130 172 220 283 345 407
#     4  10  21  41  66 100 126 182 222 272 329 395
#     4  11  24  39  60  93 136 187 228 270 328 392
#     4  12  24  52  72 100 132 169 220 279 353 402
#     4  12  24  42  70 102 138 180 226 278 336 402
#
# _framework density 20.614726999999998
#
# number of rings (size 3 to 8) (size 9 to 14) (size 15 to 20)
#    0.600    0.400    4.000    3.000    2.800    2.400 
#    0.000    6.000    0.000    0.000    0.000    0.000 
#    0.000    0.000    0.000    0.000    0.000    0.000 
#
# Total GULP energy -495746.887404 kJ/mol
# GULP energy per Si atom -12393.672185 kJ/mol
# Density = 2.056781 g / cm^3
# Si number density = 20.614727 Si / 1000 Ang^3
#
#
#
# Elastic Constant Matrix: (Units=GPa)
#
#
# Indices 1 2 3 4 5 6 
#
# 1 118.9799 22.8735 36.3727 0.0000 0.0000 0.0000
# 2 22.8735 61.2087 25.0688 0.0000 0.0000 0.0000
# 3 36.3727 25.0688 117.4845 0.0000 0.0000 0.0000
# 4 0.0000 0.0000 0.0000 15.8353 0.0000 0.0000
# 5 0.0000 0.0000 0.0000 0.0000 15.7365 0.0000
# 6 0.0000 0.0000 0.0000 0.0000 0.0000 37.4354
#
#
#
# Elastic Compliance Matrix: (Units=1/GPa)
#
#
# Indices 1 2 3 4 5 6 
#
# 1 0.009650 -0.002611 -0.002430 0.000000 0.000000 0.000000
# 2 -0.002611 0.018608 -0.003162 0.000000 0.000000 0.000000
# 3 -0.002430 -0.003162 0.009939 0.000000 0.000000 0.000000
# 4 0.000000 0.000000 0.000000 0.063150 0.000000 0.000000
# 5 0.000000 0.000000 0.000000 0.000000 0.063546 0.000000
# 6 0.000000 0.000000 0.000000 0.000000 0.000000 0.026713
#
#
# Mechanical properties :
#
#
# Convention : Reuss Voigt Hill
#
# Bulk Modulus (GPa) = 45.89248 51.81147 48.85198
# Shear Modulus (GPa) = 23.22594 28.02532 25.62563
#
# Velocity S-wave (km/s) = 3.36023 3.69111 3.52955
# Velocity P-wave (km/s) = 6.11270 6.58434 6.35290
#
# Compressibility (1/GPa) = 0.02179006
#
# Stress axis : x y z
#
# Youngs Moduli (GPa) = 103.63054 53.73936 100.61366
#
# Poissons Ratio (x) = 0.14029 0.24454
# Poissons Ratio (y) = 0.27054 0.31818
# Poissons Ratio (z) = 0.25187 0.16995
#
# Static dielectric constant tensor:
#      x y z
#    x 3.695250 0.000000 0.000000 
#    y 0.000000 3.475260 0.000000 
#    z 0.000000 0.000000 3.791400 
# 
# 
# High freq. dielectric constant tensor:
#      x y z
#    x 1.808400 0.000000 0.000000 
#    y 0.000000 1.794840 0.000000 
#    z 0.000000 0.000000 1.800120 
# 
# From -- ./inp_files/2629.got.cif
#   From: 2010.03.12/outbox.cif.g09.slc.cpg/sg55_2_cif.got.tgz:2629.got - 2010.04.16 15:19:21.
