data_PCOD8227653
_publ_section_title
;
Structure prediction by ZEFSAII (Michael W. Deem and Ramdas Pophale) SiO2 
 PCOD8227653
Probable space group: P B A M
;
_chemical_formula_sum "Si O2"
_cell_formula_units_Z 40
_cell_length_a 17.302041
_cell_length_b 7.454195
_cell_length_c 14.818764
_cell_angle_alpha 90.000000
_cell_angle_beta 90.000000
_cell_angle_gamma 90.000000
_cell_volume 1911.217301
_symmetry_space_group_name_H-M "P B A M"
_symmetry_group_IT_number 55
_symmetry_cell_setting 'orthorhombic'
loop_
_space_group_symop_operation_xyz
x,y,z
-x,-y,z
1/2+x,1/2-y,-z
1/2-x,1/2+y,-z
-x,-y,-z
x,y,-z
1/2-x,1/2+y,z
1/2+x,1/2-y,z
loop_
_atom_site_type_symbol
_atom_site_label
_atom_site_fract_x
_atom_site_fract_y
_atom_site_fract_z
Si Si1 0.678986 0.279659 0.785899
Si Si2 0.644798 0.884666 0.210627
Si Si3 0.179589 0.093411 0.403170
Si Si4 0.145526 0.679955 0.597076
Si Si5 0.085501 0.932851 0.105022
O O1 0.771589 0.289337 0.784490
O O2 0.647711 0.295937 0.682518
O O3 0.646242 0.436071 0.847967
O O4 0.651860 0.088047 0.825220
O O5 0.604259 0.885568 0.310600
O O6 0.592393 0.769882 0.142534
O O7 0.151701 0.177165 0.500000
O O8 0.271832 0.083059 0.402117
O O9 0.150234 0.892603 0.394913
O O10 0.104761 0.631482 0.500000
O O11 0.105121 0.930314 0.000000
O O12 0.000000 0.000000 0.125463
#
# Coordination Sequence:
#
# PCOD8227653 Si02
#       5
#     8   8   8   8   8
#     4  11  20  37  63  92 122 155 201 247 294 352
#     4  11  20  37  63  92 122 155 201 247 294 352
#     4   9  15  25  47  82 122 156 189 236 289 341
#     4   9  15  25  47  82 122 156 189 236 289 341
#     4  11  26  46  63  85 120 156 197 254 315 367
#
# _framework density 20.929069999999999
#
# number of rings (size 3 to 8) (size 9 to 14) (size 15 to 20)
#    0.000    1.800    4.000    3.600    0.000    4.800 
#    0.000    2.000    0.000    2.400    0.000    2.800 
#    0.000    0.000    0.000    0.000    0.000    0.000 
#
# Total GULP energy -495634.036946 kJ/mol
# GULP energy per Si atom -12390.850924 kJ/mol
# Density = 2.088143 g / cm^3
# Si number density = 20.929070 Si / 1000 Ang^3
#
#
#
# Elastic Constant Matrix: (Units=GPa)
#
#
# Indices 1 2 3 4 5 6 
#
# 1 19.8191 -9.0296 21.4679 0.0000 0.0000 0.0000
# 2 -9.0296 66.4388 8.1430 0.0000 0.0000 0.0000
# 3 21.4679 8.1430 117.7946 0.0000 0.0000 0.0000
# 4 0.0000 0.0000 0.0000 21.4992 0.0000 0.0000
# 5 0.0000 0.0000 0.0000 0.0000 -2.5987 0.0000
# 6 0.0000 0.0000 0.0000 0.0000 0.0000 14.4244
#
#
#
# Elastic Compliance Matrix: (Units=1/GPa)
#
#
# Indices 1 2 3 4 5 6 
#
# 1 0.070281 0.011217 -0.013584 0.000000 0.000000 0.000000
# 2 0.011217 0.016970 -0.003217 0.000000 0.000000 0.000000
# 3 -0.013584 -0.003217 0.011187 0.000000 0.000000 0.000000
# 4 0.000000 0.000000 0.000000 0.046513 0.000000 0.000000
# 5 0.000000 0.000000 0.000000 0.000000 -0.384815 0.000000
# 6 0.000000 0.000000 0.000000 0.000000 0.000000 0.069327
#
#
# Mechanical properties :
#
#
# Convention : Reuss Voigt Hill
#
# Bulk Modulus (GPa) = 11.45880 27.24610 19.35245
# Shear Modulus (GPa) = -38.37971 18.89641 -9.74165
#
# Velocity S-wave (km/s) = -4.28693 3.00805 -2.15979
# Velocity P-wave (km/s) = 4.36082 5.01110 1.74561
#
# Compressibility (1/GPa) = 0.08726920
#
# Stress axis : x y z
#
# Youngs Moduli (GPa) = 14.22864 58.92675 89.38616
#
# Poissons Ratio (x) = -0.66096 1.21422
# Poissons Ratio (y) = -0.15960 0.28759
# Poissons Ratio (z) = 0.19328 0.18959
#
# Static dielectric constant tensor:
#      x y z
#    x 3.177440 0.000000 0.000000 
#    y 0.000000 3.791480 0.000000 
#    z 0.000000 0.000000 4.285070 
# 
# 
# High freq. dielectric constant tensor:
#      x y z
#    x 1.743230 0.000000 0.000000 
#    y 0.000000 1.832060 0.000000 
#    z 0.000000 0.000000 1.835180 
# 
# From -- ./inp_files/19247.got.cif
#   From: 2010.03.12/outbox.cif.g09.slc.cpg/sg55_10_cif.got.tgz:19247.got - 2010.04.16 15:19:21.
