data_PCOD8227905
_publ_section_title
;
Structure prediction by ZEFSAII (Michael W. Deem and Ramdas Pophale) SiO2 
 PCOD8227905
Probable space group: P C C N
;
_chemical_formula_sum "Si O2"
_cell_formula_units_Z 56
_cell_length_a 9.476327
_cell_length_b 19.625968
_cell_length_c 16.633156
_cell_angle_alpha 90.000000
_cell_angle_beta 90.000000
_cell_angle_gamma 90.000000
_cell_volume 3093.469124
_symmetry_space_group_name_H-M "P C C N"
_symmetry_group_IT_number 56
_symmetry_cell_setting 'orthorhombic'
loop_
_space_group_symop_operation_xyz
x,y,z
1/2-x,1/2-y,z
1/2+x,-y,1/2-z
-x,1/2+y,1/2-z
-x,-y,-z
1/2+x,1/2+y,-z
1/2-x,y,1/2+z
x,1/2-y,1/2+z
loop_
_atom_site_type_symbol
_atom_site_label
_atom_site_fract_x
_atom_site_fract_y
_atom_site_fract_z
Si Si1 0.563044 0.116457 0.646365
Si Si2 0.919626 0.253074 0.555344
Si Si3 0.693794 0.404714 0.760339
Si Si4 0.286255 0.467874 0.132275
Si Si5 0.742400 0.067954 0.006363
Si Si6 0.663890 0.312698 0.902791
Si Si7 0.497237 0.895795 0.892307
O O1 0.521757 0.192202 0.618639
O O2 0.656154 0.123533 0.727648
O O3 0.420709 0.075012 0.659359
O O4 0.651644 0.075324 0.580330
O O5 0.750000 0.250000 0.562885
O O6 0.955051 0.281104 0.464029
O O7 0.992905 0.182387 0.577903
O O8 0.734601 0.477697 0.797140
O O9 0.614783 0.356537 0.826249
O O10 0.580068 0.408922 0.691143
O O11 0.156675 0.416741 0.122119
O O12 0.299582 0.505319 0.046228
O O13 0.583307 0.057841 0.040728
O O14 0.735871 0.137977 0.955764
O O15 0.750000 0.250000 0.866193
#
# Coordination Sequence:
#
# PCOD8227905 Si02
#       7
#     8   8   8   8   8   8   8
#     4  10  20  35  56  79 110 145 180 220 270 324
#     4  10  17  36  58  78 101 136 187 227 261 319
#     4  10  21  33  55  79 107 148 178 221 268 328
#     4  11  22  34  51  85 115 143 178 220 276 323
#     4   9  18  35  56  78 104 143 182 218 258 321
#     4   9  16  30  56  82  96 125 187 231 254 301
#     4  11  20  35  57  82 109 143 183 229 265 320
#
# _framework density 18.102654000000001
#
# number of rings (size 3 to 8) (size 9 to 14) (size 15 to 20)
#    0.000    2.000    5.714    1.714    2.000    0.571 
#    0.000    0.000    0.000    0.000    0.000    0.000 
#    0.000    0.000    0.000    0.000    0.000    0.000 
#
# Total GULP energy -693780.765247 kJ/mol
# GULP energy per Si atom -12388.942237 kJ/mol
# Density = 1.806145 g / cm^3
# Si number density = 18.102654 Si / 1000 Ang^3
#
#
#
# Elastic Constant Matrix: (Units=GPa)
#
#
# Indices 1 2 3 4 5 6 
#
# 1 67.5756 26.0817 19.7335 0.0000 0.0000 0.0000
# 2 26.0817 93.3114 35.2945 0.0000 0.0000 0.0000
# 3 19.7335 35.2945 94.2078 0.0000 0.0000 0.0000
# 4 0.0000 0.0000 0.0000 20.6184 0.0000 0.0000
# 5 0.0000 0.0000 0.0000 0.0000 10.1247 0.0000
# 6 0.0000 0.0000 0.0000 0.0000 0.0000 10.8453
#
#
#
# Elastic Compliance Matrix: (Units=1/GPa)
#
#
# Indices 1 2 3 4 5 6 
#
# 1 0.016926 -0.003950 -0.002066 0.000000 0.000000 0.000000
# 2 -0.003950 0.013408 -0.004196 0.000000 0.000000 0.000000
# 3 -0.002066 -0.004196 0.012619 0.000000 0.000000 0.000000
# 4 0.000000 0.000000 0.000000 0.048500 0.000000 0.000000
# 5 0.000000 0.000000 0.000000 0.000000 0.098768 0.000000
# 6 0.000000 0.000000 0.000000 0.000000 0.000000 0.092206
#
#
# Mechanical properties :
#
#
# Convention : Reuss Voigt Hill
#
# Bulk Modulus (GPa) = 44.38369 46.36821 45.37595
# Shear Modulus (GPa) = 16.11029 19.91669 18.01349
#
# Velocity S-wave (km/s) = 2.98642 3.32054 3.15790
# Velocity P-wave (km/s) = 6.03843 6.35381 6.19813
#
# Compressibility (1/GPa) = 0.02253080
#
# Stress axis : x y z
#
# Youngs Moduli (GPa) = 59.08106 74.58324 79.24255
#
# Poissons Ratio (x) = 0.29458 0.16369
# Poissons Ratio (y) = 0.23335 0.33249
# Poissons Ratio (z) = 0.12204 0.31294
#
# Static dielectric constant tensor:
#      x y z
#    x 2.993110 0.000000 0.000000 
#    y 0.000000 3.508880 0.000000 
#    z 0.000000 0.000000 3.679080 
# 
# 
# High freq. dielectric constant tensor:
#      x y z
#    x 1.656520 0.000000 0.000000 
#    y 0.000000 1.710390 0.000000 
#    z 0.000000 0.000000 1.711530 
# 
# From -- ./inp_files/15168.got.cif
#   From: 2010.03.12/outbox.cif.g09.slc.cpg/sg56_8_cif.got.tgz:15168.got - 2010.04.16 15:33:40.
