data_PCOD8227145
_publ_section_title
;
Structure prediction by ZEFSAII (Michael W. Deem and Ramdas Pophale) SiO2 
 PCOD8227145
Probable space group: P B A M
;
_chemical_formula_sum "Si O2"
_cell_formula_units_Z 48
_cell_length_a 9.458341
_cell_length_b 27.199319
_cell_length_c 8.660104
_cell_angle_alpha 90.000000
_cell_angle_beta 90.000000
_cell_angle_gamma 90.000000
_cell_volume 2227.902114
_symmetry_space_group_name_H-M "P B A M"
_symmetry_group_IT_number 55
_symmetry_cell_setting 'orthorhombic'
loop_
_space_group_symop_operation_xyz
x,y,z
-x,-y,z
1/2+x,1/2-y,-z
1/2-x,1/2+y,-z
-x,-y,-z
x,y,-z
1/2-x,1/2+y,z
1/2+x,1/2-y,z
loop_
_atom_site_type_symbol
_atom_site_label
_atom_site_fract_x
_atom_site_fract_y
_atom_site_fract_z
Si Si1 0.626460 0.708690 0.820266
Si Si2 0.202123 0.888604 0.326599
Si Si3 0.211068 0.611493 0.175381
Si Si4 0.431100 0.549215 0.325330
Si Si5 0.317809 0.708566 0.679766
Si Si6 0.060733 0.448676 0.822179
O O1 0.713632 0.659240 0.781148
O O2 0.481878 0.711580 0.724564
O O3 0.727192 0.753816 0.780169
O O4 0.588865 0.709810 0.000000
O O5 0.246607 0.873959 0.500000
O O6 0.299835 0.933258 0.269715
O O7 0.041058 0.906137 0.322511
O O8 0.301200 0.562965 0.215570
O O9 0.253225 0.654772 0.291063
O O10 0.048710 0.596333 0.197224
O O11 0.242358 0.627912 0.000000
O O12 0.500000 0.500000 0.256607
O O13 0.377235 0.539536 0.500000
O O14 0.302950 0.721232 0.500000
O O15 0.000000 0.500000 0.754198
O O16 0.101456 0.456806 0.000000
#
# Coordination Sequence:
#
# PCOD8227145 Si02
#       6
#     8   8   8   8   8   8
#     4  12  26  46  71  99 132 170 216 269 328 392
#     4  11  23  40  64  95 131 171 217 266 325 389
#     4  11  23  40  64  94 128 170 219 267 325 389
#     4  10  21  38  62  92 127 167 213 268 326 386
#     4  12  26  46  70  98 132 170 216 269 329 393
#     4  10  23  42  63  92 132 176 223 273 325 385
#
# _framework density 21.544930000000001
#
# number of rings (size 3 to 8) (size 9 to 14) (size 15 to 20)
#    0.000    1.000    1.667    5.000    2.333    2.667 
#    0.000    0.000    0.000    0.000    0.000    0.000 
#    0.000    0.000    0.000    0.000    0.000    0.000 
#
# Total GULP energy -595523.715055 kJ/mol
# GULP energy per Si atom -12406.744064 kJ/mol
# Density = 2.149589 g / cm^3
# Si number density = 21.544930 Si / 1000 Ang^3
#
#
#
# Elastic Constant Matrix: (Units=GPa)
#
#
# Indices 1 2 3 4 5 6 
#
# 1 60.6189 4.1499 20.4551 0.0000 0.0000 0.0000
# 2 4.1499 84.1645 10.6407 0.0000 0.0000 0.0000
# 3 20.4551 10.6407 90.2398 0.0000 0.0000 0.0000
# 4 0.0000 0.0000 0.0000 34.8664 0.0000 0.0000
# 5 0.0000 0.0000 0.0000 0.0000 26.2264 0.0000
# 6 0.0000 0.0000 0.0000 0.0000 0.0000 37.6575
#
#
#
# Elastic Compliance Matrix: (Units=1/GPa)
#
#
# Indices 1 2 3 4 5 6 
#
# 1 0.017874 -0.000375 -0.004008 0.000000 0.000000 0.000000
# 2 -0.000375 0.012069 -0.001338 0.000000 0.000000 0.000000
# 3 -0.004008 -0.001338 0.012148 0.000000 0.000000 0.000000
# 4 0.000000 0.000000 0.000000 0.028681 0.000000 0.000000
# 5 0.000000 0.000000 0.000000 0.000000 0.038130 0.000000
# 6 0.000000 0.000000 0.000000 0.000000 0.000000 0.026555
#
#
# Mechanical properties :
#
#
# Convention : Reuss Voigt Hill
#
# Bulk Modulus (GPa) = 32.62582 33.94608 33.28595
# Shear Modulus (GPa) = 31.82389 33.06855 32.44622
#
# Velocity S-wave (km/s) = 3.84747 3.92198 3.88490
# Velocity P-wave (km/s) = 5.90875 6.02490 5.96711
#
# Compressibility (1/GPa) = 0.03065057
#
# Stress axis : x y z
#
# Youngs Moduli (GPa) = 55.94584 82.85588 82.31953
#
# Poissons Ratio (x) = 0.03104 0.32990
# Poissons Ratio (y) = 0.02096 0.11016
# Poissons Ratio (z) = 0.22420 0.11088
#
# Static dielectric constant tensor:
#      x y z
#    x 3.790180 0.000000 0.000000 
#    y 0.000000 3.919780 0.000000 
#    z 0.000000 0.000000 3.809730 
# 
# 
# High freq. dielectric constant tensor:
#      x y z
#    x 1.847410 0.000000 0.000000 
#    y 0.000000 1.856610 0.000000 
#    z 0.000000 0.000000 1.845620 
# 
# From -- ./inp_files/2802.got.cif
#   From: 2010.03.12/outbox.cif.g09.slc.cpg/sg55_2_cif.got.tgz:2802.got - 2010.04.16 15:19:21.
