data_PCOD8227511
_publ_section_title
;
Structure prediction by ZEFSAII (Michael W. Deem and Ramdas Pophale) SiO2 
 PCOD8227511
Probable space group: P B A M
;
_chemical_formula_sum "Si O2"
_cell_formula_units_Z 52
_cell_length_a 7.670863
_cell_length_b 20.994176
_cell_length_c 16.299509
_cell_angle_alpha 90.000000
_cell_angle_beta 90.000000
_cell_angle_gamma 90.000000
_cell_volume 2624.929128
_symmetry_space_group_name_H-M "P B A M"
_symmetry_group_IT_number 55
_symmetry_cell_setting 'orthorhombic'
loop_
_space_group_symop_operation_xyz
x,y,z
-x,-y,z
1/2+x,1/2-y,-z
1/2-x,1/2+y,-z
-x,-y,-z
x,y,-z
1/2-x,1/2+y,z
1/2+x,1/2-y,z
loop_
_atom_site_type_symbol
_atom_site_label
_atom_site_fract_x
_atom_site_fract_y
_atom_site_fract_z
Si Si1 0.000000 0.500000 0.362377
Si Si2 0.739629 0.028716 0.500000
Si Si3 0.690176 0.853163 0.911478
Si Si4 0.389380 0.104573 0.746932
Si Si5 0.283187 0.812128 0.265456
Si Si6 0.414734 0.608248 0.500000
Si Si7 0.641230 0.232766 0.091227
Si Si8 0.093973 0.183302 0.332966
O O1 0.875666 0.543165 0.419501
O O2 0.870459 0.459723 0.304481
O O3 0.892582 0.079387 0.500000
O O4 0.788142 0.953207 0.500000
O O5 0.650998 0.907192 0.843773
O O6 0.867006 0.810929 0.902367
O O7 0.552157 0.795003 0.902249
O O8 0.679749 0.887672 0.000000
O O9 0.585081 0.128630 0.731716
O O10 0.242548 0.154359 0.723593
O O11 0.252232 0.792306 0.170728
O O12 0.371369 0.758803 0.325070
O O13 0.098381 0.834188 0.301473
O O14 0.381819 0.654746 0.576404
O O15 0.719407 0.214069 0.000000
#
# Coordination Sequence:
#
# PCOD8227511 Si02
#       8
#     4   4   8   8   8   4   8   8
#     4  11  22  42  65  82 106 154 201 246 290 341
#     4  10  22  42  64  81 107 141 202 253 278 323
#     4   9  17  29  49  80 116 147 185 230 279 340
#     4  11  22  38  59  85 115 153 198 235 290 340
#     4  11  21  37  57  85 124 154 181 235 292 353
#     4  11  24  40  58  87 113 144 191 245 286 346
#     4   9  16  28  49  78 112 150 185 224 273 333
#     4  12  22  38  57  84 117 151 184 236 295 353
#
# _framework density 19.810058000000001
#
# number of rings (size 3 to 8) (size 9 to 14) (size 15 to 20)
#    0.000    1.538    4.615    1.846    0.000    0.615 
#    0.000    1.923    0.000    0.000    0.000    0.000 
#    0.000    7.385    0.000    0.000    0.000    0.000 
#
# Total GULP energy -644199.037709 kJ/mol
# GULP energy per Si atom -12388.443033 kJ/mol
# Density = 1.976497 g / cm^3
# Si number density = 19.810058 Si / 1000 Ang^3
#
#
#
# Elastic Constant Matrix: (Units=GPa)
#
#
# Indices 1 2 3 4 5 6 
#
# 1 68.4931 -9.7373 17.5659 0.0000 0.0000 0.0000
# 2 -9.7373 29.0373 30.8038 0.0000 0.0000 0.0000
# 3 17.5659 30.8038 151.1099 0.0000 0.0000 0.0000
# 4 0.0000 0.0000 0.0000 22.9918 0.0000 0.0000
# 5 0.0000 0.0000 0.0000 0.0000 14.6479 0.0000
# 6 0.0000 0.0000 0.0000 0.0000 0.0000 19.5534
#
#
#
# Elastic Compliance Matrix: (Units=1/GPa)
#
#
# Indices 1 2 3 4 5 6 
#
# 1 0.017048 0.009977 -0.004016 0.000000 0.000000 0.000000
# 2 0.009977 0.049779 -0.011307 0.000000 0.000000 0.000000
# 3 -0.004016 -0.011307 0.009389 0.000000 0.000000 0.000000
# 4 0.000000 0.000000 0.000000 0.043494 0.000000 0.000000
# 5 0.000000 0.000000 0.000000 0.000000 0.068269 0.000000
# 6 0.000000 0.000000 0.000000 0.000000 0.000000 0.051142
#
#
# Mechanical properties :
#
#
# Convention : Reuss Voigt Hill
#
# Bulk Modulus (GPa) = 15.26141 36.21167 25.73654
# Shear Modulus (GPa) = 18.40566 25.43916 21.92241
#
# Velocity S-wave (km/s) = 3.05143 3.58740 3.33021
# Velocity P-wave (km/s) = 4.48727 5.95637 5.27323
#
# Compressibility (1/GPa) = 0.06552476
#
# Stress axis : x y z
#
# Youngs Moduli (GPa) = 58.65728 20.08872 106.50223
#
# Poissons Ratio (x) = -0.20042 0.42766
# Poissons Ratio (y) = -0.58521 1.20425
# Poissons Ratio (z) = 0.23554 0.22715
#
# Static dielectric constant tensor:
#      x y z
#    x 3.626390 0.000000 0.000000 
#    y 0.000000 3.166010 0.000000 
#    z 0.000000 0.000000 3.976490 
# 
# 
# High freq. dielectric constant tensor:
#      x y z
#    x 1.775700 0.000000 0.000000 
#    y 0.000000 1.719270 0.000000 
#    z 0.000000 0.000000 1.796770 
# 
# From -- ./inp_files/20964.got.cif
#   From: 2010.03.12/outbox.cif.g09.slc.cpg/sg55_11_cif.got.tgz:20964.got - 2010.04.16 15:19:21.
