data_PCOD8227920
_publ_section_title
;
Structure prediction by ZEFSAII (Michael W. Deem and Ramdas Pophale) SiO2 
 PCOD8227920
Probable space group: P C C N
;
_chemical_formula_sum "Si O2"
_cell_formula_units_Z 64
_cell_length_a 18.851910
_cell_length_b 8.466125
_cell_length_c 22.240973
_cell_angle_alpha 90.000000
_cell_angle_beta 90.000000
_cell_angle_gamma 90.000000
_cell_volume 3549.717708
_symmetry_space_group_name_H-M "P C C N"
_symmetry_group_IT_number 56
_symmetry_cell_setting 'orthorhombic'
loop_
_space_group_symop_operation_xyz
x,y,z
1/2-x,1/2-y,z
1/2+x,-y,1/2-z
-x,1/2+y,1/2-z
-x,-y,-z
1/2+x,1/2+y,-z
1/2-x,y,1/2+z
x,1/2-y,1/2+z
loop_
_atom_site_type_symbol
_atom_site_label
_atom_site_fract_x
_atom_site_fract_y
_atom_site_fract_z
Si Si1 0.428240 0.515887 0.297929
Si Si2 0.221242 0.580889 0.419737
Si Si3 0.288379 0.582499 0.231901
Si Si4 0.324527 0.165128 0.637736
Si Si5 0.149447 0.353752 0.894536
Si Si6 0.825604 0.666027 0.496079
Si Si7 0.829036 0.936226 0.189521
Si Si8 0.434998 0.298049 0.726146
O O1 0.357834 0.604725 0.273460
O O2 0.415971 0.450206 0.365649
O O3 0.491924 0.639204 0.300764
O O4 0.449971 0.370509 0.255786
O O5 0.250000 0.750000 0.437416
O O6 0.286990 0.471916 0.404373
O O7 0.179908 0.511102 0.477051
O O8 0.171272 0.580102 0.359524
O O9 0.250000 0.750000 0.220751
O O10 0.313408 0.506365 0.168633
O O11 0.236071 0.458357 0.264226
O O12 0.250000 0.250000 0.633324
O O13 0.357517 0.146965 0.570571
O O14 0.378579 0.276475 0.673062
O O15 0.179079 0.227039 0.846753
O O16 0.126180 0.270631 0.957637
O O17 0.750000 0.750000 0.493450
O O18 0.902588 0.925573 0.226630
#
# Coordination Sequence:
#
# PCOD8227920 Si02
#       8
#     8   8   8   8   8   8   8   8
#     4  10  22  34  51  78 112 144 172 221 273 326
#     4  10  18  27  50  82 103 132 170 234 275 302
#     4  11  22  32  54  82 111 139 178 220 275 323
#     4  10  19  35  55  75 103 152 183 215 267 326
#     4   9  18  32  53  74 104 135 184 222 265 312
#     4   8  17  32  51  73 102 136 190 225 256 314
#     4  10  18  32  51  75 106 139 168 217 265 332
#     4  10  22  33  52  77 112 143 176 213 276 330
#
# _framework density 18.029602000000001
#
# number of rings (size 3 to 8) (size 9 to 14) (size 15 to 20)
#    0.000    2.250    2.500    1.500    5.250    0.500 
#    0.000    0.625    0.000    0.000    0.000   32.375 
#    0.000    0.000    0.000    0.000    0.000    0.000 
#
# Total GULP energy -793102.102211 kJ/mol
# GULP energy per Si atom -12392.220347 kJ/mol
# Density = 1.798857 g / cm^3
# Si number density = 18.029602 Si / 1000 Ang^3
#
#
#
# Elastic Constant Matrix: (Units=GPa)
#
#
# Indices 1 2 3 4 5 6 
#
# 1 76.1898 31.0638 25.8514 0.0000 0.0000 0.0000
# 2 31.0638 79.6131 39.2556 0.0000 0.0000 0.0000
# 3 25.8514 39.2556 129.6363 0.0000 0.0000 0.0000
# 4 0.0000 0.0000 0.0000 14.7519 0.0000 0.0000
# 5 0.0000 0.0000 0.0000 0.0000 10.0808 0.0000
# 6 0.0000 0.0000 0.0000 0.0000 0.0000 33.4727
#
#
#
# Elastic Compliance Matrix: (Units=1/GPa)
#
#
# Indices 1 2 3 4 5 6 
#
# 1 0.015857 -0.005440 -0.001515 0.000000 0.000000 0.000000
# 2 -0.005440 0.016632 -0.003951 0.000000 0.000000 0.000000
# 3 -0.001515 -0.003951 0.009213 0.000000 0.000000 0.000000
# 4 0.000000 0.000000 0.000000 0.067788 0.000000 0.000000
# 5 0.000000 0.000000 0.000000 0.000000 0.099198 0.000000
# 6 0.000000 0.000000 0.000000 0.000000 0.000000 0.029875
#
#
# Mechanical properties :
#
#
# Convention : Reuss Voigt Hill
#
# Bulk Modulus (GPa) = 50.28041 53.08674 51.68358
# Shear Modulus (GPa) = 18.72622 24.27898 21.50260
#
# Velocity S-wave (km/s) = 3.22629 3.67361 3.45719
# Velocity P-wave (km/s) = 6.46736 6.89217 6.68314
#
# Compressibility (1/GPa) = 0.01988846
#
# Stress axis : x y z
#
# Youngs Moduli (GPa) = 63.06288 60.12558 108.54809
#
# Poissons Ratio (x) = 0.32710 0.16442
# Poissons Ratio (y) = 0.34308 0.42892
# Poissons Ratio (z) = 0.09553 0.23758
#
# Static dielectric constant tensor:
#      x y z
#    x 3.071500 0.000000 0.000000 
#    y 0.000000 3.379810 0.000000 
#    z 0.000000 0.000000 3.751300 
# 
# 
# High freq. dielectric constant tensor:
#      x y z
#    x 1.661650 0.000000 0.000000 
#    y 0.000000 1.694020 0.000000 
#    z 0.000000 0.000000 1.697570 
# 
# From -- ./inp_files/19531.got.cif
#   From: 2010.03.12/outbox.cif.g09.slc.cpg/sg56_10_cif.got.tgz:19531.got - 2010.04.16 15:33:40.
