data_PCOD8227224
_publ_section_title
;
Structure prediction by ZEFSAII (Michael W. Deem and Ramdas Pophale) SiO2 
 PCOD8227224
Probable space group: P B A M
;
_chemical_formula_sum "Si O2"
_cell_formula_units_Z 64
_cell_length_a 30.619153
_cell_length_b 11.954757
_cell_length_c 8.838707
_cell_angle_alpha 90.000000
_cell_angle_beta 90.000000
_cell_angle_gamma 90.000000
_cell_volume 3235.360382
_symmetry_space_group_name_H-M "P B A M"
_symmetry_group_IT_number 55
_symmetry_cell_setting 'orthorhombic'
loop_
_space_group_symop_operation_xyz
x,y,z
-x,-y,z
1/2+x,1/2-y,-z
1/2-x,1/2+y,-z
-x,-y,-z
x,y,-z
1/2-x,1/2+y,z
1/2+x,1/2-y,z
loop_
_atom_site_type_symbol
_atom_site_label
_atom_site_fract_x
_atom_site_fract_y
_atom_site_fract_z
Si Si1 0.452370 0.973599 0.672268
Si Si2 0.706387 0.035802 0.322808
Si Si3 0.915405 0.760744 0.329268
Si Si4 0.627120 0.900996 0.179448
Si Si5 0.050741 0.022151 0.825342
Si Si6 0.624245 0.647682 0.178932
Si Si7 0.327238 0.755832 0.827443
Si Si8 0.703247 0.493914 0.824824
O O1 0.447333 0.016920 0.500000
O O2 0.449615 0.839820 0.678934
O O3 0.500000 0.000000 0.739116
O O4 0.416085 0.033752 0.772549
O O5 0.699236 0.024380 0.500000
O O6 0.703206 0.165304 0.274142
O O7 0.670160 0.959903 0.242929
O O8 0.754217 0.995781 0.277932
O O9 0.897576 0.776713 0.500000
O O10 0.876891 0.724607 0.218374
O O11 0.938679 0.872505 0.276871
O O12 0.624495 0.773805 0.243381
O O13 0.630542 0.901208 0.000000
O O14 0.080149 0.917144 0.769384
O O15 0.061710 0.049604 0.000000
O O16 0.000000 0.000000 0.801759
O O17 0.667568 0.582696 0.236065
O O18 0.625471 0.650842 0.000000
O O19 0.316937 0.627334 0.801253
O O20 0.320526 0.792567 0.000000
O O21 0.715377 0.516287 0.000000
#
# Coordination Sequence:
#
# PCOD8227224 Si02
#       8
#     8   8   8   8   8   8   8   8
#     4  10  23  42  61  86 125 167 203 250 314 368
#     4  12  26  42  61  91 129 161 201 251 309 368
#     4  11  22  38  62  90 124 161 203 256 310 367
#     4  11  23  40  64  91 121 160 209 254 301 361
#     4  10  21  39  64  91 123 162 206 257 309 361
#     4   9  20  40  61  89 122 156 200 253 304 357
#     4  11  22  41  69  92 118 159 208 257 306 361
#     4  10  22  42  66  90 120 160 206 251 305 363
#
# _framework density 19.781413000000001
#
# number of rings (size 3 to 8) (size 9 to 14) (size 15 to 20)
#    0.000    1.500    2.500    2.250    3.500    2.000 
#    0.000    1.875    0.000    0.000    0.000    0.000 
#    0.000    0.000    0.000    0.000    0.000    0.000 
#
# Total GULP energy -793750.218201 kJ/mol
# GULP energy per Si atom -12402.347159 kJ/mol
# Density = 1.973639 g / cm^3
# Si number density = 19.781413 Si / 1000 Ang^3
#
#
#
# Elastic Constant Matrix: (Units=GPa)
#
#
# Indices 1 2 3 4 5 6 
#
# 1 117.2948 37.3615 38.7627 0.0000 0.0000 0.0000
# 2 37.3615 117.1084 45.9188 0.0000 0.0000 0.0000
# 3 38.7627 45.9188 72.2435 0.0000 0.0000 0.0000
# 4 0.0000 0.0000 0.0000 15.0220 0.0000 0.0000
# 5 0.0000 0.0000 0.0000 0.0000 24.7852 0.0000
# 6 0.0000 0.0000 0.0000 0.0000 0.0000 24.6615
#
#
#
# Elastic Compliance Matrix: (Units=1/GPa)
#
#
# Indices 1 2 3 4 5 6 
#
# 1 0.010565 -0.001529 -0.004697 0.000000 0.000000 0.000000
# 2 -0.001529 0.011595 -0.006550 0.000000 0.000000 0.000000
# 3 -0.004697 -0.006550 0.020525 0.000000 0.000000 0.000000
# 4 0.000000 0.000000 0.000000 0.066569 0.000000 0.000000
# 5 0.000000 0.000000 0.000000 0.000000 0.040347 0.000000
# 6 0.000000 0.000000 0.000000 0.000000 0.000000 0.040549
#
#
# Mechanical properties :
#
#
# Convention : Reuss Voigt Hill
#
# Bulk Modulus (GPa) = 58.36228 61.19254 59.77741
# Shear Modulus (GPa) = 22.58239 25.20066 23.89152
#
# Velocity S-wave (km/s) = 3.38242 3.57312 3.47908
# Velocity P-wave (km/s) = 6.69492 6.92997 6.81346
#
# Compressibility (1/GPa) = 0.01713435
#
# Stress axis : x y z
#
# Youngs Moduli (GPa) = 94.65524 86.24424 48.72071
#
# Poissons Ratio (x) = 0.13185 0.22883
# Poissons Ratio (y) = 0.14471 0.31910
# Poissons Ratio (z) = 0.44457 0.56486
#
# Static dielectric constant tensor:
#      x y z
#    x 3.841100 0.000000 0.000000 
#    y 0.000000 4.136660 0.000000 
#    z 0.000000 0.000000 3.525420 
# 
# 
# High freq. dielectric constant tensor:
#      x y z
#    x 1.778250 0.000000 0.000000 
#    y 0.000000 1.785430 0.000000 
#    z 0.000000 0.000000 1.758840 
# 
# From -- ./inp_files/4587.got.cif
#   From: 2010.03.12/outbox.cif.g09.slc.cpg/sg55_3_cif.got.tgz:4587.got - 2010.04.16 15:19:21.
