data_PCOD8227743
_publ_section_title
;
Structure prediction by ZEFSAII (Michael W. Deem and Ramdas Pophale) SiO2 
 PCOD8227743
Probable space group: P B A M
;
_chemical_formula_sum "Si O2"
_cell_formula_units_Z 44
_cell_length_a 7.780695
_cell_length_b 21.308864
_cell_length_c 13.606082
_cell_angle_alpha 90.000000
_cell_angle_beta 90.000000
_cell_angle_gamma 90.000000
_cell_volume 2255.858076
_symmetry_space_group_name_H-M "P B A M"
_symmetry_group_IT_number 55
_symmetry_cell_setting 'orthorhombic'
loop_
_space_group_symop_operation_xyz
x,y,z
-x,-y,z
1/2+x,1/2-y,-z
1/2-x,1/2+y,-z
-x,-y,-z
x,y,-z
1/2-x,1/2+y,z
1/2+x,1/2-y,z
loop_
_atom_site_type_symbol
_atom_site_label
_atom_site_fract_x
_atom_site_fract_y
_atom_site_fract_z
Si Si1 0.000000 0.000000 0.259362
Si Si2 0.118623 0.102237 0.609852
Si Si3 0.587169 0.896252 0.889292
Si Si4 0.580195 0.819484 0.695128
Si Si5 0.245552 0.973224 0.108826
Si Si6 0.202226 0.808952 0.615275
O O1 0.892773 0.047295 0.189621
O O2 0.130033 0.040574 0.324008
O O3 0.127993 0.077716 0.500000
O O4 0.285491 0.143793 0.628020
O O5 0.937191 0.136576 0.628102
O O6 0.604732 0.840888 0.808910
O O7 0.407189 0.929999 0.873792
O O8 0.724304 0.951959 0.875807
O O9 0.601502 0.867466 0.000000
O O10 0.386967 0.831603 0.655940
O O11 0.630366 0.746970 0.683268
O O12 0.171885 0.961786 0.000000
O O13 0.218641 0.788944 0.500000
#
# Coordination Sequence:
#
# PCOD8227743 Si02
#       6
#     4   8   8   8   8   8
#     4  12  20  36  58  90 120 154 190 246 302 352
#     4  11  24  39  57  88 124 155 195 245 294 351
#     4   9  19  37  58  83 115 152 192 240 295 349
#     4  12  21  39  63  84 115 153 199 245 292 342
#     4   9  18  34  58  85 114 150 196 240 283 352
#     4  11  23  39  62  87 112 154 206 241 284 354
#
# _framework density 19.504774000000001
#
# number of rings (size 3 to 8) (size 9 to 14) (size 15 to 20)
#    0.000    1.455    3.636    4.364    0.000    0.000 
#    0.000    0.909    0.000    6.545    0.000    0.000 
#    0.000    0.000    0.000    0.000    0.000    0.000 
#
# Total GULP energy -545368.706100 kJ/mol
# GULP energy per Si atom -12394.743320 kJ/mol
# Density = 1.946038 g / cm^3
# Si number density = 19.504774 Si / 1000 Ang^3
#
#
#
# Elastic Constant Matrix: (Units=GPa)
#
#
# Indices 1 2 3 4 5 6 
#
# 1 103.9322 0.9365 34.8809 0.0000 0.0000 0.0000
# 2 0.9365 32.1378 35.0437 0.0000 0.0000 0.0000
# 3 34.8809 35.0437 138.9931 0.0000 0.0000 0.0000
# 4 0.0000 0.0000 0.0000 23.2180 0.0000 0.0000
# 5 0.0000 0.0000 0.0000 0.0000 31.2273 0.0000
# 6 0.0000 0.0000 0.0000 0.0000 0.0000 20.0855
#
#
#
# Elastic Compliance Matrix: (Units=1/GPa)
#
#
# Indices 1 2 3 4 5 6 
#
# 1 0.010807 0.003644 -0.003631 0.000000 0.000000 0.000000
# 2 0.003644 0.044143 -0.012044 0.000000 0.000000 0.000000
# 3 -0.003631 -0.012044 0.011142 0.000000 0.000000 0.000000
# 4 0.000000 0.000000 0.000000 0.043070 0.000000 0.000000
# 5 0.000000 0.000000 0.000000 0.000000 0.032023 0.000000
# 6 0.000000 0.000000 0.000000 0.000000 0.000000 0.049787
#
#
# Mechanical properties :
#
#
# Convention : Reuss Voigt Hill
#
# Bulk Modulus (GPa) = 23.79177 46.30948 35.05063
# Shear Modulus (GPa) = 21.82975 28.51964 25.17469
#
# Velocity S-wave (km/s) = 3.34907 3.82800 3.59652
# Velocity P-wave (km/s) = 5.21339 6.58273 5.93767
#
# Compressibility (1/GPa) = 0.04203133
#
# Stress axis : x y z
#
# Youngs Moduli (GPa) = 92.52900 22.65365 89.74680
#
# Poissons Ratio (x) = -0.08256 0.32587
# Poissons Ratio (y) = -0.33721 1.08092
# Poissons Ratio (z) = 0.33597 0.27284
#
# Static dielectric constant tensor:
#      x y z
#    x 3.699610 0.000000 0.000000 
#    y 0.000000 3.354000 0.000000 
#    z 0.000000 0.000000 3.822600 
# 
# 
# High freq. dielectric constant tensor:
#      x y z
#    x 1.770730 0.000000 0.000000 
#    y 0.000000 1.728300 0.000000 
#    z 0.000000 0.000000 1.774490 
# 
# From -- ./inp_files/12159.got.cif
#   From: 2010.03.12/outbox.cif.g09.slc.cpg/sg55_7_cif.got.tgz:12159.got - 2010.04.16 15:19:21.
