data_PCOD8227703
_publ_section_title
;
Structure prediction by ZEFSAII (Michael W. Deem and Ramdas Pophale) SiO2 
 PCOD8227703
Probable space group: P B A M
;
_chemical_formula_sum "Si O2"
_cell_formula_units_Z 48
_cell_length_a 8.813567
_cell_length_b 20.452375
_cell_length_c 13.149131
_cell_angle_alpha 90.000000
_cell_angle_beta 90.000000
_cell_angle_gamma 90.000000
_cell_volume 2370.241018
_symmetry_space_group_name_H-M "P B A M"
_symmetry_group_IT_number 55
_symmetry_cell_setting 'orthorhombic'
loop_
_space_group_symop_operation_xyz
x,y,z
-x,-y,z
1/2+x,1/2-y,-z
1/2-x,1/2+y,-z
-x,-y,-z
x,y,-z
1/2-x,1/2+y,z
1/2+x,1/2-y,z
loop_
_atom_site_type_symbol
_atom_site_label
_atom_site_fract_x
_atom_site_fract_y
_atom_site_fract_z
Si Si1 0.397520 0.185706 0.199028
Si Si2 0.731938 0.034662 0.616047
Si Si3 0.414969 0.102187 0.383822
Si Si4 0.927184 0.564083 0.884471
Si Si5 0.065232 0.191192 0.119725
Si Si6 0.404782 0.438009 0.190165
O O1 0.366226 0.165291 0.316569
O O2 0.505118 0.129128 0.160156
O O3 0.245183 0.192437 0.134305
O O4 0.489398 0.252576 0.187703
O O5 0.781967 0.047161 0.500000
O O6 0.584023 0.077366 0.643584
O O7 0.867186 0.057982 0.689449
O O8 0.700672 0.957810 0.634112
O O9 0.408398 0.125588 0.500000
O O10 0.747285 0.563555 0.875260
O O11 0.000000 0.500000 0.829532
O O12 0.977497 0.562877 0.000000
O O13 0.004098 0.124390 0.165032
O O14 0.027388 0.199654 0.000000
O O15 0.500000 0.500000 0.153794
#
# Coordination Sequence:
#
# PCOD8227703 Si02
#       6
#     8   8   8   8   8   8
#     4  12  24  44  66  90 125 167 219 262 329 392
#     4   9  18  36  65  99 130 164 207 258 317 378
#     4   9  18  37  68  99 128 163 206 257 318 383
#     4  11  22  37  61  89 120 162 210 264 317 374
#     4  12  27  44  64  90 125 173 218 271 327 386
#     4  12  24  39  62  95 129 168 214 267 320 378
#
# _framework density 20.251104999999999
#
# number of rings (size 3 to 8) (size 9 to 14) (size 15 to 20)
#    0.000    1.167    1.667    7.000    0.000    3.000 
#    0.000    2.500    0.000    0.000    0.000    0.000 
#    0.000    0.000    0.000    0.000    0.000    0.000 
#
# Total GULP energy -595256.971204 kJ/mol
# GULP energy per Si atom -12401.186900 kJ/mol
# Density = 2.020501 g / cm^3
# Si number density = 20.251105 Si / 1000 Ang^3
#
#
#
# Elastic Constant Matrix: (Units=GPa)
#
#
# Indices 1 2 3 4 5 6 
#
# 1 89.2653 40.5691 18.5034 0.0000 0.0000 0.0000
# 2 40.5691 142.6058 46.8658 0.0000 0.0000 0.0000
# 3 18.5034 46.8658 107.8865 0.0000 0.0000 0.0000
# 4 0.0000 0.0000 0.0000 22.9428 0.0000 0.0000
# 5 0.0000 0.0000 0.0000 0.0000 35.3461 0.0000
# 6 0.0000 0.0000 0.0000 0.0000 0.0000 16.0866
#
#
#
# Elastic Compliance Matrix: (Units=1/GPa)
#
#
# Indices 1 2 3 4 5 6 
#
# 1 0.012914 -0.003437 -0.000722 0.000000 0.000000 0.000000
# 2 -0.003437 0.009095 -0.003361 0.000000 0.000000 0.000000
# 3 -0.000722 -0.003361 0.010853 0.000000 0.000000 0.000000
# 4 0.000000 0.000000 0.000000 0.043587 0.000000 0.000000
# 5 0.000000 0.000000 0.000000 0.000000 0.028292 0.000000
# 6 0.000000 0.000000 0.000000 0.000000 0.000000 0.062163
#
#
# Mechanical properties :
#
#
# Convention : Reuss Voigt Hill
#
# Bulk Modulus (GPa) = 56.11075 61.29269 58.70172
# Shear Modulus (GPa) = 26.61217 30.46305 28.53761
#
# Velocity S-wave (km/s) = 3.62900 3.88269 3.75799
# Velocity P-wave (km/s) = 6.73254 7.10158 6.91952
#
# Compressibility (1/GPa) = 0.01782190
#
# Stress axis : x y z
#
# Youngs Moduli (GPa) = 77.43492 109.95481 92.14054
#
# Poissons Ratio (x) = 0.37787 0.06653
# Poissons Ratio (y) = 0.26611 0.30971
# Poissons Ratio (z) = 0.05591 0.36959
#
# Static dielectric constant tensor:
#      x y z
#    x 3.597560 0.000000 0.000000 
#    y 0.000000 3.759190 0.000000 
#    z 0.000000 0.000000 3.953610 
# 
# 
# High freq. dielectric constant tensor:
#      x y z
#    x 1.789530 0.000000 0.000000 
#    y 0.000000 1.782760 0.000000 
#    z 0.000000 0.000000 1.805370 
# 
# From -- ./inp_files/17365.got.cif
#   From: 2010.03.12/outbox.cif.g09.slc.cpg/sg55_9_cif.got.tgz:17365.got - 2010.04.16 15:19:21.
