data_PCOD8227535
_publ_section_title
;
Structure prediction by ZEFSAII (Michael W. Deem and Ramdas Pophale) SiO2 
 PCOD8227535
Probable space group: P B A M
;
_chemical_formula_sum "Si O2"
_cell_formula_units_Z 32
_cell_length_a 8.441198
_cell_length_b 10.010299
_cell_length_c 16.090105
_cell_angle_alpha 90.000000
_cell_angle_beta 90.000000
_cell_angle_gamma 90.000000
_cell_volume 1359.596429
_symmetry_space_group_name_H-M "P B A M"
_symmetry_group_IT_number 55
_symmetry_cell_setting 'orthorhombic'
loop_
_space_group_symop_operation_xyz
x,y,z
-x,-y,z
1/2+x,1/2-y,-z
1/2-x,1/2+y,-z
-x,-y,-z
x,y,-z
1/2-x,1/2+y,z
1/2+x,1/2-y,z
loop_
_atom_site_type_symbol
_atom_site_label
_atom_site_fract_x
_atom_site_fract_y
_atom_site_fract_z
Si Si1 0.168561 0.647695 0.307446
Si Si2 0.386549 0.375722 0.906248
Si Si3 0.894788 0.702686 0.195822
Si Si4 0.834490 0.075189 0.595088
O O1 0.307225 0.672174 0.239808
O O2 0.202785 0.515147 0.359989
O O3 0.155597 0.779285 0.364766
O O4 0.999138 0.623814 0.263278
O O5 0.500000 0.500000 0.899930
O O6 0.489606 0.249975 0.877503
O O7 0.235835 0.395861 0.845139
O O8 0.326431 0.351008 0.000000
O O9 0.782664 0.093807 0.500000
O O10 0.000000 0.000000 0.603169
#
# Coordination Sequence:
#
# PCOD8227535 Si02
#       4
#     8   8   8   8
#     4  11  23  43  69 103 137 187 237 288 350 420
#     4  10  22  43  69  99 138 179 228 286 349 415
#     4  10  23  39  68  98 136 179 227 287 341 418
#     4  11  24  45  69 101 143 184 234 291 354 421
#
# _framework density 23.536396
#
# number of rings (size 3 to 8) (size 9 to 14) (size 15 to 20)
#    0.000    1.500    2.500    1.500    7.000    1.000 
#    4.500    1.250    0.000    7.500    0.000    0.000 
#    0.000    0.000    0.000    0.000    0.000    0.000 
#
# Total GULP energy -396808.520415 kJ/mol
# GULP energy per Si atom -12400.266263 kJ/mol
# Density = 2.348283 g / cm^3
# Si number density = 23.536396 Si / 1000 Ang^3
#
#
#
# Elastic Constant Matrix: (Units=GPa)
#
#
# Indices 1 2 3 4 5 6 
#
# 1 140.1963 25.3401 80.7765 0.0000 0.0000 0.0000
# 2 25.3401 85.5040 56.7851 0.0000 0.0000 0.0000
# 3 80.7765 56.7851 173.1042 0.0000 0.0000 0.0000
# 4 0.0000 0.0000 0.0000 10.0527 0.0000 0.0000
# 5 0.0000 0.0000 0.0000 0.0000 47.8649 0.0000
# 6 0.0000 0.0000 0.0000 0.0000 0.0000 24.0651
#
#
#
# Elastic Compliance Matrix: (Units=1/GPa)
#
#
# Indices 1 2 3 4 5 6 
#
# 1 0.009758 0.000169 -0.004609 0.000000 0.000000 0.000000
# 2 0.000169 0.014956 -0.004985 0.000000 0.000000 0.000000
# 3 -0.004609 -0.004985 0.009563 0.000000 0.000000 0.000000
# 4 0.000000 0.000000 0.000000 0.099475 0.000000 0.000000
# 5 0.000000 0.000000 0.000000 0.000000 0.020892 0.000000
# 6 0.000000 0.000000 0.000000 0.000000 0.000000 0.041554
#
#
# Mechanical properties :
#
#
# Convention : Reuss Voigt Hill
#
# Bulk Modulus (GPa) = 64.82200 80.51199 72.66699
# Shear Modulus (GPa) = 22.70772 32.12341 27.41557
#
# Velocity S-wave (km/s) = 3.10948 3.69838 3.41664
# Velocity P-wave (km/s) = 6.36339 7.24700 6.81953
#
# Compressibility (1/GPa) = 0.01542686
#
# Stress axis : x y z
#
# Youngs Moduli (GPa) = 102.48303 66.86320 104.57273
#
# Poissons Ratio (x) = -0.01130 0.48195
# Poissons Ratio (y) = -0.01731 0.52129
# Poissons Ratio (z) = 0.47231 0.33331
#
# Static dielectric constant tensor:
#      x y z
#    x 4.430430 0.000000 0.000000 
#    y 0.000000 4.042190 0.000000 
#    z 0.000000 0.000000 4.603970 
# 
# 
# High freq. dielectric constant tensor:
#      x y z
#    x 1.945440 0.000000 0.000000 
#    y 0.000000 1.922830 0.000000 
#    z 0.000000 0.000000 1.942660 
# 
# From -- ./inp_files/16842.got.cif
#   From: 2010.03.12/outbox.cif.g09.slc.cpg/sg55_9_cif.got.tgz:16842.got - 2010.04.16 15:19:21.
