data_PCOD8227116
_publ_section_title
;
Structure prediction by ZEFSAII (Michael W. Deem and Ramdas Pophale) SiO2 
 PCOD8227116
Probable space group: P B A M
;
_chemical_formula_sum "Si O2"
_cell_formula_units_Z 64
_cell_length_a 24.034464
_cell_length_b 15.027958
_cell_length_c 8.952835
_cell_angle_alpha 90.000000
_cell_angle_beta 90.000000
_cell_angle_gamma 90.000000
_cell_volume 3233.664765
_symmetry_space_group_name_H-M "P B A M"
_symmetry_group_IT_number 55
_symmetry_cell_setting 'orthorhombic'
loop_
_space_group_symop_operation_xyz
x,y,z
-x,-y,z
1/2+x,1/2-y,-z
1/2-x,1/2+y,-z
-x,-y,-z
x,y,-z
1/2-x,1/2+y,z
1/2+x,1/2-y,z
loop_
_atom_site_type_symbol
_atom_site_label
_atom_site_fract_x
_atom_site_fract_y
_atom_site_fract_z
Si Si1 0.927619 0.253021 0.824835
Si Si2 0.373559 0.639549 0.332710
Si Si3 0.698055 0.719874 0.175459
Si Si4 0.514572 0.397536 0.169874
Si Si5 0.735266 0.397044 0.825629
Si Si6 0.119821 0.344827 0.332886
Si Si7 0.769616 0.572102 0.677827
Si Si8 0.501924 0.103174 0.323633
O O1 0.864636 0.238510 0.768055
O O2 0.951727 0.341817 0.748989
O O3 0.962968 0.164976 0.782301
O O4 0.928096 0.270434 0.000000
O O5 0.365276 0.600726 0.500000
O O6 0.435548 0.620871 0.281111
O O7 0.329480 0.597410 0.219174
O O8 0.362712 0.743445 0.333083
O O9 0.737260 0.803037 0.217160
O O10 0.719902 0.631713 0.256770
O O11 0.698747 0.700747 0.000000
O O12 0.500000 0.500000 0.188013
O O13 0.532408 0.375978 0.000000
O O14 0.766276 0.471042 0.729795
O O15 0.741102 0.417869 0.000000
O O16 0.112957 0.382743 0.500000
O O17 0.170906 0.396013 0.255349
O O18 0.060203 0.360180 0.254169
O O19 0.767478 0.579853 0.500000
O O20 0.497463 0.118301 0.500000
O O21 0.500000 0.000000 0.279488
#
# Coordination Sequence:
#
# PCOD8227116 Si02
#       8
#     8   8   8   8   8   8   8   8
#     4  10  22  40  59  84 121 158 196 244 295 352
#     4  11  21  39  64  89 119 154 201 256 303 351
#     4  10  23  42  61  85 122 164 202 246 299 359
#     4  10  22  39  60  88 120 160 201 243 302 361
#     4  11  24  41  61  88 122 160 205 249 300 362
#     4   9  19  37  59  86 120 151 191 249 299 348
#     4  11  23  40  63  91 121 156 200 249 305 359
#     4  10  21  38  61  88 118 158 199 240 295 354
#
# _framework density 19.791786999999999
#
# number of rings (size 3 to 8) (size 9 to 14) (size 15 to 20)
#    0.000    1.750    2.500    1.125    3.500    1.500 
#    0.000    1.250    0.000    0.000    0.000    0.000 
#    0.000    0.000    0.000    0.000    0.000    0.000 
#
# Total GULP energy -793658.144724 kJ/mol
# GULP energy per Si atom -12400.908511 kJ/mol
# Density = 1.974674 g / cm^3
# Si number density = 19.791787 Si / 1000 Ang^3
#
#
#
# Elastic Constant Matrix: (Units=GPa)
#
#
# Indices 1 2 3 4 5 6 
#
# 1 109.0369 10.3838 30.2632 0.0000 0.0000 0.0000
# 2 10.3838 71.7340 28.3058 0.0000 0.0000 0.0000
# 3 30.2632 28.3058 48.4706 0.0000 0.0000 0.0000
# 4 0.0000 0.0000 0.0000 68.6556 0.0000 0.0000
# 5 0.0000 0.0000 0.0000 0.0000 35.8335 0.0000
# 6 0.0000 0.0000 0.0000 0.0000 0.0000 32.9735
#
#
#
# Elastic Compliance Matrix: (Units=1/GPa)
#
#
# Indices 1 2 3 4 5 6 
#
# 1 0.011213 0.001481 -0.007866 0.000000 0.000000 0.000000
# 2 0.001481 0.018310 -0.011617 0.000000 0.000000 0.000000
# 3 -0.007866 -0.011617 0.032326 0.000000 0.000000 0.000000
# 4 0.000000 0.000000 0.000000 0.014565 0.000000 0.000000
# 5 0.000000 0.000000 0.000000 0.000000 0.027907 0.000000
# 6 0.000000 0.000000 0.000000 0.000000 0.000000 0.030327
#
#
# Mechanical properties :
#
#
# Convention : Reuss Voigt Hill
#
# Bulk Modulus (GPa) = 38.69207 40.79411 39.74309
# Shear Modulus (GPa) = 27.89096 38.17842 33.03469
#
# Velocity S-wave (km/s) = 3.75803 4.39681 4.08991
# Velocity P-wave (km/s) = 6.19858 6.81412 6.51363
#
# Compressibility (1/GPa) = 0.02584509
#
# Stress axis : x y z
#
# Youngs Moduli (GPa) = 89.17919 54.61459 30.93444
#
# Poissons Ratio (x) = -0.08086 0.24333
# Poissons Ratio (y) = -0.13204 0.35937
# Poissons Ratio (z) = 0.70147 0.63447
#
# Static dielectric constant tensor:
#      x y z
#    x 3.811880 0.000000 0.000000 
#    y 0.000000 3.934710 0.000000 
#    z 0.000000 0.000000 3.482040 
# 
# 
# High freq. dielectric constant tensor:
#      x y z
#    x 1.785790 0.000000 0.000000 
#    y 0.000000 1.776640 0.000000 
#    z 0.000000 0.000000 1.755550 
# 
# From -- ./inp_files/9645.got.cif
#   From: 2010.03.12/outbox.cif.g09.slc.cpg/sg55_5_cif.got.tgz:9645.got - 2010.04.16 15:19:21.
