data_PCOD8227594
_publ_section_title
;
Structure prediction by ZEFSAII (Michael W. Deem and Ramdas Pophale) SiO2 
 PCOD8227594
Probable space group: P B A M
;
_chemical_formula_sum "Si O2"
_cell_formula_units_Z 40
_cell_length_a 14.961177
_cell_length_b 14.959313
_cell_length_c 8.471870
_cell_angle_alpha 90.000000
_cell_angle_beta 90.000000
_cell_angle_gamma 90.000000
_cell_volume 1896.080156
_symmetry_space_group_name_H-M "P B A M"
_symmetry_group_IT_number 55
_symmetry_cell_setting 'orthorhombic'
loop_
_space_group_symop_operation_xyz
x,y,z
-x,-y,z
1/2+x,1/2-y,-z
1/2-x,1/2+y,-z
-x,-y,-z
x,y,-z
1/2-x,1/2+y,z
1/2+x,1/2-y,z
loop_
_atom_site_type_symbol
_atom_site_label
_atom_site_fract_x
_atom_site_fract_y
_atom_site_fract_z
Si Si1 0.317428 0.732791 0.686053
Si Si2 0.478735 0.235089 0.683285
Si Si3 0.270854 0.533831 0.683049
Si Si4 0.836591 0.143795 0.182967
Si Si5 0.914767 0.444379 0.182752
O O1 0.301076 0.741071 0.500000
O O2 0.418739 0.754482 0.734466
O O3 0.297479 0.632241 0.743816
O O4 0.252788 0.802316 0.771471
O O5 0.470930 0.210118 0.500000
O O6 0.422982 0.324649 0.718201
O O7 0.432037 0.159542 0.787683
O O8 0.293202 0.521001 0.500000
O O9 0.325750 0.460872 0.780851
O O10 0.165907 0.519204 0.711872
O O11 0.856144 0.157662 0.000000
O O12 0.000000 0.500000 0.238535
O O13 0.891892 0.460327 0.000000
#
# Coordination Sequence:
#
# PCOD8227594 Si02
#       5
#     8   8   8   8   8
#     4  10  23  43  67  94 125 168 218 269 319 381
#     4  11  23  41  65  92 126 168 217 264 319 384
#     4  11  23  41  66  92 125 169 217 265 319 382
#     4  12  25  41  64  94 132 170 211 268 328 385
#     4  11  23  39  61  95 131 164 211 266 326 383
#
# _framework density 21.096156000000001
#
# number of rings (size 3 to 8) (size 9 to 14) (size 15 to 20)
#    0.000    1.000    2.000    4.800    0.000    8.000 
#    0.000    4.000    0.000    0.000    0.000    0.000 
#    0.000    0.000    0.000    0.000    0.000    0.000 
#
# Total GULP energy -496302.232023 kJ/mol
# GULP energy per Si atom -12407.555801 kJ/mol
# Density = 2.104814 g / cm^3
# Si number density = 21.096156 Si / 1000 Ang^3
#
#
#
# Elastic Constant Matrix: (Units=GPa)
#
#
# Indices 1 2 3 4 5 6 
#
# 1 66.2889 -14.9286 20.3073 0.0000 0.0000 0.0000
# 2 -14.9286 71.8272 14.8097 0.0000 0.0000 0.0000
# 3 20.3073 14.8097 53.3286 0.0000 0.0000 0.0000
# 4 0.0000 0.0000 0.0000 34.7268 0.0000 0.0000
# 5 0.0000 0.0000 0.0000 0.0000 22.8103 0.0000
# 6 0.0000 0.0000 0.0000 0.0000 0.0000 38.7970
#
#
#
# Elastic Compliance Matrix: (Units=1/GPa)
#
#
# Indices 1 2 3 4 5 6 
#
# 1 0.019117 0.005807 -0.008892 0.000000 0.000000 0.000000
# 2 0.005807 0.016532 -0.006802 0.000000 0.000000 0.000000
# 3 -0.008892 -0.006802 0.024027 0.000000 0.000000 0.000000
# 4 0.000000 0.000000 0.000000 0.028796 0.000000 0.000000
# 5 0.000000 0.000000 0.000000 0.000000 0.043840 0.000000
# 6 0.000000 0.000000 0.000000 0.000000 0.000000 0.025775
#
#
# Mechanical properties :
#
#
# Convention : Reuss Voigt Hill
#
# Bulk Modulus (GPa) = 25.06239 25.75796 25.41017
# Shear Modulus (GPa) = 26.15571 30.68390 28.41980
#
# Velocity S-wave (km/s) = 3.52495 3.81790 3.67434
# Velocity P-wave (km/s) = 5.33600 5.62774 5.48381
#
# Compressibility (1/GPa) = 0.03990042
#
# Stress axis : x y z
#
# Youngs Moduli (GPa) = 52.30853 60.48978 41.62007
#
# Poissons Ratio (x) = -0.35125 0.37010
# Poissons Ratio (y) = -0.30375 0.28311
# Poissons Ratio (z) = 0.46515 0.41146
#
# Static dielectric constant tensor:
#      x y z
#    x 3.927690 0.000000 0.000000 
#    y 0.000000 3.909570 0.000000 
#    z 0.000000 0.000000 3.672720 
# 
# 
# High freq. dielectric constant tensor:
#      x y z
#    x 1.833120 0.000000 0.000000 
#    y 0.000000 1.835310 0.000000 
#    z 0.000000 0.000000 1.825030 
# 
# From -- ./inp_files/5183.got.cif
#   From: 2010.03.12/outbox.cif.g09.slc.cpg/sg55_3_cif.got.tgz:5183.got - 2010.04.16 15:19:21.
