data_PCOD8227911
_publ_section_title
;
Structure prediction by ZEFSAII (Michael W. Deem and Ramdas Pophale) SiO2 
 PCOD8227911
Probable space group: P C C N
;
_chemical_formula_sum "Si O2"
_cell_formula_units_Z 56
_cell_length_a 13.939392
_cell_length_b 13.906323
_cell_length_c 15.156604
_cell_angle_alpha 90.000000
_cell_angle_beta 90.000000
_cell_angle_gamma 90.000000
_cell_volume 2938.042324
_symmetry_space_group_name_H-M "P C C N"
_symmetry_group_IT_number 56
_symmetry_cell_setting 'orthorhombic'
loop_
_space_group_symop_operation_xyz
x,y,z
1/2-x,1/2-y,z
1/2+x,-y,1/2-z
-x,1/2+y,1/2-z
-x,-y,-z
1/2+x,1/2+y,-z
1/2-x,y,1/2+z
x,1/2-y,1/2+z
loop_
_atom_site_type_symbol
_atom_site_label
_atom_site_fract_x
_atom_site_fract_y
_atom_site_fract_z
Si Si1 0.643210 0.278675 0.178723
Si Si2 0.148114 0.774475 0.512506
Si Si3 0.528940 0.648704 0.278293
Si Si4 0.388653 0.518202 0.524247
Si Si5 0.342541 0.313513 0.548869
Si Si6 0.459593 0.267095 0.382679
Si Si7 0.050270 0.566708 0.205392
O O1 0.750000 0.250000 0.207968
O O2 0.574859 0.195172 0.214182
O O3 0.609202 0.380493 0.218023
O O4 0.634375 0.291659 0.073465
O O5 0.250000 0.750000 0.557004
O O6 0.145969 0.885537 0.474188
O O7 0.069384 0.750705 0.586174
O O8 0.591922 0.676739 0.364147
O O9 0.577015 0.688510 0.187913
O O10 0.511459 0.535991 0.262561
O O11 0.500000 0.500000 0.500000
O O12 0.323977 0.422061 0.510747
O O13 0.375933 0.546471 0.626417
O O14 0.250000 0.250000 0.573296
O O15 0.394457 0.258569 0.469094
O O16 0.459926 0.370597 0.332152
#
# Coordination Sequence:
#
# PCOD8227911 Si02
#       7
#     8   8   8   8   8   8   8
#     4  10  20  36  60  89 122 155 199 250 299 360
#     4  10  19  35  62  90 117 155 201 246 299 360
#     4  10  21  39  62  85 124 162 199 254 304 359
#     4  10  17  36  64  81 109 161 211 236 281 371
#     4  11  22  39  62  89 118 158 212 255 297 358
#     4  10  20  38  61  86 119 161 201 246 305 358
#     4   9  19  35  59  86 112 157 205 236 294 359
#
# _framework density 19.060312
#
# number of rings (size 3 to 8) (size 9 to 14) (size 15 to 20)
#    0.000    2.000    4.286    0.857    0.000    5.714 
#    5.143    9.286    0.000    0.000    0.000    0.000 
#    0.000    0.000    0.000    0.000    0.000    0.000 
#
# Total GULP energy -693813.043493 kJ/mol
# GULP energy per Si atom -12389.518634 kJ/mol
# Density = 1.901693 g / cm^3
# Si number density = 19.060312 Si / 1000 Ang^3
#
#
#
# Elastic Constant Matrix: (Units=GPa)
#
#
# Indices 1 2 3 4 5 6 
#
# 1 81.3987 51.1259 26.6410 0.0000 0.0000 0.0000
# 2 51.1259 120.4073 49.8275 0.0000 0.0000 0.0000
# 3 26.6410 49.8275 111.6170 0.0000 0.0000 0.0000
# 4 0.0000 0.0000 0.0000 33.0065 0.0000 0.0000
# 5 0.0000 0.0000 0.0000 0.0000 13.3694 0.0000
# 6 0.0000 0.0000 0.0000 0.0000 0.0000 26.3215
#
#
#
# Elastic Compliance Matrix: (Units=1/GPa)
#
#
# Indices 1 2 3 4 5 6 
#
# 1 0.016846 -0.006733 -0.001015 0.000000 0.000000 0.000000
# 2 -0.006733 0.012878 -0.004142 0.000000 0.000000 0.000000
# 3 -0.001015 -0.004142 0.011051 0.000000 0.000000 0.000000
# 4 0.000000 0.000000 0.000000 0.030297 0.000000 0.000000
# 5 0.000000 0.000000 0.000000 0.000000 0.074797 0.000000
# 6 0.000000 0.000000 0.000000 0.000000 0.000000 0.037992
#
#
# Mechanical properties :
#
#
# Convention : Reuss Voigt Hill
#
# Bulk Modulus (GPa) = 58.84172 63.17908 61.01040
# Shear Modulus (GPa) = 23.44046 26.92807 25.18426
#
# Velocity S-wave (km/s) = 3.51066 3.76278 3.63890
# Velocity P-wave (km/s) = 6.88268 7.21782 7.05224
#
# Compressibility (1/GPa) = 0.01699474
#
# Stress axis : x y z
#
# Youngs Moduli (GPa) = 59.35972 77.65145 90.49339
#
# Poissons Ratio (x) = 0.52283 0.09187
# Poissons Ratio (y) = 0.39967 0.37482
# Poissons Ratio (z) = 0.06026 0.32163
#
# Static dielectric constant tensor:
#      x y z
#    x 3.199740 0.000000 0.000000 
#    y 0.000000 3.874650 0.000000 
#    z 0.000000 0.000000 3.669760 
# 
# 
# High freq. dielectric constant tensor:
#      x y z
#    x 1.704800 0.000000 0.000000 
#    y 0.000000 1.741890 0.000000 
#    z 0.000000 0.000000 1.750410 
# 
# From -- ./inp_files/12372.got.cif
#   From: 2010.03.12/outbox.cif.g09.slc.cpg/sg56_7_cif.got.tgz:12372.got - 2010.04.16 15:33:40.
