data_PCOD8227718
_publ_section_title
;
Structure prediction by ZEFSAII (Michael W. Deem and Ramdas Pophale) SiO2 
 PCOD8227718
Probable space group: P B A M
;
_chemical_formula_sum "Si O2"
_cell_formula_units_Z 40
_cell_length_a 8.463856
_cell_length_b 12.629027
_cell_length_c 16.456747
_cell_angle_alpha 90.000000
_cell_angle_beta 90.000000
_cell_angle_gamma 90.000000
_cell_volume 1759.066063
_symmetry_space_group_name_H-M "P B A M"
_symmetry_group_IT_number 55
_symmetry_cell_setting 'orthorhombic'
loop_
_space_group_symop_operation_xyz
x,y,z
-x,-y,z
1/2+x,1/2-y,-z
1/2-x,1/2+y,-z
-x,-y,-z
x,y,-z
1/2-x,1/2+y,z
1/2+x,1/2-y,z
loop_
_atom_site_type_symbol
_atom_site_label
_atom_site_fract_x
_atom_site_fract_y
_atom_site_fract_z
Si Si1 0.709320 0.642030 0.319338
Si Si2 0.940806 0.883552 0.095966
Si Si3 0.153397 0.710498 0.818252
Si Si4 0.608727 0.297199 0.593084
Si Si5 0.142417 0.565569 0.675645
O O1 0.751880 0.709328 0.238779
O O2 0.845005 0.675748 0.385610
O O3 0.531169 0.661557 0.350149
O O4 0.721767 0.518428 0.298900
O O5 0.036470 0.782913 0.129921
O O6 0.761656 0.861104 0.122882
O O7 0.954699 0.880778 0.000000
O O8 0.000000 0.000000 0.127241
O O9 0.073909 0.627136 0.754984
O O10 0.558748 0.311599 0.500000
O O11 0.775625 0.356713 0.610877
O O12 0.000000 0.500000 0.635299
#
# Coordination Sequence:
#
# PCOD8227718 Si02
#       5
#     8   8   8   8   8
#     4  11  22  39  62  89 121 165 218 267 322 388
#     4  11  24  42  67  99 134 171 211 264 330 393
#     4  11  22  41  65  91 128 168 213 264 317 386
#     4  11  24  40  61  90 127 170 217 275 335 390
#     4  11  23  39  62  91 122 165 219 268 322 385
#
# _framework density 22.739338
#
# number of rings (size 3 to 8) (size 9 to 14) (size 15 to 20)
#    0.000    1.000    0.000    9.000    0.000    2.800 
#    0.000    0.000    0.000    6.000    0.000    0.000 
#    0.000    0.000    0.000    0.000    0.000    0.000 
#
# Total GULP energy -495616.150428 kJ/mol
# GULP energy per Si atom -12390.403761 kJ/mol
# Density = 2.268758 g / cm^3
# Si number density = 22.739338 Si / 1000 Ang^3
#
#
#
# Elastic Constant Matrix: (Units=GPa)
#
#
# Indices 1 2 3 4 5 6 
#
# 1 39.9301 5.8624 3.4489 0.0000 0.0000 0.0000
# 2 5.8624 113.6929 28.1675 0.0000 0.0000 0.0000
# 3 3.4489 28.1675 85.9883 0.0000 0.0000 0.0000
# 4 0.0000 0.0000 0.0000 19.1474 0.0000 0.0000
# 5 0.0000 0.0000 0.0000 0.0000 30.9257 0.0000
# 6 0.0000 0.0000 0.0000 0.0000 0.0000 46.9026
#
#
#
# Elastic Compliance Matrix: (Units=1/GPa)
#
#
# Indices 1 2 3 4 5 6 
#
# 1 0.025267 -0.001145 -0.000638 0.000000 0.000000 0.000000
# 2 -0.001145 0.009624 -0.003107 0.000000 0.000000 0.000000
# 3 -0.000638 -0.003107 0.012673 0.000000 0.000000 0.000000
# 4 0.000000 0.000000 0.000000 0.052226 0.000000 0.000000
# 5 0.000000 0.000000 0.000000 0.000000 0.032336 0.000000
# 6 0.000000 0.000000 0.000000 0.000000 0.000000 0.021321
#
#
# Mechanical properties :
#
#
# Convention : Reuss Voigt Hill
#
# Bulk Modulus (GPa) = 26.46603 34.95211 30.70907
# Shear Modulus (GPa) = 28.43794 32.87064 30.65429
#
# Velocity S-wave (km/s) = 3.54023 3.80615 3.67559
# Velocity P-wave (km/s) = 5.32683 5.89236 5.61671
#
# Compressibility (1/GPa) = 0.03778429
#
# Stress axis : x y z
#
# Youngs Moduli (GPa) = 39.57736 103.90309 78.90922
#
# Poissons Ratio (x) = 0.11893 0.05038
# Poissons Ratio (y) = 0.04530 0.24515
# Poissons Ratio (z) = 0.02527 0.32280
#
# Static dielectric constant tensor:
#      x y z
#    x 3.969490 0.000000 0.000000 
#    y 0.000000 4.736200 0.000000 
#    z 0.000000 0.000000 3.884860 
# 
# 
# High freq. dielectric constant tensor:
#      x y z
#    x 1.902370 0.000000 0.000000 
#    y 0.000000 1.922520 0.000000 
#    z 0.000000 0.000000 1.872950 
# 
# From -- ./inp_files/20600.got.cif
#   From: 2010.03.12/outbox.cif.g09.slc.cpg/sg55_11_cif.got.tgz:20600.got - 2010.04.16 15:19:21.
