data_PCOD8227464
_publ_section_title
;
Structure prediction by ZEFSAII (Michael W. Deem and Ramdas Pophale) SiO2 
 PCOD8227464
Probable space group: P B A M
;
_chemical_formula_sum "Si O2"
_cell_formula_units_Z 56
_cell_length_a 14.475207
_cell_length_b 21.445300
_cell_length_c 8.881146
_cell_angle_alpha 90.000000
_cell_angle_beta 90.000000
_cell_angle_gamma 90.000000
_cell_volume 2756.931139
_symmetry_space_group_name_H-M "P B A M"
_symmetry_group_IT_number 55
_symmetry_cell_setting 'orthorhombic'
loop_
_space_group_symop_operation_xyz
x,y,z
-x,-y,z
1/2+x,1/2-y,-z
1/2-x,1/2+y,-z
-x,-y,-z
x,y,-z
1/2-x,1/2+y,z
1/2+x,1/2-y,z
loop_
_atom_site_type_symbol
_atom_site_label
_atom_site_fract_x
_atom_site_fract_y
_atom_site_fract_z
Si Si1 0.725010 0.523864 0.323162
Si Si2 0.584576 0.043398 0.177580
Si Si3 0.623749 0.756843 0.175289
Si Si4 0.590307 0.615288 0.175675
Si Si5 0.402814 0.591803 0.324744
Si Si6 0.534774 0.172217 0.674812
Si Si7 0.315044 0.722861 0.326209
O O1 0.737945 0.531425 0.500000
O O2 0.824349 0.513668 0.249518
O O3 0.677948 0.586300 0.260490
O O4 0.663765 0.464437 0.279741
O O5 0.569507 0.112901 0.235039
O O6 0.500000 0.000000 0.228003
O O7 0.596638 0.045014 0.000000
O O8 0.586466 0.688247 0.214732
O O9 0.566074 0.807513 0.268500
O O10 0.730098 0.761182 0.219867
O O11 0.612742 0.771846 0.000000
O O12 0.496589 0.583161 0.231906
O O13 0.603087 0.602939 0.000000
O O14 0.429428 0.590724 0.500000
O O15 0.352189 0.655307 0.279865
O O16 0.528473 0.155141 0.500000
O O17 0.605258 0.227814 0.707258
O O18 0.283713 0.724632 0.500000
#
# Coordination Sequence:
#
# PCOD8227464 Si02
#       7
#     8   8   8   8   8   8   8
#     4  11  24  41  65  93 125 169 214 262 313 371
#     4  11  26  46  66  92 129 168 209 262 318 376
#     4  11  24  39  61  93 128 166 206 256 317 377
#     4  11  23  40  63  94 130 170 210 258 317 379
#     4  10  22  41  63  92 127 163 210 265 315 374
#     4  11  23  42  69  95 124 165 211 261 310 371
#     4  10  22  40  63  93 125 164 211 261 316 372
#
# _framework density 20.312441
#
# number of rings (size 3 to 8) (size 9 to 14) (size 15 to 20)
#    0.000    1.286    1.429    3.429    2.000    9.714 
#    0.000    0.000    0.000    0.000    0.000    0.000 
#    0.000    0.000    0.000    0.000    0.000    0.000 
#
# Total GULP energy -694877.097230 kJ/mol
# GULP energy per Si atom -12408.519593 kJ/mol
# Density = 2.026621 g / cm^3
# Si number density = 20.312441 Si / 1000 Ang^3
#
#
#
# Elastic Constant Matrix: (Units=GPa)
#
#
# Indices 1 2 3 4 5 6 
#
# 1 119.7672 22.5331 54.0063 0.0000 0.0000 0.0000
# 2 22.5331 72.0582 33.3475 0.0000 0.0000 0.0000
# 3 54.0063 33.3475 60.2890 0.0000 0.0000 0.0000
# 4 0.0000 0.0000 0.0000 30.0991 0.0000 0.0000
# 5 0.0000 0.0000 0.0000 0.0000 32.7672 0.0000
# 6 0.0000 0.0000 0.0000 0.0000 0.0000 32.0647
#
#
#
# Elastic Compliance Matrix: (Units=1/GPa)
#
#
# Indices 1 2 3 4 5 6 
#
# 1 0.014208 0.001945 -0.013803 0.000000 0.000000 0.000000
# 2 0.001945 0.018919 -0.012207 0.000000 0.000000 0.000000
# 3 -0.013803 -0.012207 0.035703 0.000000 0.000000 0.000000
# 4 0.000000 0.000000 0.000000 0.033224 0.000000 0.000000
# 5 0.000000 0.000000 0.000000 0.000000 0.030518 0.000000
# 6 0.000000 0.000000 0.000000 0.000000 0.000000 0.031187
#
#
# Mechanical properties :
#
#
# Convention : Reuss Voigt Hill
#
# Bulk Modulus (GPa) = 48.30884 52.43202 50.37043
# Shear Modulus (GPa) = 22.85321 28.46803 25.66062
#
# Velocity S-wave (km/s) = 3.35787 3.74773 3.55814
# Velocity P-wave (km/s) = 6.23444 6.67803 6.46004
#
# Compressibility (1/GPa) = 0.02070015
#
# Stress axis : x y z
#
# Youngs Moduli (GPa) = 70.38409 52.85823 28.00874
#
# Poissons Ratio (x) = -0.10281 0.38660
# Poissons Ratio (y) = -0.13689 0.34189
# Poissons Ratio (z) = 0.97151 0.64522
#
# Static dielectric constant tensor:
#      x y z
#    x 3.726780 0.000000 0.000000 
#    y 0.000000 3.776130 0.000000 
#    z 0.000000 0.000000 3.674470 
# 
# 
# High freq. dielectric constant tensor:
#      x y z
#    x 1.806040 0.000000 0.000000 
#    y 0.000000 1.803660 0.000000 
#    z 0.000000 0.000000 1.799010 
# 
# From -- ./inp_files/6137.got.cif
#   From: 2010.03.12/outbox.cif.g09.slc.cpg/sg55_4_cif.got.tgz:6137.got - 2010.04.16 15:19:21.
