data_PCOD8227044
_publ_section_title
;
Structure prediction by ZEFSAII (Michael W. Deem and Ramdas Pophale) SiO2 
 PCOD8227044
Probable space group: P B A M
;
_chemical_formula_sum "Si O2"
_cell_formula_units_Z 48
_cell_length_a 20.403771
_cell_length_b 14.787432
_cell_length_c 7.646989
_cell_angle_alpha 90.000000
_cell_angle_beta 90.000000
_cell_angle_gamma 90.000000
_cell_volume 2307.244751
_symmetry_space_group_name_H-M "P B A M"
_symmetry_group_IT_number 55
_symmetry_cell_setting 'orthorhombic'
loop_
_space_group_symop_operation_xyz
x,y,z
-x,-y,z
1/2+x,1/2-y,-z
1/2-x,1/2+y,-z
-x,-y,-z
x,y,-z
1/2-x,1/2+y,z
1/2+x,1/2-y,z
loop_
_atom_site_type_symbol
_atom_site_label
_atom_site_fract_x
_atom_site_fract_y
_atom_site_fract_z
Si Si1 0.930139 0.967129 0.292779
Si Si2 0.593145 0.261229 0.701405
Si Si3 0.195771 0.573172 0.304457
Si Si4 0.598786 0.953722 0.000000
Si Si5 0.803241 0.069926 0.293011
Si Si6 0.738594 0.250650 0.199215
Si Si7 0.960832 0.642224 0.000000
O O1 0.931218 0.972655 0.500000
O O2 0.914361 0.864788 0.235429
O O3 0.873035 0.033288 0.221225
O O4 0.000000 0.000000 0.215135
O O5 0.570749 0.248792 0.500000
O O6 0.667704 0.227285 0.721321
O O7 0.547175 0.200991 0.824628
O O8 0.170966 0.549528 0.500000
O O9 0.134979 0.576905 0.175070
O O10 0.247396 0.499985 0.235092
O O11 0.230878 0.669770 0.313253
O O12 0.531735 0.900323 0.000000
O O13 0.592177 0.061836 0.000000
O O14 0.805270 0.080514 0.500000
O O15 0.787082 0.165372 0.206177
O O16 0.730751 0.282632 0.000000
#
# Coordination Sequence:
#
# PCOD8227044 Si02
#       7
#     8   8   8   4   8   8   4
#     4   9  19  38  64  94 130 171 215 266 324 392
#     4  11  22  42  68  95 131 177 221 266 330 402
#     4  11  23  42  66  93 129 171 216 273 332 387
#     4  11  26  45  64  94 131 165 219 281 328 383
#     4  10  21  37  62  96 129 165 217 269 325 393
#     4  12  23  38  65  97 133 171 216 273 327 384
#     4  11  26  45  65  94 130 169 220 273 324 401
#
# _framework density 20.804034000000001
#
# number of rings (size 3 to 8) (size 9 to 14) (size 15 to 20)
#    0.000    1.333    3.333    2.500    1.167    4.000 
#    1.500    3.750    0.000    0.000    0.000    0.000 
#    0.000    0.000    0.000    0.000    0.000    0.000 
#
# Total GULP energy -595393.917613 kJ/mol
# GULP energy per Si atom -12404.039950 kJ/mol
# Density = 2.075668 g / cm^3
# Si number density = 20.804034 Si / 1000 Ang^3
#
#
#
# Elastic Constant Matrix: (Units=GPa)
#
#
# Indices 1 2 3 4 5 6 
#
# 1 88.4107 15.2424 24.1792 0.0000 0.0000 0.0000
# 2 15.2424 71.4127 9.2777 0.0000 0.0000 0.0000
# 3 24.1792 9.2777 89.9939 0.0000 0.0000 0.0000
# 4 0.0000 0.0000 0.0000 31.6456 0.0000 0.0000
# 5 0.0000 0.0000 0.0000 0.0000 21.3049 0.0000
# 6 0.0000 0.0000 0.0000 0.0000 0.0000 36.8389
#
#
#
# Elastic Compliance Matrix: (Units=1/GPa)
#
#
# Indices 1 2 3 4 5 6 
#
# 1 0.012562 -0.002273 -0.003141 0.000000 0.000000 0.000000
# 2 -0.002273 0.014605 -0.000895 0.000000 0.000000 0.000000
# 3 -0.003141 -0.000895 0.012048 0.000000 0.000000 0.000000
# 4 0.000000 0.000000 0.000000 0.031600 0.000000 0.000000
# 5 0.000000 0.000000 0.000000 0.000000 0.046938 0.000000
# 6 0.000000 0.000000 0.000000 0.000000 0.000000 0.027145
#
#
# Mechanical properties :
#
#
# Convention : Reuss Voigt Hill
#
# Bulk Modulus (GPa) = 37.59857 38.57955 38.08906
# Shear Modulus (GPa) = 30.05169 31.36574 30.70871
#
# Velocity S-wave (km/s) = 3.80480 3.88709 3.84617
# Velocity P-wave (km/s) = 6.11669 6.22338 6.17027
#
# Compressibility (1/GPa) = 0.02659676
#
# Stress axis : x y z
#
# Youngs Moduli (GPa) = 79.60714 68.47181 83.00170
#
# Poissons Ratio (x) = 0.15565 0.26068
# Poissons Ratio (y) = 0.18096 0.07428
# Poissons Ratio (z) = 0.25002 0.06127
#
# Static dielectric constant tensor:
#      x y z
#    x 3.800620 0.000000 0.000000 
#    y 0.000000 3.856120 0.000000 
#    z 0.000000 0.000000 3.672120 
# 
# 
# High freq. dielectric constant tensor:
#      x y z
#    x 1.807210 0.000000 0.000000 
#    y 0.000000 1.822200 0.000000 
#    z 0.000000 0.000000 1.814600 
# 
# From -- ./inp_files/7469.got.cif
#   From: 2010.03.12/outbox.cif.g09.slc.cpg/sg55_4_cif.got.tgz:7469.got - 2010.04.16 15:19:21.
