data_PCOD8227348
_publ_section_title
;
Structure prediction by ZEFSAII (Michael W. Deem and Ramdas Pophale) SiO2 
 PCOD8227348
Probable space group: P B A M
;
_chemical_formula_sum "Si O2"
_cell_formula_units_Z 48
_cell_length_a 16.671539
_cell_length_b 5.212226
_cell_length_c 26.694149
_cell_angle_alpha 90.000000
_cell_angle_beta 90.000000
_cell_angle_gamma 90.000000
_cell_volume 2319.610208
_symmetry_space_group_name_H-M "P B A M"
_symmetry_group_IT_number 55
_symmetry_cell_setting 'orthorhombic'
loop_
_space_group_symop_operation_xyz
x,y,z
-x,-y,z
1/2+x,1/2-y,-z
1/2-x,1/2+y,-z
-x,-y,-z
x,y,-z
1/2-x,1/2+y,z
1/2+x,1/2-y,z
loop_
_atom_site_type_symbol
_atom_site_label
_atom_site_fract_x
_atom_site_fract_y
_atom_site_fract_z
Si Si1 0.576431 0.362020 0.759970
Si Si2 0.000000 0.500000 0.320445
Si Si3 0.698703 0.511081 0.313671
Si Si4 0.304274 0.831285 0.838698
Si Si5 0.300565 0.754402 0.053356
Si Si6 0.446101 0.250627 0.500000
Si Si7 0.582779 0.655654 0.392884
O O1 0.500000 0.500000 0.786395
O O2 0.637542 0.559294 0.732979
O O3 0.622004 0.186565 0.800292
O O4 0.542116 0.208516 0.713301
O O5 0.070448 0.603306 0.356316
O O6 0.736280 0.231321 0.307637
O O7 0.656572 0.502999 0.368388
O O8 0.239535 0.603430 0.831026
O O9 0.346130 0.808308 0.894166
O O10 0.272091 0.459532 0.053852
O O11 0.348624 0.795746 0.000000
O O12 0.500000 0.500000 0.500000
O O13 0.392838 0.254145 0.449163
O O14 0.500000 0.000000 0.500000
O O15 0.500000 0.500000 0.394372
#
# Coordination Sequence:
#
# PCOD8227348 Si02
#       7
#     8   4   8   8   8   4   8
#     4  12  25  38  59  86 118 163 201 249 296 362
#     4  12  20  39  66  82 123 152 212 240 296 348
#     4  12  25  40  61  88 120 157 195 243 301 358
#     4  10  22  38  57  87 123 154 195 250 300 350
#     4   8  14  28  52  80 110 148 193 240 289 343
#     4  10  22  36  68  94 116 148 195 250 285 346
#     4  11  22  42  64  93 118 155 201 246 297 355
#
# _framework density 20.693131000000001
#
# number of rings (size 3 to 8) (size 9 to 14) (size 15 to 20)
#    0.000    1.333    4.167    2.000    2.333    0.000 
#    0.000    0.833    0.000    0.500    0.000    0.583 
#    0.000    0.000    0.000    0.000    0.000    0.000 
#
# Total GULP energy -594644.701856 kJ/mol
# GULP energy per Si atom -12388.431289 kJ/mol
# Density = 2.064603 g / cm^3
# Si number density = 20.693131 Si / 1000 Ang^3
#
#
#
# Elastic Constant Matrix: (Units=GPa)
#
#
# Indices 1 2 3 4 5 6 
#
# 1 59.4922 5.6580 21.9971 0.0000 0.0000 0.0000
# 2 5.6580 77.5295 -4.8247 0.0000 0.0000 0.0000
# 3 21.9971 -4.8247 129.6696 0.0000 0.0000 0.0000
# 4 0.0000 0.0000 0.0000 6.3882 0.0000 0.0000
# 5 0.0000 0.0000 0.0000 0.0000 9.1695 0.0000
# 6 0.0000 0.0000 0.0000 0.0000 0.0000 19.9134
#
#
#
# Elastic Compliance Matrix: (Units=1/GPa)
#
#
# Indices 1 2 3 4 5 6 
#
# 1 0.018110 -0.001516 -0.003129 0.000000 0.000000 0.000000
# 2 -0.001516 0.013055 0.000743 0.000000 0.000000 0.000000
# 3 -0.003129 0.000743 0.008270 0.000000 0.000000 0.000000
# 4 0.000000 0.000000 0.000000 0.156539 0.000000 0.000000
# 5 0.000000 0.000000 0.000000 0.000000 0.109057 0.000000
# 6 0.000000 0.000000 0.000000 0.000000 0.000000 0.050218
#
#
# Mechanical properties :
#
#
# Convention : Reuss Voigt Hill
#
# Bulk Modulus (GPa) = 31.61399 34.70579 33.15989
# Shear Modulus (GPa) = 13.38343 23.35162 18.36753
#
# Velocity S-wave (km/s) = 2.54590 3.36292 2.98252
# Velocity P-wave (km/s) = 4.89416 5.64686 5.28393
#
# Compressibility (1/GPa) = 0.03163157
#
# Stress axis : x y z
#
# Youngs Moduli (GPa) = 55.21842 76.59782 120.91493
#
# Poissons Ratio (x) = 0.11615 0.37829
# Poissons Ratio (y) = 0.08373 -0.08984
# Poissons Ratio (z) = 0.17275 -0.05691
#
# Static dielectric constant tensor:
#      x y z
#    x 3.871260 0.000000 0.000000 
#    y 0.000000 3.845490 0.000000 
#    z 0.000000 0.000000 4.630860 
# 
# 
# High freq. dielectric constant tensor:
#      x y z
#    x 1.753180 0.000000 0.000000 
#    y 0.000000 1.822660 0.000000 
#    z 0.000000 0.000000 1.833210 
# 
# From -- ./inp_files/23823.got.cif
#   From: 2010.03.12/outbox.cif.g09.slc.cpg/sg55_12_cif.got.tgz:23823.got - 2010.04.16 15:19:21.
