data_PCOD8227292
_publ_section_title
;
Structure prediction by ZEFSAII (Michael W. Deem and Ramdas Pophale) SiO2 
 PCOD8227292
Probable space group: P B A M
;
_chemical_formula_sum "Si O2"
_cell_formula_units_Z 28
_cell_length_a 7.751090
_cell_length_b 17.100517
_cell_length_c 9.169509
_cell_angle_alpha 90.000000
_cell_angle_beta 90.000000
_cell_angle_gamma 90.000000
_cell_volume 1215.396836
_symmetry_space_group_name_H-M "P B A M"
_symmetry_group_IT_number 55
_symmetry_cell_setting 'orthorhombic'
loop_
_space_group_symop_operation_xyz
x,y,z
-x,-y,z
1/2+x,1/2-y,-z
1/2-x,1/2+y,-z
-x,-y,-z
x,y,-z
1/2-x,1/2+y,z
1/2+x,1/2-y,z
loop_
_atom_site_type_symbol
_atom_site_label
_atom_site_fract_x
_atom_site_fract_y
_atom_site_fract_z
Si Si1 0.627108 0.162191 0.837762
Si Si2 0.958669 0.205663 0.672629
Si Si3 0.000000 0.500000 0.765040
Si Si4 0.140366 0.056740 0.664969
O O1 0.784457 0.163411 0.724538
O O2 0.479099 0.215153 0.764572
O O3 0.557313 0.074049 0.860309
O O4 0.675896 0.192700 0.000000
O O5 0.947630 0.224802 0.500000
O O6 0.115748 0.146848 0.717605
O O7 0.836144 0.472617 0.670567
O O8 0.078074 0.059993 0.500000
O O9 0.000000 0.000000 0.746893
#
# Coordination Sequence:
#
# PCOD8227292 Si02
#       4
#     8   8   4   8
#     4  12  26  45  68 100 142 186 234 290 354 422
#     4  11  24  45  71 102 139 183 238 293 352 421
#     4  12  24  42  70 100 141 192 235 280 353 422
#     4  10  21  40  67 102 138 175 228 292 348 406
#
# _framework density 23.037744
#
# number of rings (size 3 to 8) (size 9 to 14) (size 15 to 20)
#    0.000    0.857    2.857    4.286    0.000    5.714 
#    0.000    5.714    0.000    0.000    0.000    0.000 
#    0.000    0.000    0.000    0.000    0.000    0.000 
#
# Total GULP energy -346958.092932 kJ/mol
# GULP energy per Si atom -12391.360462 kJ/mol
# Density = 2.298531 g / cm^3
# Si number density = 23.037744 Si / 1000 Ang^3
#
#
#
# Elastic Constant Matrix: (Units=GPa)
#
#
# Indices 1 2 3 4 5 6 
#
# 1 123.4261 44.3514 15.4617 0.0000 0.0000 0.0000
# 2 44.3514 142.6972 52.2013 0.0000 0.0000 0.0000
# 3 15.4617 52.2013 112.3708 0.0000 0.0000 0.0000
# 4 0.0000 0.0000 0.0000 17.3273 0.0000 0.0000
# 5 0.0000 0.0000 0.0000 0.0000 21.8705 0.0000
# 6 0.0000 0.0000 0.0000 0.0000 0.0000 44.1833
#
#
#
# Elastic Compliance Matrix: (Units=1/GPa)
#
#
# Indices 1 2 3 4 5 6 
#
# 1 0.009121 -0.002862 0.000075 0.000000 0.000000 0.000000
# 2 -0.002862 0.009341 -0.003945 0.000000 0.000000 0.000000
# 3 0.000075 -0.003945 0.010722 0.000000 0.000000 0.000000
# 4 0.000000 0.000000 0.000000 0.057712 0.000000 0.000000
# 5 0.000000 0.000000 0.000000 0.000000 0.045724 0.000000
# 6 0.000000 0.000000 0.000000 0.000000 0.000000 0.022633
#
#
# Mechanical properties :
#
#
# Convention : Reuss Voigt Hill
#
# Bulk Modulus (GPa) = 63.62303 66.94699 65.28501
# Shear Modulus (GPa) = 28.74261 34.44155 31.59208
#
# Velocity S-wave (km/s) = 3.53601 3.87072 3.70715
# Velocity P-wave (km/s) = 6.65943 7.00710 6.83548
#
# Compressibility (1/GPa) = 0.01571758
#
# Stress axis : x y z
#
# Youngs Moduli (GPa) = 109.63511 107.05801 93.26927
#
# Poissons Ratio (x) = 0.30642 -0.00696
# Poissons Ratio (y) = 0.31380 0.36798
# Poissons Ratio (z) = -0.00818 0.42238
#
# Static dielectric constant tensor:
#      x y z
#    x 3.981420 0.000000 0.000000 
#    y 0.000000 4.595470 0.000000 
#    z 0.000000 0.000000 3.630640 
# 
# 
# High freq. dielectric constant tensor:
#      x y z
#    x 1.914050 0.000000 0.000000 
#    y 0.000000 1.933510 0.000000 
#    z 0.000000 0.000000 1.877300 
# 
# From -- ./inp_files/1819.got.cif
#   From: 2010.03.12/outbox.cif.g09.slc.cpg/sg55_1_cif.got.tgz:1819.got - 2010.04.16 15:19:21.
