data_PCOD8227447
_publ_section_title
;
Structure prediction by ZEFSAII (Michael W. Deem and Ramdas Pophale) SiO2 
 PCOD8227447
Probable space group: P B A M
;
_chemical_formula_sum "Si O2"
_cell_formula_units_Z 48
_cell_length_a 13.818658
_cell_length_b 9.507526
_cell_length_c 17.823417
_cell_angle_alpha 90.000000
_cell_angle_beta 90.000000
_cell_angle_gamma 90.000000
_cell_volume 2341.662809
_symmetry_space_group_name_H-M "P B A M"
_symmetry_group_IT_number 55
_symmetry_cell_setting 'orthorhombic'
loop_
_space_group_symop_operation_xyz
x,y,z
-x,-y,z
1/2+x,1/2-y,-z
1/2-x,1/2+y,-z
-x,-y,-z
x,y,-z
1/2-x,1/2+y,z
1/2+x,1/2-y,z
loop_
_atom_site_type_symbol
_atom_site_label
_atom_site_fract_x
_atom_site_fract_y
_atom_site_fract_z
Si Si1 0.254790 0.507549 0.123032
Si Si2 0.903888 0.909456 0.000000
Si Si3 0.620265 0.337390 0.500000
Si Si4 0.893351 0.336702 0.360056
Si Si5 0.732539 0.738632 0.768045
Si Si6 0.609857 0.656595 0.500000
Si Si7 0.101375 0.420338 0.000000
Si Si8 0.877616 0.658159 0.642947
O O1 0.229100 0.633195 0.176302
O O2 0.290977 0.389438 0.178695
O O3 0.344685 0.550029 0.072960
O O4 0.162111 0.460809 0.074017
O O5 0.924650 0.743812 0.000000
O O6 0.000000 0.000000 0.000000
O O7 0.656319 0.499808 0.500000
O O8 0.505292 0.344833 0.500000
O O9 0.658649 0.253095 0.426969
O O10 0.856907 0.257624 0.286913
O O11 0.853663 0.243977 0.428638
O O12 0.849602 0.494140 0.368575
O O13 0.007755 0.334861 0.352192
O O14 0.831187 0.718277 0.719756
O O15 0.000000 0.500000 0.000000
#
# Coordination Sequence:
#
# PCOD8227447 Si02
#       8
#     8   4   4   8   8   4   4   8
#     4  11  26  46  66  95 139 164 208 263 315 382
#     4  11  26  46  73 103 127 169 215 253 314 382
#     4   9  19  36  59  88 124 160 216 276 311 367
#     4  10  22  40  63  87 123 172 217 261 319 379
#     4  12  24  42  64  96 132 169 204 267 322 376
#     4   9  19  36  59  88 122 164 216 270 317 365
#     4  11  26  46  75  99 127 173 213 253 314 384
#     4  10  22  40  62  89 123 169 219 262 318 379
#
# _framework density 20.498253999999999
#
# number of rings (size 3 to 8) (size 9 to 14) (size 15 to 20)
#    0.000    1.500    3.333    0.500    4.667    5.333 
#    0.000    0.000    0.000    0.000    0.000    0.000 
#    0.000    0.000    0.000    0.000    0.000    0.000 
#
# Total GULP energy -595131.462672 kJ/mol
# GULP energy per Si atom -12398.572139 kJ/mol
# Density = 2.045160 g / cm^3
# Si number density = 20.498254 Si / 1000 Ang^3
#
#
#
# Elastic Constant Matrix: (Units=GPa)
#
#
# Indices 1 2 3 4 5 6 
#
# 1 71.8601 44.5329 36.2016 0.0000 0.0000 0.0000
# 2 44.5329 187.3793 85.4301 0.0000 0.0000 0.0000
# 3 36.2016 85.4301 163.3332 0.0000 0.0000 0.0000
# 4 0.0000 0.0000 0.0000 17.4096 0.0000 0.0000
# 5 0.0000 0.0000 0.0000 0.0000 23.2464 0.0000
# 6 0.0000 0.0000 0.0000 0.0000 0.0000 29.9265
#
#
#
# Elastic Compliance Matrix: (Units=1/GPa)
#
#
# Indices 1 2 3 4 5 6 
#
# 1 0.016879 -0.003028 -0.002157 0.000000 0.000000 0.000000
# 2 -0.003028 0.007551 -0.003278 0.000000 0.000000 0.000000
# 3 -0.002157 -0.003278 0.008315 0.000000 0.000000 0.000000
# 4 0.000000 0.000000 0.000000 0.057440 0.000000 0.000000
# 5 0.000000 0.000000 0.000000 0.000000 0.043017 0.000000
# 6 0.000000 0.000000 0.000000 0.000000 0.000000 0.033415
#
#
# Mechanical properties :
#
#
# Convention : Reuss Voigt Hill
#
# Bulk Modulus (GPa) = 63.21841 83.87796 73.54818
# Shear Modulus (GPa) = 26.48048 31.21035 28.84542
#
# Velocity S-wave (km/s) = 3.59812 3.90627 3.75535
# Velocity P-wave (km/s) = 6.94044 7.83285 7.40011
#
# Compressibility (1/GPa) = 0.01581818
#
# Stress axis : x y z
#
# Youngs Moduli (GPa) = 59.24427 132.43109 120.25910
#
# Poissons Ratio (x) = 0.40099 0.25945
# Poissons Ratio (y) = 0.17939 0.39426
# Poissons Ratio (z) = 0.12781 0.43416
#
# Static dielectric constant tensor:
#      x y z
#    x 3.489460 0.000000 0.000000 
#    y 0.000000 4.339670 0.000000 
#    z 0.000000 0.000000 3.885680 
# 
# 
# High freq. dielectric constant tensor:
#      x y z
#    x 1.798070 0.000000 0.000000 
#    y 0.000000 1.822350 0.000000 
#    z 0.000000 0.000000 1.815650 
# 
# From -- ./inp_files/20861.got.cif
#   From: 2010.03.12/outbox.cif.g09.slc.cpg/sg55_11_cif.got.tgz:20861.got - 2010.04.16 15:19:21.
