data_PCOD8227356
_publ_section_title
;
Structure prediction by ZEFSAII (Michael W. Deem and Ramdas Pophale) SiO2 
 PCOD8227356
Probable space group: P B A M
;
_chemical_formula_sum "Si O2"
_cell_formula_units_Z 64
_cell_length_a 13.183055
_cell_length_b 13.860669
_cell_length_c 17.802556
_cell_angle_alpha 90.000000
_cell_angle_beta 90.000000
_cell_angle_gamma 90.000000
_cell_volume 3252.989167
_symmetry_space_group_name_H-M "P B A M"
_symmetry_group_IT_number 55
_symmetry_cell_setting 'orthorhombic'
loop_
_space_group_symop_operation_xyz
x,y,z
-x,-y,z
1/2+x,1/2-y,-z
1/2-x,1/2+y,-z
-x,-y,-z
x,y,-z
1/2-x,1/2+y,z
1/2+x,1/2-y,z
loop_
_atom_site_type_symbol
_atom_site_label
_atom_site_fract_x
_atom_site_fract_y
_atom_site_fract_z
Si Si1 0.597361 0.713092 0.587631
Si Si2 0.055988 0.907808 0.911458
Si Si3 0.594925 0.937081 0.184745
Si Si4 0.471880 0.792574 0.086750
Si Si5 0.286874 0.904327 0.586198
Si Si6 0.216136 0.415126 0.912486
Si Si7 0.186811 0.605116 0.660449
Si Si8 0.871705 0.800136 0.586121
O O1 0.616783 0.728919 0.500000
O O2 0.677956 0.633907 0.617386
O O3 0.610009 0.818906 0.623271
O O4 0.486665 0.670828 0.605034
O O5 0.170938 0.894405 0.880903
O O6 0.985298 0.818088 0.889710
O O7 0.063479 0.920751 0.000000
O O8 0.000000 0.000000 0.874962
O O9 0.551338 0.850723 0.135926
O O10 0.663042 0.894875 0.251547
O O11 0.500000 0.000000 0.215505
O O12 0.669297 0.995778 0.131330
O O13 0.354859 0.821535 0.101781
O O14 0.500901 0.810369 0.000000
O O15 0.277967 0.936619 0.500000
O O16 0.363996 0.815256 0.596969
O O17 0.328162 0.995819 0.631666
O O18 0.217860 0.442726 0.000000
O O19 0.301286 0.640073 0.642891
O O20 0.842894 0.827156 0.500000
#
# Coordination Sequence:
#
# PCOD8227356 Si02
#       8
#     8   8   8   8   8   8   8   8
#     4   9  19  36  57  82 110 145 188 230 276 330
#     4   9  18  33  57  89 117 139 177 235 288 334
#     4  10  22  37  54  83 111 149 191 234 285 345
#     4   9  18  36  59  83 109 148 196 236 280 336
#     4   9  18  33  56  82 108 141 181 226 272 327
#     4   9  18  36  60  83 112 149 191 239 284 334
#     4  11  21  35  55  81 113 144 182 230 285 332
#     4   9  19  36  57  83 111 144 186 229 275 331
#
# _framework density 19.674212000000001
#
# number of rings (size 3 to 8) (size 9 to 14) (size 15 to 20)
#    0.000    2.625    0.000    2.250    1.750    3.000 
#    4.500    8.750    0.000    0.000    0.000    0.000 
#    0.000    0.000    0.000    0.000    0.000    0.000 
#
# Total GULP energy -793390.045628 kJ/mol
# GULP energy per Si atom -12396.719463 kJ/mol
# Density = 1.962943 g / cm^3
# Si number density = 19.674212 Si / 1000 Ang^3
#
#
#
# Elastic Constant Matrix: (Units=GPa)
#
#
# Indices 1 2 3 4 5 6 
#
# 1 130.5936 43.5286 40.4500 0.0000 0.0000 0.0000
# 2 43.5286 114.8668 43.0325 0.0000 0.0000 0.0000
# 3 40.4500 43.0325 65.8446 0.0000 0.0000 0.0000
# 4 0.0000 0.0000 0.0000 85.2710 0.0000 0.0000
# 5 0.0000 0.0000 0.0000 0.0000 -20.5394 0.0000
# 6 0.0000 0.0000 0.0000 0.0000 0.0000 22.7794
#
#
#
# Elastic Compliance Matrix: (Units=1/GPa)
#
#
# Indices 1 2 3 4 5 6 
#
# 1 0.009768 -0.001925 -0.004743 0.000000 0.000000 0.000000
# 2 -0.001925 0.011908 -0.006600 0.000000 0.000000 0.000000
# 3 -0.004743 -0.006600 0.022414 0.000000 0.000000 0.000000
# 4 0.000000 0.000000 0.000000 0.011727 0.000000 0.000000
# 5 0.000000 0.000000 0.000000 0.000000 -0.048687 0.000000
# 6 0.000000 0.000000 0.000000 0.000000 0.000000 0.043899
#
#
# Mechanical properties :
#
#
# Convention : Reuss Voigt Hill
#
# Bulk Modulus (GPa) = 56.96352 62.81416 59.88884
# Shear Modulus (GPa) = 59.94101 29.78846 44.86473
#
# Velocity S-wave (km/s) = 5.52566 3.89535 4.78052
# Velocity P-wave (km/s) = 8.35026 7.22690 7.80881
#
# Compressibility (1/GPa) = 0.01755509
#
# Stress axis : x y z
#
# Youngs Moduli (GPa) = 102.37599 83.98016 44.61479
#
# Poissons Ratio (x) = 0.16164 0.21160
# Poissons Ratio (y) = 0.19705 0.29445
# Poissons Ratio (z) = 0.48554 0.55425
#
# Static dielectric constant tensor:
#      x y z
#    x 3.758590 0.000000 0.000000 
#    y 0.000000 3.550510 0.000000 
#    z 0.000000 0.000000 3.270210 
# 
# 
# High freq. dielectric constant tensor:
#      x y z
#    x 1.774500 0.000000 0.000000 
#    y 0.000000 1.765000 0.000000 
#    z 0.000000 0.000000 1.735320 
# 
# From -- ./inp_files/21635.got.cif
#   From: 2010.03.12/outbox.cif.g09.slc.cpg/sg55_11_cif.got.tgz:21635.got - 2010.04.16 15:19:21.
