data_PCOD8227149
_publ_section_title
;
Structure prediction by ZEFSAII (Michael W. Deem and Ramdas Pophale) SiO2 
 PCOD8227149
Probable space group: P B A M
;
_chemical_formula_sum "Si O2"
_cell_formula_units_Z 64
_cell_length_a 13.805283
_cell_length_b 12.729970
_cell_length_c 17.012003
_cell_angle_alpha 90.000000
_cell_angle_beta 90.000000
_cell_angle_gamma 90.000000
_cell_volume 2989.703671
_symmetry_space_group_name_H-M "P B A M"
_symmetry_group_IT_number 55
_symmetry_cell_setting 'orthorhombic'
loop_
_space_group_symop_operation_xyz
x,y,z
-x,-y,z
1/2+x,1/2-y,-z
1/2-x,1/2+y,-z
-x,-y,-z
x,y,-z
1/2-x,1/2+y,z
1/2+x,1/2-y,z
loop_
_atom_site_type_symbol
_atom_site_label
_atom_site_fract_x
_atom_site_fract_y
_atom_site_fract_z
Si Si1 0.613329 0.754976 0.839786
Si Si2 0.914355 0.802058 0.089445
Si Si3 0.228842 0.571149 0.910585
Si Si4 0.613911 0.207871 0.339193
Si Si5 0.697188 0.137055 0.827563
Si Si6 0.205674 0.475840 0.587448
Si Si7 0.936274 0.405156 0.700372
Si Si8 0.590396 0.431813 0.590159
O O1 0.512399 0.697612 0.859373
O O2 0.689444 0.663421 0.821803
O O3 0.607207 0.828791 0.764539
O O4 0.655415 0.829639 0.908808
O O5 0.857223 0.692882 0.100164
O O6 0.838745 0.894433 0.113277
O O7 0.946769 0.814502 0.000000
O O8 0.191743 0.486913 0.846066
O O9 0.228694 0.527097 0.000000
O O10 0.642391 0.176927 0.250104
O O11 0.687400 0.148051 0.397443
O O12 0.506483 0.163018 0.355858
O O13 0.612172 0.331810 0.354610
O O14 0.171276 0.506140 0.500000
O O15 0.150552 0.549064 0.648996
O O16 0.319460 0.490723 0.597305
O O17 0.000000 0.500000 0.738509
O O18 0.500000 0.500000 0.621482
O O19 0.573148 0.394794 0.500000
#
# Coordination Sequence:
#
# PCOD8227149 Si02
#       8
#     8   8   8   8   8   8   8   8
#     4  11  22  39  62  89 123 163 210 263 319 385
#     4  10  22  40  61  90 123 159 210 264 319 385
#     4  10  22  39  62  91 124 165 208 263 325 384
#     4  11  22  40  64  91 128 172 208 266 320 380
#     4  11  23  40  61  90 127 164 210 262 318 383
#     4  10  22  40  63  94 127 166 213 263 315 378
#     4  10  21  38  63  91 124 159 210 264 319 381
#     4  10  23  42  64  95 133 171 216 261 311 380
#
# _framework density 21.406804999999999
#
# number of rings (size 3 to 8) (size 9 to 14) (size 15 to 20)
#    0.000    1.625    1.250    3.375    0.000    7.750 
#    0.000    5.000    0.000    0.000    0.000    0.000 
#    0.000    0.000    0.000    0.000    0.000    0.000 
#
# Total GULP energy -793378.134044 kJ/mol
# GULP energy per Si atom -12396.533344 kJ/mol
# Density = 2.135808 g / cm^3
# Si number density = 21.406805 Si / 1000 Ang^3
#
#
#
# Elastic Constant Matrix: (Units=GPa)
#
#
# Indices 1 2 3 4 5 6 
#
# 1 112.7622 33.1400 28.4813 0.0000 0.0000 0.0000
# 2 33.1400 100.1414 31.7623 0.0000 0.0000 0.0000
# 3 28.4813 31.7623 83.7701 0.0000 0.0000 0.0000
# 4 0.0000 0.0000 0.0000 29.9534 0.0000 0.0000
# 5 0.0000 0.0000 0.0000 0.0000 26.3033 0.0000
# 6 0.0000 0.0000 0.0000 0.0000 0.0000 30.2433
#
#
#
# Elastic Compliance Matrix: (Units=1/GPa)
#
#
# Indices 1 2 3 4 5 6 
#
# 1 0.010266 -0.002603 -0.002503 0.000000 0.000000 0.000000
# 2 -0.002603 0.012011 -0.003669 0.000000 0.000000 0.000000
# 3 -0.002503 -0.003669 0.014180 0.000000 0.000000 0.000000
# 4 0.000000 0.000000 0.000000 0.033385 0.000000 0.000000
# 5 0.000000 0.000000 0.000000 0.000000 0.038018 0.000000
# 6 0.000000 0.000000 0.000000 0.000000 0.000000 0.033065
#
#
# Mechanical properties :
#
#
# Convention : Reuss Voigt Hill
#
# Bulk Modulus (GPa) = 52.89505 53.71566 53.30536
# Shear Modulus (GPa) = 30.34393 30.85265 30.59829
#
# Velocity S-wave (km/s) = 3.76904 3.80050 3.78481
# Velocity P-wave (km/s) = 6.61090 6.66376 6.63738
#
# Compressibility (1/GPa) = 0.01890536
#
# Stress axis : x y z
#
# Youngs Moduli (GPa) = 97.41327 83.25621 70.52353
#
# Poissons Ratio (x) = 0.21674 0.17653
# Poissons Ratio (y) = 0.25359 0.25875
# Poissons Ratio (z) = 0.24384 0.30547
#
# Static dielectric constant tensor:
#      x y z
#    x 4.038740 0.000000 0.000000 
#    y 0.000000 3.828130 0.000000 
#    z 0.000000 0.000000 3.764580 
# 
# 
# High freq. dielectric constant tensor:
#      x y z
#    x 1.853230 0.000000 0.000000 
#    y 0.000000 1.832200 0.000000 
#    z 0.000000 0.000000 1.831560 
# 
# From -- ./inp_files/21638.got.cif
#   From: 2010.03.12/outbox.cif.g09.slc.cpg/sg55_11_cif.got.tgz:21638.got - 2010.04.16 15:19:21.
