data_PCOD8227754
_publ_section_title
;
Structure prediction by ZEFSAII (Michael W. Deem and Ramdas Pophale) SiO2 
 PCOD8227754
Probable space group: P B A M
;
_chemical_formula_sum "Si O2"
_cell_formula_units_Z 48
_cell_length_a 8.663642
_cell_length_b 15.685516
_cell_length_c 16.607614
_cell_angle_alpha 90.000000
_cell_angle_beta 90.000000
_cell_angle_gamma 90.000000
_cell_volume 2256.870035
_symmetry_space_group_name_H-M "P B A M"
_symmetry_group_IT_number 55
_symmetry_cell_setting 'orthorhombic'
loop_
_space_group_symop_operation_xyz
x,y,z
-x,-y,z
1/2+x,1/2-y,-z
1/2-x,1/2+y,-z
-x,-y,-z
x,y,-z
1/2-x,1/2+y,z
1/2+x,1/2-y,z
loop_
_atom_site_type_symbol
_atom_site_label
_atom_site_fract_x
_atom_site_fract_y
_atom_site_fract_z
Si Si1 0.682433 0.338042 0.679917
Si Si2 0.675995 0.097550 0.837761
Si Si3 0.675993 0.902448 0.162239
Si Si4 0.682393 0.343701 0.000000
Si Si5 0.817608 0.156298 0.000000
Si Si6 0.175980 0.500001 0.595260
Si Si7 0.817569 0.161956 0.320082
O O1 0.737544 0.345747 0.772031
O O2 0.741110 0.415708 0.626481
O O3 0.500001 0.335412 0.676637
O O4 0.749999 0.249998 0.644104
O O5 0.500001 0.129444 0.846068
O O6 0.762460 0.154252 0.772032
O O7 0.682577 0.999999 0.808786
O O8 0.760571 0.105297 0.922531
O O9 0.760569 0.894700 0.077469
O O10 0.500000 0.339461 0.000000
O O11 0.749998 0.249999 0.000000
O O12 0.185059 0.499999 0.500000
O O13 0.258895 0.415712 0.626483
O O14 0.000000 0.500000 0.626528
#
# Coordination Sequence:
#
# PCOD8227754 Si02
#       7
#     8   8   8   4   4   8   8
#     4  12  25  43  70 101 137 178 225 274 331 397
#     4  11  23  41  65  92 129 172 220 273 332 393
#     4  11  23  41  65  92 129 172 220 273 332 393
#     4  12  25  40  59  87 127 169 223 277 329 390
#     4  12  25  40  59  87 127 169 223 277 329 390
#     4  11  25  47  73 102 137 174 217 273 335 399
#     4  12  25  43  70 101 137 178 225 274 331 397
#
# _framework density 21.268393
#
# number of rings (size 3 to 8) (size 9 to 14) (size 15 to 20)
#    0.000    0.500    1.667    7.500    0.000    6.000 
#    0.000    0.000    0.000    0.000    0.000    0.000 
#    0.000    0.000    0.000    0.000    0.000    0.000 
#
# Total GULP energy -595600.823283 kJ/mol
# GULP energy per Si atom -12408.350485 kJ/mol
# Density = 2.121999 g / cm^3
# Si number density = 21.268393 Si / 1000 Ang^3
#
#
#
# Elastic Constant Matrix: (Units=GPa)
#
#
# Indices 1 2 3 4 5 6 
#
# 1 233.9576 75.5156 52.6786 0.0000 0.0000 0.0000
# 2 75.5156 152.8981 38.1955 0.0000 0.0000 0.0000
# 3 52.6786 38.1955 85.8838 0.0000 0.0000 0.0000
# 4 0.0000 0.0000 0.0000 31.5060 0.0000 0.0000
# 5 0.0000 0.0000 0.0000 0.0000 36.3890 0.0000
# 6 0.0000 0.0000 0.0000 0.0000 0.0000 39.6634
#
#
#
# Elastic Compliance Matrix: (Units=1/GPa)
#
#
# Indices 1 2 3 4 5 6 
#
# 1 0.005504 -0.002109 -0.002438 0.000000 0.000000 0.000000
# 2 -0.002109 0.008166 -0.002338 0.000000 0.000000 0.000000
# 3 -0.002438 -0.002338 0.014179 0.000000 0.000000 0.000000
# 4 0.000000 0.000000 0.000000 0.031740 0.000000 0.000000
# 5 0.000000 0.000000 0.000000 0.000000 0.027481 0.000000
# 6 0.000000 0.000000 0.000000 0.000000 0.000000 0.025212
#
#
# Mechanical properties :
#
#
# Convention : Reuss Voigt Hill
#
# Bulk Modulus (GPa) = 71.03036 89.50208 80.26622
# Shear Modulus (GPa) = 38.24230 41.93501 40.08865
#
# Velocity S-wave (km/s) = 4.24498 4.44521 4.34625
# Velocity P-wave (km/s) = 7.58262 8.27768 7.93776
#
# Compressibility (1/GPa) = 0.01407849
#
# Stress axis : x y z
#
# Youngs Moduli (GPa) = 181.68369 122.45637 70.52812
#
# Poissons Ratio (x) = 0.25831 0.17194
# Poissons Ratio (y) = 0.38325 0.16489
# Poissons Ratio (z) = 0.44293 0.28629
#
# Static dielectric constant tensor:
#      x y z
#    x 4.065790 0.000000 0.000000 
#    y 0.000000 3.966620 0.000000 
#    z 0.000000 0.000000 3.876320 
# 
# 
# High freq. dielectric constant tensor:
#      x y z
#    x 1.853380 0.000000 0.000000 
#    y 0.000000 1.850780 0.000000 
#    z 0.000000 0.000000 1.834980 
# 
# From -- ./inp_files/20813.got.cif
#   From: 2010.03.12/outbox.cif.g09.slc.cpg/sg55_11_cif.got.tgz:20813.got - 2010.04.16 15:19:21.
