data_PCOD8227365
_publ_section_title
;
Structure prediction by ZEFSAII (Michael W. Deem and Ramdas Pophale) SiO2 
 PCOD8227365
Probable space group: P B A M
;
_chemical_formula_sum "Si O2"
_cell_formula_units_Z 40
_cell_length_a 10.626033
_cell_length_b 8.557066
_cell_length_c 17.465391
_cell_angle_alpha 90.000000
_cell_angle_beta 90.000000
_cell_angle_gamma 90.000000
_cell_volume 1588.087234
_symmetry_space_group_name_H-M "P B A M"
_symmetry_group_IT_number 55
_symmetry_cell_setting 'orthorhombic'
loop_
_space_group_symop_operation_xyz
x,y,z
-x,-y,z
1/2+x,1/2-y,-z
1/2-x,1/2+y,-z
-x,-y,-z
x,y,-z
1/2-x,1/2+y,z
1/2+x,1/2-y,z
loop_
_atom_site_type_symbol
_atom_site_label
_atom_site_fract_x
_atom_site_fract_y
_atom_site_fract_z
Si Si1 0.438354 0.325575 0.084513
Si Si2 0.588471 0.135459 0.794433
Si Si3 0.760478 0.447633 0.915649
Si Si4 0.870727 0.804900 0.357117
Si Si5 0.133306 0.859484 0.586755
O O1 0.522156 0.263991 0.153001
O O2 0.392594 0.512051 0.090134
O O3 0.301799 0.232485 0.092545
O O4 0.494887 0.287023 0.000000
O O5 0.686297 0.045358 0.846103
O O6 0.652951 0.233616 0.726856
O O7 0.500000 0.000000 0.759050
O O8 0.804196 0.508520 0.000000
O O9 0.759473 0.741608 0.410685
O O10 0.010069 0.758584 0.388168
O O11 0.857209 0.992321 0.356531
O O12 0.114060 0.918468 0.500000
#
# Coordination Sequence:
#
# PCOD8227365 Si02
#       5
#     8   8   8   8   8
#     4   9  18  35  57  82 120 172 223 273 328 389
#     4  10  22  37  58  91 131 170 221 276 335 395
#     4   9  18  34  57  81 116 169 222 267 321 385
#     4  11  26  43  74 105 139 176 225 282 345 411
#     4  11  25  50  74 103 137 177 225 277 342 427
#
# _framework density 25.187532000000001
#
# number of rings (size 3 to 8) (size 9 to 14) (size 15 to 20)
#    0.000    2.000    0.000    3.000    5.600    4.000 
#    3.600    2.000    0.000    4.800    0.000    0.000 
#    0.000    0.000    0.000    0.000    0.000    0.000 
#
# Total GULP energy -495657.059512 kJ/mol
# GULP energy per Si atom -12391.426488 kJ/mol
# Density = 2.513020 g / cm^3
# Si number density = 25.187532 Si / 1000 Ang^3
#
#
#
# Elastic Constant Matrix: (Units=GPa)
#
#
# Indices 1 2 3 4 5 6 
#
# 1 116.6917 33.9356 25.6297 0.0000 0.0000 0.0000
# 2 33.9356 96.2899 38.6133 0.0000 0.0000 0.0000
# 3 25.6297 38.6133 111.8836 0.0000 0.0000 0.0000
# 4 0.0000 0.0000 0.0000 48.7060 0.0000 0.0000
# 5 0.0000 0.0000 0.0000 0.0000 26.1712 0.0000
# 6 0.0000 0.0000 0.0000 0.0000 0.0000 44.9384
#
#
#
# Elastic Compliance Matrix: (Units=1/GPa)
#
#
# Indices 1 2 3 4 5 6 
#
# 1 0.009687 -0.002930 -0.001208 0.000000 0.000000 0.000000
# 2 -0.002930 0.012939 -0.003795 0.000000 0.000000 0.000000
# 3 -0.001208 -0.003795 0.010524 0.000000 0.000000 0.000000
# 4 0.000000 0.000000 0.000000 0.020531 0.000000 0.000000
# 5 0.000000 0.000000 0.000000 0.000000 0.038210 0.000000
# 6 0.000000 0.000000 0.000000 0.000000 0.000000 0.022253
#
#
# Mechanical properties :
#
#
# Convention : Reuss Voigt Hill
#
# Bulk Modulus (GPa) = 57.84937 57.91359 57.88148
# Shear Modulus (GPa) = 36.82677 39.07554 37.95115
#
# Velocity S-wave (km/s) = 3.82789 3.94303 3.88589
# Velocity P-wave (km/s) = 6.52337 6.61611 6.56990
#
# Compressibility (1/GPa) = 0.01728627
#
# Stress axis : x y z
#
# Youngs Moduli (GPa) = 103.23264 77.28305 95.01942
#
# Poissons Ratio (x) = 0.22640 0.11478
# Poissons Ratio (y) = 0.30243 0.36056
# Poissons Ratio (z) = 0.12470 0.29326
#
# Static dielectric constant tensor:
#      x y z
#    x 5.095200 0.000000 0.000000 
#    y 0.000000 4.955890 0.000000 
#    z 0.000000 0.000000 4.279490 
# 
# 
# High freq. dielectric constant tensor:
#      x y z
#    x 2.026470 0.000000 0.000000 
#    y 0.000000 2.016610 0.000000 
#    z 0.000000 0.000000 1.994250 
# 
# From -- ./inp_files/20605.got.cif
#   From: 2010.03.12/outbox.cif.g09.slc.cpg/sg55_11_cif.got.tgz:20605.got - 2010.04.16 15:19:21.
