data_PCOD8227573
_publ_section_title
;
Structure prediction by ZEFSAII (Michael W. Deem and Ramdas Pophale) SiO2 
 PCOD8227573
Probable space group: P B A M
;
_chemical_formula_sum "Si O2"
_cell_formula_units_Z 56
_cell_length_a 14.575838
_cell_length_b 21.368090
_cell_length_c 8.476453
_cell_angle_alpha 90.000000
_cell_angle_beta 90.000000
_cell_angle_gamma 90.000000
_cell_volume 2640.057558
_symmetry_space_group_name_H-M "P B A M"
_symmetry_group_IT_number 55
_symmetry_cell_setting 'orthorhombic'
loop_
_space_group_symop_operation_xyz
x,y,z
-x,-y,z
1/2+x,1/2-y,-z
1/2-x,1/2+y,-z
-x,-y,-z
x,y,-z
1/2-x,1/2+y,z
1/2+x,1/2-y,z
loop_
_atom_site_type_symbol
_atom_site_label
_atom_site_fract_x
_atom_site_fract_y
_atom_site_fract_z
Si Si1 0.905461 0.093691 0.182998
Si Si2 0.112489 0.257293 0.315544
Si Si3 0.559300 0.819758 0.181234
Si Si4 0.771142 0.984300 0.816031
Si Si5 0.820152 0.215066 0.317876
Si Si6 0.597036 0.385961 0.316489
Si Si7 0.418239 0.045782 0.683011
O O1 0.864213 0.162112 0.209737
O O2 0.998754 0.083417 0.279912
O O3 0.833461 0.042004 0.242132
O O4 0.928902 0.084582 0.000000
O O5 0.092467 0.265194 0.500000
O O6 0.214664 0.277522 0.271111
O O7 0.095177 0.186085 0.262710
O O8 0.045489 0.302400 0.219592
O O9 0.628492 0.780286 0.289225
O O10 0.575176 0.892403 0.212637
O O11 0.580723 0.805270 0.000000
O O12 0.823231 0.919562 0.781506
O O13 0.677423 0.988741 0.718084
O O14 0.748270 0.989068 0.000000
O O15 0.832327 0.196149 0.500000
O O16 0.620633 0.392503 0.500000
O O17 0.425201 0.063913 0.500000
O O18 0.500000 0.000000 0.733327
#
# Coordination Sequence:
#
# PCOD8227573 Si02
#       7
#     8   8   8   8   8   8   8
#     4  11  24  41  62  95 134 171 215 270 330 387
#     4  10  23  41  64  94 128 168 214 266 319 381
#     4  12  25  42  68  98 132 170 210 266 328 388
#     4  11  25  43  65  94 133 174 215 271 329 387
#     4  11  23  41  66  95 131 172 220 271 321 387
#     4  11  22  40  67  97 130 174 220 266 320 387
#     4  11  26  47  70  95 128 172 223 272 320 386
#
# _framework density 21.211659000000001
#
# number of rings (size 3 to 8) (size 9 to 14) (size 15 to 20)
#    0.000    1.000    1.429    4.714    2.000    8.000 
#    0.000    0.000    0.000    0.000    0.000    0.000 
#    0.000    0.000    0.000    0.000    0.000    0.000 
#
# Total GULP energy -694933.047283 kJ/mol
# GULP energy per Si atom -12409.518701 kJ/mol
# Density = 2.116338 g / cm^3
# Si number density = 21.211659 Si / 1000 Ang^3
#
#
#
# Elastic Constant Matrix: (Units=GPa)
#
#
# Indices 1 2 3 4 5 6 
#
# 1 121.5096 20.3877 19.1879 0.0000 0.0000 0.0000
# 2 20.3877 71.1106 9.3975 0.0000 0.0000 0.0000
# 3 19.1879 9.3975 45.1440 0.0000 0.0000 0.0000
# 4 0.0000 0.0000 0.0000 31.1892 0.0000 0.0000
# 5 0.0000 0.0000 0.0000 0.0000 24.1512 0.0000
# 6 0.0000 0.0000 0.0000 0.0000 0.0000 36.2296
#
#
#
# Elastic Compliance Matrix: (Units=1/GPa)
#
#
# Indices 1 2 3 4 5 6 
#
# 1 0.009135 -0.002166 -0.003432 0.000000 0.000000 0.000000
# 2 -0.002166 0.014974 -0.002197 0.000000 0.000000 0.000000
# 3 -0.003432 -0.002197 0.024067 0.000000 0.000000 0.000000
# 4 0.000000 0.000000 0.000000 0.032062 0.000000 0.000000
# 5 0.000000 0.000000 0.000000 0.000000 0.041406 0.000000
# 6 0.000000 0.000000 0.000000 0.000000 0.000000 0.027602
#
#
# Mechanical properties :
#
#
# Convention : Reuss Voigt Hill
#
# Bulk Modulus (GPa) = 30.68620 37.30118 33.99369
# Shear Modulus (GPa) = 28.45808 30.90006 29.67907
#
# Velocity S-wave (km/s) = 3.66679 3.82088 3.74463
# Velocity P-wave (km/s) = 5.69432 6.09006 5.89551
#
# Compressibility (1/GPa) = 0.03258794
#
# Stress axis : x y z
#
# Youngs Moduli (GPa) = 109.46782 66.78348 41.55009
#
# Poissons Ratio (x) = 0.14462 0.14260
# Poissons Ratio (y) = 0.23706 0.09127
# Poissons Ratio (z) = 0.37569 0.14670
#
# Static dielectric constant tensor:
#      x y z
#    x 3.978890 0.000000 0.000000 
#    y 0.000000 3.811820 0.000000 
#    z 0.000000 0.000000 3.697490 
# 
# 
# High freq. dielectric constant tensor:
#      x y z
#    x 1.847420 0.000000 0.000000 
#    y 0.000000 1.836050 0.000000 
#    z 0.000000 0.000000 1.831780 
# 
# From -- ./inp_files/6020.got.cif
#   From: 2010.03.12/outbox.cif.g09.slc.cpg/sg55_4_cif.got.tgz:6020.got - 2010.04.16 15:19:21.
