data_PCOD8227519
_publ_section_title
;
Structure prediction by ZEFSAII (Michael W. Deem and Ramdas Pophale) SiO2 
 PCOD8227519
Probable space group: P B A M
;
_chemical_formula_sum "Si O2"
_cell_formula_units_Z 56
_cell_length_a 13.530440
_cell_length_b 9.743591
_cell_length_c 19.869380
_cell_angle_alpha 90.000000
_cell_angle_beta 90.000000
_cell_angle_gamma 90.000000
_cell_volume 2619.481171
_symmetry_space_group_name_H-M "P B A M"
_symmetry_group_IT_number 55
_symmetry_cell_setting 'orthorhombic'
loop_
_space_group_symop_operation_xyz
x,y,z
-x,-y,z
1/2+x,1/2-y,-z
1/2-x,1/2+y,-z
-x,-y,-z
x,y,-z
1/2-x,1/2+y,z
1/2+x,1/2-y,z
loop_
_atom_site_type_symbol
_atom_site_label
_atom_site_fract_x
_atom_site_fract_y
_atom_site_fract_z
Si Si1 0.960681 0.649759 0.577497
Si Si2 0.359708 0.594951 0.000000
Si Si3 0.429546 0.288657 0.854162
Si Si4 0.805999 0.353858 0.249246
Si Si5 0.773261 0.614473 0.663138
Si Si6 0.912144 0.095767 0.578618
Si Si7 0.854117 0.913305 0.144487
Si Si8 0.059164 0.790094 0.000000
O O1 0.928810 0.668737 0.500000
O O2 0.864335 0.679840 0.622202
O O3 0.000000 0.500000 0.593506
O O4 0.052048 0.749594 0.595258
O O5 0.301291 0.607941 0.070767
O O6 0.440552 0.716309 0.000000
O O7 0.412752 0.448987 0.000000
O O8 0.403944 0.178299 0.795726
O O9 0.365826 0.425488 0.840481
O O10 0.543690 0.330576 0.851907
O O11 0.403400 0.225065 0.928929
O O12 0.787248 0.234922 0.302038
O O13 0.815717 0.500195 0.285869
O O14 0.713753 0.347191 0.199847
O O15 0.690541 0.551468 0.613346
O O16 0.894587 0.072432 0.500000
O O17 0.000000 0.000000 0.605906
#
# Coordination Sequence:
#
# PCOD8227519 Si02
#       8
#     8   4   8   8   8   8   8   4
#     4  10  22  42  66  90 117 153 199 251 303 349
#     4   7  12  27  56  83 104 143 200 253 301 338
#     4   9  18  36  58  82 113 155 201 252 298 349
#     4  12  24  37  56  87 125 162 197 231 297 371
#     4  12  25  40  59  90 128 160 199 247 296 367
#     4  10  22  42  68  93 116 154 205 251 300 352
#     4   9  18  36  58  82 114 154 201 252 296 353
#     4   7  12  27  56  83 104 141 202 255 298 341
#
# _framework density 21.378278999999999
#
# number of rings (size 3 to 8) (size 9 to 14) (size 15 to 20)
#    0.000    2.143    1.429    3.857    0.000    4.000 
#    0.000    5.714    0.000    0.000    0.000    3.000 
#    0.000    0.000    0.000    0.000    0.000    0.000 
#
# Total GULP energy -693933.483386 kJ/mol
# GULP energy per Si atom -12391.669346 kJ/mol
# Density = 2.132962 g / cm^3
# Si number density = 21.378279 Si / 1000 Ang^3
#
#
#
# Elastic Constant Matrix: (Units=GPa)
#
#
# Indices 1 2 3 4 5 6 
#
# 1 57.7812 -1.2146 35.3118 0.0000 0.0000 0.0000
# 2 -1.2146 49.0751 7.0616 0.0000 0.0000 0.0000
# 3 35.3118 7.0616 93.5956 0.0000 0.0000 0.0000
# 4 0.0000 0.0000 0.0000 18.4312 0.0000 0.0000
# 5 0.0000 0.0000 0.0000 0.0000 42.5061 0.0000
# 6 0.0000 0.0000 0.0000 0.0000 0.0000 24.0036
#
#
#
# Elastic Compliance Matrix: (Units=1/GPa)
#
#
# Indices 1 2 3 4 5 6 
#
# 1 0.022651 0.001810 -0.008682 0.000000 0.000000 0.000000
# 2 0.001810 0.020745 -0.002248 0.000000 0.000000 0.000000
# 3 -0.008682 -0.002248 0.014130 0.000000 0.000000 0.000000
# 4 0.000000 0.000000 0.000000 0.054256 0.000000 0.000000
# 5 0.000000 0.000000 0.000000 0.000000 0.023526 0.000000
# 6 0.000000 0.000000 0.000000 0.000000 0.000000 0.041660
#
#
# Mechanical properties :
#
#
# Convention : Reuss Voigt Hill
#
# Bulk Modulus (GPa) = 25.45517 31.41884 28.43701
# Shear Modulus (GPa) = 24.00346 27.60772 25.80559
#
# Velocity S-wave (km/s) = 3.35445 3.59749 3.47809
# Velocity P-wave (km/s) = 5.18999 5.65548 5.42773
#
# Compressibility (1/GPa) = 0.03928474
#
# Stress axis : x y z
#
# Youngs Moduli (GPa) = 44.14879 48.20388 70.77387
#
# Poissons Ratio (x) = -0.08725 0.61447
# Poissons Ratio (y) = -0.07991 0.15910
# Poissons Ratio (z) = 0.38331 0.10836
#
# Static dielectric constant tensor:
#      x y z
#    x 3.618760 0.000000 0.000000 
#    y 0.000000 3.632650 0.000000 
#    z 0.000000 0.000000 4.260750 
# 
# 
# High freq. dielectric constant tensor:
#      x y z
#    x 1.821000 0.000000 0.000000 
#    y 0.000000 1.813870 0.000000 
#    z 0.000000 0.000000 1.859130 
# 
# From -- ./inp_files/23002.got.cif
#   From: 2010.03.12/outbox.cif.g09.slc.cpg/sg55_12_cif.got.tgz:23002.got - 2010.04.16 15:19:21.
