data_PCOD8227565
_publ_section_title
;
Structure prediction by ZEFSAII (Michael W. Deem and Ramdas Pophale) SiO2 
 PCOD8227565
Probable space group: P B A M
;
_chemical_formula_sum "Si O2"
_cell_formula_units_Z 40
_cell_length_a 14.111240
_cell_length_b 9.395973
_cell_length_c 14.935881
_cell_angle_alpha 90.000000
_cell_angle_beta 90.000000
_cell_angle_gamma 90.000000
_cell_volume 1980.330987
_symmetry_space_group_name_H-M "P B A M"
_symmetry_group_IT_number 55
_symmetry_cell_setting 'orthorhombic'
loop_
_space_group_symop_operation_xyz
x,y,z
-x,-y,z
1/2+x,1/2-y,-z
1/2-x,1/2+y,-z
-x,-y,-z
x,y,-z
1/2-x,1/2+y,z
1/2+x,1/2-y,z
loop_
_atom_site_type_symbol
_atom_site_label
_atom_site_fract_x
_atom_site_fract_y
_atom_site_fract_z
Si Si1 0.000000 0.000000 0.759610
Si Si2 0.000000 0.500000 0.776906
Si Si3 0.522486 0.227966 0.356333
Si Si4 0.153120 0.636403 0.100839
Si Si5 0.631633 0.859264 0.500000
Si Si6 0.328326 0.805358 0.500000
Si Si7 0.839408 0.033710 0.102249
O O1 0.912498 0.973819 0.825781
O O2 0.986279 0.132840 0.694459
O O3 0.056483 0.389578 0.714883
O O4 0.068288 0.595137 0.835749
O O5 0.433420 0.168737 0.413382
O O6 0.615695 0.258842 0.414939
O O7 0.178690 0.800067 0.115016
O O8 0.242878 0.543608 0.126262
O O9 0.120043 0.605868 0.000000
O O10 0.720936 0.751560 0.500000
O O11 0.668229 0.022227 0.500000
O O12 0.872292 0.998592 0.000000
#
# Coordination Sequence:
#
# PCOD8227565 Si02
#       7
#     4   4   8   8   4   4   8
#     4  12  25  41  64  98 124 166 210 263 307 362
#     4  12  21  43  64  92 126 168 206 263 307 368
#     4  11  25  44  65  92 130 158 208 257 309 376
#     4  10  23  40  62  91 127 170 214 256 311 369
#     4  11  25  46  69  93 125 164 202 248 320 378
#     4  11  25  46  69  91 125 168 196 254 318 378
#     4  10  23  42  61  90 129 170 212 258 309 368
#
# _framework density 20.198643000000001
#
# number of rings (size 3 to 8) (size 9 to 14) (size 15 to 20)
#    0.000    1.200    4.000    1.200    5.600    4.000 
#    0.000    0.000    0.000    0.000    0.000    0.000 
#    0.000    0.000    0.000    0.000    0.000    0.000 
#
# Total GULP energy -496030.936167 kJ/mol
# GULP energy per Si atom -12400.773404 kJ/mol
# Density = 2.015267 g / cm^3
# Si number density = 20.198643 Si / 1000 Ang^3
#
#
#
# Elastic Constant Matrix: (Units=GPa)
#
#
# Indices 1 2 3 4 5 6 
#
# 1 93.3774 25.5164 45.5880 0.0000 0.0000 0.0000
# 2 25.5164 76.1817 32.0025 0.0000 0.0000 0.0000
# 3 45.5880 32.0025 101.9633 0.0000 0.0000 0.0000
# 4 0.0000 0.0000 0.0000 28.0175 0.0000 0.0000
# 5 0.0000 0.0000 0.0000 0.0000 -3.3110 0.0000
# 6 0.0000 0.0000 0.0000 0.0000 0.0000 37.9312
#
#
#
# Elastic Compliance Matrix: (Units=1/GPa)
#
#
# Indices 1 2 3 4 5 6 
#
# 1 0.014066 -0.002384 -0.005541 0.000000 0.000000 0.000000
# 2 -0.002384 0.015524 -0.003807 0.000000 0.000000 0.000000
# 3 -0.005541 -0.003807 0.013479 0.000000 0.000000 0.000000
# 4 0.000000 0.000000 0.000000 0.035692 0.000000 0.000000
# 5 0.000000 0.000000 0.000000 0.000000 -0.302027 0.000000
# 6 0.000000 0.000000 0.000000 0.000000 0.000000 0.026364
#
#
# Mechanical properties :
#
#
# Convention : Reuss Voigt Hill
#
# Bulk Modulus (GPa) = 51.00174 53.08179 52.04176
# Shear Modulus (GPa) = -29.95722 23.75526 -3.10098
#
# Velocity S-wave (km/s) = -3.85532 3.43313 -1.24039
# Velocity P-wave (km/s) = 2.34241 6.48476 4.87540
#
# Compressibility (1/GPa) = 0.01960717
#
# Stress axis : x y z
#
# Youngs Moduli (GPa) = 71.09554 64.41635 74.18701
#
# Poissons Ratio (x) = 0.15354 0.41104
# Poissons Ratio (y) = 0.16947 0.28241
# Poissons Ratio (z) = 0.39391 0.24521
#
# Static dielectric constant tensor:
#      x y z
#    x 3.608910 0.000000 0.000000 
#    y 0.000000 3.869610 0.000000 
#    z 0.000000 0.000000 3.970350 
# 
# 
# High freq. dielectric constant tensor:
#      x y z
#    x 1.777100 0.000000 0.000000 
#    y 0.000000 1.802270 0.000000 
#    z 0.000000 0.000000 1.807800 
# 
# From -- ./inp_files/18793.got.cif
#   From: 2010.03.12/outbox.cif.g09.slc.cpg/sg55_10_cif.got.tgz:18793.got - 2010.04.16 15:19:21.
