data_PCOD8227083
_publ_section_title
;
Structure prediction by ZEFSAII (Michael W. Deem and Ramdas Pophale) SiO2 
 PCOD8227083
Probable space group: P B A M
;
_chemical_formula_sum "Si O2"
_cell_formula_units_Z 64
_cell_length_a 20.158983
_cell_length_b 17.432879
_cell_length_c 9.016830
_cell_angle_alpha 90.000000
_cell_angle_beta 90.000000
_cell_angle_gamma 90.000000
_cell_volume 3168.776555
_symmetry_space_group_name_H-M "P B A M"
_symmetry_group_IT_number 55
_symmetry_cell_setting 'orthorhombic'
loop_
_space_group_symop_operation_xyz
x,y,z
-x,-y,z
1/2+x,1/2-y,-z
1/2-x,1/2+y,-z
-x,-y,-z
x,y,-z
1/2-x,1/2+y,z
1/2+x,1/2-y,z
loop_
_atom_site_type_symbol
_atom_site_label
_atom_site_fract_x
_atom_site_fract_y
_atom_site_fract_z
Si Si1 0.360409 0.676458 0.671539
Si Si2 0.513934 0.087916 0.326174
Si Si3 0.235677 0.926141 0.170900
Si Si4 0.609597 0.841405 0.173449
Si Si5 0.509745 0.414855 0.672683
Si Si6 0.607351 0.666396 0.827959
Si Si7 0.268385 0.081578 0.326353
Si Si8 0.632475 0.164409 0.170945
O O1 0.363158 0.701687 0.500000
O O2 0.415643 0.612291 0.705931
O O3 0.289474 0.641215 0.713507
O O4 0.374358 0.749121 0.773201
O O5 0.511153 0.104646 0.500000
O O6 0.460995 0.141552 0.245899
O O7 0.586296 0.107842 0.264871
O O8 0.500000 0.000000 0.288413
O O9 0.167519 0.887325 0.223703
O O10 0.292537 0.863051 0.192928
O O11 0.246931 0.997620 0.276650
O O12 0.232468 0.953239 0.000000
O O13 0.627519 0.753573 0.207920
O O14 0.665133 0.895728 0.242276
O O15 0.605528 0.858981 0.000000
O O16 0.500000 0.500000 0.740894
O O17 0.493761 0.416571 0.500000
O O18 0.459281 0.354945 0.743378
O O19 0.592523 0.655966 0.000000
O O20 0.283454 0.079997 0.500000
O O21 0.610451 0.161657 0.000000
#
# Coordination Sequence:
#
# PCOD8227083 Si02
#       8
#     8   8   8   8   8   8   8   8
#     4  10  22  39  59  85 118 155 195 240 291 348
#     4  11  24  41  61  87 119 154 194 241 291 346
#     4  10  22  40  60  84 117 154 191 236 291 347
#     4  11  23  40  62  88 119 154 194 240 291 349
#     4  10  21  38  59  84 116 153 192 237 289 343
#     4  10  22  39  59  86 117 151 193 238 286 343
#     4  11  23  39  61  89 118 152 196 242 291 346
#     4  11  23  39  61  87 116 154 197 241 292 348
#
# _framework density 20.19707
#
# number of rings (size 3 to 8) (size 9 to 14) (size 15 to 20)
#    0.000    1.500    0.000    4.500    0.000   11.250 
#    0.000    0.000    0.000    0.000    0.000    0.000 
#    0.000    0.000    0.000    0.000    0.000    0.000 
#
# Total GULP energy -794066.392454 kJ/mol
# GULP energy per Si atom -12407.287382 kJ/mol
# Density = 2.015110 g / cm^3
# Si number density = 20.197070 Si / 1000 Ang^3
#
#
#
# Elastic Constant Matrix: (Units=GPa)
#
#
# Indices 1 2 3 4 5 6 
#
# 1 79.0061 4.5730 27.3685 0.0000 0.0000 0.0000
# 2 4.5730 84.1468 43.0622 0.0000 0.0000 0.0000
# 3 27.3685 43.0622 74.4286 0.0000 0.0000 0.0000
# 4 0.0000 0.0000 0.0000 29.0673 0.0000 0.0000
# 5 0.0000 0.0000 0.0000 0.0000 34.6081 0.0000
# 6 0.0000 0.0000 0.0000 0.0000 0.0000 38.2231
#
#
#
# Elastic Compliance Matrix: (Units=1/GPa)
#
#
# Indices 1 2 3 4 5 6 
#
# 1 0.014970 0.002846 -0.007151 0.000000 0.000000 0.000000
# 2 0.002846 0.017424 -0.011127 0.000000 0.000000 0.000000
# 3 -0.007151 -0.011127 0.022503 0.000000 0.000000 0.000000
# 4 0.000000 0.000000 0.000000 0.034403 0.000000 0.000000
# 5 0.000000 0.000000 0.000000 0.000000 0.028895 0.000000
# 6 0.000000 0.000000 0.000000 0.000000 0.000000 0.026162
#
#
# Mechanical properties :
#
#
# Convention : Reuss Voigt Hill
#
# Bulk Modulus (GPa) = 41.61171 43.06544 42.33857
# Shear Modulus (GPa) = 27.28767 31.21822 29.25294
#
# Velocity S-wave (km/s) = 3.67968 3.93578 3.80988
# Velocity P-wave (km/s) = 6.22101 6.48249 6.35310
#
# Compressibility (1/GPa) = 0.02403170
#
# Stress axis : x y z
#
# Youngs Moduli (GPa) = 66.80111 57.39271 44.43777
#
# Poissons Ratio (x) = -0.16335 0.31779
# Poissons Ratio (y) = -0.19013 0.49448
# Poissons Ratio (z) = 0.47772 0.63864
#
# Static dielectric constant tensor:
#      x y z
#    x 3.815980 0.000000 0.000000 
#    y 0.000000 3.711490 0.000000 
#    z 0.000000 0.000000 3.670960 
# 
# 
# High freq. dielectric constant tensor:
#      x y z
#    x 1.803170 0.000000 0.000000 
#    y 0.000000 1.799680 0.000000 
#    z 0.000000 0.000000 1.789950 
# 
# From -- ./inp_files/9057.got.cif
#   From: 2010.03.12/outbox.cif.g09.slc.cpg/sg55_5_cif.got.tgz:9057.got - 2010.04.16 15:19:21.
