data_PCOD8227161
_publ_section_title
;
Structure prediction by ZEFSAII (Michael W. Deem and Ramdas Pophale) SiO2 
 PCOD8227161
Probable space group: P B A M
;
_chemical_formula_sum "Si O2"
_cell_formula_units_Z 48
_cell_length_a 16.585505
_cell_length_b 8.698739
_cell_length_c 15.753537
_cell_angle_alpha 90.000000
_cell_angle_beta 90.000000
_cell_angle_gamma 90.000000
_cell_volume 2272.809716
_symmetry_space_group_name_H-M "P B A M"
_symmetry_group_IT_number 55
_symmetry_cell_setting 'orthorhombic'
loop_
_space_group_symop_operation_xyz
x,y,z
-x,-y,z
1/2+x,1/2-y,-z
1/2-x,1/2+y,-z
-x,-y,-z
x,y,-z
1/2-x,1/2+y,z
1/2+x,1/2-y,z
loop_
_atom_site_type_symbol
_atom_site_label
_atom_site_fract_x
_atom_site_fract_y
_atom_site_fract_z
Si Si1 0.251110 0.945084 0.157793
Si Si2 0.785592 0.968986 0.404119
Si Si3 0.019903 0.677261 0.754481
Si Si4 0.653917 0.299374 0.746917
Si Si5 0.861359 0.302657 0.906576
Si Si6 0.133686 0.709637 0.403008
O O1 0.294360 0.854226 0.234965
O O2 0.206792 0.828392 0.095008
O O3 0.186288 0.062244 0.195351
O O4 0.320187 0.031605 0.105250
O O5 0.805801 0.923248 0.500000
O O6 0.838044 0.848998 0.350368
O O7 0.689801 0.940383 0.386604
O O8 0.809146 0.144084 0.384903
O O9 0.075945 0.730529 0.831810
O O10 0.060445 0.709168 0.663128
O O11 0.000000 0.500000 0.763449
O O12 0.940066 0.777377 0.764773
O O13 0.902601 0.299999 0.000000
O O14 0.099993 0.711755 0.500000
#
# Coordination Sequence:
#
# PCOD8227161 Si02
#       6
#     8   8   8   8   8   8
#     4  10  22  42  68  92 120 167 214 257 308 371
#     4  10  21  38  65  94 123 168 216 265 311 365
#     4  12  26  41  61  96 130 171 208 256 332 373
#     4  11  22  41  65  91 126 166 211 261 311 384
#     4  11  23  43  67  96 128 163 210 261 311 377
#     4  10  23  42  65  94 129 166 215 262 312 375
#
# _framework density 21.119233000000001
#
# number of rings (size 3 to 8) (size 9 to 14) (size 15 to 20)
#    0.000    1.333    1.667    4.500    2.333    4.000 
#    0.000    4.167    0.000    0.000    0.000    0.000 
#    0.000    0.000    0.000    0.000    0.000    0.000 
#
# Total GULP energy -595223.980323 kJ/mol
# GULP energy per Si atom -12400.499590 kJ/mol
# Density = 2.107116 g / cm^3
# Si number density = 21.119233 Si / 1000 Ang^3
#
#
#
# Elastic Constant Matrix: (Units=GPa)
#
#
# Indices 1 2 3 4 5 6 
#
# 1 93.9554 12.5046 29.3804 0.0000 0.0000 0.0000
# 2 12.5046 55.1063 -6.7387 0.0000 0.0000 0.0000
# 3 29.3804 -6.7387 99.1848 0.0000 0.0000 0.0000
# 4 0.0000 0.0000 0.0000 15.5240 0.0000 0.0000
# 5 0.0000 0.0000 0.0000 0.0000 14.2116 0.0000
# 6 0.0000 0.0000 0.0000 0.0000 0.0000 30.7266
#
#
#
# Elastic Compliance Matrix: (Units=1/GPa)
#
#
# Indices 1 2 3 4 5 6 
#
# 1 0.012284 -0.003260 -0.003860 0.000000 0.000000 0.000000
# 2 -0.003260 0.019164 0.002268 0.000000 0.000000 0.000000
# 3 -0.003860 0.002268 0.011380 0.000000 0.000000 0.000000
# 4 0.000000 0.000000 0.000000 0.064416 0.000000 0.000000
# 5 0.000000 0.000000 0.000000 0.000000 0.070365 0.000000
# 6 0.000000 0.000000 0.000000 0.000000 0.000000 0.032545
#
#
# Mechanical properties :
#
#
# Convention : Reuss Voigt Hill
#
# Bulk Modulus (GPa) = 30.19046 35.39325 32.79186
# Shear Modulus (GPa) = 21.65438 26.29911 23.97675
#
# Velocity S-wave (km/s) = 3.20557 3.53266 3.37308
# Velocity P-wave (km/s) = 5.29407 5.78228 5.54355
#
# Compressibility (1/GPa) = 0.03312304
#
# Stress axis : x y z
#
# Youngs Moduli (GPa) = 81.40462 52.18201 87.87543
#
# Poissons Ratio (x) = 0.17009 0.33923
# Poissons Ratio (y) = 0.26535 -0.19926
# Poissons Ratio (z) = 0.31425 -0.11833
#
# Static dielectric constant tensor:
#      x y z
#    x 3.730860 0.000000 0.000000 
#    y 0.000000 3.993420 0.000000 
#    z 0.000000 0.000000 3.817800 
# 
# 
# High freq. dielectric constant tensor:
#      x y z
#    x 1.811110 0.000000 0.000000 
#    y 0.000000 1.839650 0.000000 
#    z 0.000000 0.000000 1.833500 
# 
# From -- ./inp_files/21518.got.cif
#   From: 2010.03.12/outbox.cif.g09.slc.cpg/sg55_11_cif.got.tgz:21518.got - 2010.04.16 15:19:21.
