data_PCOD8227171
_publ_section_title
;
Structure prediction by ZEFSAII (Michael W. Deem and Ramdas Pophale) SiO2 
 PCOD8227171
Probable space group: P B A M
;
_chemical_formula_sum "Si O2"
_cell_formula_units_Z 40
_cell_length_a 18.597584
_cell_length_b 12.138088
_cell_length_c 9.261565
_cell_angle_alpha 90.000000
_cell_angle_beta 90.000000
_cell_angle_gamma 90.000000
_cell_volume 2090.697451
_symmetry_space_group_name_H-M "P B A M"
_symmetry_group_IT_number 55
_symmetry_cell_setting 'orthorhombic'
loop_
_space_group_symop_operation_xyz
x,y,z
-x,-y,z
1/2+x,1/2-y,-z
1/2-x,1/2+y,-z
-x,-y,-z
x,y,-z
1/2-x,1/2+y,z
1/2+x,1/2-y,z
loop_
_atom_site_type_symbol
_atom_site_label
_atom_site_fract_x
_atom_site_fract_y
_atom_site_fract_z
Si Si1 0.456021 0.307567 0.830574
Si Si2 0.658295 0.551385 0.665180
Si Si3 0.180195 0.407768 0.669432
Si Si4 0.397506 0.685482 0.334749
Si Si5 0.572968 0.943005 0.168681
O O1 0.399682 0.393078 0.767463
O O2 0.533239 0.331066 0.763194
O O3 0.429936 0.185194 0.793213
O O4 0.462665 0.326762 0.000000
O O5 0.643063 0.586690 0.500000
O O6 0.736730 0.590506 0.715743
O O7 0.654009 0.419702 0.682044
O O8 0.172105 0.427894 0.500000
O O9 0.147201 0.291259 0.718510
O O10 0.140481 0.507090 0.748818
O O11 0.422737 0.700431 0.500000
O O12 0.500000 0.000000 0.224915
O O13 0.583214 0.965590 0.000000
#
# Coordination Sequence:
#
# PCOD8227171 Si02
#       5
#     8   8   8   8   8
#     4  11  23  39  61  88 116 154 199 239 287 347
#     4  10  23  40  60  87 121 154 190 243 296 344
#     4  10  22  38  61  89 116 152 196 240 291 350
#     4  10  21  39  60  86 118 153 193 240 293 344
#     4  10  21  39  59  83 118 154 191 241 291 337
#
# _framework density 19.132369000000001
#
# number of rings (size 3 to 8) (size 9 to 14) (size 15 to 20)
#    0.000    1.800    2.000    1.200    2.800    6.000 
#    0.000    0.000    0.000    0.000    0.000    0.000 
#    0.000    0.000    0.000    0.000    0.000    0.000 
#
# Total GULP energy -496235.031875 kJ/mol
# GULP energy per Si atom -12405.875797 kJ/mol
# Density = 1.908882 g / cm^3
# Si number density = 19.132369 Si / 1000 Ang^3
#
#
#
# Elastic Constant Matrix: (Units=GPa)
#
#
# Indices 1 2 3 4 5 6 
#
# 1 126.8836 36.6075 39.2488 0.0000 0.0000 0.0000
# 2 36.6075 77.8308 25.9534 0.0000 0.0000 0.0000
# 3 39.2488 25.9534 48.4545 0.0000 0.0000 0.0000
# 4 0.0000 0.0000 0.0000 27.4208 0.0000 0.0000
# 5 0.0000 0.0000 0.0000 0.0000 -25.4202 0.0000
# 6 0.0000 0.0000 0.0000 0.0000 0.0000 35.5444
#
#
#
# Elastic Compliance Matrix: (Units=1/GPa)
#
#
# Indices 1 2 3 4 5 6 
#
# 1 0.010954 -0.002670 -0.007442 0.000000 0.000000 0.000000
# 2 -0.002670 0.016293 -0.006564 0.000000 0.000000 0.000000
# 3 -0.007442 -0.006564 0.030182 0.000000 0.000000 0.000000
# 4 0.000000 0.000000 0.000000 0.036469 0.000000 0.000000
# 5 0.000000 0.000000 0.000000 0.000000 -0.039339 0.000000
# 6 0.000000 0.000000 0.000000 0.000000 0.000000 0.028134
#
#
# Mechanical properties :
#
#
# Convention : Reuss Voigt Hill
#
# Bulk Modulus (GPa) = 41.53576 50.75427 46.14501
# Shear Modulus (GPa) = 40.29924 17.59962 28.94943
#
# Velocity S-wave (km/s) = 4.59447 3.03625 3.89409
# Velocity P-wave (km/s) = 7.06416 6.23517 6.66257
#
# Compressibility (1/GPa) = 0.02407564
#
# Stress axis : x y z
#
# Youngs Moduli (GPa) = 91.29222 61.37529 33.13207
#
# Poissons Ratio (x) = 0.16389 0.24658
# Poissons Ratio (y) = 0.24378 0.21748
# Poissons Ratio (z) = 0.67944 0.40287
#
# Static dielectric constant tensor:
#      x y z
#    x 3.582280 0.000000 0.000000 
#    y 0.000000 3.648760 0.000000 
#    z 0.000000 0.000000 3.445430 
# 
# 
# High freq. dielectric constant tensor:
#      x y z
#    x 1.748040 0.000000 0.000000 
#    y 0.000000 1.758230 0.000000 
#    z 0.000000 0.000000 1.738420 
# 
# From -- ./inp_files/3587.got.cif
#   From: 2010.03.12/outbox.cif.g09.slc.cpg/sg55_2_cif.got.tgz:3587.got - 2010.04.16 15:19:21.
