data_PCOD8227314
_publ_section_title
;
Structure prediction by ZEFSAII (Michael W. Deem and Ramdas Pophale) SiO2 
 PCOD8227314
Probable space group: P B A M
;
_chemical_formula_sum "Si O2"
_cell_formula_units_Z 32
_cell_length_a 32.388126
_cell_length_b 4.922896
_cell_length_c 7.993790
_cell_angle_alpha 90.000000
_cell_angle_beta 90.000000
_cell_angle_gamma 90.000000
_cell_volume 1274.556864
_symmetry_space_group_name_H-M "P B A M"
_symmetry_group_IT_number 55
_symmetry_cell_setting 'orthorhombic'
loop_
_space_group_symop_operation_xyz
x,y,z
-x,-y,z
1/2+x,1/2-y,-z
1/2-x,1/2+y,-z
-x,-y,-z
x,y,-z
1/2-x,1/2+y,z
1/2+x,1/2-y,z
loop_
_atom_site_type_symbol
_atom_site_label
_atom_site_fract_x
_atom_site_fract_y
_atom_site_fract_z
Si Si1 0.606610 0.895901 0.689103
Si Si2 0.777446 0.815730 0.000000
Si Si3 0.969776 0.744934 0.500000
Si Si4 0.337795 0.617904 0.691904
Si Si5 0.951174 0.974808 0.177691
O O1 0.588418 0.929312 0.500000
O O2 0.644286 0.683592 0.690682
O O3 0.568993 0.772707 0.797844
O O4 0.626321 0.176409 0.756709
O O5 0.801497 0.872096 0.172905
O O6 0.762914 0.505122 0.000000
O O7 0.940534 0.767562 0.332492
O O8 0.000000 0.500000 0.500000
O O9 0.000000 0.000000 0.500000
O O10 0.323586 0.695865 0.500000
O O11 0.935711 0.854508 0.000000
O O12 0.000000 0.000000 0.172615
#
# Coordination Sequence:
#
# PCOD8227314 Si02
#       5
#     8   4   4   8   8
#     4  10  21  41  65  91 129 175 218 263 321 372
#     4  12  26  44  72 104 131 166 207 248 318 390
#     4  10  22  40  58  80 120 160 208 272 320 368
#     4  10  24  43  66  98 132 168 210 258 314 382
#     4  10  22  39  61  92 126 172 224 275 326 374
#
# _framework density 25.106764999999999
#
# number of rings (size 3 to 8) (size 9 to 14) (size 15 to 20)
#    0.000    1.750    1.250    1.500    3.500    5.500 
#    0.000    5.000    0.000    0.000    0.000    0.000 
#    0.000    0.000    0.000    0.000    0.000    0.000 
#
# Total GULP energy -396733.384585 kJ/mol
# GULP energy per Si atom -12397.918268 kJ/mol
# Density = 2.504962 g / cm^3
# Si number density = 25.106765 Si / 1000 Ang^3
#
#
#
# Elastic Constant Matrix: (Units=GPa)
#
#
# Indices 1 2 3 4 5 6 
#
# 1 94.5546 8.2203 48.4971 0.0000 0.0000 0.0000
# 2 8.2203 92.8062 34.0942 0.0000 0.0000 0.0000
# 3 48.4971 34.0942 222.7193 0.0000 0.0000 0.0000
# 4 0.0000 0.0000 0.0000 -2.0104 0.0000 0.0000
# 5 0.0000 0.0000 0.0000 0.0000 1.7076 0.0000
# 6 0.0000 0.0000 0.0000 0.0000 0.0000 41.3259
#
#
#
# Elastic Compliance Matrix: (Units=1/GPa)
#
#
# Indices 1 2 3 4 5 6 
#
# 1 0.011907 -0.000108 -0.002576 0.000000 0.000000 0.000000
# 2 -0.000108 0.011418 -0.001724 0.000000 0.000000 0.000000
# 3 -0.002576 -0.001724 0.005315 0.000000 0.000000 0.000000
# 4 0.000000 0.000000 0.000000 -0.497409 0.000000 0.000000
# 5 0.000000 0.000000 0.000000 0.000000 0.585623 0.000000
# 6 0.000000 0.000000 0.000000 0.000000 0.000000 0.024198
#
#
# Mechanical properties :
#
#
# Convention : Reuss Voigt Hill
#
# Bulk Modulus (GPa) = 50.44824 65.74481 58.09653
# Shear Modulus (GPa) = 31.95374 29.48919 30.72146
#
# Velocity S-wave (km/s) = 3.57138 3.43089 3.50184
# Velocity P-wave (km/s) = 6.09454 6.47593 6.28813
#
# Compressibility (1/GPa) = 0.01982230
#
# Stress axis : x y z
#
# Youngs Moduli (GPa) = 83.98717 87.57948 188.15160
#
# Poissons Ratio (x) = 0.00948 0.48469
# Poissons Ratio (y) = 0.00909 0.32444
# Poissons Ratio (z) = 0.21636 0.15102
#
# Static dielectric constant tensor:
#      x y z
#    x 4.323890 0.000000 0.000000 
#    y 0.000000 4.763160 0.000000 
#    z 0.000000 0.000000 4.197010 
# 
# 
# High freq. dielectric constant tensor:
#      x y z
#    x 1.994730 0.000000 0.000000 
#    y 0.000000 2.021820 0.000000 
#    z 0.000000 0.000000 2.016300 
# 
# From -- ./inp_files/10364.got.cif
#   From: 2010.03.12/outbox.cif.g09.slc.cpg/sg55_6_cif.got.tgz:10364.got - 2010.04.16 15:19:21.
