data_PCOD8227677
_publ_section_title
;
Structure prediction by ZEFSAII (Michael W. Deem and Ramdas Pophale) SiO2 
 PCOD8227677
Probable space group: P B A M
;
_chemical_formula_sum "Si O2"
_cell_formula_units_Z 56
_cell_length_a 21.226193
_cell_length_b 14.991680
_cell_length_c 8.405033
_cell_angle_alpha 90.000000
_cell_angle_beta 90.000000
_cell_angle_gamma 90.000000
_cell_volume 2674.618444
_symmetry_space_group_name_H-M "P B A M"
_symmetry_group_IT_number 55
_symmetry_cell_setting 'orthorhombic'
loop_
_space_group_symop_operation_xyz
x,y,z
-x,-y,z
1/2+x,1/2-y,-z
1/2-x,1/2+y,-z
-x,-y,-z
x,y,-z
1/2-x,1/2+y,z
1/2+x,1/2-y,z
loop_
_atom_site_type_symbol
_atom_site_label
_atom_site_fract_x
_atom_site_fract_y
_atom_site_fract_z
Si Si1 0.607292 0.718445 0.685907
Si Si2 0.568078 0.525180 0.686021
Si Si3 0.914339 0.528824 0.317110
Si Si4 0.193360 0.065550 0.316480
Si Si5 0.519419 0.860869 0.185389
Si Si6 0.261012 0.233896 0.815099
Si Si7 0.214564 0.427962 0.181987
O O1 0.622392 0.716323 0.500000
O O2 0.595410 0.618766 0.754699
O O3 0.544775 0.774939 0.721583
O O4 0.665292 0.768746 0.771320
O O5 0.500000 0.500000 0.763441
O O6 0.557496 0.540419 0.500000
O O7 0.618479 0.445868 0.719962
O O8 0.930849 0.509243 0.500000
O O9 0.934953 0.444930 0.211877
O O10 0.840538 0.542464 0.298982
O O11 0.950506 0.617005 0.255875
O O12 0.206630 0.042023 0.500000
O O13 0.218150 0.164341 0.281144
O O14 0.228086 0.995237 0.204281
O O15 0.514453 0.838796 0.000000
O O16 0.235695 0.330209 0.766950
O O17 0.253761 0.212071 0.000000
O O18 0.191587 0.430672 0.000000
#
# Coordination Sequence:
#
# PCOD8227677 Si02
#       7
#     8   8   8   8   8   8   8
#     4  11  21  38  63  90 121 160 211 257 308 375
#     4   9  20  39  63  91 123 158 201 257 316 367
#     4  11  22  38  60  88 120 156 204 254 309 364
#     4  11  22  39  64  93 124 161 209 262 317 376
#     4  11  22  38  59  86 123 161 201 246 307 370
#     4  11  24  40  61  89 123 163 207 256 316 377
#     4  11  23  40  61  86 123 162 201 251 312 372
#
# _framework density 20.937564999999999
#
# number of rings (size 3 to 8) (size 9 to 14) (size 15 to 20)
#    0.000    1.286    1.429    6.000    0.000    2.857 
#    0.000    1.429    0.000    6.000    0.000    0.000 
#    0.000    0.000    0.000    0.000    0.000    0.000 
#
# Total GULP energy -694588.054758 kJ/mol
# GULP energy per Si atom -12403.358121 kJ/mol
# Density = 2.088991 g / cm^3
# Si number density = 20.937565 Si / 1000 Ang^3
#
#
#
# Elastic Constant Matrix: (Units=GPa)
#
#
# Indices 1 2 3 4 5 6 
#
# 1 122.1692 31.8812 12.7560 0.0000 0.0000 0.0000
# 2 31.8812 88.5902 7.0224 0.0000 0.0000 0.0000
# 3 12.7560 7.0224 51.2258 0.0000 0.0000 0.0000
# 4 0.0000 0.0000 0.0000 23.0224 0.0000 0.0000
# 5 0.0000 0.0000 0.0000 0.0000 23.0130 0.0000
# 6 0.0000 0.0000 0.0000 0.0000 0.0000 37.9611
#
#
#
# Elastic Compliance Matrix: (Units=1/GPa)
#
#
# Indices 1 2 3 4 5 6 
#
# 1 0.009205 -0.003165 -0.001858 0.000000 0.000000 0.000000
# 2 -0.003165 0.012500 -0.000925 0.000000 0.000000 0.000000
# 3 -0.001858 -0.000925 0.020111 0.000000 0.000000 0.000000
# 4 0.000000 0.000000 0.000000 0.043436 0.000000 0.000000
# 5 0.000000 0.000000 0.000000 0.000000 0.043454 0.000000
# 6 0.000000 0.000000 0.000000 0.000000 0.000000 0.026343
#
#
# Mechanical properties :
#
#
# Convention : Reuss Voigt Hill
#
# Bulk Modulus (GPa) = 33.42414 40.58936 37.00675
# Shear Modulus (GPa) = 28.26124 30.82100 29.54112
#
# Velocity S-wave (km/s) = 3.67793 3.84088 3.76029
# Velocity P-wave (km/s) = 5.83392 6.25283 6.04700
#
# Compressibility (1/GPa) = 0.02991849
#
# Stress axis : x y z
#
# Youngs Moduli (GPa) = 108.63108 79.99706 49.72392
#
# Poissons Ratio (x) = 0.25323 0.09240
# Poissons Ratio (y) = 0.34387 0.04601
# Poissons Ratio (z) = 0.20187 0.07403
#
# Static dielectric constant tensor:
#      x y z
#    x 3.869000 0.000000 0.000000 
#    y 0.000000 3.829380 0.000000 
#    z 0.000000 0.000000 3.581920 
# 
# 
# High freq. dielectric constant tensor:
#      x y z
#    x 1.825930 0.000000 0.000000 
#    y 0.000000 1.818010 0.000000 
#    z 0.000000 0.000000 1.813440 
# 
# From -- ./inp_files/8795.got.cif
#   From: 2010.03.12/outbox.cif.g09.slc.cpg/sg55_5_cif.got.tgz:8795.got - 2010.04.16 15:19:21.
