data_PCOD8227683
_publ_section_title
;
Structure prediction by ZEFSAII (Michael W. Deem and Ramdas Pophale) SiO2 
 PCOD8227683
Probable space group: P B A M
;
_chemical_formula_sum "Si O2"
_cell_formula_units_Z 40
_cell_length_a 18.858127
_cell_length_b 7.456398
_cell_length_c 14.053201
_cell_angle_alpha 90.000000
_cell_angle_beta 90.000000
_cell_angle_gamma 90.000000
_cell_volume 1976.072596
_symmetry_space_group_name_H-M "P B A M"
_symmetry_group_IT_number 55
_symmetry_cell_setting 'orthorhombic'
loop_
_space_group_symop_operation_xyz
x,y,z
-x,-y,z
1/2+x,1/2-y,-z
1/2-x,1/2+y,-z
-x,-y,-z
x,y,-z
1/2-x,1/2+y,z
1/2+x,1/2-y,z
loop_
_atom_site_type_symbol
_atom_site_label
_atom_site_fract_x
_atom_site_fract_y
_atom_site_fract_z
Si Si1 0.637506 0.927482 0.396224
Si Si2 0.171734 0.149757 0.800695
Si Si3 0.682911 0.722383 0.888868
Si Si4 0.080447 0.494743 0.799463
Si Si5 0.781500 0.796072 0.396025
O O1 0.598599 0.914596 0.500000
O O2 0.581594 0.934249 0.310335
O O3 0.695965 0.770857 0.383019
O O4 0.688965 0.097218 0.390850
O O5 0.243529 0.244191 0.835744
O O6 0.108013 0.291881 0.810901
O O7 0.182346 0.093517 0.690152
O O8 0.152511 0.972364 0.859694
O O9 0.626047 0.874437 0.865173
O O10 0.698540 0.724898 0.000000
O O11 0.000000 0.500000 0.835261
O O12 0.799107 0.883132 0.500000
#
# Coordination Sequence:
#
# PCOD8227683 Si02
#       5
#     8   8   8   8   8
#     4   9  17  31  56  88 121 157 199 245 303 367
#     4  11  21  40  65  94 125 156 209 257 304 369
#     4  12  24  40  67  93 116 157 212 263 311 365
#     4  11  25  42  61  91 132 166 200 255 316 370
#     4   9  16  29  54  89 119 149 195 252 297 350
#
# _framework density 20.242172
#
# number of rings (size 3 to 8) (size 9 to 14) (size 15 to 20)
#    0.000    1.600    4.000    1.800    0.000    2.400 
#    0.000    1.000    0.000    0.000    0.000    7.000 
#    0.000    0.000    0.000    0.000    0.000    0.000 
#
# Total GULP energy -495784.151444 kJ/mol
# GULP energy per Si atom -12394.603786 kJ/mol
# Density = 2.019610 g / cm^3
# Si number density = 20.242172 Si / 1000 Ang^3
#
#
#
# Elastic Constant Matrix: (Units=GPa)
#
#
# Indices 1 2 3 4 5 6 
#
# 1 73.1896 2.5458 11.5603 0.0000 0.0000 0.0000
# 2 2.5458 54.0917 24.7095 0.0000 0.0000 0.0000
# 3 11.5603 24.7095 109.9001 0.0000 0.0000 0.0000
# 4 0.0000 0.0000 0.0000 28.4145 0.0000 0.0000
# 5 0.0000 0.0000 0.0000 0.0000 9.9185 0.0000
# 6 0.0000 0.0000 0.0000 0.0000 0.0000 23.8728
#
#
#
# Elastic Compliance Matrix: (Units=1/GPa)
#
#
# Indices 1 2 3 4 5 6 
#
# 1 0.013894 0.000015 -0.001465 0.000000 0.000000 0.000000
# 2 0.000015 0.020603 -0.004634 0.000000 0.000000 0.000000
# 3 -0.001465 -0.004634 0.010295 0.000000 0.000000 0.000000
# 4 0.000000 0.000000 0.000000 0.035193 0.000000 0.000000
# 5 0.000000 0.000000 0.000000 0.000000 0.100822 0.000000
# 6 0.000000 0.000000 0.000000 0.000000 0.000000 0.041889
#
#
# Mechanical properties :
#
#
# Convention : Reuss Voigt Hill
#
# Bulk Modulus (GPa) = 30.65118 34.97916 32.81517
# Shear Modulus (GPa) = 20.34683 25.66554 23.00619
#
# Velocity S-wave (km/s) = 3.17388 3.56466 3.37493
# Velocity P-wave (km/s) = 5.34850 5.85322 5.60654
#
# Compressibility (1/GPa) = 0.03262517
#
# Stress axis : x y z
#
# Youngs Moduli (GPa) = 71.97352 48.53610 97.13319
#
# Poissons Ratio (x) = -0.00074 0.14229
# Poissons Ratio (y) = -0.00110 0.45011
# Poissons Ratio (z) = 0.10544 0.22491
#
# Static dielectric constant tensor:
#      x y z
#    x 3.242480 0.000000 0.000000 
#    y 0.000000 3.700290 0.000000 
#    z 0.000000 0.000000 4.110950 
# 
# 
# High freq. dielectric constant tensor:
#      x y z
#    x 1.741310 0.000000 0.000000 
#    y 0.000000 1.791630 0.000000 
#    z 0.000000 0.000000 1.810820 
# 
# From -- ./inp_files/17196.got.cif
#   From: 2010.03.12/outbox.cif.g09.slc.cpg/sg55_9_cif.got.tgz:17196.got - 2010.04.16 15:19:21.
