data_PCOD8227434
_publ_section_title
;
Structure prediction by ZEFSAII (Michael W. Deem and Ramdas Pophale) SiO2 
 PCOD8227434
Probable space group: P B A M
;
_chemical_formula_sum "Si O2"
_cell_formula_units_Z 48
_cell_length_a 9.907757
_cell_length_b 27.466036
_cell_length_c 9.110385
_cell_angle_alpha 90.000000
_cell_angle_beta 90.000000
_cell_angle_gamma 90.000000
_cell_volume 2479.180012
_symmetry_space_group_name_H-M "P B A M"
_symmetry_group_IT_number 55
_symmetry_cell_setting 'orthorhombic'
loop_
_space_group_symop_operation_xyz
x,y,z
-x,-y,z
1/2+x,1/2-y,-z
1/2-x,1/2+y,-z
-x,-y,-z
x,y,-z
1/2-x,1/2+y,z
1/2+x,1/2-y,z
loop_
_atom_site_type_symbol
_atom_site_label
_atom_site_fract_x
_atom_site_fract_y
_atom_site_fract_z
Si Si1 0.010131 0.143206 0.329441
Si Si2 0.110945 0.538152 0.173417
Si Si3 0.534204 0.854028 0.168865
Si Si4 0.758818 0.185254 0.830595
Si Si5 0.385824 0.537961 0.671781
Si Si6 0.757916 0.287241 0.328505
O O1 0.969291 0.142732 0.500000
O O2 0.879375 0.153249 0.233227
O O3 0.069144 0.091603 0.279085
O O4 0.121172 0.183910 0.295319
O O5 0.068428 0.591988 0.225481
O O6 0.251509 0.522680 0.244292
O O7 0.000000 0.500000 0.230090
O O8 0.126257 0.535482 0.000000
O O9 0.375461 0.846312 0.189709
O O10 0.613403 0.815180 0.265699
O O11 0.577516 0.847038 0.000000
O O12 0.743640 0.235294 0.745108
O O13 0.788029 0.196999 0.000000
O O14 0.500000 0.500000 0.718435
O O15 0.355218 0.536074 0.500000
O O16 0.783079 0.280005 0.500000
#
# Coordination Sequence:
#
# PCOD8227434 Si02
#       6
#     8   8   8   8   8   8
#     4  10  22  40  60  87 121 156 197 244 293 348
#     4  10  22  40  63  90 122 156 196 244 293 350
#     4  10  22  40  60  87 121 157 197 244 293 347
#     4  11  24  38  58  88 120 155 198 243 293 352
#     4  10  22  41  63  90 122 155 196 244 293 350
#     4  11  22  39  62  86 116 155 200 245 295 351
#
# _framework density 19.361241
#
# number of rings (size 3 to 8) (size 9 to 14) (size 15 to 20)
#    0.000    1.667    1.667    2.000    2.333    6.667 
#    0.000    0.000    0.000    0.000    0.000    0.000 
#    0.000    0.000    0.000    0.000    0.000    0.000 
#
# Total GULP energy -595517.232844 kJ/mol
# GULP energy per Si atom -12406.609018 kJ/mol
# Density = 1.931717 g / cm^3
# Si number density = 19.361241 Si / 1000 Ang^3
#
#
#
# Elastic Constant Matrix: (Units=GPa)
#
#
# Indices 1 2 3 4 5 6 
#
# 1 133.6170 51.4245 55.8157 0.0000 0.0000 0.0000
# 2 51.4245 105.5834 30.9834 0.0000 0.0000 0.0000
# 3 55.8157 30.9834 64.4250 0.0000 0.0000 0.0000
# 4 0.0000 0.0000 0.0000 3.3854 0.0000 0.0000
# 5 0.0000 0.0000 0.0000 0.0000 38.3008 0.0000
# 6 0.0000 0.0000 0.0000 0.0000 0.0000 36.2227
#
#
#
# Elastic Compliance Matrix: (Units=1/GPa)
#
#
# Indices 1 2 3 4 5 6 
#
# 1 0.012723 -0.003449 -0.009364 0.000000 0.000000 0.000000
# 2 -0.003449 0.011962 -0.002765 0.000000 0.000000 0.000000
# 3 -0.009364 -0.002765 0.024965 0.000000 0.000000 0.000000
# 4 0.000000 0.000000 0.000000 0.295390 0.000000 0.000000
# 5 0.000000 0.000000 0.000000 0.000000 0.026109 0.000000
# 6 0.000000 0.000000 0.000000 0.000000 0.000000 0.027607
#
#
# Mechanical properties :
#
#
# Convention : Reuss Voigt Hill
#
# Bulk Modulus (GPa) = 54.07214 64.45253 59.26233
# Shear Modulus (GPa) = 11.46586 26.60855 19.03721
#
# Velocity S-wave (km/s) = 2.43617 3.71120 3.13911
# Velocity P-wave (km/s) = 5.99182 7.19206 6.61920
#
# Compressibility (1/GPa) = 0.01849381
#
# Stress axis : x y z
#
# Youngs Moduli (GPa) = 78.59679 83.59568 40.05681
#
# Poissons Ratio (x) = 0.28831 0.37510
# Poissons Ratio (y) = 0.27107 0.11075
# Poissons Ratio (z) = 0.73600 0.23114
#
# Static dielectric constant tensor:
#      x y z
#    x 3.591200 0.000000 0.000000 
#    y 0.000000 3.684470 0.000000 
#    z 0.000000 0.000000 3.551430 
# 
# 
# High freq. dielectric constant tensor:
#      x y z
#    x 1.765720 0.000000 0.000000 
#    y 0.000000 1.765960 0.000000 
#    z 0.000000 0.000000 1.752150 
# 
# From -- ./inp_files/2855.got.cif
#   From: 2010.03.12/outbox.cif.g09.slc.cpg/sg55_2_cif.got.tgz:2855.got - 2010.04.16 15:19:21.
