data_PCOD8227397
_publ_section_title
;
Structure prediction by ZEFSAII (Michael W. Deem and Ramdas Pophale) SiO2 
 PCOD8227397
Probable space group: P B A M
;
_chemical_formula_sum "Si O2"
_cell_formula_units_Z 28
_cell_length_a 4.892447
_cell_length_b 11.729585
_cell_length_c 19.435977
_cell_angle_alpha 90.000000
_cell_angle_beta 90.000000
_cell_angle_gamma 90.000000
_cell_volume 1115.360225
_symmetry_space_group_name_H-M "P B A M"
_symmetry_group_IT_number 55
_symmetry_cell_setting 'orthorhombic'
loop_
_space_group_symop_operation_xyz
x,y,z
-x,-y,z
1/2+x,1/2-y,-z
1/2-x,1/2+y,-z
-x,-y,-z
x,y,-z
1/2-x,1/2+y,z
1/2+x,1/2-y,z
loop_
_atom_site_type_symbol
_atom_site_label
_atom_site_fract_x
_atom_site_fract_y
_atom_site_fract_z
Si Si1 0.749352 0.670725 0.852921
Si Si2 0.362965 0.823517 0.000000
Si Si3 0.000000 0.500000 0.249999
Si Si4 0.862977 0.323518 0.500000
Si Si5 0.749364 0.329274 0.647078
O O1 0.444537 0.718846 0.844059
O O2 0.799497 0.575929 0.796018
O O3 0.789431 0.611681 0.928701
O O4 0.683520 0.793387 0.000000
O O5 0.799507 0.424067 0.296016
O O6 0.683531 0.206614 0.500000
O O7 0.789445 0.388320 0.571299
O O8 0.444547 0.281155 0.655940
#
# Coordination Sequence:
#
# PCOD8227397 Si02
#       5
#     8   4   4   4   8
#     4  10  22  39  58  83 113 146 187 230 274 328
#     4   8  16  35  58  77 106 144 182 229 272 315
#     4  12  24  36  60  84 116 152 180 226 284 334
#     4   8  16  35  58  77 106 144 182 229 272 315
#     4  10  22  39  58  83 113 146 187 230 274 328
#
# _framework density 25.103998000000001
#
# number of rings (size 3 to 8) (size 9 to 14) (size 15 to 20)
#    0.000    2.286    0.000    1.714    0.000    5.714 
#    0.000    0.000    0.000   20.571    0.000    0.000 
#    0.000    0.000    0.000    0.000    0.000    0.000 
#
# Total GULP energy -347073.524305 kJ/mol
# GULP energy per Si atom -12395.483011 kJ/mol
# Density = 2.504686 g / cm^3
# Si number density = 25.103998 Si / 1000 Ang^3
#
#
#
# Elastic Constant Matrix: (Units=GPa)
#
#
# Indices 1 2 3 4 5 6 
#
# 1 72.9141 -0.1978 -3.4599 0.0000 0.0000 0.0000
# 2 -0.1978 60.4499 57.4927 0.0000 0.0000 0.0000
# 3 -3.4599 57.4927 203.8295 0.0000 0.0000 0.0000
# 4 0.0000 0.0000 0.0000 -158.4721 0.0000 0.0000
# 5 0.0000 0.0000 0.0000 0.0000 6.8750 0.0000
# 6 0.0000 0.0000 0.0000 0.0000 0.0000 4.9361
#
#
#
# Elastic Compliance Matrix: (Units=1/GPa)
#
#
# Indices 1 2 3 4 5 6 
#
# 1 0.013728 -0.000241 0.000301 0.000000 0.000000 0.000000
# 2 -0.000241 0.022612 -0.006382 0.000000 0.000000 0.000000
# 3 0.000301 -0.006382 0.006711 0.000000 0.000000 0.000000
# 4 0.000000 0.000000 0.000000 -0.006310 0.000000 0.000000
# 5 0.000000 0.000000 0.000000 0.000000 0.145454 0.000000
# 6 0.000000 0.000000 0.000000 0.000000 0.000000 0.202589
#
#
# Mechanical properties :
#
#
# Convention : Reuss Voigt Hill
#
# Bulk Modulus (GPa) = 32.88754 49.42928 41.15841
# Shear Modulus (GPa) = 12.26803 -10.44163 0.91320
#
# Velocity S-wave (km/s) = 2.21303 -2.04166 0.60379
# Velocity P-wave (km/s) = 4.43384 3.76493 4.11301
#
# Compressibility (1/GPa) = 0.03040665
#
# Stress axis : x y z
#
# Youngs Moduli (GPa) = 72.84166 44.22506 149.00255
#
# Poissons Ratio (x) = 0.01068 -0.04487
# Poissons Ratio (y) = 0.01759 0.95093
# Poissons Ratio (z) = -0.02194 0.28224
#
# Static dielectric constant tensor:
#      x y z
#    x 4.410850 0.000000 0.000000 
#    y 0.000000 3.718190 0.000000 
#    z 0.000000 0.000000 5.360670 
# 
# 
# High freq. dielectric constant tensor:
#      x y z
#    x 2.012160 0.000000 0.000000 
#    y 0.000000 1.932350 0.000000 
#    z 0.000000 0.000000 2.041030 
# 
# From -- ./inp_files/15116.got.cif
#   From: 2010.03.12/outbox.cif.g09.slc.cpg/sg55_8_cif.got.tgz:15116.got - 2010.04.16 15:19:21.
