data_PCOD8227436
_publ_section_title
;
Structure prediction by ZEFSAII (Michael W. Deem and Ramdas Pophale) SiO2 
 PCOD8227436
Probable space group: P B A M
;
_chemical_formula_sum "Si O2"
_cell_formula_units_Z 64
_cell_length_a 15.464075
_cell_length_b 23.845060
_cell_length_c 8.571916
_cell_angle_alpha 90.000000
_cell_angle_beta 90.000000
_cell_angle_gamma 90.000000
_cell_volume 3160.823703
_symmetry_space_group_name_H-M "P B A M"
_symmetry_group_IT_number 55
_symmetry_cell_setting 'orthorhombic'
loop_
_space_group_symop_operation_xyz
x,y,z
-x,-y,z
1/2+x,1/2-y,-z
1/2-x,1/2+y,-z
-x,-y,-z
x,y,-z
1/2-x,1/2+y,z
1/2+x,1/2-y,z
loop_
_atom_site_type_symbol
_atom_site_label
_atom_site_fract_x
_atom_site_fract_y
_atom_site_fract_z
Si Si1 0.583592 0.635085 0.183215
Si Si2 0.755240 0.063951 0.183699
Si Si3 0.749791 0.441913 0.316947
Si Si4 0.908295 0.368682 0.316247
Si Si5 0.404694 0.641071 0.681507
Si Si6 0.909890 0.629786 0.182197
Si Si7 0.834819 0.748803 0.819370
Si Si8 0.850767 0.247771 0.317365
O O1 0.661533 0.596972 0.250054
O O2 0.497351 0.615348 0.272765
O O3 0.603315 0.699783 0.218194
O O4 0.570064 0.626597 0.000000
O O5 0.667957 0.092047 0.251800
O O6 0.761259 0.999560 0.227090
O O7 0.754348 0.072082 0.000000
O O8 0.755508 0.454149 0.500000
O O9 0.835695 0.411351 0.251994
O O10 0.667850 0.403899 0.274707
O O11 0.900440 0.367801 0.500000
O O12 0.889591 0.306209 0.253579
O O13 0.002118 0.389861 0.264447
O O14 0.400771 0.656737 0.500000
O O15 0.392036 0.697060 0.782504
O O16 0.892165 0.694647 0.220553
O O17 0.921332 0.619231 0.000000
O O18 0.751500 0.748270 0.709722
O O19 0.805976 0.747970 0.000000
O O20 0.869565 0.238627 0.500000
#
# Coordination Sequence:
#
# PCOD8227436 Si02
#       8
#     8   8   8   8   8   8   8   8
#     4  11  23  41  62  90 125 158 200 250 301 362
#     4  10  23  43  62  84 119 157 202 253 300 354
#     4  10  23  43  62  84 119 157 202 253 300 354
#     4  10  22  40  60  88 122 156 195 244 295 352
#     4  11  23  41  62  90 125 158 200 250 301 362
#     4  10  22  40  60  88 122 156 195 244 295 352
#     4  11  21  37  62  91 125 161 198 243 301 361
#     4  11  21  37  62  91 125 161 198 243 301 361
#
# _framework density 20.247886000000001
#
# number of rings (size 3 to 8) (size 9 to 14) (size 15 to 20)
#    0.000    1.500    2.500    2.250    0.000    8.000 
#    0.000    5.000    0.000    0.000    0.000    0.000 
#    0.000    0.000    0.000    0.000    0.000    0.000 
#
# Total GULP energy -793935.416362 kJ/mol
# GULP energy per Si atom -12405.240881 kJ/mol
# Density = 2.020180 g / cm^3
# Si number density = 20.247886 Si / 1000 Ang^3
#
#
#
# Elastic Constant Matrix: (Units=GPa)
#
#
# Indices 1 2 3 4 5 6 
#
# 1 159.4566 49.1555 15.4463 0.0000 0.0000 0.0000
# 2 49.1555 113.1072 18.6475 0.0000 0.0000 0.0000
# 3 15.4463 18.6475 25.0855 0.0000 0.0000 0.0000
# 4 0.0000 0.0000 0.0000 28.3762 0.0000 0.0000
# 5 0.0000 0.0000 0.0000 0.0000 35.8292 0.0000
# 6 0.0000 0.0000 0.0000 0.0000 0.0000 15.7004
#
#
#
# Elastic Compliance Matrix: (Units=1/GPa)
#
#
# Indices 1 2 3 4 5 6 
#
# 1 0.007372 -0.002798 -0.002459 0.000000 0.000000 0.000000
# 2 -0.002798 0.011138 -0.006557 0.000000 0.000000 0.000000
# 3 -0.002459 -0.006557 0.046252 0.000000 0.000000 0.000000
# 4 0.000000 0.000000 0.000000 0.035241 0.000000 0.000000
# 5 0.000000 0.000000 0.000000 0.000000 0.027910 0.000000
# 6 0.000000 0.000000 0.000000 0.000000 0.000000 0.063693
#
#
# Mechanical properties :
#
#
# Convention : Reuss Voigt Hill
#
# Bulk Modulus (GPa) = 24.31090 51.57199 37.94145
# Shear Modulus (GPa) = 21.83924 30.27449 26.05687
#
# Velocity S-wave (km/s) = 3.28776 3.87097 3.59122
# Velocity P-wave (km/s) = 5.14249 6.74572 5.99791
#
# Compressibility (1/GPa) = 0.04113380
#
# Stress axis : x y z
#
# Youngs Moduli (GPa) = 135.64491 89.78006 21.62084
#
# Poissons Ratio (x) = 0.25125 0.05317
# Poissons Ratio (y) = 0.37960 0.14176
# Poissons Ratio (z) = 0.33357 0.58865
#
# Static dielectric constant tensor:
#      x y z
#    x 3.932030 0.000000 0.000000 
#    y 0.000000 3.642320 0.000000 
#    z 0.000000 0.000000 3.471580 
# 
# 
# High freq. dielectric constant tensor:
#      x y z
#    x 1.807750 0.000000 0.000000 
#    y 0.000000 1.786950 0.000000 
#    z 0.000000 0.000000 1.780260 
# 
# From -- ./inp_files/6644.got.cif
#   From: 2010.03.12/outbox.cif.g09.slc.cpg/sg55_4_cif.got.tgz:6644.got - 2010.04.16 15:19:21.
