data_PCOD8227377
_publ_section_title
;
Structure prediction by ZEFSAII (Michael W. Deem and Ramdas Pophale) SiO2 
 PCOD8227377
Probable space group: P B A M
;
_chemical_formula_sum "Si O2"
_cell_formula_units_Z 48
_cell_length_a 14.327972
_cell_length_b 20.025098
_cell_length_c 8.882094
_cell_angle_alpha 90.000000
_cell_angle_beta 90.000000
_cell_angle_gamma 90.000000
_cell_volume 2548.441914
_symmetry_space_group_name_H-M "P B A M"
_symmetry_group_IT_number 55
_symmetry_cell_setting 'orthorhombic'
loop_
_space_group_symop_operation_xyz
x,y,z
-x,-y,z
1/2+x,1/2-y,-z
1/2-x,1/2+y,-z
-x,-y,-z
x,y,-z
1/2-x,1/2+y,z
1/2+x,1/2-y,z
loop_
_atom_site_type_symbol
_atom_site_label
_atom_site_fract_x
_atom_site_fract_y
_atom_site_fract_z
Si Si1 0.019372 0.618730 0.675372
Si Si2 0.185035 0.177578 0.322419
Si Si3 0.704441 0.932252 0.826649
Si Si4 0.666091 0.081360 0.173503
Si Si5 0.983712 0.225817 0.324615
Si Si6 0.795528 0.203142 0.177107
O O1 0.038398 0.606350 0.500000
O O2 0.103031 0.588561 0.770042
O O3 0.008474 0.696370 0.713794
O O4 0.925206 0.581372 0.723062
O O5 0.195659 0.182486 0.500000
O O6 0.214085 0.104301 0.266340
O O7 0.256231 0.230640 0.253579
O O8 0.079566 0.191534 0.270880
O O9 0.718786 0.011234 0.804350
O O10 0.713142 0.911383 0.000000
O O11 0.735812 0.139227 0.227812
O O12 0.636067 0.091640 0.000000
O O13 0.965048 0.213774 0.500000
O O14 0.901147 0.191517 0.231247
O O15 0.793562 0.213196 0.000000
#
# Coordination Sequence:
#
# PCOD8227377 Si02
#       6
#     8   8   8   8   8   8
#     4  11  21  35  58  88 120 153 190 235 288 344
#     4  11  22  39  60  84 115 151 192 237 284 339
#     4  11  23  39  58  84 119 156 191 238 289 340
#     4  10  23  40  57  84 121 155 193 236 287 343
#     4  10  22  38  58  86 119 150 187 239 287 334
#     4  11  22  37  61  87 113 151 193 235 283 340
#
# _framework density 18.835038000000001
#
# number of rings (size 3 to 8) (size 9 to 14) (size 15 to 20)
#    0.000    1.333    3.333    2.500    0.000    6.000 
#    0.000    0.833    0.000    5.000    0.000    0.000 
#    0.000    0.000    0.000    0.000    0.000    0.000 
#
# Total GULP energy -595505.112414 kJ/mol
# GULP energy per Si atom -12406.356509 kJ/mol
# Density = 1.879217 g / cm^3
# Si number density = 18.835038 Si / 1000 Ang^3
#
#
#
# Elastic Constant Matrix: (Units=GPa)
#
#
# Indices 1 2 3 4 5 6 
#
# 1 82.8159 3.3403 28.3434 0.0000 0.0000 0.0000
# 2 3.3403 52.7000 14.4097 0.0000 0.0000 0.0000
# 3 28.3434 14.4097 50.8155 0.0000 0.0000 0.0000
# 4 0.0000 0.0000 0.0000 26.0028 0.0000 0.0000
# 5 0.0000 0.0000 0.0000 0.0000 34.3391 0.0000
# 6 0.0000 0.0000 0.0000 0.0000 0.0000 20.9912
#
#
#
# Elastic Compliance Matrix: (Units=1/GPa)
#
#
# Indices 1 2 3 4 5 6 
#
# 1 0.015026 0.001452 -0.008793 0.000000 0.000000 0.000000
# 2 0.001452 0.020711 -0.006683 0.000000 0.000000 0.000000
# 3 -0.008793 -0.006683 0.026478 0.000000 0.000000 0.000000
# 4 0.000000 0.000000 0.000000 0.038457 0.000000 0.000000
# 5 0.000000 0.000000 0.000000 0.000000 0.029121 0.000000
# 6 0.000000 0.000000 0.000000 0.000000 0.000000 0.047639
#
#
# Mechanical properties :
#
#
# Convention : Reuss Voigt Hill
#
# Bulk Modulus (GPa) = 29.26748 30.94647 30.10697
# Shear Modulus (GPa) = 23.05551 25.61583 24.33567
#
# Velocity S-wave (km/s) = 3.50247 3.69183 3.59840
# Velocity P-wave (km/s) = 5.65058 5.88547 5.76922
#
# Compressibility (1/GPa) = 0.03416762
#
# Stress axis : x y z
#
# Youngs Moduli (GPa) = 66.55301 48.28467 37.76693
#
# Poissons Ratio (x) = -0.07010 0.33207
# Poissons Ratio (y) = -0.09662 0.25238
# Poissons Ratio (z) = 0.58517 0.32267
#
# Static dielectric constant tensor:
#      x y z
#    x 3.513500 0.000000 0.000000 
#    y 0.000000 3.559070 0.000000 
#    z 0.000000 0.000000 3.489880 
# 
# 
# High freq. dielectric constant tensor:
#      x y z
#    x 1.731650 0.000000 0.000000 
#    y 0.000000 1.729980 0.000000 
#    z 0.000000 0.000000 1.740000 
# 
# From -- ./inp_files/5550.got.cif
#   From: 2010.03.12/outbox.cif.g09.slc.cpg/sg55_3_cif.got.tgz:5550.got - 2010.04.16 15:19:21.
