data_PCOD8227423
_publ_section_title
;
Structure prediction by ZEFSAII (Michael W. Deem and Ramdas Pophale) SiO2 
 PCOD8227423
Probable space group: P B A M
;
_chemical_formula_sum "Si O2"
_cell_formula_units_Z 32
_cell_length_a 10.310598
_cell_length_b 13.621318
_cell_length_c 11.264226
_cell_angle_alpha 90.000000
_cell_angle_beta 90.000000
_cell_angle_gamma 90.000000
_cell_volume 1581.992214
_symmetry_space_group_name_H-M "P B A M"
_symmetry_group_IT_number 55
_symmetry_cell_setting 'orthorhombic'
loop_
_space_group_symop_operation_xyz
x,y,z
-x,-y,z
1/2+x,1/2-y,-z
1/2-x,1/2+y,-z
-x,-y,-z
x,y,-z
1/2-x,1/2+y,z
1/2+x,1/2-y,z
loop_
_atom_site_type_symbol
_atom_site_label
_atom_site_fract_x
_atom_site_fract_y
_atom_site_fract_z
Si Si1 0.204436 0.162942 0.860781
Si Si2 0.555157 0.736789 0.245400
Si Si3 0.968598 0.327027 0.500000
Si Si4 0.638109 0.527724 0.728328
Si Si5 0.191487 0.477266 0.500000
O O1 0.351393 0.183993 0.816892
O O2 0.093067 0.233599 0.803450
O O3 0.179247 0.049214 0.829524
O O4 0.196637 0.177786 0.000000
O O5 0.548591 0.757503 0.386001
O O6 0.627701 0.635133 0.214580
O O7 0.868358 0.415362 0.500000
O O8 0.106054 0.379754 0.500000
O O9 0.500000 0.500000 0.672727
O O10 0.734070 0.528872 0.620816
#
# Coordination Sequence:
#
# PCOD8227423 Si02
#       5
#     8   8   4   8   4
#     4  11  24  42  64  91 126 170 219 264 313 375
#     4  11  23  42  65  94 128 166 212 264 321 379
#     4  11  23  37  66  93 127 161 200 259 326 380
#     4  10  22  39  64  90 125 166 210 257 317 385
#     4  11  20  39  61  93 129 156 199 257 322 373
#
# _framework density 20.227658999999999
#
# number of rings (size 3 to 8) (size 9 to 14) (size 15 to 20)
#    0.000    1.250    2.500    3.375    0.000    9.500 
#    0.000    0.000    0.000    4.500    0.000    0.000 
#    0.000    0.000    0.000    0.000    0.000    0.000 
#
# Total GULP energy -396665.741520 kJ/mol
# GULP energy per Si atom -12395.804423 kJ/mol
# Density = 2.018162 g / cm^3
# Si number density = 20.227659 Si / 1000 Ang^3
#
#
#
# Elastic Constant Matrix: (Units=GPa)
#
#
# Indices 1 2 3 4 5 6 
#
# 1 86.5276 24.0622 41.8187 0.0000 0.0000 0.0000
# 2 24.0622 96.6129 28.1146 0.0000 0.0000 0.0000
# 3 41.8187 28.1146 141.1380 0.0000 0.0000 0.0000
# 4 0.0000 0.0000 0.0000 38.1835 0.0000 0.0000
# 5 0.0000 0.0000 0.0000 0.0000 33.6004 0.0000
# 6 0.0000 0.0000 0.0000 0.0000 0.0000 34.2042
#
#
#
# Elastic Compliance Matrix: (Units=1/GPa)
#
#
# Indices 1 2 3 4 5 6 
#
# 1 0.014002 -0.002420 -0.003667 0.000000 0.000000 0.000000
# 2 -0.002420 0.011406 -0.001555 0.000000 0.000000 0.000000
# 3 -0.003667 -0.001555 0.008481 0.000000 0.000000 0.000000
# 4 0.000000 0.000000 0.000000 0.026189 0.000000 0.000000
# 5 0.000000 0.000000 0.000000 0.000000 0.029762 0.000000
# 6 0.000000 0.000000 0.000000 0.000000 0.000000 0.029236
#
#
# Mechanical properties :
#
#
# Convention : Reuss Voigt Hill
#
# Bulk Modulus (GPa) = 53.74714 56.91883 55.33298
# Shear Modulus (GPa) = 35.57143 36.54981 36.06062
#
# Velocity S-wave (km/s) = 4.19806 4.25540 4.22683
# Velocity P-wave (km/s) = 7.08005 7.23497 7.15793
#
# Compressibility (1/GPa) = 0.01860564
#
# Stress axis : x y z
#
# Youngs Moduli (GPa) = 71.41747 87.67414 117.90474
#
# Poissons Ratio (x) = 0.21220 0.43232
# Poissons Ratio (y) = 0.17285 0.18333
# Poissons Ratio (z) = 0.26186 0.13632
#
# Static dielectric constant tensor:
#      x y z
#    x 4.000340 0.000000 0.000000 
#    y 0.000000 3.902330 0.000000 
#    z 0.000000 0.000000 3.511610 
# 
# 
# High freq. dielectric constant tensor:
#      x y z
#    x 1.804090 0.000000 0.000000 
#    y 0.000000 1.798110 0.000000 
#    z 0.000000 0.000000 1.784660 
# 
# From -- ./inp_files/3339.got.cif
#   From: 2010.03.12/outbox.cif.g09.slc.cpg/sg55_2_cif.got.tgz:3339.got - 2010.04.16 15:19:21.
