data_PCOD8227004
_publ_section_title
;
Structure prediction by ZEFSAII (Michael W. Deem and Ramdas Pophale) SiO2 
 PCOD8227004
Probable space group: P B A M
;
_chemical_formula_sum "Si O2"
_cell_formula_units_Z 52
_cell_length_a 24.893470
_cell_length_b 14.644211
_cell_length_c 7.468295
_cell_angle_alpha 90.000000
_cell_angle_beta 90.000000
_cell_angle_gamma 90.000000
_cell_volume 2722.531298
_symmetry_space_group_name_H-M "P B A M"
_symmetry_group_IT_number 55
_symmetry_cell_setting 'orthorhombic'
loop_
_space_group_symop_operation_xyz
x,y,z
-x,-y,z
1/2+x,1/2-y,-z
1/2-x,1/2+y,-z
-x,-y,-z
x,y,-z
1/2-x,1/2+y,z
1/2+x,1/2-y,z
loop_
_atom_site_type_symbol
_atom_site_label
_atom_site_fract_x
_atom_site_fract_y
_atom_site_fract_z
Si Si1 0.333670 0.685280 0.705566
Si Si2 0.536356 0.715661 0.000000
Si Si3 0.380555 0.445666 0.000000
Si Si4 0.416723 0.644648 0.000000
Si Si5 0.972487 0.360526 0.710131
Si Si6 0.419852 0.953260 0.710169
Si Si7 0.703027 0.512596 0.291024
Si Si8 0.307795 0.885116 0.709501
O O1 0.353071 0.687843 0.500000
O O2 0.387277 0.682589 0.823360
O O3 0.295917 0.597169 0.742492
O O4 0.300296 0.777266 0.752570
O O5 0.580964 0.639355 0.000000
O O6 0.545964 0.773058 0.179851
O O7 0.477593 0.673966 0.000000
O O8 0.344850 0.442429 0.179436
O O9 0.416771 0.535609 0.000000
O O10 0.972627 0.336928 0.500000
O O11 0.930191 0.440925 0.754008
O O12 0.031186 0.391294 0.782131
O O13 0.418844 0.937972 0.500000
O O14 0.363510 0.921124 0.797380
O O15 0.693859 0.535449 0.500000
O O16 0.758078 0.556318 0.214830
O O17 0.310333 0.903430 0.500000
#
# Coordination Sequence:
#
# PCOD8227004 Si02
#       8
#     8   4   4   4   8   8   8   8
#     4   9  18  34  56  82 107 136 178 222 264 312
#     4  12  23  35  55  81 102 138 185 217 265 335
#     4  10  23  41  53  72 107 138 176 230 273 313
#     4  10  21  37  58  77 101 137 177 228 271 307
#     4   9  19  35  53  79 116 145 168 213 269 319
#     4   8  15  31  54  80 113 145 174 215 263 312
#     4   9  19  37  56  76 107 143 176 221 272 311
#     4   9  16  30  56  84 106 140 184 217 256 316
#
# _framework density 19.099872999999999
#
# number of rings (size 3 to 8) (size 9 to 14) (size 15 to 20)
#    0.000    2.769    0.000    2.077    0.000    4.308 
#    2.769    2.308    0.000    4.615    0.000    0.000 
#    0.000    0.000    0.000    0.000    0.000    0.000 
#
# Total GULP energy -644624.907858 kJ/mol
# GULP energy per Si atom -12396.632843 kJ/mol
# Density = 1.905640 g / cm^3
# Si number density = 19.099873 Si / 1000 Ang^3
#
#
#
# Elastic Constant Matrix: (Units=GPa)
#
#
# Indices 1 2 3 4 5 6 
#
# 1 106.1299 91.0301 37.6034 0.0000 0.0000 0.0000
# 2 91.0301 145.3168 49.3884 0.0000 0.0000 0.0000
# 3 37.6034 49.3884 78.7194 0.0000 0.0000 0.0000
# 4 0.0000 0.0000 0.0000 22.9416 0.0000 0.0000
# 5 0.0000 0.0000 0.0000 0.0000 13.9718 0.0000
# 6 0.0000 0.0000 0.0000 0.0000 0.0000 34.1216
#
#
#
# Elastic Compliance Matrix: (Units=1/GPa)
#
#
# Indices 1 2 3 4 5 6 
#
# 1 0.020666 -0.012190 -0.002224 0.000000 0.000000 0.000000
# 2 -0.012190 0.015937 -0.004176 0.000000 0.000000 0.000000
# 3 -0.002224 -0.004176 0.016386 0.000000 0.000000 0.000000
# 4 0.000000 0.000000 0.000000 0.043589 0.000000 0.000000
# 5 0.000000 0.000000 0.000000 0.000000 0.071573 0.000000
# 6 0.000000 0.000000 0.000000 0.000000 0.000000 0.029307
#
#
# Mechanical properties :
#
#
# Convention : Reuss Voigt Hill
#
# Bulk Modulus (GPa) = 63.25468 76.24554 69.75011
# Shear Modulus (GPa) = 20.84152 24.34993 22.59572
#
# Velocity S-wave (km/s) = 3.30689 3.57441 3.44325
# Velocity P-wave (km/s) = 6.91162 7.55257 7.23919
#
# Compressibility (1/GPa) = 0.01580911
#
# Stress axis : x y z
#
# Youngs Moduli (GPa) = 48.38904 62.74841 61.02922
#
# Poissons Ratio (x) = 0.76489 0.13573
# Poissons Ratio (y) = 0.58985 0.25484
# Poissons Ratio (z) = 0.10762 0.26202
#
# Static dielectric constant tensor:
#      x y z
#    x 3.635600 0.000000 0.000000 
#    y 0.000000 3.566360 0.000000 
#    z 0.000000 0.000000 3.409210 
# 
# 
# High freq. dielectric constant tensor:
#      x y z
#    x 1.724770 0.000000 0.000000 
#    y 0.000000 1.744850 0.000000 
#    z 0.000000 0.000000 1.741990 
# 
# From -- ./inp_files/6377.got.cif
#   From: 2010.03.12/outbox.cif.g09.slc.cpg/sg55_4_cif.got.tgz:6377.got - 2010.04.16 15:19:21.
