data_PCOD8227894
_publ_section_title
;
Structure prediction by ZEFSAII (Michael W. Deem and Ramdas Pophale) SiO2 
 PCOD8227894
Probable space group: P C C N
;
_chemical_formula_sum "Si O2"
_cell_formula_units_Z 56
_cell_length_a 18.978934
_cell_length_b 8.341157
_cell_length_c 17.975432
_cell_angle_alpha 90.000000
_cell_angle_beta 90.000000
_cell_angle_gamma 90.000000
_cell_volume 2845.623559
_symmetry_space_group_name_H-M "P C C N"
_symmetry_group_IT_number 56
_symmetry_cell_setting 'orthorhombic'
loop_
_space_group_symop_operation_xyz
x,y,z
1/2-x,1/2-y,z
1/2+x,-y,1/2-z
-x,1/2+y,1/2-z
-x,-y,-z
1/2+x,1/2+y,-z
1/2-x,y,1/2+z
x,1/2-y,1/2+z
loop_
_atom_site_type_symbol
_atom_site_label
_atom_site_fract_x
_atom_site_fract_y
_atom_site_fract_z
Si Si1 0.327916 0.690529 0.944884
Si Si2 0.324350 0.181615 0.694374
Si Si3 0.443300 0.424904 0.696062
Si Si4 0.565315 0.317059 0.189192
Si Si5 0.320772 0.673726 0.213192
Si Si6 0.221285 0.090230 0.041982
Si Si7 0.850279 0.118053 0.415383
O O1 0.250000 0.750000 0.917885
O O2 0.383525 0.655037 0.880491
O O3 0.318908 0.519318 0.983799
O O4 0.363088 0.824624 0.999573
O O5 0.250000 0.250000 0.718598
O O6 0.382778 0.303815 0.723433
O O7 0.332245 0.152364 0.605690
O O8 0.329546 0.010635 0.734837
O O9 0.466832 0.521925 0.771493
O O10 0.507429 0.314903 0.667066
O O11 0.417006 0.533942 0.625650
O O12 0.611949 0.260920 0.256558
O O13 0.250000 0.750000 0.248437
O O14 0.324517 0.717847 0.125321
O O15 0.250000 0.250000 0.999718
O O16 0.285219 0.005464 0.087054
#
# Coordination Sequence:
#
# PCOD8227894 Si02
#       7
#     8   8   8   8   8   8   8
#     4  10  21  39  62  94 126 153 188 253 316 356
#     4  11  18  32  63  90 108 148 207 254 282 348
#     4  11  23  41  60  84 120 166 210 243 293 364
#     4  11  25  41  58  83 126 163 200 256 308 353
#     4  11  18  34  60  88 114 157 205 246 297 365
#     4  10  17  33  61  93 116 147 189 253 293 350
#     4  10  18  34  64  89 116 153 200 247 296 359
#
# _framework density 19.679342999999999
#
# number of rings (size 3 to 8) (size 9 to 14) (size 15 to 20)
#    0.000    1.429    5.714    2.571    0.000    0.571 
#    0.000    8.571    0.000    0.000    0.000    0.000 
#    0.000    0.000    0.000    0.000    0.000    0.000 
#
# Total GULP energy -693822.591382 kJ/mol
# GULP energy per Si atom -12389.689132 kJ/mol
# Density = 1.963455 g / cm^3
# Si number density = 19.679343 Si / 1000 Ang^3
#
#
#
# Elastic Constant Matrix: (Units=GPa)
#
#
# Indices 1 2 3 4 5 6 
#
# 1 83.7477 21.5692 30.1091 0.0000 0.0000 0.0000
# 2 21.5692 104.6793 29.3493 0.0000 0.0000 0.0000
# 3 30.1091 29.3493 78.6242 0.0000 0.0000 0.0000
# 4 0.0000 0.0000 0.0000 27.5348 0.0000 0.0000
# 5 0.0000 0.0000 0.0000 0.0000 66.5229 0.0000
# 6 0.0000 0.0000 0.0000 0.0000 0.0000 39.0780
#
#
#
# Elastic Compliance Matrix: (Units=1/GPa)
#
#
# Indices 1 2 3 4 5 6 
#
# 1 0.014069 -0.001551 -0.004809 0.000000 0.000000 0.000000
# 2 -0.001551 0.010841 -0.003453 0.000000 0.000000 0.000000
# 3 -0.004809 -0.003453 0.015849 0.000000 0.000000 0.000000
# 4 0.000000 0.000000 0.000000 0.036318 0.000000 0.000000
# 5 0.000000 0.000000 0.000000 0.000000 0.015032 0.000000
# 6 0.000000 0.000000 0.000000 0.000000 0.000000 0.025590
#
#
# Mechanical properties :
#
#
# Convention : Reuss Voigt Hill
#
# Bulk Modulus (GPa) = 47.31704 47.67848 47.49776
# Shear Modulus (GPa) = 34.63377 39.02872 36.83124
#
# Velocity S-wave (km/s) = 4.19967 4.45818 4.33086
# Velocity P-wave (km/s) = 6.90018 7.12606 7.01403
#
# Compressibility (1/GPa) = 0.02113404
#
# Stress axis : x y z
#
# Youngs Moduli (GPa) = 71.07896 92.24604 63.09484
#
# Poissons Ratio (x) = 0.14304 0.30341
# Poissons Ratio (y) = 0.11022 0.21786
# Poissons Ratio (z) = 0.34181 0.31851
#
# Static dielectric constant tensor:
#      x y z
#    x 3.314190 0.000000 0.000000 
#    y 0.000000 3.623920 0.000000 
#    z 0.000000 0.000000 3.260990 
# 
# 
# High freq. dielectric constant tensor:
#      x y z
#    x 1.747950 0.000000 0.000000 
#    y 0.000000 1.790080 0.000000 
#    z 0.000000 0.000000 1.736350 
# 
# From -- ./inp_files/16831.got.cif
#   From: 2010.03.12/outbox.cif.g09.slc.cpg/sg56_9_cif.got.tgz:16831.got - 2010.04.16 15:33:40.
