data_PCOD8227072
_publ_section_title
;
Structure prediction by ZEFSAII (Michael W. Deem and Ramdas Pophale) SiO2 
 PCOD8227072
Probable space group: P B A M
;
_chemical_formula_sum "Si O2"
_cell_formula_units_Z 40
_cell_length_a 7.643361
_cell_length_b 29.228709
_cell_length_c 8.555711
_cell_angle_alpha 90.000000
_cell_angle_beta 90.000000
_cell_angle_gamma 90.000000
_cell_volume 1911.393531
_symmetry_space_group_name_H-M "P B A M"
_symmetry_group_IT_number 55
_symmetry_cell_setting 'orthorhombic'
loop_
_space_group_symop_operation_xyz
x,y,z
-x,-y,z
1/2+x,1/2-y,-z
1/2-x,1/2+y,-z
-x,-y,-z
x,y,-z
1/2-x,1/2+y,z
1/2+x,1/2-y,z
loop_
_atom_site_type_symbol
_atom_site_label
_atom_site_fract_x
_atom_site_fract_y
_atom_site_fract_z
Si Si1 0.992856 0.052775 0.818810
Si Si2 0.818791 0.605262 0.681260
Si Si3 0.197492 0.293155 0.324600
Si Si4 0.780862 0.382961 0.682931
Si Si5 0.841366 0.293525 0.178157
O O1 0.143682 0.077464 0.720258
O O2 0.797895 0.070402 0.780098
O O3 0.032529 0.060516 0.000000
O O4 0.000000 0.000000 0.771802
O O5 0.806665 0.591926 0.500000
O O6 0.732308 0.655716 0.708860
O O7 0.021828 0.602586 0.736528
O O8 0.246309 0.277313 0.500000
O O9 0.253456 0.255939 0.196972
O O10 0.990303 0.297037 0.308264
O O11 0.776560 0.372385 0.500000
O O12 0.719213 0.336996 0.777404
O O13 0.906800 0.297633 0.000000
#
# Coordination Sequence:
#
# PCOD8227072 Si02
#       5
#     8   8   8   8   8
#     4  11  25  42  63  93 126 162 205 257 319 378
#     4   9  21  41  64  89 119 161 208 256 308 365
#     4  10  21  38  58  84 120 162 204 247 302 365
#     4  10  22  42  65  89 122 162 207 257 311 371
#     4  11  22  36  57  88 122 159 203 250 304 364
#
# _framework density 20.927140000000001
#
# number of rings (size 3 to 8) (size 9 to 14) (size 15 to 20)
#    0.000    1.800    0.000    4.800    2.800    7.200 
#    0.000    4.000    0.000    0.000    0.000    0.000 
#    0.000    0.000    0.000    0.000    0.000    0.000 
#
# Total GULP energy -495874.115662 kJ/mol
# GULP energy per Si atom -12396.852892 kJ/mol
# Density = 2.087951 g / cm^3
# Si number density = 20.927140 Si / 1000 Ang^3
#
#
#
# Elastic Constant Matrix: (Units=GPa)
#
#
# Indices 1 2 3 4 5 6 
#
# 1 50.6371 12.5660 11.7585 0.0000 0.0000 0.0000
# 2 12.5660 86.5809 31.4597 0.0000 0.0000 0.0000
# 3 11.7585 31.4597 75.1069 0.0000 0.0000 0.0000
# 4 0.0000 0.0000 0.0000 33.8250 0.0000 0.0000
# 5 0.0000 0.0000 0.0000 0.0000 27.8224 0.0000
# 6 0.0000 0.0000 0.0000 0.0000 0.0000 32.9616
#
#
#
# Elastic Compliance Matrix: (Units=1/GPa)
#
#
# Indices 1 2 3 4 5 6 
#
# 1 0.020833 -0.002169 -0.002353 0.000000 0.000000 0.000000
# 2 -0.002169 0.013849 -0.005461 0.000000 0.000000 0.000000
# 3 -0.002353 -0.005461 0.015970 0.000000 0.000000 0.000000
# 4 0.000000 0.000000 0.000000 0.029564 0.000000 0.000000
# 5 0.000000 0.000000 0.000000 0.000000 0.035942 0.000000
# 6 0.000000 0.000000 0.000000 0.000000 0.000000 0.030338
#
#
# Mechanical properties :
#
#
# Convention : Reuss Voigt Hill
#
# Bulk Modulus (GPa) = 32.58811 35.98817 34.28814
# Shear Modulus (GPa) = 28.29784 29.35785 28.82784
#
# Velocity S-wave (km/s) = 3.68123 3.74954 3.71554
# Velocity P-wave (km/s) = 5.80298 5.99830 5.90145
#
# Compressibility (1/GPa) = 0.03068604
#
# Stress axis : x y z
#
# Youngs Moduli (GPa) = 48.00082 72.20712 62.61605
#
# Poissons Ratio (x) = 0.15659 0.14735
# Poissons Ratio (y) = 0.10409 0.34197
# Poissons Ratio (z) = 0.11296 0.39435
#
# Static dielectric constant tensor:
#      x y z
#    x 3.660490 0.000000 0.000000 
#    y 0.000000 4.132820 0.000000 
#    z 0.000000 0.000000 3.570290 
# 
# 
# High freq. dielectric constant tensor:
#      x y z
#    x 1.808080 0.000000 0.000000 
#    y 0.000000 1.823090 0.000000 
#    z 0.000000 0.000000 1.820680 
# 
# From -- ./inp_files/2512.got.cif
#   From: 2010.03.12/outbox.cif.g09.slc.cpg/sg55_2_cif.got.tgz:2512.got - 2010.04.16 15:19:21.
