data_PCOD8227609
_publ_section_title
;
Structure prediction by ZEFSAII (Michael W. Deem and Ramdas Pophale) SiO2 
 PCOD8227609
Probable space group: P B A M
;
_chemical_formula_sum "Si O2"
_cell_formula_units_Z 28
_cell_length_a 4.952161
_cell_length_b 11.401063
_cell_length_c 21.346495
_cell_angle_alpha 90.000000
_cell_angle_beta 90.000000
_cell_angle_gamma 90.000000
_cell_volume 1205.220963
_symmetry_space_group_name_H-M "P B A M"
_symmetry_group_IT_number 55
_symmetry_cell_setting 'orthorhombic'
loop_
_space_group_symop_operation_xyz
x,y,z
-x,-y,z
1/2+x,1/2-y,-z
1/2-x,1/2+y,-z
-x,-y,-z
x,y,-z
1/2-x,1/2+y,z
1/2+x,1/2-y,z
loop_
_atom_site_type_symbol
_atom_site_label
_atom_site_fract_x
_atom_site_fract_y
_atom_site_fract_z
Si Si1 0.454063 0.324198 0.000000
Si Si2 0.725612 0.833886 0.500000
Si Si3 0.500000 0.000000 0.811411
Si Si4 0.000000 0.000000 0.893795
Si Si5 0.607438 0.171467 0.704170
Si Si6 0.000000 0.500000 0.601476
O O1 0.387676 0.396291 0.062613
O O2 0.268631 0.209483 0.000000
O O3 0.520264 0.723937 0.500000
O O4 0.695439 0.917987 0.439929
O O5 0.251028 0.046942 0.852776
O O6 0.370224 0.896684 0.769651
O O7 0.303085 0.218320 0.699843
O O8 0.675588 0.084587 0.646396
#
# Coordination Sequence:
#
# PCOD8227609 Si02
#       6
#     4   4   4   4   8   4
#     4  11  24  41  64  90 122 161 198 247 304 354
#     4  11  24  41  64  92 122 161 204 251 304 360
#     4  11  24  40  62  90 122 159 202 250 298 357
#     4  11  24  42  62  92 124 155 204 250 294 361
#     4  11  24  41  62  90 123 161 202 249 303 358
#     4  10  24  41  64  91 124 160 204 252 302 360
#
# _framework density 23.232251000000002
#
# number of rings (size 3 to 8) (size 9 to 14) (size 15 to 20)
#    0.000    1.143    0.000    5.143    0.000   17.143 
#    0.000    0.000    0.000    0.000    0.000    0.000 
#    0.000    0.000    0.000    0.000    0.000    0.000 
#
# Total GULP energy -347335.506587 kJ/mol
# GULP energy per Si atom -12404.839521 kJ/mol
# Density = 2.317937 g / cm^3
# Si number density = 23.232251 Si / 1000 Ang^3
#
#
#
# Elastic Constant Matrix: (Units=GPa)
#
#
# Indices 1 2 3 4 5 6 
#
# 1 83.1219 14.7856 31.6090 0.0000 0.0000 0.0000
# 2 14.7856 105.7091 49.7824 0.0000 0.0000 0.0000
# 3 31.6090 49.7824 152.8187 0.0000 0.0000 0.0000
# 4 0.0000 0.0000 0.0000 2.4473 0.0000 0.0000
# 5 0.0000 0.0000 0.0000 0.0000 16.7418 0.0000
# 6 0.0000 0.0000 0.0000 0.0000 0.0000 33.2768
#
#
#
# Elastic Compliance Matrix: (Units=1/GPa)
#
#
# Indices 1 2 3 4 5 6 
#
# 1 0.013096 -0.000657 -0.002495 0.000000 0.000000 0.000000
# 2 -0.000657 0.011207 -0.003515 0.000000 0.000000 0.000000
# 3 -0.002495 -0.003515 0.008205 0.000000 0.000000 0.000000
# 4 0.000000 0.000000 0.000000 0.408616 0.000000 0.000000
# 5 0.000000 0.000000 0.000000 0.000000 0.059731 0.000000
# 6 0.000000 0.000000 0.000000 0.000000 0.000000 0.030051
#
#
# Mechanical properties :
#
#
# Convention : Reuss Voigt Hill
#
# Bulk Modulus (GPa) = 52.15210 59.33373 55.74291
# Shear Modulus (GPa) = 9.08050 26.85803 17.96926
#
# Velocity S-wave (km/s) = 1.97916 3.40379 2.78414
# Velocity P-wave (km/s) = 5.26494 6.40644 5.86354
#
# Compressibility (1/GPa) = 0.01917468
#
# Stress axis : x y z
#
# Youngs Moduli (GPa) = 76.35877 89.22884 121.88030
#
# Poissons Ratio (x) = 0.05861 0.30407
# Poissons Ratio (y) = 0.05016 0.42841
# Poissons Ratio (z) = 0.19050 0.31364
#
# Static dielectric constant tensor:
#      x y z
#    x 3.726770 0.000000 0.000000 
#    y 0.000000 4.160950 0.000000 
#    z 0.000000 0.000000 4.425730 
# 
# 
# High freq. dielectric constant tensor:
#      x y z
#    x 1.905430 0.000000 0.000000 
#    y 0.000000 1.924780 0.000000 
#    z 0.000000 0.000000 1.938970 
# 
# From -- ./inp_files/22191.got.cif
#   From: 2010.03.12/outbox.cif.g09.slc.cpg/sg55_12_cif.got.tgz:22191.got - 2010.04.16 15:19:21.
