data_PCOD8227409
_publ_section_title
;
Structure prediction by ZEFSAII (Michael W. Deem and Ramdas Pophale) SiO2 
 PCOD8227409
Probable space group: P B A M
;
_chemical_formula_sum "Si O2"
_cell_formula_units_Z 56
_cell_length_a 34.138908
_cell_length_b 5.137053
_cell_length_c 14.597223
_cell_angle_alpha 90.000000
_cell_angle_beta 90.000000
_cell_angle_gamma 90.000000
_cell_volume 2559.964333
_symmetry_space_group_name_H-M "P B A M"
_symmetry_group_IT_number 55
_symmetry_cell_setting 'orthorhombic'
loop_
_space_group_symop_operation_xyz
x,y,z
-x,-y,z
1/2+x,1/2-y,-z
1/2-x,1/2+y,-z
-x,-y,-z
x,y,-z
1/2-x,1/2+y,z
1/2+x,1/2-y,z
loop_
_atom_site_type_symbol
_atom_site_label
_atom_site_fract_x
_atom_site_fract_y
_atom_site_fract_z
Si Si1 0.653928 0.705266 0.605120
Si Si2 0.462827 0.818156 0.900947
Si Si3 0.104491 0.306766 0.395652
Si Si4 0.524190 0.264599 0.707258
Si Si5 0.377553 0.989217 0.105230
Si Si6 0.724694 0.564959 0.736329
Si Si7 0.832951 0.012228 0.890896
O O1 0.667435 0.746552 0.500000
O O2 0.622930 0.475288 0.613193
O O3 0.691403 0.627108 0.663164
O O4 0.633491 0.969251 0.643775
O O5 0.467842 0.635402 0.812271
O O6 0.500000 0.000000 0.911369
O O7 0.424027 0.986306 0.879844
O O8 0.457598 0.667101 0.000000
O O9 0.094685 0.380106 0.500000
O O10 0.064180 0.301282 0.341934
O O11 0.500000 0.500000 0.658925
O O12 0.500000 0.000000 0.707665
O O13 0.362107 0.261326 0.143462
O O14 0.353966 0.746444 0.149332
O O15 0.366451 0.969585 0.000000
O O16 0.741719 0.277625 0.720957
O O17 0.708120 0.564193 0.840185
O O18 0.825529 0.010170 0.000000
#
# Coordination Sequence:
#
# PCOD8227409 Si02
#       7
#     8   8   8   8   8   8   8
#     4  10  23  43  67  93 121 158 199 245 303 366
#     4   9  20  37  57  85 126 168 209 254 301 351
#     4  10  22  42  67  91 120 162 205 248 304 362
#     4  11  24  38  58  92 126 164 208 256 306 346
#     4   9  19  36  58  84 114 161 211 249 293 344
#     4  12  26  41  64  96 123 157 196 241 308 366
#     4  10  22  39  60  88 121 159 204 245 293 356
#
# _framework density 21.875305000000001
#
# number of rings (size 3 to 8) (size 9 to 14) (size 15 to 20)
#    0.000    1.857    0.000    2.571    4.000    4.286 
#    0.000    4.286    0.000    0.000    0.000    0.000 
#    0.000    0.000    0.000    0.000    0.000    0.000 
#
# Total GULP energy -694112.405198 kJ/mol
# GULP energy per Si atom -12394.864379 kJ/mol
# Density = 2.182552 g / cm^3
# Si number density = 21.875305 Si / 1000 Ang^3
#
#
#
# Elastic Constant Matrix: (Units=GPa)
#
#
# Indices 1 2 3 4 5 6 
#
# 1 113.4080 21.3837 49.3885 0.0000 0.0000 0.0000
# 2 21.3837 99.2082 18.4009 0.0000 0.0000 0.0000
# 3 49.3885 18.4009 76.4812 0.0000 0.0000 0.0000
# 4 0.0000 0.0000 0.0000 14.6252 0.0000 0.0000
# 5 0.0000 0.0000 0.0000 0.0000 25.8418 0.0000
# 6 0.0000 0.0000 0.0000 0.0000 0.0000 40.1679
#
#
#
# Elastic Compliance Matrix: (Units=1/GPa)
#
#
# Indices 1 2 3 4 5 6 
#
# 1 0.012413 -0.001244 -0.007716 0.000000 0.000000 0.000000
# 2 -0.001244 0.010675 -0.001765 0.000000 0.000000 0.000000
# 3 -0.007716 -0.001765 0.018483 0.000000 0.000000 0.000000
# 4 0.000000 0.000000 0.000000 0.068375 0.000000 0.000000
# 5 0.000000 0.000000 0.000000 0.000000 0.038697 0.000000
# 6 0.000000 0.000000 0.000000 0.000000 0.000000 0.024896
#
#
# Mechanical properties :
#
#
# Convention : Reuss Voigt Hill
#
# Bulk Modulus (GPa) = 49.70244 51.93816 50.82030
# Shear Modulus (GPa) = 24.78979 29.45527 27.12253
#
# Velocity S-wave (km/s) = 3.37000 3.67346 3.52500
# Velocity P-wave (km/s) = 6.15733 6.46427 6.31266
#
# Compressibility (1/GPa) = 0.02011974
#
# Stress axis : x y z
#
# Youngs Moduli (GPa) = 80.56255 93.67369 54.10502
#
# Poissons Ratio (x) = 0.11656 0.41749
# Poissons Ratio (y) = 0.10024 0.09549
# Poissons Ratio (z) = 0.62164 0.16533
#
# Static dielectric constant tensor:
#      x y z
#    x 3.967830 0.000000 0.000000 
#    y 0.000000 3.993020 0.000000 
#    z 0.000000 0.000000 4.214990 
# 
# 
# High freq. dielectric constant tensor:
#      x y z
#    x 1.864310 0.000000 0.000000 
#    y 0.000000 1.861740 0.000000 
#    z 0.000000 0.000000 1.860500 
# 
# From -- ./inp_files/20153.got.cif
#   From: 2010.03.12/outbox.cif.g09.slc.cpg/sg55_11_cif.got.tgz:20153.got - 2010.04.16 15:19:21.
