data_PCOD8227886
_publ_section_title
;
Structure prediction by ZEFSAII (Michael W. Deem and Ramdas Pophale) SiO2 
 PCOD8227886
Probable space group: P C C N
;
_chemical_formula_sum "Si O2"
_cell_formula_units_Z 40
_cell_length_a 19.044118
_cell_length_b 7.595350
_cell_length_c 16.006701
_cell_angle_alpha 90.000000
_cell_angle_beta 90.000000
_cell_angle_gamma 90.000000
_cell_volume 2315.317144
_symmetry_space_group_name_H-M "P C C N"
_symmetry_group_IT_number 56
_symmetry_cell_setting 'orthorhombic'
loop_
_space_group_symop_operation_xyz
x,y,z
1/2-x,1/2-y,z
1/2+x,-y,1/2-z
-x,1/2+y,1/2-z
-x,-y,-z
1/2+x,1/2+y,-z
1/2-x,y,1/2+z
x,1/2-y,1/2+z
loop_
_atom_site_type_symbol
_atom_site_label
_atom_site_fract_x
_atom_site_fract_y
_atom_site_fract_z
Si Si1 0.570886 0.004779 0.447093
Si Si2 0.435689 0.699359 0.210041
Si Si3 0.330295 0.699242 0.587234
Si Si4 0.971408 0.992818 0.635234
Si Si5 0.901964 0.875961 0.475857
O O1 0.616583 0.828313 0.460691
O O2 0.500000 0.000000 0.500000
O O3 0.549161 0.029919 0.349857
O O4 0.620907 0.172329 0.471317
O O5 0.359768 0.782132 0.182664
O O6 0.434736 0.639137 0.306023
O O7 0.495722 0.843986 0.194395
O O8 0.250000 0.750000 0.582855
O O9 0.338335 0.499238 0.555061
O O10 0.913708 0.906279 0.574597
O O11 0.028562 0.085732 0.577381
#
# Coordination Sequence:
#
# PCOD8227886 Si02
#       5
#     8   8   8   8   8
#     4  10  17  33  56  82 103 136 181 236 267 329
#     4   9  19  30  54  78 112 135 178 228 272 333
#     4   9  21  36  51  80 110 148 185 219 281 339
#     4  10  17  31  49  85 109 134 177 236 280 304
#     4  10  18  32  55  77 112 138 182 232 271 327
#
# _framework density 17.276250000000001
#
# number of rings (size 3 to 8) (size 9 to 14) (size 15 to 20)
#    1.200    1.200    2.000    2.400    0.000    0.800 
#    0.000    1.000    0.000    0.000    5.200    0.000 
#    0.000    0.000    0.000    0.000    0.000    0.000 
#
# Total GULP energy -495532.764964 kJ/mol
# GULP energy per Si atom -12388.319124 kJ/mol
# Density = 1.723693 g / cm^3
# Si number density = 17.276250 Si / 1000 Ang^3
#
#
#
# Elastic Constant Matrix: (Units=GPa)
#
#
# Indices 1 2 3 4 5 6 
#
# 1 87.8974 22.1525 15.8831 0.0000 0.0000 0.0000
# 2 22.1525 102.7927 17.2589 0.0000 0.0000 0.0000
# 3 15.8831 17.2589 74.1770 0.0000 0.0000 0.0000
# 4 0.0000 0.0000 0.0000 32.2966 0.0000 0.0000
# 5 0.0000 0.0000 0.0000 0.0000 10.5709 0.0000
# 6 0.0000 0.0000 0.0000 0.0000 0.0000 18.6170
#
#
#
# Elastic Compliance Matrix: (Units=1/GPa)
#
#
# Indices 1 2 3 4 5 6 
#
# 1 0.012338 -0.002305 -0.002106 0.000000 0.000000 0.000000
# 2 -0.002305 0.010555 -0.001962 0.000000 0.000000 0.000000
# 3 -0.002106 -0.001962 0.014389 0.000000 0.000000 0.000000
# 4 0.000000 0.000000 0.000000 0.030963 0.000000 0.000000
# 5 0.000000 0.000000 0.000000 0.000000 0.094600 0.000000
# 6 0.000000 0.000000 0.000000 0.000000 0.000000 0.053714
#
#
# Mechanical properties :
#
#
# Convention : Reuss Voigt Hill
#
# Bulk Modulus (GPa) = 40.75741 41.71735 41.23738
# Shear Modulus (GPa) = 21.05412 26.26841 23.66126
#
# Velocity S-wave (km/s) = 3.49474 3.90358 3.70480
# Velocity P-wave (km/s) = 6.31879 6.67210 6.49784
#
# Compressibility (1/GPa) = 0.02453541
#
# Stress axis : x y z
#
# Youngs Moduli (GPa) = 81.04766 94.74535 69.49927
#
# Poissons Ratio (x) = 0.21844 0.14633
# Poissons Ratio (y) = 0.18686 0.13636
# Poissons Ratio (z) = 0.17065 0.18590
#
# Static dielectric constant tensor:
#      x y z
#    x 2.745110 0.000000 0.000000 
#    y 0.000000 3.479060 0.000000 
#    z 0.000000 0.000000 3.085950 
# 
# 
# High freq. dielectric constant tensor:
#      x y z
#    x 1.620050 0.000000 0.000000 
#    y 0.000000 1.680640 0.000000 
#    z 0.000000 0.000000 1.653580 
# 
# From -- ./inp_files/10746.got.cif
#   From: 2010.03.12/outbox.cif.g09.slc.cpg/sg56_6_cif.got.tgz:10746.got - 2010.04.16 15:33:40.
