data_PCOD8227110
_publ_section_title
;
Structure prediction by ZEFSAII (Michael W. Deem and Ramdas Pophale) SiO2 
 PCOD8227110
Probable space group: P B A M
;
_chemical_formula_sum "Si O2"
_cell_formula_units_Z 48
_cell_length_a 18.627133
_cell_length_b 15.184299
_cell_length_c 8.346727
_cell_angle_alpha 90.000000
_cell_angle_beta 90.000000
_cell_angle_gamma 90.000000
_cell_volume 2360.787906
_symmetry_space_group_name_H-M "P B A M"
_symmetry_group_IT_number 55
_symmetry_cell_setting 'orthorhombic'
loop_
_space_group_symop_operation_xyz
x,y,z
-x,-y,z
1/2+x,1/2-y,-z
1/2-x,1/2+y,-z
-x,-y,-z
x,y,-z
1/2-x,1/2+y,z
1/2+x,1/2-y,z
loop_
_atom_site_type_symbol
_atom_site_label
_atom_site_fract_x
_atom_site_fract_y
_atom_site_fract_z
Si Si1 0.083274 0.148898 0.684794
Si Si2 0.080236 0.337795 0.813725
Si Si3 0.427732 0.344636 0.813699
Si Si4 0.832096 0.507466 0.684758
Si Si5 0.425998 0.156816 0.688141
Si Si6 0.677539 0.502534 0.184648
O O1 0.101106 0.131693 0.500000
O O2 0.105815 0.247709 0.731323
O O3 0.128699 0.082926 0.792894
O O4 0.999026 0.133473 0.714060
O O5 0.141424 0.410240 0.789077
O O6 0.006449 0.371793 0.734950
O O7 0.067097 0.319743 0.000000
O O8 0.401944 0.245395 0.779178
O O9 0.365584 0.410977 0.758668
O O10 0.445631 0.356911 0.000000
O O11 0.850085 0.525853 0.500000
O O12 0.872323 0.419641 0.744001
O O13 0.747764 0.494436 0.707148
O O14 0.421727 0.174659 0.500000
O O15 0.700303 0.510106 0.000000
#
# Coordination Sequence:
#
# PCOD8227110 Si02
#       6
#     8   8   8   8   8   8
#     4  11  22  38  62  88 115 150 192 239 288 341
#     4  11  22  38  62  88 115 150 192 239 288 341
#     4  10  21  38  61  87 115 149 190 238 287 339
#     4  11  24  40  58  84 119 156 194 237 288 344
#     4  10  21  38  61  87 115 149 190 238 287 339
#     4  11  24  40  58  84 119 156 194 237 288 344
#
# _framework density 20.332196
#
# number of rings (size 3 to 8) (size 9 to 14) (size 15 to 20)
#    0.000    1.333    0.000    8.000    0.000   10.667 
#    0.000    3.333    0.000    0.000    0.000    0.000 
#    0.000    0.000    0.000    0.000    0.000    0.000 
#
# Total GULP energy -595563.986906 kJ/mol
# GULP energy per Si atom -12407.583061 kJ/mol
# Density = 2.028592 g / cm^3
# Si number density = 20.332196 Si / 1000 Ang^3
#
#
#
# Elastic Constant Matrix: (Units=GPa)
#
#
# Indices 1 2 3 4 5 6 
#
# 1 84.7295 68.8002 6.8822 0.0000 0.0000 0.0000
# 2 68.8002 114.8399 22.5779 0.0000 0.0000 0.0000
# 3 6.8822 22.5779 55.5796 0.0000 0.0000 0.0000
# 4 0.0000 0.0000 0.0000 34.0608 0.0000 0.0000
# 5 0.0000 0.0000 0.0000 0.0000 30.5630 0.0000
# 6 0.0000 0.0000 0.0000 0.0000 0.0000 12.5702
#
#
#
# Elastic Compliance Matrix: (Units=1/GPa)
#
#
# Indices 1 2 3 4 5 6 
#
# 1 0.023448 -0.014646 0.003046 0.000000 0.000000 0.000000
# 2 -0.014646 0.018612 -0.005747 0.000000 0.000000 0.000000
# 3 0.003046 -0.005747 0.019950 0.000000 0.000000 0.000000
# 4 0.000000 0.000000 0.000000 0.029359 0.000000 0.000000
# 5 0.000000 0.000000 0.000000 0.000000 0.032719 0.000000
# 6 0.000000 0.000000 0.000000 0.000000 0.000000 0.079553
#
#
# Mechanical properties :
#
#
# Convention : Reuss Voigt Hill
#
# Bulk Modulus (GPa) = 36.60978 50.18550 43.39764
# Shear Modulus (GPa) = 20.20686 25.89803 23.05245
#
# Velocity S-wave (km/s) = 3.15594 3.57283 3.37083
# Velocity P-wave (km/s) = 5.59686 6.46193 6.04489
#
# Compressibility (1/GPa) = 0.02731511
#
# Stress axis : x y z
#
# Youngs Moduli (GPa) = 42.64840 53.72818 50.12614
#
# Poissons Ratio (x) = 0.78692 -0.15270
# Poissons Ratio (y) = 0.62464 0.28808
# Poissons Ratio (z) = -0.12992 0.30879
#
# Static dielectric constant tensor:
#      x y z
#    x 3.511390 0.000000 0.000000 
#    y 0.000000 3.818770 0.000000 
#    z 0.000000 0.000000 3.658450 
# 
# 
# High freq. dielectric constant tensor:
#      x y z
#    x 1.784400 0.000000 0.000000 
#    y 0.000000 1.806430 0.000000 
#    z 0.000000 0.000000 1.805030 
# 
# From -- ./inp_files/7411.got.cif
#   From: 2010.03.12/outbox.cif.g09.slc.cpg/sg55_4_cif.got.tgz:7411.got - 2010.04.16 15:19:21.
