data_PCOD8227311
_publ_section_title
;
Structure prediction by ZEFSAII (Michael W. Deem and Ramdas Pophale) SiO2 
 PCOD8227311
Probable space group: P B A M
;
_chemical_formula_sum "Si O2"
_cell_formula_units_Z 64
_cell_length_a 14.585430
_cell_length_b 24.475012
_cell_length_c 8.419778
_cell_angle_alpha 90.000000
_cell_angle_beta 90.000000
_cell_angle_gamma 90.000000
_cell_volume 3005.680346
_symmetry_space_group_name_H-M "P B A M"
_symmetry_group_IT_number 55
_symmetry_cell_setting 'orthorhombic'
loop_
_space_group_symop_operation_xyz
x,y,z
-x,-y,z
1/2+x,1/2-y,-z
1/2-x,1/2+y,-z
-x,-y,-z
x,y,-z
1/2-x,1/2+y,z
1/2+x,1/2-y,z
loop_
_atom_site_type_symbol
_atom_site_label
_atom_site_fract_x
_atom_site_fract_y
_atom_site_fract_z
Si Si1 0.045600 0.843095 0.815046
Si Si2 0.485713 0.231488 0.681252
Si Si3 0.945915 0.945230 0.315593
Si Si4 0.244428 0.084212 0.814650
Si Si5 0.707459 0.794054 0.186554
Si Si6 0.430012 0.865950 0.818850
Si Si7 0.246983 0.824822 0.186872
Si Si8 0.437962 0.049573 0.683501
O O1 0.996312 0.794781 0.720089
O O2 0.991688 0.898462 0.788997
O O3 0.149736 0.846497 0.748135
O O4 0.046415 0.828013 0.000000
O O5 0.514207 0.220095 0.500000
O O6 0.382200 0.211620 0.707278
O O7 0.546787 0.197973 0.805638
O O8 0.959374 0.932367 0.500000
O O9 0.837395 0.947484 0.275918
O O10 0.000000 0.000000 0.267911
O O11 0.242783 0.148824 0.767644
O O12 0.341667 0.055863 0.774145
O O13 0.226976 0.076991 0.000000
O O14 0.766094 0.739482 0.229395
O O15 0.680722 0.795125 0.000000
O O16 0.325382 0.866940 0.751665
O O17 0.499200 0.897395 0.704536
O O18 0.440160 0.886797 0.000000
O O19 0.249668 0.830238 0.000000
O O20 0.414865 0.040267 0.500000
O O21 0.500000 0.000000 0.752315
#
# Coordination Sequence:
#
# PCOD8227311 Si02
#       8
#     8   8   8   8   8   8   8   8
#     4  10  21  41  65  90 122 164 216 270 316 374
#     4  11  21  34  56  89 128 167 204 254 321 383
#     4  11  26  46  66  92 129 169 211 265 325 384
#     4  11  23  40  68  97 122 162 214 267 313 371
#     4   9  18  36  59  88 122 162 208 256 311 372
#     4  11  21  36  60  91 126 166 210 261 314 375
#     4   8  18  35  58  89 126 163 204 256 314 369
#     4  11  25  44  64  90 128 171 211 260 322 382
#
# _framework density 21.293015
#
# number of rings (size 3 to 8) (size 9 to 14) (size 15 to 20)
#    0.000    1.750    1.250    3.750    1.750    3.500 
#    0.000    8.750    0.000    0.000    0.000    0.000 
#    0.000    0.000    0.000    0.000    0.000    0.000 
#
# Total GULP energy -793236.622860 kJ/mol
# GULP energy per Si atom -12394.322232 kJ/mol
# Density = 2.124455 g / cm^3
# Si number density = 21.293015 Si / 1000 Ang^3
#
#
#
# Elastic Constant Matrix: (Units=GPa)
#
#
# Indices 1 2 3 4 5 6 
#
# 1 113.9332 51.8805 4.7276 0.0000 0.0000 0.0000
# 2 51.8805 88.9114 16.4614 0.0000 0.0000 0.0000
# 3 4.7276 16.4614 50.2307 0.0000 0.0000 0.0000
# 4 0.0000 0.0000 0.0000 28.1847 0.0000 0.0000
# 5 0.0000 0.0000 0.0000 0.0000 25.7061 0.0000
# 6 0.0000 0.0000 0.0000 0.0000 0.0000 35.0409
#
#
#
# Elastic Compliance Matrix: (Units=1/GPa)
#
#
# Indices 1 2 3 4 5 6 
#
# 1 0.012026 -0.007247 0.001243 0.000000 0.000000 0.000000
# 2 -0.007247 0.016341 -0.004673 0.000000 0.000000 0.000000
# 3 0.001243 -0.004673 0.021323 0.000000 0.000000 0.000000
# 4 0.000000 0.000000 0.000000 0.035480 0.000000 0.000000
# 5 0.000000 0.000000 0.000000 0.000000 0.038901 0.000000
# 6 0.000000 0.000000 0.000000 0.000000 0.000000 0.028538
#
#
# Mechanical properties :
#
#
# Convention : Reuss Voigt Hill
#
# Bulk Modulus (GPa) = 35.29204 44.35715 39.82459
# Shear Modulus (GPa) = 27.26158 29.78672 28.52415
#
# Velocity S-wave (km/s) = 3.58202 3.74424 3.66403
# Velocity P-wave (km/s) = 5.80674 6.29043 6.05342
#
# Compressibility (1/GPa) = 0.02833500
#
# Stress axis : x y z
#
# Youngs Moduli (GPa) = 83.15616 61.19512 46.89859
#
# Poissons Ratio (x) = 0.44349 -0.05830
# Poissons Ratio (y) = 0.60265 0.21917
# Poissons Ratio (z) = -0.10338 0.28598
#
# Static dielectric constant tensor:
#      x y z
#    x 4.245390 0.000000 0.000000 
#    y 0.000000 3.900780 0.000000 
#    z 0.000000 0.000000 3.537180 
# 
# 
# High freq. dielectric constant tensor:
#      x y z
#    x 1.841590 0.000000 0.000000 
#    y 0.000000 1.827540 0.000000 
#    z 0.000000 0.000000 1.820350 
# 
# From -- ./inp_files/6521.got.cif
#   From: 2010.03.12/outbox.cif.g09.slc.cpg/sg55_4_cif.got.tgz:6521.got - 2010.04.16 15:19:21.
