data_PCOD8227686
_publ_section_title
;
Structure prediction by ZEFSAII (Michael W. Deem and Ramdas Pophale) SiO2 
 PCOD8227686
Probable space group: P B A M
;
_chemical_formula_sum "Si O2"
_cell_formula_units_Z 36
_cell_length_a 7.425424
_cell_length_b 14.436163
_cell_length_c 15.326615
_cell_angle_alpha 90.000000
_cell_angle_beta 90.000000
_cell_angle_gamma 90.000000
_cell_volume 1642.930843
_symmetry_space_group_name_H-M "P B A M"
_symmetry_group_IT_number 55
_symmetry_cell_setting 'orthorhombic'
loop_
_space_group_symop_operation_xyz
x,y,z
-x,-y,z
1/2+x,1/2-y,-z
1/2-x,1/2+y,-z
-x,-y,-z
x,y,-z
1/2-x,1/2+y,z
1/2+x,1/2-y,z
loop_
_atom_site_type_symbol
_atom_site_label
_atom_site_fract_x
_atom_site_fract_y
_atom_site_fract_z
Si Si1 0.707526 0.473012 0.596071
Si Si2 0.088098 0.168608 0.270315
Si Si3 0.500000 0.000000 0.151027
Si Si4 0.857205 0.921299 0.096293
Si Si5 0.676734 0.126454 0.289821
O O1 0.500000 0.500000 0.589617
O O2 0.772866 0.440083 0.500000
O O3 0.723202 0.391912 0.668722
O O4 0.835824 0.558987 0.625624
O O5 0.150077 0.159775 0.169259
O O6 0.094481 0.272540 0.307132
O O7 0.887346 0.131378 0.270203
O O8 0.339870 0.034215 0.089565
O O9 0.570906 0.084655 0.209021
O O10 0.905667 0.880951 0.000000
O O11 0.000000 0.000000 0.124429
#
# Coordination Sequence:
#
# PCOD8227686 Si02
#       5
#     8   8   4   8   8
#     4   9  19  39  66  93 128 171 217 270 329 390
#     4  11  21  42  63  96 134 175 218 273 330 395
#     4  12  21  42  67  96 126 176 217 278 325 400
#     4  11  22  41  67  95 131 174 222 275 332 393
#     4  11  23  38  69  93 133 175 219 270 335 391
#
# _framework density 21.91206
#
# number of rings (size 3 to 8) (size 9 to 14) (size 15 to 20)
#    0.000    1.333    4.444    2.333    0.000    0.889 
#    0.000    6.111    0.000    0.000    0.000    0.000 
#    0.000    0.000    0.000    0.000    0.000    0.000 
#
# Total GULP energy -446271.678347 kJ/mol
# GULP energy per Si atom -12396.435510 kJ/mol
# Density = 2.186219 g / cm^3
# Si number density = 21.912060 Si / 1000 Ang^3
#
#
#
# Elastic Constant Matrix: (Units=GPa)
#
#
# Indices 1 2 3 4 5 6 
#
# 1 64.6491 16.5196 13.2825 0.0000 0.0000 0.0000
# 2 16.5196 131.3287 61.2569 0.0000 0.0000 0.0000
# 3 13.2825 61.2569 158.9780 0.0000 0.0000 0.0000
# 4 0.0000 0.0000 0.0000 14.2284 0.0000 0.0000
# 5 0.0000 0.0000 0.0000 0.0000 13.9418 0.0000
# 6 0.0000 0.0000 0.0000 0.0000 0.0000 32.9315
#
#
#
# Elastic Compliance Matrix: (Units=1/GPa)
#
#
# Indices 1 2 3 4 5 6 
#
# 1 0.016043 -0.001698 -0.000686 0.000000 0.000000 0.000000
# 2 -0.001698 0.009463 -0.003504 0.000000 0.000000 0.000000
# 3 -0.000686 -0.003504 0.007698 0.000000 0.000000 0.000000
# 4 0.000000 0.000000 0.000000 0.070282 0.000000 0.000000
# 5 0.000000 0.000000 0.000000 0.000000 0.071727 0.000000
# 6 0.000000 0.000000 0.000000 0.000000 0.000000 0.030366
#
#
# Mechanical properties :
#
#
# Convention : Reuss Voigt Hill
#
# Bulk Modulus (GPa) = 46.67089 59.67488 53.17288
# Shear Modulus (GPa) = 22.27202 29.81346 26.04274
#
# Velocity S-wave (km/s) = 3.19160 3.69263 3.45122
# Velocity P-wave (km/s) = 5.90992 6.74341 6.34038
#
# Compressibility (1/GPa) = 0.02142663
#
# Stress axis : x y z
#
# Youngs Moduli (GPa) = 62.33260 105.67946 129.90823
#
# Poissons Ratio (x) = 0.17944 0.08913
# Poissons Ratio (y) = 0.10584 0.45523
# Poissons Ratio (z) = 0.04277 0.37032
#
# Static dielectric constant tensor:
#      x y z
#    x 4.083410 0.000000 0.000000 
#    y 0.000000 3.833820 0.000000 
#    z 0.000000 0.000000 4.026760 
# 
# 
# High freq. dielectric constant tensor:
#      x y z
#    x 1.877700 0.000000 0.000000 
#    y 0.000000 1.836600 0.000000 
#    z 0.000000 0.000000 1.856290 
# 
# From -- ./inp_files/16996.got.cif
#   From: 2010.03.12/outbox.cif.g09.slc.cpg/sg55_9_cif.got.tgz:16996.got - 2010.04.16 15:19:21.
