data_PCOD8227017
_publ_section_title
;
Structure prediction by ZEFSAII (Michael W. Deem and Ramdas Pophale) SiO2 
 PCOD8227017
Probable space group: P B A M
;
_chemical_formula_sum "Si O2"
_cell_formula_units_Z 48
_cell_length_a 18.938080
_cell_length_b 16.132816
_cell_length_c 7.747086
_cell_angle_alpha 90.000000
_cell_angle_beta 90.000000
_cell_angle_gamma 90.000000
_cell_volume 2366.925042
_symmetry_space_group_name_H-M "P B A M"
_symmetry_group_IT_number 55
_symmetry_cell_setting 'orthorhombic'
loop_
_space_group_symop_operation_xyz
x,y,z
-x,-y,z
1/2+x,1/2-y,-z
1/2-x,1/2+y,-z
-x,-y,-z
x,y,-z
1/2-x,1/2+y,z
1/2+x,1/2-y,z
loop_
_atom_site_type_symbol
_atom_site_label
_atom_site_fract_x
_atom_site_fract_y
_atom_site_fract_z
Si Si1 0.835838 0.663462 0.804316
Si Si2 0.822537 0.148325 0.203292
Si Si3 0.572511 0.099112 0.500000
Si Si4 0.081159 0.000874 0.204964
Si Si5 0.832012 0.335957 0.800560
Si Si6 0.920117 0.407037 0.500000
Si Si7 0.322718 0.654335 0.298771
O O1 0.758480 0.631957 0.742285
O O2 0.891009 0.624834 0.676029
O O3 0.844716 0.762600 0.800428
O O4 0.850970 0.633894 0.000000
O O5 0.841162 0.241062 0.264800
O O6 0.876034 0.079133 0.280991
O O7 0.828045 0.146028 0.000000
O O8 0.494943 0.140752 0.500000
O O9 0.565453 0.002595 0.500000
O O10 0.119146 0.083715 0.269630
O O11 0.082290 0.998832 0.000000
O O12 0.000000 0.000000 0.272616
O O13 0.880656 0.388877 0.677362
O O14 0.752911 0.371769 0.778324
O O15 0.854924 0.346391 0.000000
O O16 0.315532 0.674358 0.500000
#
# Coordination Sequence:
#
# PCOD8227017 Si02
#       7
#     8   8   4   8   8   4   8
#     4  10  21  41  67  90 120 166 214 260 309 367
#     4   8  18  36  59  91 122 157 211 256 295 363
#     4  11  26  43  60  91 127 154 211 266 320 378
#     4  10  21  37  58  91 132 167 204 251 308 380
#     4  10  21  41  66  91 122 166 215 258 309 371
#     4  11  26  43  60  93 125 158 205 268 322 374
#     4  11  21  38  62  93 129 161 210 264 306 365
#
# _framework density 20.279475999999999
#
# number of rings (size 3 to 8) (size 9 to 14) (size 15 to 20)
#    0.000    2.000    1.667    2.500    2.333    3.000 
#    1.500    3.333    0.000    0.000    0.000    0.000 
#    0.000    0.000    0.000    0.000    0.000    0.000 
#
# Total GULP energy -595039.455638 kJ/mol
# GULP energy per Si atom -12396.655326 kJ/mol
# Density = 2.023332 g / cm^3
# Si number density = 20.279476 Si / 1000 Ang^3
#
#
#
# Elastic Constant Matrix: (Units=GPa)
#
#
# Indices 1 2 3 4 5 6 
#
# 1 143.2450 72.7033 51.2523 0.0000 0.0000 0.0000
# 2 72.7033 77.5206 19.0461 0.0000 0.0000 0.0000
# 3 51.2523 19.0461 107.2977 0.0000 0.0000 0.0000
# 4 0.0000 0.0000 0.0000 30.2846 0.0000 0.0000
# 5 0.0000 0.0000 0.0000 0.0000 21.9345 0.0000
# 6 0.0000 0.0000 0.0000 0.0000 0.0000 41.1998
#
#
#
# Elastic Compliance Matrix: (Units=1/GPa)
#
#
# Indices 1 2 3 4 5 6 
#
# 1 0.015577 -0.013364 -0.005069 0.000000 0.000000 0.000000
# 2 -0.013364 0.024953 0.001954 0.000000 0.000000 0.000000
# 3 -0.005069 0.001954 0.011394 0.000000 0.000000 0.000000
# 4 0.000000 0.000000 0.000000 0.033020 0.000000 0.000000
# 5 0.000000 0.000000 0.000000 0.000000 0.045590 0.000000
# 6 0.000000 0.000000 0.000000 0.000000 0.000000 0.024272
#
#
# Mechanical properties :
#
#
# Convention : Reuss Voigt Hill
#
# Bulk Modulus (GPa) = 52.72094 68.22964 60.47529
# Shear Modulus (GPa) = 25.76169 31.02123 28.39146
#
# Velocity S-wave (km/s) = 3.56804 3.91536 3.74573
# Velocity P-wave (km/s) = 6.55959 7.35920 6.97087
#
# Compressibility (1/GPa) = 0.01896779
#
# Stress axis : x y z
#
# Youngs Moduli (GPa) = 64.19541 40.07485 87.76505
#
# Poissons Ratio (x) = 0.53556 0.44484
# Poissons Ratio (y) = 0.85791 -0.17151
# Poissons Ratio (z) = 0.32538 -0.07831
#
# Static dielectric constant tensor:
#      x y z
#    x 4.042310 0.000000 0.000000 
#    y 0.000000 3.825180 0.000000 
#    z 0.000000 0.000000 3.542830 
# 
# 
# High freq. dielectric constant tensor:
#      x y z
#    x 1.788790 0.000000 0.000000 
#    y 0.000000 1.789740 0.000000 
#    z 0.000000 0.000000 1.793900 
# 
# From -- ./inp_files/7456.got.cif
#   From: 2010.03.12/outbox.cif.g09.slc.cpg/sg55_4_cif.got.tgz:7456.got - 2010.04.16 15:19:21.
