data_PCOD8227868
_publ_section_title
;
Structure prediction by ZEFSAII (Michael W. Deem and Ramdas Pophale) SiO2 
 PCOD8227868
Probable space group: P C C N
;
_chemical_formula_sum "Si O2"
_cell_formula_units_Z 56
_cell_length_a 8.582246
_cell_length_b 20.882256
_cell_length_c 18.085730
_cell_angle_alpha 90.000000
_cell_angle_beta 90.000000
_cell_angle_gamma 90.000000
_cell_volume 3241.264089
_symmetry_space_group_name_H-M "P C C N"
_symmetry_group_IT_number 56
_symmetry_cell_setting 'orthorhombic'
loop_
_space_group_symop_operation_xyz
x,y,z
1/2-x,1/2-y,z
1/2+x,-y,1/2-z
-x,1/2+y,1/2-z
-x,-y,-z
1/2+x,1/2+y,-z
1/2-x,y,1/2+z
x,1/2-y,1/2+z
loop_
_atom_site_type_symbol
_atom_site_label
_atom_site_fract_x
_atom_site_fract_y
_atom_site_fract_z
Si Si1 0.872035 0.553776 0.808559
Si Si2 0.377067 0.053030 0.810807
Si Si3 0.002350 0.340380 0.297714
Si Si4 0.009230 0.158091 0.202707
Si Si5 0.250000 0.750000 0.250276
Si Si6 0.401048 0.434283 0.915576
Si Si7 0.593873 0.936111 0.413921
Si Si8 0.250000 0.250000 0.747450
O O1 0.748574 0.527310 0.748603
O O2 0.961954 0.615827 0.775203
O O3 0.770516 0.565581 0.882299
O O4 0.997973 0.500795 0.828929
O O5 0.467453 0.115479 0.778001
O O6 0.277062 0.065267 0.885183
O O7 0.002036 0.380404 0.372694
O O8 0.131194 0.285128 0.302333
O O9 0.837160 0.304439 0.296868
O O10 0.868619 0.208410 0.201139
O O11 0.988793 0.114795 0.130460
O O12 0.166813 0.198995 0.194164
O O13 0.500410 0.498266 0.902676
O O14 0.393829 0.416235 0.001172
#
# Coordination Sequence:
#
# PCOD8227868 Si02
#       8
#     8   8   8   8   4   8   8   4
#     4  10  19  32  57  81 107 137 182 227 271 314
#     4  10  19  32  57  81 107 137 182 227 271 314
#     4  10  19  35  54  82 103 138 181 227 260 318
#     4  10  19  35  54  82 103 138 181 227 260 318
#     4  10  24  30  60  78 108 134 184 226 272 298
#     4  10  21  37  56  79 112 144 174 220 276 322
#     4  10  21  37  56  79 112 144 174 220 276 322
#     4  10  16  34  56  74 104 130 182 224 248 314
#
# _framework density 17.27721
#
# number of rings (size 3 to 8) (size 9 to 14) (size 15 to 20)
#    0.000    2.000    4.286    3.429    6.000    0.571 
#    0.000    1.429    0.000    0.000    0.000    0.000 
#    0.000    0.000    0.000    0.000    0.000    0.000 
#
# Total GULP energy -693874.617683 kJ/mol
# GULP energy per Si atom -12390.618173 kJ/mol
# Density = 1.723789 g / cm^3
# Si number density = 17.277210 Si / 1000 Ang^3
#
#
#
# Elastic Constant Matrix: (Units=GPa)
#
#
# Indices 1 2 3 4 5 6 
#
# 1 86.7095 37.7711 32.9068 0.0000 0.0000 0.0000
# 2 37.7711 94.1554 48.1404 0.0000 0.0000 0.0000
# 3 32.9068 48.1404 112.7755 0.0000 0.0000 0.0000
# 4 0.0000 0.0000 0.0000 1.3833 0.0000 0.0000
# 5 0.0000 0.0000 0.0000 0.0000 10.9145 0.0000
# 6 0.0000 0.0000 0.0000 0.0000 0.0000 42.2007
#
#
#
# Elastic Compliance Matrix: (Units=1/GPa)
#
#
# Indices 1 2 3 4 5 6 
#
# 1 0.014397 -0.004640 -0.002220 0.000000 0.000000 0.000000
# 2 -0.004640 0.015082 -0.005084 0.000000 0.000000 0.000000
# 3 -0.002220 -0.005084 0.011685 0.000000 0.000000 0.000000
# 4 0.000000 0.000000 0.000000 0.722933 0.000000 0.000000
# 5 0.000000 0.000000 0.000000 0.000000 0.091621 0.000000
# 6 0.000000 0.000000 0.000000 0.000000 0.000000 0.023696
#
#
# Mechanical properties :
#
#
# Convention : Reuss Voigt Hill
#
# Bulk Modulus (GPa) = 57.88716 59.03076 58.45896
# Shear Modulus (GPa) = 5.50018 22.55450 14.02734
#
# Velocity S-wave (km/s) = 1.78617 3.61702 2.85247
# Velocity P-wave (km/s) = 6.15073 7.18921 6.69015
#
# Compressibility (1/GPa) = 0.01727499
#
# Stress axis : x y z
#
# Youngs Moduli (GPa) = 69.46093 66.30639 85.57911
#
# Poissons Ratio (x) = 0.30768 0.18999
# Poissons Ratio (y) = 0.32232 0.43507
# Poissons Ratio (z) = 0.15420 0.33709
#
# Static dielectric constant tensor:
#      x y z
#    x 3.428450 0.000000 0.000000 
#    y 0.000000 3.526680 0.000000 
#    z 0.000000 0.000000 3.049850 
# 
# 
# High freq. dielectric constant tensor:
#      x y z
#    x 1.676480 0.000000 0.000000 
#    y 0.000000 1.679730 0.000000 
#    z 0.000000 0.000000 1.628960 
# 
# From -- ./inp_files/15205.got.cif
#   From: 2010.03.12/outbox.cif.g09.slc.cpg/sg56_8_cif.got.tgz:15205.got - 2010.04.16 15:33:40.
