data_PCOD8227456
_publ_section_title
;
Structure prediction by ZEFSAII (Michael W. Deem and Ramdas Pophale) SiO2 
 PCOD8227456
Probable space group: P B A M
;
_chemical_formula_sum "Si O2"
_cell_formula_units_Z 56
_cell_length_a 8.767283
_cell_length_b 14.999678
_cell_length_c 19.955787
_cell_angle_alpha 90.000000
_cell_angle_beta 90.000000
_cell_angle_gamma 90.000000
_cell_volume 2624.314145
_symmetry_space_group_name_H-M "P B A M"
_symmetry_group_IT_number 55
_symmetry_cell_setting 'orthorhombic'
loop_
_space_group_symop_operation_xyz
x,y,z
-x,-y,z
1/2+x,1/2-y,-z
1/2-x,1/2+y,-z
-x,-y,-z
x,y,-z
1/2-x,1/2+y,z
1/2+x,1/2-y,z
loop_
_atom_site_type_symbol
_atom_site_label
_atom_site_fract_x
_atom_site_fract_y
_atom_site_fract_z
Si Si1 0.064484 0.258092 0.877047
Si Si2 0.084980 0.699874 0.349148
Si Si3 0.254790 0.370173 0.339181
Si Si4 0.171307 0.873458 0.073184
Si Si5 0.831980 0.028516 0.210942
Si Si6 0.806428 0.342869 0.794209
Si Si7 0.827185 0.468415 0.424844
O O1 0.178457 0.313162 0.923039
O O2 0.151019 0.202388 0.819558
O O3 0.977718 0.188123 0.923743
O O4 0.945647 0.327074 0.844659
O O5 0.117801 0.802897 0.370165
O O6 0.155788 0.700561 0.275858
O O7 0.179994 0.631399 0.395390
O O8 0.907477 0.677302 0.350013
O O9 0.277220 0.391814 0.259887
O O10 0.269927 0.463013 0.379584
O O11 0.168197 0.943277 0.133405
O O12 0.171248 0.921336 0.000000
O O13 0.713027 0.948116 0.216618
O O14 0.000000 0.000000 0.233884
O O15 0.760096 0.467609 0.500000
O O16 0.000000 0.500000 0.424765
#
# Coordination Sequence:
#
# PCOD8227456 Si02
#       7
#     8   8   8   8   8   8   8
#     4  10  22  40  63  88 119 161 206 261 317 382
#     4  11  22  38  66  95 126 172 211 265 318 374
#     4  11  24  40  65  96 129 167 216 263 319 376
#     4  11  23  41  61  88 122 162 208 259 323 384
#     4  12  25  40  62  94 126 165 207 272 320 375
#     4  11  21  40  62  92 122 158 207 265 313 375
#     4   9  20  40  62  92 132 170 211 258 313 375
#
# _framework density 21.338909999999998
#
# number of rings (size 3 to 8) (size 9 to 14) (size 15 to 20)
#    0.000    1.286    2.857    3.857    2.000    2.571 
#    0.000    2.143    0.000    3.000    0.000    0.000 
#    0.000    0.000    0.000    0.000    0.000    0.000 
#
# Total GULP energy -694468.635314 kJ/mol
# GULP energy per Si atom -12401.225631 kJ/mol
# Density = 2.129034 g / cm^3
# Si number density = 21.338910 Si / 1000 Ang^3
#
#
#
# Elastic Constant Matrix: (Units=GPa)
#
#
# Indices 1 2 3 4 5 6 
#
# 1 78.8320 17.9624 7.8697 0.0000 0.0000 0.0000
# 2 17.9624 99.6979 16.5744 0.0000 0.0000 0.0000
# 3 7.8697 16.5744 104.4598 0.0000 0.0000 0.0000
# 4 0.0000 0.0000 0.0000 23.7786 0.0000 0.0000
# 5 0.0000 0.0000 0.0000 0.0000 6.3536 0.0000
# 6 0.0000 0.0000 0.0000 0.0000 0.0000 26.5483
#
#
#
# Elastic Compliance Matrix: (Units=1/GPa)
#
#
# Indices 1 2 3 4 5 6 
#
# 1 0.013269 -0.002285 -0.000637 0.000000 0.000000 0.000000
# 2 -0.002285 0.010695 -0.001525 0.000000 0.000000 0.000000
# 3 -0.000637 -0.001525 0.009863 0.000000 0.000000 0.000000
# 4 0.000000 0.000000 0.000000 0.042055 0.000000 0.000000
# 5 0.000000 0.000000 0.000000 0.000000 0.157391 0.000000
# 6 0.000000 0.000000 0.000000 0.000000 0.000000 0.037667
#
#
# Mechanical properties :
#
#
# Convention : Reuss Voigt Hill
#
# Bulk Modulus (GPa) = 40.10559 40.86697 40.48628
# Shear Modulus (GPa) = 17.35229 27.37497 22.36363
#
# Velocity S-wave (km/s) = 2.85472 3.58560 3.24083
# Velocity P-wave (km/s) = 5.44989 6.02785 5.74614
#
# Compressibility (1/GPa) = 0.02493418
#
# Stress axis : x y z
#
# Youngs Moduli (GPa) = 75.36124 93.49762 101.38893
#
# Poissons Ratio (x) = 0.21362 0.06460
# Poissons Ratio (y) = 0.17219 0.15461
# Poissons Ratio (z) = 0.04802 0.14257
#
# Static dielectric constant tensor:
#      x y z
#    x 3.858710 0.000000 0.000000 
#    y 0.000000 3.944880 0.000000 
#    z 0.000000 0.000000 3.784130 
# 
# 
# High freq. dielectric constant tensor:
#      x y z
#    x 1.833720 0.000000 0.000000 
#    y 0.000000 1.841750 0.000000 
#    z 0.000000 0.000000 1.827970 
# 
# From -- ./inp_files/22614.got.cif
#   From: 2010.03.12/outbox.cif.g09.slc.cpg/sg55_12_cif.got.tgz:22614.got - 2010.04.16 15:19:21.
