data_PCOD8227391
_publ_section_title
;
Structure prediction by ZEFSAII (Michael W. Deem and Ramdas Pophale) SiO2 
 PCOD8227391
Probable space group: P B A M
;
_chemical_formula_sum "Si O2"
_cell_formula_units_Z 48
_cell_length_a 16.992659
_cell_length_b 9.452766
_cell_length_c 14.342493
_cell_angle_alpha 90.000000
_cell_angle_beta 90.000000
_cell_angle_gamma 90.000000
_cell_volume 2303.800648
_symmetry_space_group_name_H-M "P B A M"
_symmetry_group_IT_number 55
_symmetry_cell_setting 'orthorhombic'
loop_
_space_group_symop_operation_xyz
x,y,z
-x,-y,z
1/2+x,1/2-y,-z
1/2-x,1/2+y,-z
-x,-y,-z
x,y,-z
1/2-x,1/2+y,z
1/2+x,1/2-y,z
loop_
_atom_site_type_symbol
_atom_site_label
_atom_site_fract_x
_atom_site_fract_y
_atom_site_fract_z
Si Si1 0.340791 0.721478 0.797516
Si Si2 0.907074 0.519206 0.300409
Si Si3 0.080422 0.915639 0.500000
Si Si4 0.669992 0.669296 0.000000
Si Si5 0.091971 0.966115 0.698265
Si Si6 0.656480 0.774570 0.192967
Si Si7 0.917799 0.422250 0.500000
Si Si8 0.666412 0.329506 0.000000
O O1 0.387753 0.818934 0.724711
O O2 0.352421 0.563753 0.760003
O O3 0.248888 0.759035 0.797943
O O4 0.376148 0.720862 0.904011
O O5 0.862216 0.437007 0.216776
O O6 0.874655 0.474060 0.403849
O O7 0.000000 0.500000 0.295116
O O8 0.125130 0.967630 0.592430
O O9 0.068632 0.746015 0.500000
O O10 0.000000 0.000000 0.500000
O O11 0.624511 0.725117 0.908317
O O12 0.679083 0.499432 0.000000
O O13 0.751278 0.751619 0.000000
O O14 0.104187 0.806951 0.731835
O O15 0.000000 0.000000 0.705747
O O16 0.000000 0.500000 0.500000
#
# Coordination Sequence:
#
# PCOD8227391 Si02
#       8
#     8   8   4   4   8   8   4   4
#     4  11  24  40  65  94 124 166 209 258 311 372
#     4  11  24  42  65  91 128 165 210 258 312 374
#     4  10  22  38  65  91 124 168 214 249 306 388
#     4  10  22  38  65  90 126 170 208 250 306 388
#     4  11  22  40  64  91 125 162 211 255 309 368
#     4  11  22  42  64  92 125 161 210 256 312 368
#     4  10  22  40  63  89 126 170 210 249 312 386
#     4  10  22  40  63  92 124 168 214 246 312 386
#
# _framework density 20.835135000000001
#
# number of rings (size 3 to 8) (size 9 to 14) (size 15 to 20)
#    0.000    1.333    3.333    2.000   14.000    0.000 
#    0.000   10.000    0.000    0.000    0.000    0.000 
#    0.000    0.000    0.000    0.000    0.000    0.000 
#
# Total GULP energy -594794.867398 kJ/mol
# GULP energy per Si atom -12391.559737 kJ/mol
# Density = 2.078771 g / cm^3
# Si number density = 20.835135 Si / 1000 Ang^3
#
#
#
# Elastic Constant Matrix: (Units=GPa)
#
#
# Indices 1 2 3 4 5 6 
#
# 1 49.9233 6.8029 30.4309 0.0000 0.0000 0.0000
# 2 6.8029 77.9821 37.4547 0.0000 0.0000 0.0000
# 3 30.4309 37.4547 183.1752 0.0000 0.0000 0.0000
# 4 0.0000 0.0000 0.0000 41.9972 0.0000 0.0000
# 5 0.0000 0.0000 0.0000 0.0000 25.4155 0.0000
# 6 0.0000 0.0000 0.0000 0.0000 0.0000 40.2791
#
#
#
# Elastic Compliance Matrix: (Units=1/GPa)
#
#
# Indices 1 2 3 4 5 6 
#
# 1 0.022290 -0.000184 -0.003665 0.000000 0.000000 0.000000
# 2 -0.000184 0.014222 -0.002877 0.000000 0.000000 0.000000
# 3 -0.003665 -0.002877 0.006657 0.000000 0.000000 0.000000
# 4 0.000000 0.000000 0.000000 0.023811 0.000000 0.000000
# 5 0.000000 0.000000 0.000000 0.000000 0.039346 0.000000
# 6 0.000000 0.000000 0.000000 0.000000 0.000000 0.024827
#
#
# Mechanical properties :
#
#
# Convention : Reuss Voigt Hill
#
# Bulk Modulus (GPa) = 33.65355 51.16192 42.40774
# Shear Modulus (GPa) = 32.36025 37.29782 34.82904
#
# Velocity S-wave (km/s) = 3.94529 4.23560 4.09302
# Velocity P-wave (km/s) = 6.07792 6.96630 6.53722
#
# Compressibility (1/GPa) = 0.02971454
#
# Stress axis : x y z
#
# Youngs Moduli (GPa) = 44.86298 70.31604 150.22815
#
# Poissons Ratio (x) = 0.01294 0.55065
# Poissons Ratio (y) = 0.00825 0.43226
# Poissons Ratio (z) = 0.16444 0.20233
#
# Static dielectric constant tensor:
#      x y z
#    x 3.216100 0.000000 0.000000 
#    y 0.000000 3.803170 0.000000 
#    z 0.000000 0.000000 4.946330 
# 
# 
# High freq. dielectric constant tensor:
#      x y z
#    x 1.771520 0.000000 0.000000 
#    y 0.000000 1.830620 0.000000 
#    z 0.000000 0.000000 1.844590 
# 
# From -- ./inp_files/19407.got.cif
#   From: 2010.03.12/outbox.cif.g09.slc.cpg/sg55_10_cif.got.tgz:19407.got - 2010.04.16 15:19:21.
