data_PCOD8227587
_publ_section_title
;
Structure prediction by ZEFSAII (Michael W. Deem and Ramdas Pophale) SiO2 
 PCOD8227587
Probable space group: P B A M
;
_chemical_formula_sum "Si O2"
_cell_formula_units_Z 56
_cell_length_a 14.820643
_cell_length_b 21.093473
_cell_length_c 8.865882
_cell_angle_alpha 90.000000
_cell_angle_beta 90.000000
_cell_angle_gamma 90.000000
_cell_volume 2771.641684
_symmetry_space_group_name_H-M "P B A M"
_symmetry_group_IT_number 55
_symmetry_cell_setting 'orthorhombic'
loop_
_space_group_symop_operation_xyz
x,y,z
-x,-y,z
1/2+x,1/2-y,-z
1/2-x,1/2+y,-z
-x,-y,-z
x,y,-z
1/2-x,1/2+y,z
1/2+x,1/2-y,z
loop_
_atom_site_type_symbol
_atom_site_label
_atom_site_fract_x
_atom_site_fract_y
_atom_site_fract_z
Si Si1 0.591652 0.278670 0.823530
Si Si2 0.483220 0.928400 0.822506
Si Si3 0.461780 0.598015 0.328162
Si Si4 0.355946 0.476251 0.671541
Si Si5 0.550546 0.809737 0.678076
Si Si6 0.719654 0.106908 0.175774
Si Si7 0.731900 0.737745 0.678309
O O1 0.544053 0.344879 0.788517
O O2 0.537878 0.220990 0.750550
O O3 0.691438 0.280239 0.754848
O O4 0.596591 0.266354 0.000000
O O5 0.554643 0.881881 0.739748
O O6 0.382687 0.906872 0.776950
O O7 0.500000 0.000000 0.765481
O O8 0.499982 0.923775 0.000000
O O9 0.459259 0.623734 0.500000
O O10 0.555435 0.564289 0.294709
O O11 0.378886 0.549920 0.300784
O O12 0.324058 0.465561 0.500000
O O13 0.276922 0.455737 0.784241
O O14 0.540152 0.810628 0.500000
O O15 0.637529 0.769241 0.727964
O O16 0.762342 0.165418 0.266767
O O17 0.727080 0.122222 0.000000
O O18 0.743707 0.739547 0.500000
#
# Coordination Sequence:
#
# PCOD8227587 Si02
#       7
#     8   8   8   8   8   8   8
#     4  12  24  38  60  90 123 159 197 249 312 368
#     4  10  23  43  64  88 124 165 204 255 315 371
#     4   9  19  37  58  84 119 159 203 249 301 358
#     4   9  19  36  59  84 116 160 203 248 300 358
#     4  11  24  42  65  92 122 161 210 261 312 371
#     4  11  22  37  60  91 122 160 206 252 311 377
#     4  11  24  41  63  90 121 160 206 257 309 367
#
# _framework density 20.204630999999999
#
# number of rings (size 3 to 8) (size 9 to 14) (size 15 to 20)
#    0.000    1.571    1.429    4.286    0.000    8.857 
#    0.000    4.286    0.000    0.000    0.000    0.000 
#    0.000    0.000    0.000    0.000    0.000    0.000 
#
# Total GULP energy -694621.883541 kJ/mol
# GULP energy per Si atom -12403.962206 kJ/mol
# Density = 2.015864 g / cm^3
# Si number density = 20.204631 Si / 1000 Ang^3
#
#
#
# Elastic Constant Matrix: (Units=GPa)
#
#
# Indices 1 2 3 4 5 6 
#
# 1 89.4601 41.6483 45.8560 0.0000 0.0000 0.0000
# 2 41.6483 122.9943 44.4729 0.0000 0.0000 0.0000
# 3 45.8560 44.4729 75.8366 0.0000 0.0000 0.0000
# 4 0.0000 0.0000 0.0000 35.4736 0.0000 0.0000
# 5 0.0000 0.0000 0.0000 0.0000 25.5518 0.0000
# 6 0.0000 0.0000 0.0000 0.0000 0.0000 30.2929
#
#
#
# Elastic Compliance Matrix: (Units=1/GPa)
#
#
# Indices 1 2 3 4 5 6 
#
# 1 0.016811 -0.002560 -0.008664 0.000000 0.000000 0.000000
# 2 -0.002560 0.010708 -0.004732 0.000000 0.000000 0.000000
# 3 -0.008664 -0.004732 0.021200 0.000000 0.000000 0.000000
# 4 0.000000 0.000000 0.000000 0.028190 0.000000 0.000000
# 5 0.000000 0.000000 0.000000 0.000000 0.039136 0.000000
# 6 0.000000 0.000000 0.000000 0.000000 0.000000 0.033011
#
#
# Mechanical properties :
#
#
# Convention : Reuss Voigt Hill
#
# Bulk Modulus (GPa) = 59.49526 61.36060 60.42793
# Shear Modulus (GPa) = 26.79965 28.68458 27.74211
#
# Velocity S-wave (km/s) = 3.64594 3.77198 3.70950
# Velocity P-wave (km/s) = 6.87271 7.02894 6.95126
#
# Compressibility (1/GPa) = 0.01680806
#
# Stress axis : x y z
#
# Youngs Moduli (GPa) = 59.48543 93.38644 47.17014
#
# Poissons Ratio (x) = 0.23905 0.40867
# Poissons Ratio (y) = 0.15227 0.22320
# Poissons Ratio (z) = 0.51537 0.44189
#
# Static dielectric constant tensor:
#      x y z
#    x 3.699330 0.000000 0.000000 
#    y 0.000000 3.792090 0.000000 
#    z 0.000000 0.000000 3.554020 
# 
# 
# High freq. dielectric constant tensor:
#      x y z
#    x 1.788490 0.000000 0.000000 
#    y 0.000000 1.798640 0.000000 
#    z 0.000000 0.000000 1.785480 
# 
# From -- ./inp_files/6149.got.cif
#   From: 2010.03.12/outbox.cif.g09.slc.cpg/sg55_4_cif.got.tgz:6149.got - 2010.04.16 15:19:21.
