data_PCOD8227619
_publ_section_title
;
Structure prediction by ZEFSAII (Michael W. Deem and Ramdas Pophale) SiO2 
 PCOD8227619
Probable space group: P B A M
;
_chemical_formula_sum "Si O2"
_cell_formula_units_Z 40
_cell_length_a 10.375405
_cell_length_b 11.446198
_cell_length_c 14.121849
_cell_angle_alpha 90.000000
_cell_angle_beta 90.000000
_cell_angle_gamma 90.000000
_cell_volume 1677.095818
_symmetry_space_group_name_H-M "P B A M"
_symmetry_group_IT_number 55
_symmetry_cell_setting 'orthorhombic'
loop_
_space_group_symop_operation_xyz
x,y,z
-x,-y,z
1/2+x,1/2-y,-z
1/2-x,1/2+y,-z
-x,-y,-z
x,y,-z
1/2-x,1/2+y,z
1/2+x,1/2-y,z
loop_
_atom_site_type_symbol
_atom_site_label
_atom_site_fract_x
_atom_site_fract_y
_atom_site_fract_z
Si Si1 0.983129 0.800399 0.391020
Si Si2 0.100107 0.409574 0.259088
Si Si3 0.528371 0.373799 0.110640
Si Si4 0.242254 0.783581 0.110985
Si Si5 0.304787 0.483790 0.606768
O O1 0.997225 0.753503 0.500000
O O2 0.105346 0.876878 0.357797
O O3 0.963431 0.701669 0.311955
O O4 0.862989 0.887616 0.385358
O O5 0.194919 0.385974 0.171786
O O6 0.173650 0.485110 0.336874
O O7 0.000000 0.500000 0.214797
O O8 0.500000 0.500000 0.159747
O O9 0.671298 0.329745 0.141415
O O10 0.412183 0.280088 0.134724
O O11 0.529781 0.393863 0.000000
O O12 0.262718 0.810876 0.000000
O O13 0.270008 0.454415 0.500000
#
# Coordination Sequence:
#
# PCOD8227619 Si02
#       5
#     8   8   8   8   8
#     4   9  21  43  68  93 128 171 213 265 336 404
#     4  12  27  39  63 101 133 169 225 277 330 401
#     4   9  20  42  69  94 125 173 227 285 349 407
#     4  10  24  44  66  95 135 181 233 287 344 404
#     4   9  21  43  67  93 129 173 213 264 333 400
#
# _framework density 23.850754999999999
#
# number of rings (size 3 to 8) (size 9 to 14) (size 15 to 20)
#    0.000    2.200    0.000    1.800    5.600    5.200 
#    0.000    4.000    0.000    0.000    0.000    0.000 
#    0.000    0.000    0.000    0.000    0.000    0.000 
#
# Total GULP energy -495531.170939 kJ/mol
# GULP energy per Si atom -12388.279273 kJ/mol
# Density = 2.379647 g / cm^3
# Si number density = 23.850755 Si / 1000 Ang^3
#
#
#
# Elastic Constant Matrix: (Units=GPa)
#
#
# Indices 1 2 3 4 5 6 
#
# 1 87.4057 24.3310 -10.8297 0.0000 0.0000 0.0000
# 2 24.3310 72.5163 10.2674 0.0000 0.0000 0.0000
# 3 -10.8297 10.2674 54.1884 0.0000 0.0000 0.0000
# 4 0.0000 0.0000 0.0000 22.6205 0.0000 0.0000
# 5 0.0000 0.0000 0.0000 0.0000 22.9619 0.0000
# 6 0.0000 0.0000 0.0000 0.0000 0.0000 28.6321
#
#
#
# Elastic Compliance Matrix: (Units=1/GPa)
#
#
# Indices 1 2 3 4 5 6 
#
# 1 0.013266 -0.004960 0.003591 0.000000 0.000000 0.000000
# 2 -0.004960 0.016024 -0.004027 0.000000 0.000000 0.000000
# 3 0.003591 -0.004027 0.019935 0.000000 0.000000 0.000000
# 4 0.000000 0.000000 0.000000 0.044208 0.000000 0.000000
# 5 0.000000 0.000000 0.000000 0.000000 0.043550 0.000000
# 6 0.000000 0.000000 0.000000 0.000000 0.000000 0.034926
#
#
# Mechanical properties :
#
#
# Convention : Reuss Voigt Hill
#
# Bulk Modulus (GPa) = 26.01886 29.07199 27.54542
# Shear Modulus (GPa) = 25.57375 27.53234 26.55305
#
# Velocity S-wave (km/s) = 3.27806 3.40127 3.34024
# Velocity P-wave (km/s) = 5.02596 5.25742 5.14299
#
# Compressibility (1/GPa) = 0.03843366
#
# Stress axis : x y z
#
# Youngs Moduli (GPa) = 75.37807 62.40510 50.16317
#
# Poissons Ratio (x) = 0.30951 -0.18014
# Poissons Ratio (y) = 0.37385 0.20203
# Poissons Ratio (z) = -0.27069 0.25133
#
# Static dielectric constant tensor:
#      x y z
#    x 4.477850 0.000000 0.000000 
#    y 0.000000 4.330630 0.000000 
#    z 0.000000 0.000000 4.286870 
# 
# 
# High freq. dielectric constant tensor:
#      x y z
#    x 1.946840 0.000000 0.000000 
#    y 0.000000 1.927800 0.000000 
#    z 0.000000 0.000000 1.953740 
# 
# From -- ./inp_files/18141.got.cif
#   From: 2010.03.12/outbox.cif.g09.slc.cpg/sg55_10_cif.got.tgz:18141.got - 2010.04.16 15:19:21.
