data_PCOD8227534
_publ_section_title
;
Structure prediction by ZEFSAII (Michael W. Deem and Ramdas Pophale) SiO2 
 PCOD8227534
Probable space group: P B A M
;
_chemical_formula_sum "Si O2"
_cell_formula_units_Z 48
_cell_length_a 24.545793
_cell_length_b 8.555410
_cell_length_c 11.040585
_cell_angle_alpha 90.000000
_cell_angle_beta 90.000000
_cell_angle_gamma 90.000000
_cell_volume 2318.515374
_symmetry_space_group_name_H-M "P B A M"
_symmetry_group_IT_number 55
_symmetry_cell_setting 'orthorhombic'
loop_
_space_group_symop_operation_xyz
x,y,z
-x,-y,z
1/2+x,1/2-y,-z
1/2-x,1/2+y,-z
-x,-y,-z
x,y,-z
1/2-x,1/2+y,z
1/2+x,1/2-y,z
loop_
_atom_site_type_symbol
_atom_site_label
_atom_site_fract_x
_atom_site_fract_y
_atom_site_fract_z
Si Si1 0.912407 0.841556 0.139423
Si Si2 0.879163 0.165493 0.246228
Si Si3 0.715507 0.844849 0.139406
Si Si4 0.521670 0.832896 0.860054
Si Si5 0.210194 0.215586 0.500000
Si Si6 0.816007 0.669984 0.241826
Si Si7 0.174665 0.858625 0.500000
O O1 0.975206 0.796845 0.157592
O O2 0.875488 0.697577 0.185052
O O3 0.899602 0.992854 0.217809
O O4 0.900089 0.878041 0.000000
O O5 0.826916 0.205011 0.163415
O O6 0.863275 0.174263 0.385812
O O7 0.926836 0.289628 0.221748
O O8 0.775280 0.788014 0.174484
O O9 0.700656 0.991383 0.222923
O O10 0.714419 0.896462 0.000000
O O11 0.500000 0.000000 0.816271
O O12 0.540465 0.840505 0.000000
O O13 0.182919 0.296687 0.384261
O O14 0.275258 0.237746 0.500000
O O15 0.198912 0.031942 0.500000
#
# Coordination Sequence:
#
# PCOD8227534 Si02
#       7
#     8   8   8   8   4   8   4
#     4  11  22  40  66  96 133 175 219 275 338 401
#     4  12  24  42  66  98 130 176 226 276 330 401
#     4  12  24  39  62  96 134 166 212 284 342 399
#     4  10  22  43  69  98 135 176 220 274 342 409
#     4  12  24  48  65  92 132 183 225 268 324 400
#     4  12  24  41  64  93 131 173 225 267 336 401
#     4  12  26  46  69  95 133 181 233 273 328 395
#
# _framework density 20.702904
#
# number of rings (size 3 to 8) (size 9 to 14) (size 15 to 20)
#    0.000    0.500    3.333    6.500    0.000    2.667 
#    0.000    2.917    0.000    0.000    0.000    0.000 
#    0.000    0.000    0.000    0.000    0.000    0.000 
#
# Total GULP energy -595622.991347 kJ/mol
# GULP energy per Si atom -12408.812320 kJ/mol
# Density = 2.065578 g / cm^3
# Si number density = 20.702904 Si / 1000 Ang^3
#
#
#
# Elastic Constant Matrix: (Units=GPa)
#
#
# Indices 1 2 3 4 5 6 
#
# 1 69.5487 6.5391 53.5519 0.0000 0.0000 0.0000
# 2 6.5391 86.5941 20.8570 0.0000 0.0000 0.0000
# 3 53.5519 20.8570 126.4582 0.0000 0.0000 0.0000
# 4 0.0000 0.0000 0.0000 34.3618 0.0000 0.0000
# 5 0.0000 0.0000 0.0000 0.0000 24.9052 0.0000
# 6 0.0000 0.0000 0.0000 0.0000 0.0000 35.0303
#
#
#
# Elastic Compliance Matrix: (Units=1/GPa)
#
#
# Indices 1 2 3 4 5 6 
#
# 1 0.021364 0.000589 -0.009144 0.000000 0.000000 0.000000
# 2 0.000589 0.012042 -0.002236 0.000000 0.000000 0.000000
# 3 -0.009144 -0.002236 0.012149 0.000000 0.000000 0.000000
# 4 0.000000 0.000000 0.000000 0.029102 0.000000 0.000000
# 5 0.000000 0.000000 0.000000 0.000000 0.040152 0.000000
# 6 0.000000 0.000000 0.000000 0.000000 0.000000 0.028547
#
#
# Mechanical properties :
#
#
# Convention : Reuss Voigt Hill
#
# Bulk Modulus (GPa) = 41.71269 49.38856 45.55062
# Shear Modulus (GPa) = 28.91362 32.30299 30.60830
#
# Velocity S-wave (km/s) = 3.74116 3.95436 3.84924
# Velocity P-wave (km/s) = 6.23327 6.69006 6.46570
#
# Compressibility (1/GPa) = 0.02397352
#
# Stress axis : x y z
#
# Youngs Moduli (GPa) = 46.80759 83.04190 82.31217
#
# Poissons Ratio (x) = -0.04893 0.75269
# Poissons Ratio (y) = -0.02758 0.18402
# Poissons Ratio (z) = 0.42802 0.18565
#
# Static dielectric constant tensor:
#      x y z
#    x 3.879580 0.000000 0.000000 
#    y 0.000000 3.795730 0.000000 
#    z 0.000000 0.000000 3.812780 
# 
# 
# High freq. dielectric constant tensor:
#      x y z
#    x 1.815630 0.000000 0.000000 
#    y 0.000000 1.824050 0.000000 
#    z 0.000000 0.000000 1.806440 
# 
# From -- ./inp_files/15628.got.cif
#   From: 2010.03.12/outbox.cif.g09.slc.cpg/sg55_8_cif.got.tgz:15628.got - 2010.04.16 15:19:21.
