data_PCOD8227179
_publ_section_title
;
Structure prediction by ZEFSAII (Michael W. Deem and Ramdas Pophale) SiO2 
 PCOD8227179
Probable space group: P B A M
;
_chemical_formula_sum "Si O2"
_cell_formula_units_Z 40
_cell_length_a 13.526730
_cell_length_b 17.793766
_cell_length_c 8.370516
_cell_angle_alpha 90.000000
_cell_angle_beta 90.000000
_cell_angle_gamma 90.000000
_cell_volume 2014.711787
_symmetry_space_group_name_H-M "P B A M"
_symmetry_group_IT_number 55
_symmetry_cell_setting 'orthorhombic'
loop_
_space_group_symop_operation_xyz
x,y,z
-x,-y,z
1/2+x,1/2-y,-z
1/2-x,1/2+y,-z
-x,-y,-z
x,y,-z
1/2-x,1/2+y,z
1/2+x,1/2-y,z
loop_
_atom_site_type_symbol
_atom_site_label
_atom_site_fract_x
_atom_site_fract_y
_atom_site_fract_z
Si Si1 0.601514 0.962718 0.812901
Si Si2 0.874828 0.873137 0.812785
Si Si3 0.095705 0.838881 0.816159
Si Si4 0.796263 0.022180 0.314447
Si Si5 0.178191 0.689389 0.316298
O O1 0.615501 0.885151 0.719118
O O2 0.500000 0.000000 0.754907
O O3 0.690208 0.019713 0.772422
O O4 0.600002 0.945017 0.000000
O O5 0.793306 0.823812 0.721734
O O6 0.981245 0.840932 0.764388
O O7 0.869255 0.960086 0.760554
O O8 0.853692 0.866928 0.000000
O O9 0.157672 0.896008 0.708193
O O10 0.136537 0.755683 0.792644
O O11 0.106888 0.863058 0.000000
O O12 0.781174 0.004495 0.500000
O O13 0.165972 0.712044 0.500000
#
# Coordination Sequence:
#
# PCOD8227179 Si02
#       5
#     8   8   8   8   8
#     4  10  21  39  62  84 112 153 195 232 275 334
#     4  10  21  39  61  82 111 151 190 230 278 335
#     4  11  23  39  60  84 113 151 192 232 278 336
#     4  11  22  36  58  87 117 147 185 235 284 334
#     4  11  23  38  58  85 117 148 183 235 289 334
#
# _framework density 19.853957000000001
#
# number of rings (size 3 to 8) (size 9 to 14) (size 15 to 20)
#    0.000    1.400    0.000    8.400    0.000    8.800 
#    0.000    2.000    0.000    0.000    0.000    0.000 
#    0.000    0.000    0.000    0.000    0.000    0.000 
#
# Total GULP energy -496273.402489 kJ/mol
# GULP energy per Si atom -12406.835062 kJ/mol
# Density = 1.980877 g / cm^3
# Si number density = 19.853957 Si / 1000 Ang^3
#
#
#
# Elastic Constant Matrix: (Units=GPa)
#
#
# Indices 1 2 3 4 5 6 
#
# 1 121.6222 71.6263 20.2347 0.0000 0.0000 0.0000
# 2 71.6263 100.5110 7.8405 0.0000 0.0000 0.0000
# 3 20.2347 7.8405 69.2199 0.0000 0.0000 0.0000
# 4 0.0000 0.0000 0.0000 31.7504 0.0000 0.0000
# 5 0.0000 0.0000 0.0000 0.0000 7.5525 0.0000
# 6 0.0000 0.0000 0.0000 0.0000 0.0000 26.1745
#
#
#
# Elastic Compliance Matrix: (Units=1/GPa)
#
#
# Indices 1 2 3 4 5 6 
#
# 1 0.014825 -0.010318 -0.003165 0.000000 0.000000 0.000000
# 2 -0.010318 0.017219 0.001066 0.000000 0.000000 0.000000
# 3 -0.003165 0.001066 0.015251 0.000000 0.000000 0.000000
# 4 0.000000 0.000000 0.000000 0.031496 0.000000 0.000000
# 5 0.000000 0.000000 0.000000 0.000000 0.132406 0.000000
# 6 0.000000 0.000000 0.000000 0.000000 0.000000 0.038205
#
#
# Mechanical properties :
#
#
# Convention : Reuss Voigt Hill
#
# Bulk Modulus (GPa) = 44.52178 54.52843 49.52510
# Shear Modulus (GPa) = 17.74790 25.87225 21.81007
#
# Velocity S-wave (km/s) = 2.99310 3.61380 3.31800
# Velocity P-wave (km/s) = 5.86670 6.70352 6.29902
#
# Compressibility (1/GPa) = 0.02246092
#
# Stress axis : x y z
#
# Youngs Moduli (GPa) = 67.45264 58.07617 65.56858
#
# Poissons Ratio (x) = 0.59922 0.20753
# Poissons Ratio (y) = 0.69597 -0.06988
# Poissons Ratio (z) = 0.21349 -0.06190
#
# Static dielectric constant tensor:
#      x y z
#    x 3.733920 0.000000 0.000000 
#    y 0.000000 3.427040 0.000000 
#    z 0.000000 0.000000 3.601990 
# 
# 
# High freq. dielectric constant tensor:
#      x y z
#    x 1.780800 0.000000 0.000000 
#    y 0.000000 1.768730 0.000000 
#    z 0.000000 0.000000 1.787480 
# 
# From -- ./inp_files/3631.got.cif
#   From: 2010.03.12/outbox.cif.g09.slc.cpg/sg55_2_cif.got.tgz:3631.got - 2010.04.16 15:19:21.
