data_PCOD8227800
_publ_section_title
;
Structure prediction by ZEFSAII (Michael W. Deem and Ramdas Pophale) SiO2 
 PCOD8227800
Probable space group: P B A M
;
_chemical_formula_sum "Si O2"
_cell_formula_units_Z 48
_cell_length_a 8.474118
_cell_length_b 19.156357
_cell_length_c 13.162387
_cell_angle_alpha 90.000000
_cell_angle_beta 90.000000
_cell_angle_gamma 90.000000
_cell_volume 2136.692792
_symmetry_space_group_name_H-M "P B A M"
_symmetry_group_IT_number 55
_symmetry_cell_setting 'orthorhombic'
loop_
_space_group_symop_operation_xyz
x,y,z
-x,-y,z
1/2+x,1/2-y,-z
1/2-x,1/2+y,-z
-x,-y,-z
x,y,-z
1/2-x,1/2+y,z
1/2+x,1/2-y,z
loop_
_atom_site_type_symbol
_atom_site_label
_atom_site_fract_x
_atom_site_fract_y
_atom_site_fract_z
Si Si1 0.995095 0.225786 0.000000
Si Si2 0.314751 0.216447 0.500000
Si Si3 0.844193 0.643681 0.500000
Si Si4 0.814891 0.360253 0.000000
Si Si5 0.666431 0.709430 0.206148
Si Si6 0.644346 0.323882 0.297724
Si Si7 0.363626 0.912415 0.718276
Si Si8 0.702478 0.940876 0.792253
O O1 0.974270 0.311238 0.000000
O O2 0.911504 0.193795 0.098503
O O3 0.175139 0.198521 0.000000
O O4 0.300953 0.300956 0.500000
O O5 0.494449 0.189537 0.500000
O O6 0.218146 0.186507 0.593819
O O7 0.828405 0.593325 0.402261
O O8 0.810750 0.415663 0.091874
O O9 0.535290 0.703244 0.295455
O O10 0.746982 0.785153 0.212059
O O11 0.808380 0.656617 0.224813
O O12 0.648156 0.404617 0.263055
O O13 0.549771 0.917334 0.729375
O O14 0.276508 0.976374 0.776194
#
# Coordination Sequence:
#
# PCOD8227800 Si02
#       8
#     4   4   4   4   8   8   8   8
#     4  12  24  41  73 105 135 179 227 296 350 413
#     4  12  24  39  76 103 135 180 228 297 348 411
#     4  12  24  44  71 106 137 183 240 284 361 409
#     4  12  26  44  73 104 138 181 240 286 360 411
#     4  12  24  42  69 104 138 179 231 293 352 410
#     4  12  23  42  68 104 138 175 233 291 344 412
#     4  11  27  44  70 100 143 187 233 288 346 424
#     4  11  25  47  67 100 140 187 231 287 341 423
#
# _framework density 22.464625000000002
#
# number of rings (size 3 to 8) (size 9 to 14) (size 15 to 20)
#    0.000    0.333    6.667    2.000    2.333    4.667 
#    0.000    0.833    0.000    2.000    0.000    0.000 
#    0.000    0.000    0.000    0.000    0.000    0.000 
#
# Total GULP energy -595086.007259 kJ/mol
# GULP energy per Si atom -12397.625151 kJ/mol
# Density = 2.241349 g / cm^3
# Si number density = 22.464625 Si / 1000 Ang^3
#
#
#
# Elastic Constant Matrix: (Units=GPa)
#
#
# Indices 1 2 3 4 5 6 
#
# 1 51.8680 8.2360 -3.9362 0.0000 0.0000 0.0000
# 2 8.2360 82.6965 49.3130 0.0000 0.0000 0.0000
# 3 -3.9362 49.3130 129.9067 0.0000 0.0000 0.0000
# 4 0.0000 0.0000 0.0000 33.4838 0.0000 0.0000
# 5 0.0000 0.0000 0.0000 0.0000 11.2246 0.0000
# 6 0.0000 0.0000 0.0000 0.0000 0.0000 32.8747
#
#
#
# Elastic Compliance Matrix: (Units=1/GPa)
#
#
# Indices 1 2 3 4 5 6 
#
# 1 0.019893 -0.003025 0.001751 0.000000 0.000000 0.000000
# 2 -0.003025 0.016091 -0.006200 0.000000 0.000000 0.000000
# 3 0.001751 -0.006200 0.010104 0.000000 0.000000 0.000000
# 4 0.000000 0.000000 0.000000 0.029865 0.000000 0.000000
# 5 0.000000 0.000000 0.000000 0.000000 0.089090 0.000000
# 6 0.000000 0.000000 0.000000 0.000000 0.000000 0.030419
#
#
# Mechanical properties :
#
#
# Convention : Reuss Voigt Hill
#
# Bulk Modulus (GPa) = 32.11296 41.29965 36.70631
# Shear Modulus (GPa) = 22.64597 29.57384 26.10991
#
# Velocity S-wave (km/s) = 3.17846 3.63225 3.41290
# Velocity P-wave (km/s) = 5.27220 6.00126 5.64851
#
# Compressibility (1/GPa) = 0.03114007
#
# Stress axis : x y z
#
# Youngs Moduli (GPa) = 50.26887 62.14756 98.96725
#
# Poissons Ratio (x) = 0.18803 -0.17332
# Poissons Ratio (y) = 0.15209 0.61357
# Poissons Ratio (z) = -0.08803 0.38530
#
# Static dielectric constant tensor:
#      x y z
#    x 4.083990 0.000000 0.000000 
#    y 0.000000 4.108470 0.000000 
#    z 0.000000 0.000000 4.220120 
# 
# 
# High freq. dielectric constant tensor:
#      x y z
#    x 1.881690 0.000000 0.000000 
#    y 0.000000 1.873530 0.000000 
#    z 0.000000 0.000000 1.905210 
# 
# From -- ./inp_files/17438.got.cif
#   From: 2010.03.12/outbox.cif.g09.slc.cpg/sg55_9_cif.got.tgz:17438.got - 2010.04.16 15:19:21.
