data_PCOD8227088
_publ_section_title
;
Structure prediction by ZEFSAII (Michael W. Deem and Ramdas Pophale) SiO2 
 PCOD8227088
Probable space group: P B A M
;
_chemical_formula_sum "Si O2"
_cell_formula_units_Z 56
_cell_length_a 9.056108
_cell_length_b 23.109884
_cell_length_c 13.597337
_cell_angle_alpha 90.000000
_cell_angle_beta 90.000000
_cell_angle_gamma 90.000000
_cell_volume 2845.726905
_symmetry_space_group_name_H-M "P B A M"
_symmetry_group_IT_number 55
_symmetry_cell_setting 'orthorhombic'
loop_
_space_group_symop_operation_xyz
x,y,z
-x,-y,z
1/2+x,1/2-y,-z
1/2-x,1/2+y,-z
-x,-y,-z
x,y,-z
1/2-x,1/2+y,z
1/2+x,1/2-y,z
loop_
_atom_site_type_symbol
_atom_site_label
_atom_site_fract_x
_atom_site_fract_y
_atom_site_fract_z
Si Si1 0.957983 0.317527 0.221231
Si Si2 0.023394 0.802814 0.885539
Si Si3 0.085337 0.826107 0.390576
Si Si4 0.233224 0.114409 0.886229
Si Si5 0.827548 0.508325 0.884346
Si Si6 0.258899 0.375660 0.781819
Si Si7 0.745431 0.289369 0.389854
O O1 0.987439 0.252715 0.184256
O O2 0.887816 0.353244 0.131329
O O3 0.845083 0.323850 0.312238
O O4 0.105953 0.348849 0.254439
O O5 0.180137 0.834258 0.869293
O O6 0.900493 0.847319 0.843828
O O7 0.002901 0.785940 0.000000
O O8 0.082107 0.853548 0.500000
O O9 0.127279 0.875191 0.310796
O O10 0.213425 0.778034 0.383005
O O11 0.927986 0.796444 0.365483
O O12 0.240927 0.048786 0.845731
O O13 0.206191 0.108723 0.000000
O O14 0.758666 0.559845 0.821242
O O15 0.000000 0.500000 0.862115
O O16 0.802375 0.520272 0.000000
O O17 0.779674 0.312700 0.500000
#
# Coordination Sequence:
#
# PCOD8227088 Si02
#       7
#     8   8   8   8   8   8   8
#     4  12  22  35  59  90 125 157 193 243 305 365
#     4  11  24  37  53  87 126 158 192 240 306 364
#     4  10  21  38  59  87 122 158 199 246 300 363
#     4  10  22  40  60  83 120 164 204 246 293 352
#     4  10  21  41  63  84 114 160 216 257 290 346
#     4  12  23  36  61  89 118 157 206 251 302 352
#     4  10  21  38  60  88 125 163 198 240 297 368
#
# _framework density 19.678626000000001
#
# number of rings (size 3 to 8) (size 9 to 14) (size 15 to 20)
#    0.000    1.286    2.857    3.429    0.000    5.143 
#    0.000    2.143    0.000    1.286    0.000    3.000 
#    0.000    0.000    0.000    0.000    0.000    0.000 
#
# Total GULP energy -694265.915228 kJ/mol
# GULP energy per Si atom -12397.605629 kJ/mol
# Density = 1.963384 g / cm^3
# Si number density = 19.678626 Si / 1000 Ang^3
#
#
#
# Elastic Constant Matrix: (Units=GPa)
#
#
# Indices 1 2 3 4 5 6 
#
# 1 109.0581 54.1392 46.5985 0.0000 0.0000 0.0000
# 2 54.1392 139.9986 48.9110 0.0000 0.0000 0.0000
# 3 46.5985 48.9110 83.6603 0.0000 0.0000 0.0000
# 4 0.0000 0.0000 0.0000 24.7782 0.0000 0.0000
# 5 0.0000 0.0000 0.0000 0.0000 30.6768 0.0000
# 6 0.0000 0.0000 0.0000 0.0000 0.0000 30.8314
#
#
#
# Elastic Compliance Matrix: (Units=1/GPa)
#
#
# Indices 1 2 3 4 5 6 
#
# 1 0.013053 -0.003151 -0.005428 0.000000 0.000000 0.000000
# 2 -0.003151 0.009737 -0.003937 0.000000 0.000000 0.000000
# 3 -0.005428 -0.003937 0.017279 0.000000 0.000000 0.000000
# 4 0.000000 0.000000 0.000000 0.040358 0.000000 0.000000
# 5 0.000000 0.000000 0.000000 0.000000 0.032598 0.000000
# 6 0.000000 0.000000 0.000000 0.000000 0.000000 0.032435
#
#
# Mechanical properties :
#
#
# Convention : Reuss Voigt Hill
#
# Bulk Modulus (GPa) = 66.51159 70.22384 68.36771
# Shear Modulus (GPa) = 28.48919 29.46182 28.97550
#
# Velocity S-wave (km/s) = 3.80902 3.87350 3.84140
# Velocity P-wave (km/s) = 7.29501 7.46781 7.38191
#
# Compressibility (1/GPa) = 0.01503497
#
# Stress axis : x y z
#
# Youngs Moduli (GPa) = 76.60936 102.69860 57.87530
#
# Poissons Ratio (x) = 0.32365 0.31416
# Poissons Ratio (y) = 0.24143 0.22788
# Poissons Ratio (z) = 0.41585 0.40437
#
# Static dielectric constant tensor:
#      x y z
#    x 3.786980 0.000000 0.000000 
#    y 0.000000 3.576300 0.000000 
#    z 0.000000 0.000000 3.699960 
# 
# 
# High freq. dielectric constant tensor:
#      x y z
#    x 1.780720 0.000000 0.000000 
#    y 0.000000 1.740190 0.000000 
#    z 0.000000 0.000000 1.766320 
# 
# From -- ./inp_files/17639.got.cif
#   From: 2010.03.12/outbox.cif.g09.slc.cpg/sg55_9_cif.got.tgz:17639.got - 2010.04.16 15:19:21.
