data_PCOD8227039
_publ_section_title
;
Structure prediction by ZEFSAII (Michael W. Deem and Ramdas Pophale) SiO2 
 PCOD8227039
Probable space group: P B A M
;
_chemical_formula_sum "Si O2"
_cell_formula_units_Z 32
_cell_length_a 18.461699
_cell_length_b 7.345328
_cell_length_c 10.529336
_cell_angle_alpha 90.000000
_cell_angle_beta 90.000000
_cell_angle_gamma 90.000000
_cell_volume 1427.854137
_symmetry_space_group_name_H-M "P B A M"
_symmetry_group_IT_number 55
_symmetry_cell_setting 'orthorhombic'
loop_
_space_group_symop_operation_xyz
x,y,z
-x,-y,z
1/2+x,1/2-y,-z
1/2-x,1/2+y,-z
-x,-y,-z
x,y,-z
1/2-x,1/2+y,z
1/2+x,1/2-y,z
loop_
_atom_site_type_symbol
_atom_site_label
_atom_site_fract_x
_atom_site_fract_y
_atom_site_fract_z
Si Si1 0.464108 0.307305 0.136528
Si Si2 0.568736 0.235491 0.644857
Si Si3 0.158029 0.919379 0.708975
Si Si4 0.306871 0.032933 0.359819
O O1 0.500000 0.500000 0.118898
O O2 0.502051 0.207254 0.256984
O O3 0.378464 0.341714 0.162152
O O4 0.471459 0.202127 0.000000
O O5 0.543008 0.193250 0.500000
O O6 0.601461 0.439659 0.645524
O O7 0.628700 0.092325 0.693739
O O8 0.169501 0.741272 0.623216
O O9 0.235970 0.015632 0.730877
O O10 0.285378 0.959927 0.500000
#
# Coordination Sequence:
#
# PCOD8227039 Si02
#       4
#     8   8   8   8
#     4   9  21  42  63  84 117 158 199 242 289 344
#     4  10  21  37  61  91 118 151 193 240 294 347
#     4  11  21  36  59  86 120 159 190 237 292 349
#     4  11  21  34  57  91 124 151 189 242 295 347
#
# _framework density 22.411254
#
# number of rings (size 3 to 8) (size 9 to 14) (size 15 to 20)
#    0.000    1.750    2.500    2.250    0.000    7.500 
#    0.000    7.500    0.000    0.000    0.000    0.000 
#    0.000    0.000    0.000    0.000    0.000    0.000 
#
# Total GULP energy -396429.631185 kJ/mol
# GULP energy per Si atom -12388.425975 kJ/mol
# Density = 2.236024 g / cm^3
# Si number density = 22.411254 Si / 1000 Ang^3
#
#
#
# Elastic Constant Matrix: (Units=GPa)
#
#
# Indices 1 2 3 4 5 6 
#
# 1 117.4059 23.6536 56.0707 0.0000 0.0000 0.0000
# 2 23.6536 83.8257 2.3370 0.0000 0.0000 0.0000
# 3 56.0707 2.3370 122.1804 0.0000 0.0000 0.0000
# 4 0.0000 0.0000 0.0000 58.9340 0.0000 0.0000
# 5 0.0000 0.0000 0.0000 0.0000 -118.6835 0.0000
# 6 0.0000 0.0000 0.0000 0.0000 0.0000 31.5898
#
#
#
# Elastic Compliance Matrix: (Units=1/GPa)
#
#
# Indices 1 2 3 4 5 6 
#
# 1 0.011684 -0.003149 -0.005302 0.000000 0.000000 0.000000
# 2 -0.003149 0.012785 0.001201 0.000000 0.000000 0.000000
# 3 -0.005302 0.001201 0.010595 0.000000 0.000000 0.000000
# 4 0.000000 0.000000 0.000000 0.016968 0.000000 0.000000
# 5 0.000000 0.000000 0.000000 0.000000 -0.008426 0.000000
# 6 0.000000 0.000000 0.000000 0.000000 0.000000 0.031656
#
#
# Mechanical properties :
#
#
# Convention : Reuss Voigt Hill
#
# Bulk Modulus (GPa) = 48.63127 54.17049 51.40088
# Shear Modulus (GPa) = 51.75125 10.45811 31.10468
#
# Velocity S-wave (km/s) = 4.81059 2.16254 3.72950
# Velocity P-wave (km/s) = 7.25274 5.51897 6.44443
#
# Compressibility (1/GPa) = 0.02056290
#
# Stress axis : x y z
#
# Youngs Moduli (GPa) = 85.58795 78.21885 94.38688
#
# Poissons Ratio (x) = 0.24632 0.50041
# Poissons Ratio (y) = 0.26953 -0.11332
# Poissons Ratio (z) = 0.45376 -0.09391
#
# Static dielectric constant tensor:
#      x y z
#    x 4.249520 0.000000 0.000000 
#    y 0.000000 3.948790 0.000000 
#    z 0.000000 0.000000 4.140990 
# 
# 
# High freq. dielectric constant tensor:
#      x y z
#    x 1.886570 0.000000 0.000000 
#    y 0.000000 1.886400 0.000000 
#    z 0.000000 0.000000 1.842070 
# 
# From -- ./inp_files/8311.got.cif
#   From: 2010.03.12/outbox.cif.g09.slc.cpg/sg55_5_cif.got.tgz:8311.got - 2010.04.16 15:19:21.
