data_PCOD8227367
_publ_section_title
;
Structure prediction by ZEFSAII (Michael W. Deem and Ramdas Pophale) SiO2 
 PCOD8227367
Probable space group: P B A M
;
_chemical_formula_sum "Si O2"
_cell_formula_units_Z 48
_cell_length_a 5.260178
_cell_length_b 23.643983
_cell_length_c 15.308522
_cell_angle_alpha 90.000000
_cell_angle_beta 90.000000
_cell_angle_gamma 90.000000
_cell_volume 1903.944750
_symmetry_space_group_name_H-M "P B A M"
_symmetry_group_IT_number 55
_symmetry_cell_setting 'orthorhombic'
loop_
_space_group_symop_operation_xyz
x,y,z
-x,-y,z
1/2+x,1/2-y,-z
1/2-x,1/2+y,-z
-x,-y,-z
x,y,-z
1/2-x,1/2+y,z
1/2+x,1/2-y,z
loop_
_atom_site_type_symbol
_atom_site_label
_atom_site_fract_x
_atom_site_fract_y
_atom_site_fract_z
Si Si1 0.156367 0.859587 0.159720
Si Si2 0.055365 0.785234 0.000000
Si Si3 0.620564 0.212189 0.307986
Si Si4 0.527656 0.433190 0.303207
Si Si5 0.023948 0.432864 0.403494
Si Si6 0.755501 0.525348 0.901270
Si Si7 0.618257 0.212242 0.500000
O O1 0.014793 0.819404 0.090262
O O2 0.354501 0.829317 0.225127
O O3 0.951876 0.896085 0.215108
O O4 0.297296 0.907367 0.102498
O O5 0.344376 0.763193 0.000000
O O6 0.355392 0.244652 0.299363
O O7 0.623097 0.179910 0.404369
O O8 0.500000 0.500000 0.286907
O O9 0.768213 0.411822 0.357388
O O10 0.272024 0.413555 0.351630
O O11 0.037667 0.405108 0.500000
O O12 0.000000 0.500000 0.412239
O O13 0.500000 0.500000 0.856564
O O14 0.000000 0.500000 0.849810
O O15 0.758412 0.502975 0.000000
O O16 0.366112 0.249227 0.500000
#
# Coordination Sequence:
#
# PCOD8227367 Si02
#       7
#     8   4   8   8   8   8   4
#     4  12  25  46  71 105 138 182 230 284 349 413
#     4  12  30  52  74 104 140 180 228 290 360 428
#     4  10  22  41  67  96 130 173 223 281 342 405
#     4  10  22  37  62  98 136 179 230 280 332 400
#     4   9  18  37  61  89 134 186 227 274 332 389
#     4  10  23  43  67  99 136 178 224 274 332 400
#     4   8  16  36  62  88 124 166 214 278 338 386
#
# _framework density 25.210815
#
# number of rings (size 3 to 8) (size 9 to 14) (size 15 to 20)
#    0.000    1.833    0.833    2.000    0.000   10.667 
#    3.000    0.000    3.667    0.000    0.000    0.000 
#    0.000    0.000    0.000    0.000    0.000    0.000 
#
# Total GULP energy -594710.301305 kJ/mol
# GULP energy per Si atom -12389.797944 kJ/mol
# Density = 2.515343 g / cm^3
# Si number density = 25.210815 Si / 1000 Ang^3
#
#
#
# Elastic Constant Matrix: (Units=GPa)
#
#
# Indices 1 2 3 4 5 6 
#
# 1 157.1714 23.9263 48.9920 0.0000 0.0000 0.0000
# 2 23.9263 70.8238 38.9072 0.0000 0.0000 0.0000
# 3 48.9920 38.9072 162.3742 0.0000 0.0000 0.0000
# 4 0.0000 0.0000 0.0000 60.8930 0.0000 0.0000
# 5 0.0000 0.0000 0.0000 0.0000 21.0894 0.0000
# 6 0.0000 0.0000 0.0000 0.0000 0.0000 -2.7285
#
#
#
# Elastic Compliance Matrix: (Units=1/GPa)
#
#
# Indices 1 2 3 4 5 6 
#
# 1 0.007144 -0.001416 -0.001816 0.000000 0.000000 0.000000
# 2 -0.001416 0.016540 -0.003536 0.000000 0.000000 0.000000
# 3 -0.001816 -0.003536 0.007554 0.000000 0.000000 0.000000
# 4 0.000000 0.000000 0.000000 0.016422 0.000000 0.000000
# 5 0.000000 0.000000 0.000000 0.000000 0.047417 0.000000
# 6 0.000000 0.000000 0.000000 0.000000 0.000000 -0.366503
#
#
# Mechanical properties :
#
#
# Convention : Reuss Voigt Hill
#
# Bulk Modulus (GPa) = 56.49037 68.22448 62.35743
# Shear Modulus (GPa) = -19.84219 34.42038 7.28910
#
# Velocity S-wave (km/s) = -2.80849 3.69901 1.70221
# Velocity P-wave (km/s) = 3.45529 6.73527 5.35271
#
# Compressibility (1/GPa) = 0.01770213
#
# Stress axis : x y z
#
# Youngs Moduli (GPa) = 139.97438 60.45799 132.38083
#
# Poissons Ratio (x) = 0.08559 0.24045
# Poissons Ratio (y) = 0.19816 0.46812
# Poissons Ratio (z) = 0.25424 0.21379
#
# Static dielectric constant tensor:
#      x y z
#    x 4.445780 0.000000 0.000000 
#    y 0.000000 4.425090 0.000000 
#    z 0.000000 0.000000 5.015960 
# 
# 
# High freq. dielectric constant tensor:
#      x y z
#    x 1.997540 0.000000 0.000000 
#    y 0.000000 2.008460 0.000000 
#    z 0.000000 0.000000 2.031380 
# 
# From -- ./inp_files/16686.got.cif
#   From: 2010.03.12/outbox.cif.g09.slc.cpg/sg55_9_cif.got.tgz:16686.got - 2010.04.16 15:19:21.
