data_PCOD8227855
_publ_section_title
;
Structure prediction by ZEFSAII (Michael W. Deem and Ramdas Pophale) SiO2 
 PCOD8227855
Probable space group: P C C N
;
_chemical_formula_sum "Si O2"
_cell_formula_units_Z 48
_cell_length_a 15.493113
_cell_length_b 27.933503
_cell_length_c 5.247182
_cell_angle_alpha 90.000000
_cell_angle_beta 90.000000
_cell_angle_gamma 90.000000
_cell_volume 2270.859257
_symmetry_space_group_name_H-M "P C C N"
_symmetry_group_IT_number 56
_symmetry_cell_setting 'orthorhombic'
loop_
_space_group_symop_operation_xyz
x,y,z
1/2-x,1/2-y,z
1/2+x,-y,1/2-z
-x,1/2+y,1/2-z
-x,-y,-z
1/2+x,1/2+y,-z
1/2-x,y,1/2+z
x,1/2-y,1/2+z
loop_
_atom_site_type_symbol
_atom_site_label
_atom_site_fract_x
_atom_site_fract_y
_atom_site_fract_z
Si Si1 0.803769 0.471955 0.285664
Si Si2 0.570985 0.221143 0.257004
Si Si3 0.193650 0.866329 0.270449
Si Si4 0.632216 0.778816 0.743391
Si Si5 0.839704 0.886211 0.238460
Si Si6 0.647651 0.926615 0.238456
O O1 0.771683 0.476656 0.575952
O O2 0.847136 0.419877 0.247195
O O3 0.869432 0.516176 0.240751
O O4 0.600618 0.249720 0.507931
O O5 0.614919 0.169689 0.258391
O O6 0.469489 0.211890 0.256711
O O7 0.237925 0.858291 0.544067
O O8 0.661832 0.749831 0.493931
O O9 0.679670 0.829797 0.742808
O O10 0.749961 0.915018 0.238855
O O11 0.894319 0.902733 0.486972
O O12 0.893993 0.901426 0.987332
#
# Coordination Sequence:
#
# PCOD8227855 Si02
#       6
#     8   8   8   8   8   8
#     4  10  16  30  48  73 104 130 161 193 252 307
#     4  10  21  37  55  72 102 138 169 205 247 299
#     4  10  21  32  53  83 102 131 160 209 252 297
#     4  10  21  37  52  70  98 139 175 203 246 298
#     4  10  18  30  51  73  97 130 175 202 246 297
#     4  10  17  30  48  75  99 130 163 212 251 289
#
# _framework density 21.137374000000001
#
# number of rings (size 3 to 8) (size 9 to 14) (size 15 to 20)
#    0.000    2.000    3.333    2.000    0.000    2.000 
#    0.000   10.000    0.000    2.000    0.000    0.000 
#    0.000    0.000    0.000    0.000    0.000    0.000 
#
# Total GULP energy -594964.892740 kJ/mol
# GULP energy per Si atom -12395.101932 kJ/mol
# Density = 2.108926 g / cm^3
# Si number density = 21.137374 Si / 1000 Ang^3
#
#
#
# Elastic Constant Matrix: (Units=GPa)
#
#
# Indices 1 2 3 4 5 6 
#
# 1 19.9387 24.8827 5.1057 0.0000 0.0000 0.0000
# 2 24.8827 171.7075 53.2558 0.0000 0.0000 0.0000
# 3 5.1057 53.2558 187.2443 0.0000 0.0000 0.0000
# 4 0.0000 0.0000 0.0000 37.7508 0.0000 0.0000
# 5 0.0000 0.0000 0.0000 0.0000 20.2833 0.0000
# 6 0.0000 0.0000 0.0000 0.0000 0.0000 8.4690
#
#
#
# Elastic Compliance Matrix: (Units=1/GPa)
#
#
# Indices 1 2 3 4 5 6 
#
# 1 0.061376 -0.009185 0.000939 0.000000 0.000000 0.000000
# 2 -0.009185 0.007762 -0.001957 0.000000 0.000000 0.000000
# 3 0.000939 -0.001957 0.005872 0.000000 0.000000 0.000000
# 4 0.000000 0.000000 0.000000 0.026489 0.000000 0.000000
# 5 0.000000 0.000000 0.000000 0.000000 0.049302 0.000000
# 6 0.000000 0.000000 0.000000 0.000000 0.000000 0.118077
#
#
# Mechanical properties :
#
#
# Convention : Reuss Voigt Hill
#
# Bulk Modulus (GPa) = 18.31418 60.59766 39.45592
# Shear Modulus (GPa) = 16.26087 33.01039 24.63563
#
# Velocity S-wave (km/s) = 2.77663 3.95613 3.41765
# Velocity P-wave (km/s) = 4.35462 7.04263 5.85497
#
# Compressibility (1/GPa) = 0.05460249
#
# Stress axis : x y z
#
# Youngs Moduli (GPa) = 16.29296 128.83323 170.30916
#
# Poissons Ratio (x) = 1.18339 -0.15991
# Poissons Ratio (y) = 0.14966 0.33333
# Poissons Ratio (z) = -0.01530 0.25215
#
# Static dielectric constant tensor:
#      x y z
#    x 2.996420 0.000000 0.000000 
#    y 0.000000 4.054370 0.000000 
#    z 0.000000 0.000000 6.243780 
# 
# 
# High freq. dielectric constant tensor:
#      x y z
#    x 1.743850 0.000000 0.000000 
#    y 0.000000 1.850440 0.000000 
#    z 0.000000 0.000000 1.867070 
# 
# From -- ./inp_files/710.got.cif
#   From: 2010.03.12/outbox.cif.g09.slc.cpg/sg56_1_cif.got.tgz:710.got - 2010.04.16 15:33:40.
