data_PCOD8227248
_publ_section_title
;
Structure prediction by ZEFSAII (Michael W. Deem and Ramdas Pophale) SiO2 
 PCOD8227248
Probable space group: P B A M
;
_chemical_formula_sum "Si O2"
_cell_formula_units_Z 48
_cell_length_a 31.398958
_cell_length_b 9.259272
_cell_length_c 7.769442
_cell_angle_alpha 90.000000
_cell_angle_beta 90.000000
_cell_angle_gamma 90.000000
_cell_volume 2258.821470
_symmetry_space_group_name_H-M "P B A M"
_symmetry_group_IT_number 55
_symmetry_cell_setting 'orthorhombic'
loop_
_space_group_symop_operation_xyz
x,y,z
-x,-y,z
1/2+x,1/2-y,-z
1/2-x,1/2+y,-z
-x,-y,-z
x,y,-z
1/2-x,1/2+y,z
1/2+x,1/2-y,z
loop_
_atom_site_type_symbol
_atom_site_label
_atom_site_fract_x
_atom_site_fract_y
_atom_site_fract_z
Si Si1 0.712083 0.627889 0.205834
Si Si2 0.869642 0.959898 0.697582
Si Si3 0.508800 0.310448 0.000000
Si Si4 0.427126 0.437528 0.000000
Si Si5 0.207984 0.548459 0.805263
Si Si6 0.630069 0.128304 0.695897
Si Si7 0.965637 0.619939 0.694344
O O1 0.676738 0.528962 0.294466
O O2 0.708360 0.791818 0.280287
O O3 0.756848 0.560847 0.272012
O O4 0.706369 0.623877 0.000000
O O5 0.886800 0.967593 0.500000
O O6 0.868183 0.793872 0.762734
O O7 0.899608 0.050455 0.826449
O O8 0.527420 0.246844 0.825487
O O9 0.456617 0.292559 0.000000
O O10 0.531715 0.462963 0.000000
O O11 0.161702 0.474942 0.799715
O O12 0.221375 0.575599 0.000000
O O13 0.645571 0.124694 0.500000
O O14 0.582727 0.062662 0.717691
O O15 0.971721 0.678356 0.500000
O O16 0.000000 0.500000 0.739501
#
# Coordination Sequence:
#
# PCOD8227248 Si02
#       7
#     8   8   4   4   8   8   8
#     4  10  21  40  61  94 129 164 211 255 311 375
#     4  11  23  41  66  92 126 169 208 260 317 373
#     4  11  23  40  64  93 122 167 204 263 318 372
#     4  11  24  40  64  93 125 160 214 255 311 385
#     4  10  22  37  63  93 126 168 206 257 315 373
#     4  10  22  39  61  90 122 165 215 258 316 379
#     4  10  22  41  63  91 127 166 213 266 318 381
#
# _framework density 21.250019000000002
#
# number of rings (size 3 to 8) (size 9 to 14) (size 15 to 20)
#    0.000    1.667    2.500    1.250    2.333    4.667 
#    0.000    3.333    0.000    0.000    0.000    0.000 
#    0.000    0.000    0.000    0.000    0.000    0.000 
#
# Total GULP energy -594923.995424 kJ/mol
# GULP energy per Si atom -12394.249905 kJ/mol
# Density = 2.120165 g / cm^3
# Si number density = 21.250019 Si / 1000 Ang^3
#
#
#
# Elastic Constant Matrix: (Units=GPa)
#
#
# Indices 1 2 3 4 5 6 
#
# 1 142.7642 45.1195 18.6262 0.0000 0.0000 0.0000
# 2 45.1195 75.9760 9.4281 0.0000 0.0000 0.0000
# 3 18.6262 9.4281 63.6901 0.0000 0.0000 0.0000
# 4 0.0000 0.0000 0.0000 11.8777 0.0000 0.0000
# 5 0.0000 0.0000 0.0000 0.0000 25.4936 0.0000
# 6 0.0000 0.0000 0.0000 0.0000 0.0000 44.7320
#
#
#
# Elastic Compliance Matrix: (Units=1/GPa)
#
#
# Indices 1 2 3 4 5 6 
#
# 1 0.008830 -0.005015 -0.001840 0.000000 0.000000 0.000000
# 2 -0.005015 0.016257 -0.000940 0.000000 0.000000 0.000000
# 3 -0.001840 -0.000940 0.016378 0.000000 0.000000 0.000000
# 4 0.000000 0.000000 0.000000 0.084191 0.000000 0.000000
# 5 0.000000 0.000000 0.000000 0.000000 0.039226 0.000000
# 6 0.000000 0.000000 0.000000 0.000000 0.000000 0.022355
#
#
# Mechanical properties :
#
#
# Convention : Reuss Voigt Hill
#
# Bulk Modulus (GPa) = 38.64728 47.64199 43.14464
# Shear Modulus (GPa) = 23.64601 30.37108 27.00855
#
# Velocity S-wave (km/s) = 3.33941 3.78461 3.56896
# Velocity P-wave (km/s) = 5.75285 6.44718 6.10989
#
# Compressibility (1/GPa) = 0.02587504
#
# Stress axis : x y z
#
# Youngs Moduli (GPa) = 113.25488 61.51162 61.05676
#
# Poissons Ratio (x) = 0.30850 0.11233
# Poissons Ratio (y) = 0.56801 0.05738
# Poissons Ratio (z) = 0.20837 0.05781
#
# Static dielectric constant tensor:
#      x y z
#    x 3.939900 0.000000 0.000000 
#    y 0.000000 3.891070 0.000000 
#    z 0.000000 0.000000 3.708990 
# 
# 
# High freq. dielectric constant tensor:
#      x y z
#    x 1.848050 0.000000 0.000000 
#    y 0.000000 1.822390 0.000000 
#    z 0.000000 0.000000 1.827280 
# 
# From -- ./inp_files/2969.got.cif
#   From: 2010.03.12/outbox.cif.g09.slc.cpg/sg55_2_cif.got.tgz:2969.got - 2010.04.16 15:19:21.
