data_PCOD8227773
_publ_section_title
;
Structure prediction by ZEFSAII (Michael W. Deem and Ramdas Pophale) SiO2 
 PCOD8227773
Probable space group: P B A M
;
_chemical_formula_sum "Si O2"
_cell_formula_units_Z 48
_cell_length_a 16.879757
_cell_length_b 9.270120
_cell_length_c 15.320836
_cell_angle_alpha 90.000000
_cell_angle_beta 90.000000
_cell_angle_gamma 90.000000
_cell_volume 2397.364169
_symmetry_space_group_name_H-M "P B A M"
_symmetry_group_IT_number 55
_symmetry_cell_setting 'orthorhombic'
loop_
_space_group_symop_operation_xyz
x,y,z
-x,-y,z
1/2+x,1/2-y,-z
1/2-x,1/2+y,-z
-x,-y,-z
x,y,-z
1/2-x,1/2+y,z
1/2+x,1/2-y,z
loop_
_atom_site_type_symbol
_atom_site_label
_atom_site_fract_x
_atom_site_fract_y
_atom_site_fract_z
Si Si1 0.155926 0.736041 0.342266
Si Si2 0.397669 0.817825 0.000000
Si Si3 0.397719 0.637576 0.167352
Si Si4 0.187108 0.067876 0.339520
Si Si5 0.458664 0.153697 0.500000
Si Si6 0.926410 0.891503 0.500000
Si Si7 0.421890 0.303916 0.832067
Si Si8 0.586353 0.860644 0.000000
O O1 0.225641 0.623369 0.360105
O O2 0.091820 0.700986 0.415990
O O3 0.114817 0.718742 0.249115
O O4 0.192370 0.895683 0.338500
O O5 0.365586 0.728964 0.915694
O O6 0.491602 0.843327 0.000000
O O7 0.369516 0.983771 0.000000
O O8 0.342473 0.651668 0.252462
O O9 0.484441 0.701402 0.185578
O O10 0.398357 0.467905 0.147932
O O11 0.125422 0.098051 0.414580
O O12 0.540903 0.233771 0.500000
O O13 0.500000 0.000000 0.500000
O O14 0.000000 0.000000 0.500000
O O15 0.385668 0.218114 0.913107
#
# Coordination Sequence:
#
# PCOD8227773 Si02
#       8
#     8   4   8   8   4   4   8   4
#     4  11  24  43  61  93 127 162 203 251 312 369
#     4   9  17  31  52  89 122 153 200 253 307 352
#     4   9  18  34  60  86 116 162 208 247 297 360
#     4  11  24  40  65  90 127 164 201 252 313 370
#     4  12  27  44  66  96 121 154 210 256 301 365
#     4  12  23  44  70  90 119 160 204 253 301 365
#     4   9  18  35  60  85 119 159 209 250 293 359
#     4   9  17  31  52  87 122 155 194 261 307 342
#
# _framework density 20.021988
#
# number of rings (size 3 to 8) (size 9 to 14) (size 15 to 20)
#    0.000    1.833    1.667    2.000    4.667    3.333 
#    6.000    0.833    0.000    0.000    0.000    0.000 
#    0.000    0.000    0.000    0.000    0.000    0.000 
#
# Total GULP energy -594651.397438 kJ/mol
# GULP energy per Si atom -12388.570780 kJ/mol
# Density = 1.997642 g / cm^3
# Si number density = 20.021988 Si / 1000 Ang^3
#
#
#
# Elastic Constant Matrix: (Units=GPa)
#
#
# Indices 1 2 3 4 5 6 
#
# 1 61.6721 25.8157 42.9174 0.0000 0.0000 0.0000
# 2 25.8157 85.0601 53.5059 0.0000 0.0000 0.0000
# 3 42.9174 53.5059 161.6898 0.0000 0.0000 0.0000
# 4 0.0000 0.0000 0.0000 24.7190 0.0000 0.0000
# 5 0.0000 0.0000 0.0000 0.0000 12.6516 0.0000
# 6 0.0000 0.0000 0.0000 0.0000 0.0000 37.2125
#
#
#
# Elastic Compliance Matrix: (Units=1/GPa)
#
#
# Indices 1 2 3 4 5 6 
#
# 1 0.020713 -0.003572 -0.004316 0.000000 0.000000 0.000000
# 2 -0.003572 0.015463 -0.004169 0.000000 0.000000 0.000000
# 3 -0.004316 -0.004169 0.008710 0.000000 0.000000 0.000000
# 4 0.000000 0.000000 0.000000 0.040455 0.000000 0.000000
# 5 0.000000 0.000000 0.000000 0.000000 0.079041 0.000000
# 6 0.000000 0.000000 0.000000 0.000000 0.000000 0.026873
#
#
# Mechanical properties :
#
#
# Convention : Reuss Voigt Hill
#
# Bulk Modulus (GPa) = 48.13953 61.43334 54.78643
# Shear Modulus (GPa) = 22.49294 27.32881 24.91088
#
# Velocity S-wave (km/s) = 3.35537 3.69852 3.53111
# Velocity P-wave (km/s) = 6.25355 6.99916 6.63683
#
# Compressibility (1/GPa) = 0.02077295
#
# Stress axis : x y z
#
# Youngs Moduli (GPa) = 48.27804 64.67161 114.81249
#
# Poissons Ratio (x) = 0.23098 0.49554
# Poissons Ratio (y) = 0.17243 0.47864
# Poissons Ratio (z) = 0.20837 0.26961
#
# Static dielectric constant tensor:
#      x y z
#    x 3.631460 0.000000 0.000000 
#    y 0.000000 3.619590 0.000000 
#    z 0.000000 0.000000 3.865420 
# 
# 
# High freq. dielectric constant tensor:
#      x y z
#    x 1.763220 0.000000 0.000000 
#    y 0.000000 1.787130 0.000000 
#    z 0.000000 0.000000 1.797630 
# 
# From -- ./inp_files/19421.got.cif
#   From: 2010.03.12/outbox.cif.g09.slc.cpg/sg55_10_cif.got.tgz:19421.got - 2010.04.16 15:19:21.
