data_PCOD8227706
_publ_section_title
;
Structure prediction by ZEFSAII (Michael W. Deem and Ramdas Pophale) SiO2 
 PCOD8227706
Probable space group: P B A M
;
_chemical_formula_sum "Si O2"
_cell_formula_units_Z 24
_cell_length_a 5.105362
_cell_length_b 26.910620
_cell_length_c 8.334223
_cell_angle_alpha 90.000000
_cell_angle_beta 90.000000
_cell_angle_gamma 90.000000
_cell_volume 1145.026036
_symmetry_space_group_name_H-M "P B A M"
_symmetry_group_IT_number 55
_symmetry_cell_setting 'orthorhombic'
loop_
_space_group_symop_operation_xyz
x,y,z
-x,-y,z
1/2+x,1/2-y,-z
1/2-x,1/2+y,-z
-x,-y,-z
x,y,-z
1/2-x,1/2+y,z
1/2+x,1/2-y,z
loop_
_atom_site_type_symbol
_atom_site_label
_atom_site_fract_x
_atom_site_fract_y
_atom_site_fract_z
Si Si1 0.981279 0.056665 0.186322
Si Si2 0.495140 0.779023 0.308868
Si Si3 0.980647 0.391481 0.686967
O O1 0.687440 0.075262 0.217104
O O2 0.187306 0.088995 0.286559
O O3 0.051784 0.061220 0.000000
O O4 0.000000 0.000000 0.244847
O O5 0.502000 0.778824 0.500000
O O6 0.239960 0.751712 0.240377
O O7 0.503070 0.835400 0.246136
O O8 0.050708 0.393644 0.500000
#
# Coordination Sequence:
#
# PCOD8227706 Si02
#       3
#     8   8   8
#     4  11  24  41  59  81 116 159 192 227 289 355
#     4   9  17  31  53  82 114 145 180 226 281 337
#     4  11  22  37  62  91 114 145 194 245 282 323
#
# _framework density 20.960224
#
# number of rings (size 3 to 8) (size 9 to 14) (size 15 to 20)
#    0.000    1.667    0.000    5.000    0.000   12.000 
#    0.000    0.000    0.000   20.000    0.000    0.000 
#    0.000    0.000    0.000    0.000    0.000    0.000 
#
# Total GULP energy -297746.113705 kJ/mol
# GULP energy per Si atom -12406.088071 kJ/mol
# Density = 2.091252 g / cm^3
# Si number density = 20.960224 Si / 1000 Ang^3
#
#
#
# Elastic Constant Matrix: (Units=GPa)
#
#
# Indices 1 2 3 4 5 6 
#
# 1 113.7863 31.0918 9.9952 0.0000 0.0000 0.0000
# 2 31.0918 142.9166 31.4987 0.0000 0.0000 0.0000
# 3 9.9952 31.4987 31.7160 0.0000 0.0000 0.0000
# 4 0.0000 0.0000 0.0000 -14.5549 0.0000 0.0000
# 5 0.0000 0.0000 0.0000 0.0000 26.4826 0.0000
# 6 0.0000 0.0000 0.0000 0.0000 0.0000 49.7947
#
#
#
# Elastic Compliance Matrix: (Units=1/GPa)
#
#
# Indices 1 2 3 4 5 6 
#
# 1 0.009379 -0.001778 -0.001190 0.000000 0.000000 0.000000
# 2 -0.001778 0.009295 -0.008671 0.000000 0.000000 0.000000
# 3 -0.001190 -0.008671 0.040516 0.000000 0.000000 0.000000
# 4 0.000000 0.000000 0.000000 -0.068706 0.000000 0.000000
# 5 0.000000 0.000000 0.000000 0.000000 0.037761 0.000000
# 6 0.000000 0.000000 0.000000 0.000000 0.000000 0.020082
#
#
# Mechanical properties :
#
#
# Convention : Reuss Voigt Hill
#
# Bulk Modulus (GPa) = 27.84552 48.17670 38.01111
# Shear Modulus (GPa) = 59.82575 26.73336 43.27956
#
# Velocity S-wave (km/s) = 5.34832 3.57519 4.54898
# Velocity P-wave (km/s) = 7.17308 6.33067 6.76500
#
# Compressibility (1/GPa) = 0.03591242
#
# Stress axis : x y z
#
# Youngs Moduli (GPa) = 106.62359 107.58474 24.68146
#
# Poissons Ratio (x) = 0.19130 0.02936
# Poissons Ratio (y) = 0.18959 0.21401
# Poissons Ratio (z) = 0.12685 0.93286
#
# Static dielectric constant tensor:
#      x y z
#    x 3.783100 0.000000 0.000000 
#    y 0.000000 4.014470 0.000000 
#    z 0.000000 0.000000 3.329510 
# 
# 
# High freq. dielectric constant tensor:
#      x y z
#    x 1.835330 0.000000 0.000000 
#    y 0.000000 1.839310 0.000000 
#    z 0.000000 0.000000 1.788550 
# 
# From -- ./inp_files/1154.got.cif
#   From: 2010.03.12/outbox.cif.g09.slc.cpg/sg55_1_cif.got.tgz:1154.got - 2010.04.16 15:19:21.
