data_PCOD8227438
_publ_section_title
;
Structure prediction by ZEFSAII (Michael W. Deem and Ramdas Pophale) SiO2 
 PCOD8227438
Probable space group: P B A M
;
_chemical_formula_sum "Si O2"
_cell_formula_units_Z 48
_cell_length_a 14.795281
_cell_length_b 18.589943
_cell_length_c 8.825570
_cell_angle_alpha 90.000000
_cell_angle_beta 90.000000
_cell_angle_gamma 90.000000
_cell_volume 2427.415049
_symmetry_space_group_name_H-M "P B A M"
_symmetry_group_IT_number 55
_symmetry_cell_setting 'orthorhombic'
loop_
_space_group_symop_operation_xyz
x,y,z
-x,-y,z
1/2+x,1/2-y,-z
1/2-x,1/2+y,-z
-x,-y,-z
x,y,-z
1/2-x,1/2+y,z
1/2+x,1/2-y,z
loop_
_atom_site_type_symbol
_atom_site_label
_atom_site_fract_x
_atom_site_fract_y
_atom_site_fract_z
Si Si1 0.752149 0.089606 0.678793
Si Si2 0.307144 0.261177 0.821477
Si Si3 0.154163 0.178114 0.321266
Si Si4 0.508362 0.223209 0.825119
Si Si5 0.402458 0.522222 0.319929
Si Si6 0.065853 0.436376 0.824889
O O1 0.757525 0.101355 0.500000
O O2 0.767531 0.164950 0.759652
O O3 0.655117 0.058236 0.723323
O O4 0.828256 0.034469 0.737204
O O5 0.250571 0.195304 0.752791
O O6 0.410649 0.251177 0.772685
O O7 0.295211 0.259948 0.000000
O O8 0.166246 0.176856 0.500000
O O9 0.122082 0.101081 0.257777
O O10 0.081746 0.238481 0.278610
O O11 0.513475 0.138132 0.797548
O O12 0.527453 0.242388 0.000000
O O13 0.500000 0.500000 0.253166
O O14 0.405785 0.523401 0.500000
O O15 0.000000 0.500000 0.771913
O O16 0.093839 0.445346 0.000000
#
# Coordination Sequence:
#
# PCOD8227438 Si02
#       6
#     8   8   8   8   8   8
#     4  11  22  39  63  91 120 158 202 248 301 356
#     4  11  23  39  60  87 121 159 199 246 299 357
#     4  11  22  38  62  91 120 156 197 245 302 358
#     4  10  22  40  61  86 119 159 200 247 297 354
#     4   9  20  38  59  86 122 156 190 239 298 356
#     4  10  22  40  61  85 119 163 202 245 302 357
#
# _framework density 19.774122999999999
#
# number of rings (size 3 to 8) (size 9 to 14) (size 15 to 20)
#    0.000    1.667    1.667    2.500    2.333    3.000 
#    0.000    2.500    0.000    6.000    0.000    0.000 
#    0.000    0.000    0.000    0.000    0.000    0.000 
#
# Total GULP energy -595462.488211 kJ/mol
# GULP energy per Si atom -12405.468504 kJ/mol
# Density = 1.972912 g / cm^3
# Si number density = 19.774123 Si / 1000 Ang^3
#
#
#
# Elastic Constant Matrix: (Units=GPa)
#
#
# Indices 1 2 3 4 5 6 
#
# 1 113.0396 23.0258 26.1687 0.0000 0.0000 0.0000
# 2 23.0258 94.5001 14.0020 0.0000 0.0000 0.0000
# 3 26.1687 14.0020 52.9952 0.0000 0.0000 0.0000
# 4 0.0000 0.0000 0.0000 18.0608 0.0000 0.0000
# 5 0.0000 0.0000 0.0000 0.0000 27.1671 0.0000
# 6 0.0000 0.0000 0.0000 0.0000 0.0000 43.3438
#
#
#
# Elastic Compliance Matrix: (Units=1/GPa)
#
#
# Indices 1 2 3 4 5 6 
#
# 1 0.010282 -0.001824 -0.004595 0.000000 0.000000 0.000000
# 2 -0.001824 0.011337 -0.002094 0.000000 0.000000 0.000000
# 3 -0.004595 -0.002094 0.021692 0.000000 0.000000 0.000000
# 4 0.000000 0.000000 0.000000 0.055369 0.000000 0.000000
# 5 0.000000 0.000000 0.000000 0.000000 0.036809 0.000000
# 6 0.000000 0.000000 0.000000 0.000000 0.000000 0.023071
#
#
# Mechanical properties :
#
#
# Convention : Reuss Voigt Hill
#
# Bulk Modulus (GPa) = 38.04763 42.99200 40.51982
# Shear Modulus (GPa) = 27.12249 30.87023 28.99636
#
# Velocity S-wave (km/s) = 3.70755 3.95542 3.83349
# Velocity P-wave (km/s) = 6.13276 6.53063 6.33482
#
# Compressibility (1/GPa) = 0.02628284
#
# Stress axis : x y z
#
# Youngs Moduli (GPa) = 97.25877 88.20776 46.09987
#
# Poissons Ratio (x) = 0.16093 0.21183
# Poissons Ratio (y) = 0.17744 0.09655
# Poissons Ratio (z) = 0.44691 0.18475
#
# Static dielectric constant tensor:
#      x y z
#    x 3.832040 0.000000 0.000000 
#    y 0.000000 3.782280 0.000000 
#    z 0.000000 0.000000 3.421110 
# 
# 
# High freq. dielectric constant tensor:
#      x y z
#    x 1.785840 0.000000 0.000000 
#    y 0.000000 1.782320 0.000000 
#    z 0.000000 0.000000 1.756000 
# 
# From -- ./inp_files/5602.got.cif
#   From: 2010.03.12/outbox.cif.g09.slc.cpg/sg55_3_cif.got.tgz:5602.got - 2010.04.16 15:19:21.
