data_PCOD8227726
_publ_section_title
;
Structure prediction by ZEFSAII (Michael W. Deem and Ramdas Pophale) SiO2 
 PCOD8227726
Probable space group: P B A M
;
_chemical_formula_sum "Si O2"
_cell_formula_units_Z 48
_cell_length_a 14.043708
_cell_length_b 9.195768
_cell_length_c 16.557154
_cell_angle_alpha 90.000000
_cell_angle_beta 90.000000
_cell_angle_gamma 90.000000
_cell_volume 2138.235251
_symmetry_space_group_name_H-M "P B A M"
_symmetry_group_IT_number 55
_symmetry_cell_setting 'orthorhombic'
loop_
_space_group_symop_operation_xyz
x,y,z
-x,-y,z
1/2+x,1/2-y,-z
1/2-x,1/2+y,-z
-x,-y,-z
x,y,-z
1/2-x,1/2+y,z
1/2+x,1/2-y,z
loop_
_atom_site_type_symbol
_atom_site_label
_atom_site_fract_x
_atom_site_fract_y
_atom_site_fract_z
Si Si1 0.531706 0.714538 0.164020
Si Si2 0.416258 0.391330 0.592381
Si Si3 0.373028 0.556002 0.091577
Si Si4 0.802565 0.401601 0.188028
Si Si5 0.762710 0.654077 0.301223
Si Si6 0.529681 0.165387 0.328925
O O1 0.446506 0.691693 0.099941
O O2 0.599718 0.571794 0.155046
O O3 0.595350 0.858837 0.149125
O O4 0.487511 0.727183 0.252869
O O5 0.500000 0.500000 0.620118
O O6 0.386523 0.416558 0.500000
O O7 0.320522 0.418295 0.645027
O O8 0.460391 0.228522 0.601498
O O9 0.269948 0.615586 0.114062
O O10 0.374967 0.497916 0.000000
O O11 0.800985 0.562341 0.224330
O O12 0.780105 0.301134 0.265174
O O13 0.858700 0.679713 0.354225
O O14 0.500000 0.000000 0.310030
#
# Coordination Sequence:
#
# PCOD8227726 Si02
#       6
#     8   8   8   8   8   8
#     4  11  22  40  67  94 130 178 228 271 338 402
#     4  11  26  46  69  99 137 181 224 273 338 412
#     4  11  25  42  65 100 139 179 223 280 348 411
#     4  12  22  40  69  96 128 175 231 278 329 400
#     4  12  23  41  69 100 131 176 229 282 329 401
#     4  12  23  40  69 101 133 172 224 284 337 394
#
# _framework density 22.448416999999999
#
# number of rings (size 3 to 8) (size 9 to 14) (size 15 to 20)
#    0.000    0.500    6.667    2.000    2.333    2.333 
#    0.000    4.167    0.000    3.000    0.000    0.000 
#    0.000    0.000    0.000    0.000    0.000    0.000 
#
# Total GULP energy -594983.705933 kJ/mol
# GULP energy per Si atom -12395.493874 kJ/mol
# Density = 2.239732 g / cm^3
# Si number density = 22.448417 Si / 1000 Ang^3
#
#
#
# Elastic Constant Matrix: (Units=GPa)
#
#
# Indices 1 2 3 4 5 6 
#
# 1 140.1901 17.6479 29.5430 0.0000 0.0000 0.0000
# 2 17.6479 66.4570 26.6777 0.0000 0.0000 0.0000
# 3 29.5430 26.6777 75.4832 0.0000 0.0000 0.0000
# 4 0.0000 0.0000 0.0000 21.5276 0.0000 0.0000
# 5 0.0000 0.0000 0.0000 0.0000 25.6773 0.0000
# 6 0.0000 0.0000 0.0000 0.0000 0.0000 34.2112
#
#
#
# Elastic Compliance Matrix: (Units=1/GPa)
#
#
# Indices 1 2 3 4 5 6 
#
# 1 0.007830 -0.000989 -0.002715 0.000000 0.000000 0.000000
# 2 -0.000989 0.017660 -0.005854 0.000000 0.000000 0.000000
# 3 -0.002715 -0.005854 0.016380 0.000000 0.000000 0.000000
# 4 0.000000 0.000000 0.000000 0.046452 0.000000 0.000000
# 5 0.000000 0.000000 0.000000 0.000000 0.038945 0.000000
# 6 0.000000 0.000000 0.000000 0.000000 0.000000 0.029230
#
#
# Mechanical properties :
#
#
# Convention : Reuss Voigt Hill
#
# Bulk Modulus (GPa) = 43.95124 47.76307 45.85715
# Shear Modulus (GPa) = 27.29288 30.16732 28.73010
#
# Velocity S-wave (km/s) = 3.49062 3.66983 3.58135
# Velocity P-wave (km/s) = 5.98892 6.26737 6.12973
#
# Compressibility (1/GPa) = 0.02275249
#
# Stress axis : x y z
#
# Youngs Moduli (GPa) = 127.71670 56.62462 61.05165
#
# Poissons Ratio (x) = 0.05603 0.16574
# Poissons Ratio (y) = 0.12637 0.35742
# Poissons Ratio (z) = 0.34672 0.33150
#
# Static dielectric constant tensor:
#      x y z
#    x 4.515160 0.000000 0.000000 
#    y 0.000000 3.961870 0.000000 
#    z 0.000000 0.000000 3.609870 
# 
# 
# High freq. dielectric constant tensor:
#      x y z
#    x 1.910870 0.000000 0.000000 
#    y 0.000000 1.875150 0.000000 
#    z 0.000000 0.000000 1.847210 
# 
# From -- ./inp_files/21500.got.cif
#   From: 2010.03.12/outbox.cif.g09.slc.cpg/sg55_11_cif.got.tgz:21500.got - 2010.04.16 15:19:21.
