data_PCOD8227063
_publ_section_title
;
Structure prediction by ZEFSAII (Michael W. Deem and Ramdas Pophale) SiO2 
 PCOD8227063
Probable space group: P B A M
;
_chemical_formula_sum "Si O2"
_cell_formula_units_Z 40
_cell_length_a 4.963896
_cell_length_b 13.164547
_cell_length_c 28.539150
_cell_angle_alpha 90.000000
_cell_angle_beta 90.000000
_cell_angle_gamma 90.000000
_cell_volume 1864.960455
_symmetry_space_group_name_H-M "P B A M"
_symmetry_group_IT_number 55
_symmetry_cell_setting 'orthorhombic'
loop_
_space_group_symop_operation_xyz
x,y,z
-x,-y,z
1/2+x,1/2-y,-z
1/2-x,1/2+y,-z
-x,-y,-z
x,y,-z
1/2-x,1/2+y,z
1/2+x,1/2-y,z
loop_
_atom_site_type_symbol
_atom_site_label
_atom_site_fract_x
_atom_site_fract_y
_atom_site_fract_z
Si Si1 0.958342 0.680051 0.698411
Si Si2 0.499537 0.183590 0.403923
Si Si3 0.854383 0.185255 0.000000
Si Si4 0.963031 0.180071 0.100373
Si Si5 0.500000 0.500000 0.169743
Si Si6 0.500000 0.000000 0.767442
Si Si7 0.855946 0.680980 0.500000
O O1 0.749825 0.771166 0.705836
O O2 0.902405 0.593143 0.735786
O O3 0.937261 0.629740 0.645978
O O4 0.687073 0.285036 0.405758
O O5 0.577249 0.119197 0.451318
O O6 0.926649 0.127771 0.048626
O O7 0.537874 0.211990 0.000000
O O8 0.760163 0.274418 0.106575
O O9 0.905957 0.094573 0.138527
O O10 0.249768 0.534939 0.201114
O O11 0.048984 0.781452 0.500000
#
# Coordination Sequence:
#
# PCOD8227063 Si02
#       7
#     8   8   4   8   4   4   4
#     4  10  21  38  58  78 105 143 183 226 276 325
#     4   8  14  25  44  70  97 129 167 207 261 320
#     4   8  16  33  58  85 112 146 180 213 264 321
#     4  10  21  39  61  86 118 148 180 225 269 322
#     4  12  26  39  58  86 110 147 190 224 280 326
#     4  12  26  40  56  82 110 142 192 236 270 322
#     4   8  12  20  38  67  98 123 158 206 252 315
#
# _framework density 21.448177000000001
#
# number of rings (size 3 to 8) (size 9 to 14) (size 15 to 20)
#    0.000    2.400    0.000    2.400    0.000    5.200 
#    0.000    0.000    0.000    9.000    0.000    0.000 
#    0.000   25.600    0.000    0.000    0.000    3.400 
#
# Total GULP energy -495552.743664 kJ/mol
# GULP energy per Si atom -12388.818592 kJ/mol
# Density = 2.139936 g / cm^3
# Si number density = 21.448177 Si / 1000 Ang^3
#
#
#
# Elastic Constant Matrix: (Units=GPa)
#
#
# Indices 1 2 3 4 5 6 
#
# 1 86.2880 -1.5857 17.0170 0.0000 0.0000 0.0000
# 2 -1.5857 41.8094 39.6455 0.0000 0.0000 0.0000
# 3 17.0170 39.6455 163.8787 0.0000 0.0000 0.0000
# 4 0.0000 0.0000 0.0000 54.3109 0.0000 0.0000
# 5 0.0000 0.0000 0.0000 0.0000 21.8511 0.0000
# 6 0.0000 0.0000 0.0000 0.0000 0.0000 17.5460
#
#
#
# Elastic Compliance Matrix: (Units=1/GPa)
#
#
# Indices 1 2 3 4 5 6 
#
# 1 0.011974 0.002119 -0.001756 0.000000 0.000000 0.000000
# 2 0.002119 0.031413 -0.007820 0.000000 0.000000 0.000000
# 3 -0.001756 -0.007820 0.008176 0.000000 0.000000 0.000000
# 4 0.000000 0.000000 0.000000 0.018413 0.000000 0.000000
# 5 0.000000 0.000000 0.000000 0.000000 0.045764 0.000000
# 6 0.000000 0.000000 0.000000 0.000000 0.000000 0.056993
#
#
# Mechanical properties :
#
#
# Convention : Reuss Voigt Hill
#
# Bulk Modulus (GPa) = 27.28426 44.68108 35.98267
# Shear Modulus (GPa) = 25.01711 34.53490 29.77600
#
# Velocity S-wave (km/s) = 3.41896 4.01703 3.73000
# Velocity P-wave (km/s) = 5.32300 6.51097 5.94672
#
# Compressibility (1/GPa) = 0.03665117
#
# Stress axis : x y z
#
# Youngs Moduli (GPa) = 83.51173 31.83367 122.30716
#
# Poissons Ratio (x) = -0.06747 0.21479
# Poissons Ratio (y) = -0.17699 0.95639
# Poissons Ratio (z) = 0.14666 0.24893
#
# Static dielectric constant tensor:
#      x y z
#    x 3.909050 0.000000 0.000000 
#    y 0.000000 2.989760 0.000000 
#    z 0.000000 0.000000 4.631420 
# 
# 
# High freq. dielectric constant tensor:
#      x y z
#    x 1.861070 0.000000 0.000000 
#    y 0.000000 1.754520 0.000000 
#    z 0.000000 0.000000 1.881020 
# 
# From -- ./inp_files/23957.got.cif
#   From: 2010.03.12/outbox.cif.g09.slc.cpg/sg55_12_cif.got.tgz:23957.got - 2010.04.16 15:19:21.
