data_PCOD8227419
_publ_section_title
;
Structure prediction by ZEFSAII (Michael W. Deem and Ramdas Pophale) SiO2 
 PCOD8227419
Probable space group: P B A M
;
_chemical_formula_sum "Si O2"
_cell_formula_units_Z 48
_cell_length_a 18.661016
_cell_length_b 15.517361
_cell_length_c 8.040825
_cell_angle_alpha 90.000000
_cell_angle_beta 90.000000
_cell_angle_gamma 90.000000
_cell_volume 2328.379459
_symmetry_space_group_name_H-M "P B A M"
_symmetry_group_IT_number 55
_symmetry_cell_setting 'orthorhombic'
loop_
_space_group_symop_operation_xyz
x,y,z
-x,-y,z
1/2+x,1/2-y,-z
1/2-x,1/2+y,-z
-x,-y,-z
x,y,-z
1/2-x,1/2+y,z
1/2+x,1/2-y,z
loop_
_atom_site_type_symbol
_atom_site_label
_atom_site_fract_x
_atom_site_fract_y
_atom_site_fract_z
Si Si1 0.768843 0.772525 0.809133
Si Si2 0.425022 0.723282 0.315299
Si Si3 0.279320 0.036285 0.190510
Si Si4 0.814182 0.111448 0.686493
Si Si5 0.468673 0.411571 0.190022
Si Si6 0.881813 0.477976 0.500000
Si Si7 0.010154 0.366238 0.500000
O O1 0.851183 0.752161 0.772300
O O2 0.753190 0.871200 0.759298
O O3 0.718881 0.706234 0.710718
O O4 0.752220 0.755948 0.000000
O O5 0.410243 0.683486 0.500000
O O6 0.468517 0.658113 0.200984
O O7 0.471891 0.810497 0.334676
O O8 0.338257 0.013513 0.328449
O O9 0.218399 0.962309 0.194419
O O10 0.309795 0.038193 0.000000
O O11 0.796919 0.081978 0.500000
O O12 0.899407 0.118732 0.708865
O O13 0.500000 0.500000 0.264922
O O14 0.445593 0.424416 0.000000
O O15 0.939501 0.552124 0.500000
O O16 0.925890 0.388427 0.500000
#
# Coordination Sequence:
#
# PCOD8227419 Si02
#       7
#     8   8   8   8   8   4   4
#     4  11  24  41  65  97 133 170 221 274 326 396
#     4  10  22  39  63  90 128 168 217 262 320 394
#     4  11  25  42  67 100 131 172 223 271 334 399
#     4  12  25  41  67  98 131 175 219 274 331 394
#     4  11  24  41  62  91 133 173 213 268 332 399
#     4  11  22  45  69  89 134 172 210 288 329 382
#     4   9  24  41  62  95 123 168 227 268 328 397
#
# _framework density 20.615196999999998
#
# number of rings (size 3 to 8) (size 9 to 14) (size 15 to 20)
#    0.500    0.667    0.833    5.000    4.667    5.333 
#    0.000    3.333    0.000    0.000    0.000    0.000 
#    0.000    0.000    0.000    0.000    0.000    0.000 
#
# Total GULP energy -595206.381279 kJ/mol
# GULP energy per Si atom -12400.132943 kJ/mol
# Density = 2.056828 g / cm^3
# Si number density = 20.615197 Si / 1000 Ang^3
#
#
#
# Elastic Constant Matrix: (Units=GPa)
#
#
# Indices 1 2 3 4 5 6 
#
# 1 112.6594 37.6301 27.1844 0.0000 0.0000 0.0000
# 2 37.6301 109.5533 19.8892 0.0000 0.0000 0.0000
# 3 27.1844 19.8892 91.1636 0.0000 0.0000 0.0000
# 4 0.0000 0.0000 0.0000 24.4643 0.0000 0.0000
# 5 0.0000 0.0000 0.0000 0.0000 52.4317 0.0000
# 6 0.0000 0.0000 0.0000 0.0000 0.0000 37.2285
#
#
#
# Elastic Compliance Matrix: (Units=1/GPa)
#
#
# Indices 1 2 3 4 5 6 
#
# 1 0.010526 -0.003171 -0.002447 0.000000 0.000000 0.000000
# 2 -0.003171 0.010460 -0.001336 0.000000 0.000000 0.000000
# 3 -0.002447 -0.001336 0.011990 0.000000 0.000000 0.000000
# 4 0.000000 0.000000 0.000000 0.040876 0.000000 0.000000
# 5 0.000000 0.000000 0.000000 0.000000 0.019072 0.000000
# 6 0.000000 0.000000 0.000000 0.000000 0.000000 0.026861
#
#
# Mechanical properties :
#
#
# Convention : Reuss Voigt Hill
#
# Bulk Modulus (GPa) = 52.44601 53.64263 53.04432
# Shear Modulus (GPa) = 35.70134 38.06973 36.88553
#
# Velocity S-wave (km/s) = 4.16600 4.30197 4.23453
# Velocity P-wave (km/s) = 6.97398 7.12413 7.04946
#
# Compressibility (1/GPa) = 0.01906723
#
# Stress axis : x y z
#
# Youngs Moduli (GPa) = 95.00271 95.60315 83.39936
#
# Poissons Ratio (x) = 0.30319 0.20407
# Poissons Ratio (y) = 0.30128 0.11145
# Poissons Ratio (z) = 0.23246 0.12776
#
# Static dielectric constant tensor:
#      x y z
#    x 3.692180 0.000000 0.000000 
#    y 0.000000 3.880950 0.000000 
#    z 0.000000 0.000000 3.668010 
# 
# 
# High freq. dielectric constant tensor:
#      x y z
#    x 1.806190 0.000000 0.000000 
#    y 0.000000 1.816530 0.000000 
#    z 0.000000 0.000000 1.806390 
# 
# From -- ./inp_files/7470.got.cif
#   From: 2010.03.12/outbox.cif.g09.slc.cpg/sg55_4_cif.got.tgz:7470.got - 2010.04.16 15:19:21.
