data_PCOD8227606
_publ_section_title
;
Structure prediction by ZEFSAII (Michael W. Deem and Ramdas Pophale) SiO2 
 PCOD8227606
Probable space group: P B A M
;
_chemical_formula_sum "Si O2"
_cell_formula_units_Z 40
_cell_length_a 9.725559
_cell_length_b 8.736252
_cell_length_c 19.977808
_cell_angle_alpha 90.000000
_cell_angle_beta 90.000000
_cell_angle_gamma 90.000000
_cell_volume 1697.413143
_symmetry_space_group_name_H-M "P B A M"
_symmetry_group_IT_number 55
_symmetry_cell_setting 'orthorhombic'
loop_
_space_group_symop_operation_xyz
x,y,z
-x,-y,z
1/2+x,1/2-y,-z
1/2-x,1/2+y,-z
-x,-y,-z
x,y,-z
1/2-x,1/2+y,z
1/2+x,1/2-y,z
loop_
_atom_site_type_symbol
_atom_site_label
_atom_site_fract_x
_atom_site_fract_y
_atom_site_fract_z
Si Si1 0.750002 0.555368 0.250000
Si Si2 0.074344 0.662596 0.576818
Si Si3 0.350397 0.187951 0.157275
Si Si4 0.425655 0.662595 0.076818
Si Si5 0.649603 0.312053 0.657276
O O1 0.664330 0.654739 0.197868
O O2 0.860075 0.449720 0.210517
O O3 0.835678 0.654748 0.302126
O O4 0.639925 0.449733 0.289486
O O5 0.087684 0.712189 0.500000
O O6 0.225246 0.655245 0.607303
O O7 0.000000 0.500000 0.583887
O O8 0.989988 0.796249 0.614849
O O9 0.489990 0.203754 0.114851
O O10 0.225249 0.155240 0.107301
O O11 0.500000 0.500000 0.083885
O O12 0.412315 0.712192 0.000000
#
# Coordination Sequence:
#
# PCOD8227606 Si02
#       5
#     8   8   8   8   8
#     4  10  24  40  70  96 132 172 220 262 336 384
#     4  11  24  44  68  97 134 173 220 271 322 386
#     4  11  23  44  66 100 129 175 214 276 320 393
#     4  11  24  44  68  97 134 173 220 271 322 386
#     4  11  23  44  66 100 129 175 214 276 320 393
#
# _framework density 23.565269000000001
#
# number of rings (size 3 to 8) (size 9 to 14) (size 15 to 20)
#    0.000    1.200    4.000    1.200    0.000   11.200 
#    0.000    2.000    0.000    0.000    0.000    0.000 
#    0.000    0.000    0.000    0.000    0.000    0.000 
#
# Total GULP energy -496169.987896 kJ/mol
# GULP energy per Si atom -12404.249697 kJ/mol
# Density = 2.351163 g / cm^3
# Si number density = 23.565269 Si / 1000 Ang^3
#
#
#
# Elastic Constant Matrix: (Units=GPa)
#
#
# Indices 1 2 3 4 5 6 
#
# 1 57.1237 -15.0684 8.8554 0.0000 0.0000 0.0000
# 2 -15.0684 88.9981 37.7001 0.0000 0.0000 0.0000
# 3 8.8554 37.7001 140.1660 0.0000 0.0000 0.0000
# 4 0.0000 0.0000 0.0000 33.9150 0.0000 0.0000
# 5 0.0000 0.0000 0.0000 0.0000 20.4985 0.0000
# 6 0.0000 0.0000 0.0000 0.0000 0.0000 23.8193
#
#
#
# Elastic Compliance Matrix: (Units=1/GPa)
#
#
# Indices 1 2 3 4 5 6 
#
# 1 0.018974 0.004199 -0.002328 0.000000 0.000000 0.000000
# 2 0.004199 0.013610 -0.003926 0.000000 0.000000 0.000000
# 3 -0.002328 -0.003926 0.008337 0.000000 0.000000 0.000000
# 4 0.000000 0.000000 0.000000 0.029486 0.000000 0.000000
# 5 0.000000 0.000000 0.000000 0.000000 0.048784 0.000000
# 6 0.000000 0.000000 0.000000 0.000000 0.000000 0.041983
#
#
# Mechanical properties :
#
#
# Convention : Reuss Voigt Hill
#
# Bulk Modulus (GPa) = 27.16549 38.80688 32.98619
# Shear Modulus (GPa) = 28.16023 32.63326 30.39675
#
# Velocity S-wave (km/s) = 3.46061 3.72533 3.59541
# Velocity P-wave (km/s) = 5.24600 5.91673 5.59143
#
# Compressibility (1/GPa) = 0.03681141
#
# Stress axis : x y z
#
# Youngs Moduli (GPa) = 52.70269 73.47449 119.94086
#
# Poissons Ratio (x) = -0.30850 0.27923
# Poissons Ratio (y) = -0.22129 0.47088
# Poissons Ratio (z) = 0.12270 0.28846
#
# Static dielectric constant tensor:
#      x y z
#    x 3.928600 0.000000 0.000000 
#    y 0.000000 4.311090 0.000000 
#    z 0.000000 0.000000 4.692070 
# 
# 
# High freq. dielectric constant tensor:
#      x y z
#    x 1.920380 0.000000 0.000000 
#    y 0.000000 1.937150 0.000000 
#    z 0.000000 0.000000 1.954140 
# 
# From -- ./inp_files/21180.got.cif
#   From: 2010.03.12/outbox.cif.g09.slc.cpg/sg55_11_cif.got.tgz:21180.got - 2010.04.16 15:19:21.
