data_PCOD8227575
_publ_section_title
;
Structure prediction by ZEFSAII (Michael W. Deem and Ramdas Pophale) SiO2 
 PCOD8227575
Probable space group: P B A M
;
_chemical_formula_sum "Si O2"
_cell_formula_units_Z 48
_cell_length_a 26.565498
_cell_length_b 9.839656
_cell_length_c 8.854080
_cell_angle_alpha 90.000000
_cell_angle_beta 90.000000
_cell_angle_gamma 90.000000
_cell_volume 2314.415445
_symmetry_space_group_name_H-M "P B A M"
_symmetry_group_IT_number 55
_symmetry_cell_setting 'orthorhombic'
loop_
_space_group_symop_operation_xyz
x,y,z
-x,-y,z
1/2+x,1/2-y,-z
1/2-x,1/2+y,-z
-x,-y,-z
x,y,-z
1/2-x,1/2+y,z
1/2+x,1/2-y,z
loop_
_atom_site_type_symbol
_atom_site_label
_atom_site_fract_x
_atom_site_fract_y
_atom_site_fract_z
Si Si1 0.773456 0.144146 0.821658
Si Si2 0.120186 0.981814 0.177253
Si Si3 0.931131 0.775396 0.322133
Si Si4 0.294074 0.076039 0.677050
Si Si5 0.590979 0.970392 0.324601
Si Si6 0.463747 0.268073 0.177817
O O1 0.825437 0.072799 0.774810
O O2 0.768325 0.288536 0.739942
O O3 0.727657 0.053073 0.764708
O O4 0.769762 0.167757 0.000000
O O5 0.078969 0.872771 0.231098
O O6 0.111685 0.122858 0.263407
O O7 0.116673 0.008833 0.000000
O O8 0.935633 0.787633 0.500000
O O9 0.914728 0.625256 0.271215
O O10 0.984172 0.816591 0.249625
O O11 0.282970 0.060625 0.500000
O O12 0.353248 0.081822 0.712036
O O13 0.577839 0.954878 0.500000
O O14 0.550762 0.882178 0.232855
O O15 0.470035 0.266929 0.000000
#
# Coordination Sequence:
#
# PCOD8227575 Si02
#       6
#     8   8   8   8   8   8
#     4  11  24  44  67  95 127 165 208 259 317 376
#     4  10  23  42  62  89 125 162 205 256 310 368
#     4  11  24  39  60  92 127 164 209 255 307 369
#     4  11  24  43  67  95 126 165 209 259 316 377
#     4  10  23  42  62  89 126 163 203 255 310 367
#     4  11  22  40  64  90 123 163 210 257 309 368
#
# _framework density 20.739577000000001
#
# number of rings (size 3 to 8) (size 9 to 14) (size 15 to 20)
#    0.000    1.333    1.667    3.000    2.333    8.667 
#    0.000    0.000    0.000    0.000    0.000    0.000 
#    0.000    0.000    0.000    0.000    0.000    0.000 
#
# Total GULP energy -595607.790855 kJ/mol
# GULP energy per Si atom -12408.495643 kJ/mol
# Density = 2.069237 g / cm^3
# Si number density = 20.739577 Si / 1000 Ang^3
#
#
#
# Elastic Constant Matrix: (Units=GPa)
#
#
# Indices 1 2 3 4 5 6 
#
# 1 40.5676 -3.5301 15.3542 0.0000 0.0000 0.0000
# 2 -3.5301 86.7964 20.4527 0.0000 0.0000 0.0000
# 3 15.3542 20.4527 46.6916 0.0000 0.0000 0.0000
# 4 0.0000 0.0000 0.0000 36.6055 0.0000 0.0000
# 5 0.0000 0.0000 0.0000 0.0000 28.2364 0.0000
# 6 0.0000 0.0000 0.0000 0.0000 0.0000 39.4230
#
#
#
# Elastic Compliance Matrix: (Units=1/GPa)
#
#
# Indices 1 2 3 4 5 6 
#
# 1 0.029268 0.003856 -0.011314 0.000000 0.000000 0.000000
# 2 0.003856 0.013355 -0.007118 0.000000 0.000000 0.000000
# 3 -0.011314 -0.007118 0.028256 0.000000 0.000000 0.000000
# 4 0.000000 0.000000 0.000000 0.027318 0.000000 0.000000
# 5 0.000000 0.000000 0.000000 0.000000 0.035415 0.000000
# 6 0.000000 0.000000 0.000000 0.000000 0.000000 0.025366
#
#
# Mechanical properties :
#
#
# Convention : Reuss Voigt Hill
#
# Bulk Modulus (GPa) = 23.96501 26.51213 25.23857
# Shear Modulus (GPa) = 24.74769 30.30491 27.52630
#
# Velocity S-wave (km/s) = 3.45811 3.82673 3.64708
# Velocity P-wave (km/s) = 5.24642 5.68649 5.47089
#
# Compressibility (1/GPa) = 0.04172750
#
# Stress axis : x y z
#
# Youngs Moduli (GPa) = 34.16717 74.87593 35.39109
#
# Poissons Ratio (x) = -0.28875 0.40041
# Poissons Ratio (y) = -0.13176 0.25193
# Poissons Ratio (z) = 0.38656 0.53299
#
# Static dielectric constant tensor:
#      x y z
#    x 3.787290 0.000000 0.000000 
#    y 0.000000 3.865980 0.000000 
#    z 0.000000 0.000000 3.676880 
# 
# 
# High freq. dielectric constant tensor:
#      x y z
#    x 1.817510 0.000000 0.000000 
#    y 0.000000 1.825500 0.000000 
#    z 0.000000 0.000000 1.813070 
# 
# From -- ./inp_files/2837.got.cif
#   From: 2010.03.12/outbox.cif.g09.slc.cpg/sg55_2_cif.got.tgz:2837.got - 2010.04.16 15:19:21.
