data_PCOD8227054
_publ_section_title
;
Structure prediction by ZEFSAII (Michael W. Deem and Ramdas Pophale) SiO2 
 PCOD8227054
Probable space group: P B A M
;
_chemical_formula_sum "Si O2"
_cell_formula_units_Z 40
_cell_length_a 8.699598
_cell_length_b 29.018893
_cell_length_c 7.867881
_cell_angle_alpha 90.000000
_cell_angle_beta 90.000000
_cell_angle_gamma 90.000000
_cell_volume 1986.267829
_symmetry_space_group_name_H-M "P B A M"
_symmetry_group_IT_number 55
_symmetry_cell_setting 'orthorhombic'
loop_
_space_group_symop_operation_xyz
x,y,z
-x,-y,z
1/2+x,1/2-y,-z
1/2-x,1/2+y,-z
-x,-y,-z
x,y,-z
1/2-x,1/2+y,z
1/2+x,1/2-y,z
loop_
_atom_site_type_symbol
_atom_site_label
_atom_site_fract_x
_atom_site_fract_y
_atom_site_fract_z
Si Si1 0.306290 0.543639 0.200835
Si Si2 0.814915 0.807328 0.500000
Si Si3 0.804373 0.649525 0.806246
Si Si4 0.353886 0.443154 0.201261
Si Si5 0.118521 0.627658 0.684714
Si Si6 0.177571 0.792341 0.500000
O O1 0.275656 0.491095 0.263919
O O2 0.472053 0.560137 0.272066
O O3 0.173577 0.576923 0.265395
O O4 0.307818 0.545759 0.000000
O O5 0.763380 0.836712 0.331409
O O6 0.716373 0.761072 0.500000
O O7 0.994992 0.798649 0.500000
O O8 0.741667 0.600692 0.735831
O O9 0.747071 0.687769 0.674592
O O10 0.990037 0.646920 0.812729
O O11 0.748718 0.660559 0.000000
O O12 0.358674 0.443904 0.000000
O O13 0.037520 0.623923 0.500000
#
# Coordination Sequence:
#
# PCOD8227054 Si02
#       6
#     8   4   8   8   8   4
#     4   9  16  33  56  81 120 159 208 254 295 358
#     4  10  24  42  69  84 127 152 190 255 303 357
#     4  11  22  39  63  91 124 159 203 246 298 363
#     4   8  17  32  54  84 117 162 204 254 305 344
#     4  10  21  38  55  89 118 164 196 239 306 348
#     4  12  22  46  67  90 117 156 192 247 309 355
#
# _framework density 20.138272000000001
#
# number of rings (size 3 to 8) (size 9 to 14) (size 15 to 20)
#    0.600    1.600    1.000    4.200    0.000    0.800 
#    1.800   11.000    0.000    0.000    0.000    0.000 
#    0.000    0.000    0.000    0.000    0.000    0.000 
#
# Total GULP energy -495642.310871 kJ/mol
# GULP energy per Si atom -12391.057772 kJ/mol
# Density = 2.009244 g / cm^3
# Si number density = 20.138272 Si / 1000 Ang^3
#
#
#
# Elastic Constant Matrix: (Units=GPa)
#
#
# Indices 1 2 3 4 5 6 
#
# 1 63.9648 2.1330 2.8255 0.0000 0.0000 0.0000
# 2 2.1330 84.4723 14.8765 0.0000 0.0000 0.0000
# 3 2.8255 14.8765 57.6740 0.0000 0.0000 0.0000
# 4 0.0000 0.0000 0.0000 25.0358 0.0000 0.0000
# 5 0.0000 0.0000 0.0000 0.0000 21.8860 0.0000
# 6 0.0000 0.0000 0.0000 0.0000 0.0000 39.7645
#
#
#
# Elastic Compliance Matrix: (Units=1/GPa)
#
#
# Indices 1 2 3 4 5 6 
#
# 1 0.015673 -0.000273 -0.000697 0.000000 0.000000 0.000000
# 2 -0.000273 0.012406 -0.003187 0.000000 0.000000 0.000000
# 3 -0.000697 -0.003187 0.018195 0.000000 0.000000 0.000000
# 4 0.000000 0.000000 0.000000 0.039943 0.000000 0.000000
# 5 0.000000 0.000000 0.000000 0.000000 0.045691 0.000000
# 6 0.000000 0.000000 0.000000 0.000000 0.000000 0.025148
#
#
# Mechanical properties :
#
#
# Convention : Reuss Voigt Hill
#
# Bulk Modulus (GPa) = 26.34316 27.30904 26.82610
# Shear Modulus (GPa) = 28.08599 29.75566 28.92083
#
# Velocity S-wave (km/s) = 3.73856 3.84808 3.79372
# Velocity P-wave (km/s) = 5.63430 5.77355 5.70435
#
# Compressibility (1/GPa) = 0.03796052
#
# Stress axis : x y z
#
# Youngs Moduli (GPa) = 63.80196 80.60415 54.96021
#
# Poissons Ratio (x) = 0.02200 0.03833
# Poissons Ratio (y) = 0.01741 0.17514
# Poissons Ratio (z) = 0.04450 0.25686
#
# Static dielectric constant tensor:
#      x y z
#    x 3.621730 0.000000 0.000000 
#    y 0.000000 3.891720 0.000000 
#    z 0.000000 0.000000 3.390750 
# 
# 
# High freq. dielectric constant tensor:
#      x y z
#    x 1.781090 0.000000 0.000000 
#    y 0.000000 1.788360 0.000000 
#    z 0.000000 0.000000 1.765780 
# 
# From -- ./inp_files/2523.got.cif
#   From: 2010.03.12/outbox.cif.g09.slc.cpg/sg55_2_cif.got.tgz:2523.got - 2010.04.16 15:19:21.
