data_PCOD8227192
_publ_section_title
;
Structure prediction by ZEFSAII (Michael W. Deem and Ramdas Pophale) SiO2 
 PCOD8227192
Probable space group: P B A M
;
_chemical_formula_sum "Si O2"
_cell_formula_units_Z 64
_cell_length_a 10.943160
_cell_length_b 32.145742
_cell_length_c 8.879117
_cell_angle_alpha 90.000000
_cell_angle_beta 90.000000
_cell_angle_gamma 90.000000
_cell_volume 3123.460244
_symmetry_space_group_name_H-M "P B A M"
_symmetry_group_IT_number 55
_symmetry_cell_setting 'orthorhombic'
loop_
_space_group_symop_operation_xyz
x,y,z
-x,-y,z
1/2+x,1/2-y,-z
1/2-x,1/2+y,-z
-x,-y,-z
x,y,-z
1/2-x,1/2+y,z
1/2+x,1/2-y,z
loop_
_atom_site_type_symbol
_atom_site_label
_atom_site_fract_x
_atom_site_fract_y
_atom_site_fract_z
Si Si1 0.620117 0.973949 0.177964
Si Si2 0.025013 0.831159 0.332327
Si Si3 0.089540 0.613665 0.673961
Si Si4 0.250649 0.189433 0.667765
Si Si5 0.860306 0.098750 0.169271
Si Si6 0.706537 0.727359 0.172771
Si Si7 0.123259 0.344385 0.166838
Si Si8 0.862659 0.012740 0.322379
O O1 0.595178 0.926376 0.220392
O O2 0.500000 0.000000 0.233312
O O3 0.750003 0.987240 0.249875
O O4 0.634067 0.978922 0.000000
O O5 0.065936 0.844358 0.500000
O O6 0.029816 0.872238 0.228083
O O7 0.107408 0.793687 0.276999
O O8 0.892783 0.812189 0.330870
O O9 0.091058 0.599563 0.500000
O O10 0.201354 0.643963 0.714959
O O11 0.968772 0.640607 0.705788
O O12 0.299299 0.200691 0.500000
O O13 0.289800 0.224264 0.786278
O O14 0.740160 0.126280 0.174832
O O15 0.842287 0.060305 0.279578
O O16 0.889053 0.083269 0.000000
O O17 0.835955 0.703396 0.198072
O O18 0.665694 0.722836 0.000000
O O19 0.063873 0.347792 0.000000
O O20 0.853106 0.006164 0.500000
O O21 0.000000 0.000000 0.266160
#
# Coordination Sequence:
#
# PCOD8227192 Si02
#       8
#     8   8   8   8   8   8   8   8
#     4  11  25  45  68  96 130 167 210 264 322 382
#     4  10  21  39  62  86 120 160 201 250 303 361
#     4  11  24  40  62  92 125 161 205 252 306 370
#     4  10  24  41  58  85 122 161 200 250 305 360
#     4  10  21  39  63  91 122 157 204 252 302 364
#     4  10  22  39  61  89 120 157 205 255 303 361
#     4   9  20  39  60  88 122 157 199 251 300 355
#     4  11  25  42  64  94 129 167 209 259 315 380
#
# _framework density 20.490096000000001
#
# number of rings (size 3 to 8) (size 9 to 14) (size 15 to 20)
#    0.000    1.750    0.000    3.750    3.500   10.000 
#    0.000    0.000    0.000    0.000    0.000    0.000 
#    0.000    0.000    0.000    0.000    0.000    0.000 
#
# Total GULP energy -793505.024951 kJ/mol
# GULP energy per Si atom -12398.516015 kJ/mol
# Density = 2.044346 g / cm^3
# Si number density = 20.490096 Si / 1000 Ang^3
#
#
#
# Elastic Constant Matrix: (Units=GPa)
#
#
# Indices 1 2 3 4 5 6 
#
# 1 88.3952 25.7310 42.7727 0.0000 0.0000 0.0000
# 2 25.7310 86.4972 22.5289 0.0000 0.0000 0.0000
# 3 42.7727 22.5289 70.7137 0.0000 0.0000 0.0000
# 4 0.0000 0.0000 0.0000 35.1074 0.0000 0.0000
# 5 0.0000 0.0000 0.0000 0.0000 18.3855 0.0000
# 6 0.0000 0.0000 0.0000 0.0000 0.0000 11.4382
#
#
#
# Elastic Compliance Matrix: (Units=1/GPa)
#
#
# Indices 1 2 3 4 5 6 
#
# 1 0.016481 -0.002515 -0.009168 0.000000 0.000000 0.000000
# 2 -0.002515 0.012991 -0.002618 0.000000 0.000000 0.000000
# 3 -0.009168 -0.002618 0.020521 0.000000 0.000000 0.000000
# 4 0.000000 0.000000 0.000000 0.028484 0.000000 0.000000
# 5 0.000000 0.000000 0.000000 0.000000 0.054391 0.000000
# 6 0.000000 0.000000 0.000000 0.000000 0.000000 0.087427
#
#
# Mechanical properties :
#
#
# Convention : Reuss Voigt Hill
#
# Bulk Modulus (GPa) = 46.74578 47.51902 47.13240
# Shear Modulus (GPa) = 19.52936 23.29113 21.41024
#
# Velocity S-wave (km/s) = 3.09060 3.37516 3.23601
# Velocity P-wave (km/s) = 5.96650 6.19923 6.08398
#
# Compressibility (1/GPa) = 0.02139230
#
# Stress axis : x y z
#
# Youngs Moduli (GPa) = 60.67620 76.97641 48.73123
#
# Poissons Ratio (x) = 0.19359 0.44675
# Poissons Ratio (y) = 0.15260 0.12756
# Poissons Ratio (z) = 0.55626 0.20150
#
# Static dielectric constant tensor:
#      x y z
#    x 3.869510 0.000000 0.000000 
#    y 0.000000 3.762130 0.000000 
#    z 0.000000 0.000000 3.948490 
# 
# 
# High freq. dielectric constant tensor:
#      x y z
#    x 1.799730 0.000000 0.000000 
#    y 0.000000 1.808200 0.000000 
#    z 0.000000 0.000000 1.808590 
# 
# From -- ./inp_files/4632.got.cif
#   From: 2010.03.12/outbox.cif.g09.slc.cpg/sg55_3_cif.got.tgz:4632.got - 2010.04.16 15:19:21.
