data_PCOD8227825
_publ_section_title
;
Structure prediction by ZEFSAII (Michael W. Deem and Ramdas Pophale) SiO2 
 PCOD8227825
Probable space group: P B A M
;
_chemical_formula_sum "Si O2"
_cell_formula_units_Z 64
_cell_length_a 18.533043
_cell_length_b 26.374202
_cell_length_c 9.397328
_cell_angle_alpha 90.000000
_cell_angle_beta 90.000000
_cell_angle_gamma 90.000000
_cell_volume 4593.359608
_symmetry_space_group_name_H-M "P B A M"
_symmetry_group_IT_number 55
_symmetry_cell_setting 'orthorhombic'
loop_
_space_group_symop_operation_xyz
x,y,z
-x,-y,z
1/2+x,1/2-y,-z
1/2-x,1/2+y,-z
-x,-y,-z
x,y,-z
1/2-x,1/2+y,z
1/2+x,1/2-y,z
loop_
_atom_site_type_symbol
_atom_site_label
_atom_site_fract_x
_atom_site_fract_y
_atom_site_fract_z
Si Si1 0.918212 0.558276 0.331659
Si Si2 0.580134 0.945805 0.331923
Si Si3 0.579759 0.760858 0.836688
Si Si4 0.201969 0.207662 0.335177
Si Si5 0.844201 0.643674 0.839729
Si Si6 0.780301 0.210061 0.839830
Si Si7 0.580861 0.250425 0.165562
Si Si8 0.659784 0.847745 0.666002
O O1 0.910610 0.563610 0.500000
O O2 0.896903 0.501668 0.277573
O O3 0.863863 0.598194 0.263473
O O4 0.999902 0.569445 0.279186
O O5 0.576366 0.949084 0.500000
O O6 0.637764 0.903922 0.280464
O O7 0.632606 0.711401 0.823417
O O8 0.501120 0.746176 0.777288
O O9 0.612148 0.807698 0.751216
O O10 0.572222 0.778485 0.000000
O O11 0.182971 0.214238 0.500000
O O12 0.248744 0.254903 0.282868
O O13 0.127033 0.206326 0.247927
O O14 0.253884 0.158820 0.308350
O O15 0.757747 0.655064 0.822684
O O16 0.888052 0.694692 0.800023
O O17 0.862877 0.627054 0.000000
O O18 0.759880 0.230445 0.000000
O O19 0.585627 0.263447 0.000000
O O20 0.641257 0.840254 0.500000
#
# Coordination Sequence:
#
# PCOD8227825 Si02
#       8
#     8   8   8   8   8   8   8   8
#     4   9  16  26  40  54  69  95 127 153 177 210
#     4   8  15  27  39  52  72  96 123 153 182 211
#     4   9  16  26  40  56  73  97 128 153 177 216
#     4   9  16  24  36  54  73  95 123 151 180 214
#     4   9  16  25  36  52  75  98 118 146 183 213
#     4   8  15  27  39  51  72  99 122 148 182 217
#     4   9  17  27  38  53  75 101 125 150 181 217
#     4   9  16  26  39  54  74  99 124 152 185 216
#
# _framework density 13.933156
#
# number of rings (size 3 to 8) (size 9 to 14) (size 15 to 20)
#    0.000    3.250    0.000    2.625    0.000    3.000 
#    0.000    1.875    0.000    0.000    0.000    0.000 
#    0.000    1.000    0.000   12.500    0.000    0.000 
#
# Total GULP energy -792842.252043 kJ/mol
# GULP energy per Si atom -12388.160188 kJ/mol
# Density = 1.390144 g / cm^3
# Si number density = 13.933156 Si / 1000 Ang^3
#
#
#
# Elastic Constant Matrix: (Units=GPa)
#
#
# Indices 1 2 3 4 5 6 
#
# 1 111.6259 54.0389 34.4642 0.0000 0.0000 0.0000
# 2 54.0389 77.6057 30.5137 0.0000 0.0000 0.0000
# 3 34.4642 30.5137 41.4677 0.0000 0.0000 0.0000
# 4 0.0000 0.0000 0.0000 13.7828 0.0000 0.0000
# 5 0.0000 0.0000 0.0000 0.0000 19.2172 0.0000
# 6 0.0000 0.0000 0.0000 0.0000 0.0000 24.2343
#
#
#
# Elastic Compliance Matrix: (Units=1/GPa)
#
#
# Indices 1 2 3 4 5 6 
#
# 1 0.014691 -0.007639 -0.006589 0.000000 0.000000 0.000000
# 2 -0.007639 0.022104 -0.009916 0.000000 0.000000 0.000000
# 3 -0.006589 -0.009916 0.036888 0.000000 0.000000 0.000000
# 4 0.000000 0.000000 0.000000 0.072554 0.000000 0.000000
# 5 0.000000 0.000000 0.000000 0.000000 0.052037 0.000000
# 6 0.000000 0.000000 0.000000 0.000000 0.000000 0.041264
#
#
# Mechanical properties :
#
#
# Convention : Reuss Voigt Hill
#
# Bulk Modulus (GPa) = 39.37785 52.08143 45.72964
# Shear Modulus (GPa) = 16.87540 18.89236 17.88388
#
# Velocity S-wave (km/s) = 3.48396 3.68629 3.58655
# Velocity P-wave (km/s) = 6.67138 7.45513 7.07412
#
# Compressibility (1/GPa) = 0.02539499
#
# Stress axis : x y z
#
# Youngs Moduli (GPa) = 68.06964 45.24106 27.10938
#
# Poissons Ratio (x) = 0.34560 0.17861
# Poissons Ratio (y) = 0.51999 0.26882
# Poissons Ratio (z) = 0.44848 0.44861
#
# Static dielectric constant tensor:
#      x y z
#    x 3.020890 0.000000 0.000000 
#    y 0.000000 2.670560 0.000000 
#    z 0.000000 0.000000 2.687300 
# 
# 
# High freq. dielectric constant tensor:
#      x y z
#    x 1.527560 0.000000 0.000000 
#    y 0.000000 1.493480 0.000000 
#    z 0.000000 0.000000 1.528230 
# 
# From -- ./inp_files/8221.got.cif
#   From: 2010.03.12/outbox.cif.g09.slc.cpg/sg55_5_cif.got.tgz:8221.got - 2010.04.16 15:19:21.
