data_PCOD8227745
_publ_section_title
;
Structure prediction by ZEFSAII (Michael W. Deem and Ramdas Pophale) SiO2 
 PCOD8227745
Probable space group: P B A M
;
_chemical_formula_sum "Si O2"
_cell_formula_units_Z 56
_cell_length_a 13.634773
_cell_length_b 8.777589
_cell_length_c 21.653763
_cell_angle_alpha 90.000000
_cell_angle_beta 90.000000
_cell_angle_gamma 90.000000
_cell_volume 2591.531743
_symmetry_space_group_name_H-M "P B A M"
_symmetry_group_IT_number 55
_symmetry_cell_setting 'orthorhombic'
loop_
_space_group_symop_operation_xyz
x,y,z
-x,-y,z
1/2+x,1/2-y,-z
1/2-x,1/2+y,-z
-x,-y,-z
x,y,-z
1/2-x,1/2+y,z
1/2+x,1/2-y,z
loop_
_atom_site_type_symbol
_atom_site_label
_atom_site_fract_x
_atom_site_fract_y
_atom_site_fract_z
Si Si1 0.114635 0.520455 0.427866
Si Si2 0.375945 0.356213 0.260990
Si Si3 0.819025 0.314778 0.138015
Si Si4 0.907699 0.814235 0.728482
Si Si5 0.871117 0.661543 0.151015
Si Si6 0.257484 0.767176 0.367775
Si Si7 0.980118 0.173080 0.929358
O O1 0.108598 0.551913 0.500000
O O2 0.173131 0.662981 0.398287
O O3 0.184340 0.374270 0.416029
O O4 0.000000 0.500000 0.403399
O O5 0.345354 0.245678 0.206038
O O6 0.387725 0.527669 0.234727
O O7 0.478465 0.298892 0.290169
O O8 0.295194 0.363628 0.314535
O O9 0.840646 0.492426 0.133420
O O10 0.705112 0.286138 0.125970
O O11 0.867774 0.216409 0.082938
O O12 0.881576 0.675064 0.774586
O O13 0.845025 0.823452 0.665908
O O14 0.970595 0.705443 0.116832
O O15 0.011041 0.201320 0.000000
O O16 0.000000 0.000000 0.909665
#
# Coordination Sequence:
#
# PCOD8227745 Si02
#       7
#     8   8   8   8   8   8   8
#     4  11  26  48  73 103 141 189 241 294 353 427
#     4  11  23  39  63  96 138 175 221 281 349 419
#     4  12  25  41  65  97 134 179 224 281 347 412
#     4  11  23  39  63  96 138 175 221 281 349 419
#     4  12  25  41  65  97 134 179 224 281 347 412
#     4  12  23  44  68 102 139 182 232 292 352 420
#     4  11  25  47  71  95 131 177 228 285 348 419
#
# _framework density 21.608841999999999
#
# number of rings (size 3 to 8) (size 9 to 14) (size 15 to 20)
#    0.000    0.571    4.286    4.286    2.000    1.714 
#    0.000    0.000    0.000    3.429    0.000    0.000 
#    0.000    0.000    0.000    0.000    0.000    0.000 
#
# Total GULP energy -694062.134916 kJ/mol
# GULP energy per Si atom -12393.966695 kJ/mol
# Density = 2.155966 g / cm^3
# Si number density = 21.608842 Si / 1000 Ang^3
#
#
#
# Elastic Constant Matrix: (Units=GPa)
#
#
# Indices 1 2 3 4 5 6 
#
# 1 104.1427 14.2637 17.0614 0.0000 0.0000 0.0000
# 2 14.2637 88.8470 18.4190 0.0000 0.0000 0.0000
# 3 17.0614 18.4190 76.8465 0.0000 0.0000 0.0000
# 4 0.0000 0.0000 0.0000 28.9683 0.0000 0.0000
# 5 0.0000 0.0000 0.0000 0.0000 23.4509 0.0000
# 6 0.0000 0.0000 0.0000 0.0000 0.0000 35.4661
#
#
#
# Elastic Compliance Matrix: (Units=1/GPa)
#
#
# Indices 1 2 3 4 5 6 
#
# 1 0.010088 -0.001216 -0.001948 0.000000 0.000000 0.000000
# 2 -0.001216 0.011990 -0.002604 0.000000 0.000000 0.000000
# 3 -0.001948 -0.002604 0.014070 0.000000 0.000000 0.000000
# 4 0.000000 0.000000 0.000000 0.034520 0.000000 0.000000
# 5 0.000000 0.000000 0.000000 0.000000 0.042642 0.000000
# 6 0.000000 0.000000 0.000000 0.000000 0.000000 0.028196
#
#
# Mechanical properties :
#
#
# Convention : Reuss Voigt Hill
#
# Bulk Modulus (GPa) = 40.63071 41.03604 40.83337
# Shear Modulus (GPa) = 31.00841 32.24986 31.62913
#
# Velocity S-wave (km/s) = 3.79223 3.86740 3.83000
# Velocity P-wave (km/s) = 6.16590 6.24292 6.20453
#
# Compressibility (1/GPa) = 0.02461193
#
# Stress axis : x y z
#
# Youngs Moduli (GPa) = 99.12868 83.40067 71.07483
#
# Poissons Ratio (x) = 0.10138 0.13848
# Poissons Ratio (y) = 0.12050 0.18508
# Poissons Ratio (z) = 0.19314 0.21718
#
# Static dielectric constant tensor:
#      x y z
#    x 4.402190 0.000000 0.000000 
#    y 0.000000 3.799370 0.000000 
#    z 0.000000 0.000000 3.606110 
# 
# 
# High freq. dielectric constant tensor:
#      x y z
#    x 1.875520 0.000000 0.000000 
#    y 0.000000 1.850340 0.000000 
#    z 0.000000 0.000000 1.825970 
# 
# From -- ./inp_files/22982.got.cif
#   From: 2010.03.12/outbox.cif.g09.slc.cpg/sg55_12_cif.got.tgz:22982.got - 2010.04.16 15:19:21.
