data_PCOD8227848
_publ_section_title
;
Structure prediction by ZEFSAII (Michael W. Deem and Ramdas Pophale) SiO2 
 PCOD8227848
Probable space group: P C C N
;
_chemical_formula_sum "Si O2"
_cell_formula_units_Z 56
_cell_length_a 14.786693
_cell_length_b 8.763221
_cell_length_c 22.221451
_cell_angle_alpha 90.000000
_cell_angle_beta 90.000000
_cell_angle_gamma 90.000000
_cell_volume 2879.434702
_symmetry_space_group_name_H-M "P C C N"
_symmetry_group_IT_number 56
_symmetry_cell_setting 'orthorhombic'
loop_
_space_group_symop_operation_xyz
x,y,z
1/2-x,1/2-y,z
1/2+x,-y,1/2-z
-x,1/2+y,1/2-z
-x,-y,-z
1/2+x,1/2+y,-z
1/2-x,y,1/2+z
x,1/2-y,1/2+z
loop_
_atom_site_type_symbol
_atom_site_label
_atom_site_fract_x
_atom_site_fract_y
_atom_site_fract_z
Si Si1 0.250000 0.750000 0.489135
Si Si2 0.762599 0.950638 0.451300
Si Si3 0.149483 0.309422 0.737240
Si Si4 0.305101 0.603633 0.299515
Si Si5 0.908489 0.206378 0.104581
Si Si6 0.892890 0.732967 0.394778
Si Si7 0.142603 0.095401 0.844783
Si Si8 0.250000 0.250000 0.439453
O O1 0.275519 0.627308 0.539411
O O2 0.334599 0.801954 0.448460
O O3 0.838963 0.890214 0.405679
O O4 0.663332 0.904006 0.426183
O O5 0.780126 0.888035 0.518293
O O6 0.250000 0.250000 0.724709
O O7 0.145753 0.492334 0.751549
O O8 0.092934 0.290397 0.676503
O O9 0.106838 0.198923 0.789070
O O10 0.250000 0.750000 0.271257
O O11 0.377637 0.668026 0.346813
O O12 0.237733 0.488736 0.332883
O O13 0.006500 0.248309 0.077397
O O14 0.924796 0.039776 0.135709
O O15 0.162148 0.210065 0.899533
#
# Coordination Sequence:
#
# PCOD8227848 Si02
#       8
#     4   8   8   8   8   8   8   4
#     4  12  22  40  60  84 116 148 202 268 280 336
#     4  10  23  41  58  81 114 160 199 242 297 347
#     4  10  18  35  62  82 121 157 195 230 290 366
#     4   9  17  31  54  91 112 148 188 236 288 336
#     4  11  21  37  61  91 123 144 195 252 299 339
#     4  10  23  42  58  84 121 165 190 230 302 369
#     4  10  17  31  60  92 109 154 195 234 295 342
#     4  10  14  32  58  82 104 148 200 238 274 348
#
# _framework density 19.448262
#
# number of rings (size 3 to 8) (size 9 to 14) (size 15 to 20)
#    0.000    2.000    7.143    0.000    0.000    2.286 
#    1.286    1.429    0.000    0.000    0.000    0.000 
#    0.000    0.000    0.000    0.000    0.000    0.000 
#
# Total GULP energy -693857.274529 kJ/mol
# GULP energy per Si atom -12390.308474 kJ/mol
# Density = 1.940400 g / cm^3
# Si number density = 19.448262 Si / 1000 Ang^3
#
#
#
# Elastic Constant Matrix: (Units=GPa)
#
#
# Indices 1 2 3 4 5 6 
#
# 1 93.2601 23.6353 22.9256 0.0000 0.0000 0.0000
# 2 23.6353 132.4175 50.3353 0.0000 0.0000 0.0000
# 3 22.9256 50.3353 102.4647 0.0000 0.0000 0.0000
# 4 0.0000 0.0000 0.0000 19.0797 0.0000 0.0000
# 5 0.0000 0.0000 0.0000 0.0000 11.1365 0.0000
# 6 0.0000 0.0000 0.0000 0.0000 0.0000 6.2138
#
#
#
# Elastic Compliance Matrix: (Units=1/GPa)
#
#
# Indices 1 2 3 4 5 6 
#
# 1 0.011533 -0.001325 -0.001929 0.000000 0.000000 0.000000
# 2 -0.001325 0.009438 -0.004340 0.000000 0.000000 0.000000
# 3 -0.001929 -0.004340 0.012323 0.000000 0.000000 0.000000
# 4 0.000000 0.000000 0.000000 0.052412 0.000000 0.000000
# 5 0.000000 0.000000 0.000000 0.000000 0.089794 0.000000
# 6 0.000000 0.000000 0.000000 0.000000 0.000000 0.160932
#
#
# Mechanical properties :
#
#
# Convention : Reuss Voigt Hill
#
# Bulk Modulus (GPa) = 55.23292 57.99275 56.61283
# Shear Modulus (GPa) = 13.97989 22.70241 18.34115
#
# Velocity S-wave (km/s) = 2.68400 3.42032 3.07428
# Velocity P-wave (km/s) = 6.16982 6.74402 6.46330
#
# Compressibility (1/GPa) = 0.01810514
#
# Stress axis : x y z
#
# Youngs Moduli (GPa) = 86.70909 105.95329 81.14815
#
# Poissons Ratio (x) = 0.14040 0.15657
# Poissons Ratio (y) = 0.11490 0.35218
# Poissons Ratio (z) = 0.16730 0.45983
#
# Static dielectric constant tensor:
#      x y z
#    x 3.208900 0.000000 0.000000 
#    y 0.000000 3.945460 0.000000 
#    z 0.000000 0.000000 3.544590 
# 
# 
# High freq. dielectric constant tensor:
#      x y z
#    x 1.720790 0.000000 0.000000 
#    y 0.000000 1.765230 0.000000 
#    z 0.000000 0.000000 1.749450 
# 
# From -- ./inp_files/19170.got.cif
#   From: 2010.03.12/outbox.cif.g09.slc.cpg/sg56_10_cif.got.tgz:19170.got - 2010.04.16 15:33:40.
