data_PCOD8227762
_publ_section_title
;
Structure prediction by ZEFSAII (Michael W. Deem and Ramdas Pophale) SiO2 
 PCOD8227762
Probable space group: P B A M
;
_chemical_formula_sum "Si O2"
_cell_formula_units_Z 40
_cell_length_a 18.452824
_cell_length_b 12.076329
_cell_length_c 8.417151
_cell_angle_alpha 90.000000
_cell_angle_beta 90.000000
_cell_angle_gamma 90.000000
_cell_volume 1875.697908
_symmetry_space_group_name_H-M "P B A M"
_symmetry_group_IT_number 55
_symmetry_cell_setting 'orthorhombic'
loop_
_space_group_symop_operation_xyz
x,y,z
-x,-y,z
1/2+x,1/2-y,-z
1/2-x,1/2+y,-z
-x,-y,-z
x,y,-z
1/2-x,1/2+y,z
1/2+x,1/2-y,z
loop_
_atom_site_type_symbol
_atom_site_label
_atom_site_fract_x
_atom_site_fract_y
_atom_site_fract_z
Si Si1 0.570335 0.568276 0.685146
Si Si2 0.841081 0.450148 0.684342
Si Si3 0.117550 0.303997 0.318908
Si Si4 0.813527 0.907198 0.816202
Si Si5 0.537703 0.799490 0.817413
O O1 0.500000 0.500000 0.742258
O O2 0.565370 0.596191 0.500000
O O3 0.642263 0.499048 0.719601
O O4 0.574861 0.681921 0.781518
O O5 0.850920 0.420481 0.500000
O O6 0.841379 0.581412 0.713964
O O7 0.766637 0.399864 0.747056
O O8 0.906277 0.396949 0.782204
O O9 0.129097 0.264767 0.500000
O O10 0.150061 0.212577 0.202175
O O11 0.032307 0.318014 0.290926
O O12 0.812347 0.940183 0.000000
O O13 0.514267 0.805111 0.000000
#
# Coordination Sequence:
#
# PCOD8227762 Si02
#       5
#     8   8   8   8   8
#     4  11  23  42  69  96 130 175 223 268 323 396
#     4  11  26  46  69  95 133 180 224 268 327 401
#     4  11  24  45  70  96 130 176 225 269 326 399
#     4  12  26  43  67  99 136 171 218 279 337 388
#     4  12  25  42  69 102 135 170 218 278 335 388
#
# _framework density 21.325396999999999
#
# number of rings (size 3 to 8) (size 9 to 14) (size 15 to 20)
#    0.000    0.600    2.000    6.000    2.800    6.400 
#    0.000    0.000    0.000    0.000    0.000    0.000 
#    0.000    0.000    0.000    0.000    0.000    0.000 
#
# Total GULP energy -496422.097512 kJ/mol
# GULP energy per Si atom -12410.552438 kJ/mol
# Density = 2.127686 g / cm^3
# Si number density = 21.325397 Si / 1000 Ang^3
#
#
#
# Elastic Constant Matrix: (Units=GPa)
#
#
# Indices 1 2 3 4 5 6 
#
# 1 107.7989 21.0314 2.3535 0.0000 0.0000 0.0000
# 2 21.0314 63.7988 31.9546 0.0000 0.0000 0.0000
# 3 2.3535 31.9546 78.8251 0.0000 0.0000 0.0000
# 4 0.0000 0.0000 0.0000 33.1191 0.0000 0.0000
# 5 0.0000 0.0000 0.0000 0.0000 19.5205 0.0000
# 6 0.0000 0.0000 0.0000 0.0000 0.0000 35.0204
#
#
#
# Elastic Compliance Matrix: (Units=1/GPa)
#
#
# Indices 1 2 3 4 5 6 
#
# 1 0.010020 -0.003957 0.001305 0.000000 0.000000 0.000000
# 2 -0.003957 0.021230 -0.008488 0.000000 0.000000 0.000000
# 3 0.001305 -0.008488 0.016088 0.000000 0.000000 0.000000
# 4 0.000000 0.000000 0.000000 0.030194 0.000000 0.000000
# 5 0.000000 0.000000 0.000000 0.000000 0.051228 0.000000
# 6 0.000000 0.000000 0.000000 0.000000 0.000000 0.028555
#
#
# Mechanical properties :
#
#
# Convention : Reuss Voigt Hill
#
# Bulk Modulus (GPa) = 39.90699 40.12241 40.01470
# Shear Modulus (GPa) = 26.60306 30.53755 28.57030
#
# Velocity S-wave (km/s) = 3.53580 3.78826 3.66421
# Velocity P-wave (km/s) = 5.95174 6.16358 6.05859
#
# Compressibility (1/GPa) = 0.02505827
#
# Stress axis : x y z
#
# Youngs Moduli (GPa) = 99.80063 47.10302 62.15669
#
# Poissons Ratio (x) = 0.18637 -0.08110
# Poissons Ratio (y) = 0.39487 0.52760
# Poissons Ratio (z) = -0.13022 0.39982
#
# Static dielectric constant tensor:
#      x y z
#    x 3.878920 0.000000 0.000000 
#    y 0.000000 3.918050 0.000000 
#    z 0.000000 0.000000 3.858950 
# 
# 
# High freq. dielectric constant tensor:
#      x y z
#    x 1.842210 0.000000 0.000000 
#    y 0.000000 1.846360 0.000000 
#    z 0.000000 0.000000 1.845870 
# 
# From -- ./inp_files/3622.got.cif
#   From: 2010.03.12/outbox.cif.g09.slc.cpg/sg55_2_cif.got.tgz:3622.got - 2010.04.16 15:19:21.
