data_PCOD8227076
_publ_section_title
;
Structure prediction by ZEFSAII (Michael W. Deem and Ramdas Pophale) SiO2 
 PCOD8227076
Probable space group: P B A M
;
_chemical_formula_sum "Si O2"
_cell_formula_units_Z 48
_cell_length_a 28.812601
_cell_length_b 10.199148
_cell_length_c 8.851160
_cell_angle_alpha 90.000000
_cell_angle_beta 90.000000
_cell_angle_gamma 90.000000
_cell_volume 2601.037122
_symmetry_space_group_name_H-M "P B A M"
_symmetry_group_IT_number 55
_symmetry_cell_setting 'orthorhombic'
loop_
_space_group_symop_operation_xyz
x,y,z
-x,-y,z
1/2+x,1/2-y,-z
1/2-x,1/2+y,-z
-x,-y,-z
x,y,-z
1/2-x,1/2+y,z
1/2+x,1/2-y,z
loop_
_atom_site_type_symbol
_atom_site_label
_atom_site_fract_x
_atom_site_fract_y
_atom_site_fract_z
Si Si1 0.880539 0.273124 0.172507
Si Si2 0.383542 0.526811 0.828263
Si Si3 0.979918 0.360695 0.174857
Si Si4 0.529134 0.378709 0.322690
Si Si5 0.778055 0.995315 0.179071
Si Si6 0.214546 0.724736 0.321743
O O1 0.924854 0.363035 0.210089
O O2 0.838805 0.310023 0.283965
O O3 0.896821 0.124306 0.197909
O O4 0.863087 0.291849 0.000000
O O5 0.417291 0.616292 0.728814
O O6 0.330252 0.549778 0.781165
O O7 0.391354 0.569194 0.000000
O O8 0.000000 0.500000 0.221495
O O9 0.006700 0.256420 0.274048
O O10 0.988586 0.327243 0.000000
O O11 0.500000 0.500000 0.251756
O O12 0.528088 0.387520 0.500000
O O13 0.769289 0.142472 0.238760
O O14 0.744586 0.896319 0.263905
O O15 0.768977 0.994476 0.000000
O O16 0.220641 0.742115 0.500000
#
# Coordination Sequence:
#
# PCOD8227076 Si02
#       6
#     8   8   8   8   8   8
#     4   9  18  35  58  82 110 149 191 231 280 341
#     4   9  18  34  59  84 106 143 191 236 276 325
#     4  10  21  38  59  82 110 148 193 236 278 332
#     4  11  22  34  54  84 115 148 183 227 283 335
#     4  10  21  40  62  85 114 152 194 235 283 343
#     4  11  22  37  60  89 117 148 187 238 293 343
#
# _framework density 18.454177000000001
#
# number of rings (size 3 to 8) (size 9 to 14) (size 15 to 20)
#    0.000    2.000    1.667    3.500    0.000    5.000 
#    3.000    0.000    0.000    0.000    0.000    0.000 
#    0.000    0.000    0.000    0.000    0.000    0.000 
#
# Total GULP energy -595297.258830 kJ/mol
# GULP energy per Si atom -12402.026226 kJ/mol
# Density = 1.841217 g / cm^3
# Si number density = 18.454177 Si / 1000 Ang^3
#
#
#
# Elastic Constant Matrix: (Units=GPa)
#
#
# Indices 1 2 3 4 5 6 
#
# 1 101.6059 59.1063 40.9388 0.0000 0.0000 0.0000
# 2 59.1063 81.6432 35.1302 0.0000 0.0000 0.0000
# 3 40.9388 35.1302 78.7136 0.0000 0.0000 0.0000
# 4 0.0000 0.0000 0.0000 27.4607 0.0000 0.0000
# 5 0.0000 0.0000 0.0000 0.0000 12.3228 0.0000
# 6 0.0000 0.0000 0.0000 0.0000 0.0000 35.4059
#
#
#
# Elastic Compliance Matrix: (Units=1/GPa)
#
#
# Indices 1 2 3 4 5 6 
#
# 1 0.018170 -0.011248 -0.004430 0.000000 0.000000 0.000000
# 2 -0.011248 0.022123 -0.004023 0.000000 0.000000 0.000000
# 3 -0.004430 -0.004023 0.016804 0.000000 0.000000 0.000000
# 4 0.000000 0.000000 0.000000 0.036416 0.000000 0.000000
# 5 0.000000 0.000000 0.000000 0.000000 0.081150 0.000000
# 6 0.000000 0.000000 0.000000 0.000000 0.000000 0.028244
#
#
# Mechanical properties :
#
#
# Convention : Reuss Voigt Hill
#
# Bulk Modulus (GPa) = 56.51743 59.14592 57.83167
# Shear Modulus (GPa) = 20.14435 23.49037 21.81736
#
# Velocity S-wave (km/s) = 3.30750 3.57165 3.44211
# Velocity P-wave (km/s) = 6.72892 7.00918 6.87048
#
# Compressibility (1/GPa) = 0.01769366
#
# Stress axis : x y z
#
# Youngs Moduli (GPa) = 55.03470 45.20193 59.50943
#
# Poissons Ratio (x) = 0.50845 0.26364
# Poissons Ratio (y) = 0.61905 0.23943
# Poissons Ratio (z) = 0.24382 0.18186
#
# Static dielectric constant tensor:
#      x y z
#    x 3.567340 0.000000 0.000000 
#    y 0.000000 3.319300 0.000000 
#    z 0.000000 0.000000 3.336560 
# 
# 
# High freq. dielectric constant tensor:
#      x y z
#    x 1.724260 0.000000 0.000000 
#    y 0.000000 1.700910 0.000000 
#    z 0.000000 0.000000 1.715190 
# 
# From -- ./inp_files/2828.got.cif
#   From: 2010.03.12/outbox.cif.g09.slc.cpg/sg55_2_cif.got.tgz:2828.got - 2010.04.16 15:19:21.
