data_PCOD8227304
_publ_section_title
;
Structure prediction by ZEFSAII (Michael W. Deem and Ramdas Pophale) SiO2 
 PCOD8227304
Probable space group: P B A M
;
_chemical_formula_sum "Si O2"
_cell_formula_units_Z 40
_cell_length_a 28.891936
_cell_length_b 8.747045
_cell_length_c 7.917122
_cell_angle_alpha 90.000000
_cell_angle_beta 90.000000
_cell_angle_gamma 90.000000
_cell_volume 2000.807664
_symmetry_space_group_name_H-M "P B A M"
_symmetry_group_IT_number 55
_symmetry_cell_setting 'orthorhombic'
loop_
_space_group_symop_operation_xyz
x,y,z
-x,-y,z
1/2+x,1/2-y,-z
1/2-x,1/2+y,-z
-x,-y,-z
x,y,-z
1/2-x,1/2+y,z
1/2+x,1/2-y,z
loop_
_atom_site_type_symbol
_atom_site_label
_atom_site_fract_x
_atom_site_fract_y
_atom_site_fract_z
Si Si1 0.554992 0.824957 0.500000
Si Si2 0.110593 0.810105 0.811389
Si Si3 0.793599 0.661453 0.808288
Si Si4 0.876731 0.856323 0.687822
Si Si5 0.797279 0.328094 0.690795
Si Si6 0.551518 0.185195 0.500000
O O1 0.577875 0.761887 0.330179
O O2 0.502083 0.770901 0.500000
O O3 0.560087 0.005595 0.500000
O O4 0.161842 0.740079 0.803368
O O5 0.112477 0.991573 0.789995
O O6 0.091224 0.775099 0.000000
O O7 0.840126 0.758457 0.791582
O O8 0.796537 0.511491 0.693844
O O9 0.751370 0.767284 0.755096
O O10 0.787430 0.607548 0.000000
O O11 0.856756 0.895969 0.500000
O O12 0.924154 0.757784 0.666679
O O13 0.806209 0.274701 0.500000
#
# Coordination Sequence:
#
# PCOD8227304 Si02
#       6
#     4   8   8   8   8   4
#     4  11  21  47  68  99 124 169 211 265 327 381
#     4  12  24  41  67  97 131 169 215 265 320 380
#     4  12  24  39  60  92 132 168 220 268 315 379
#     4  10  21  41  63  92 125 172 208 258 320 378
#     4  12  24  41  61  90 125 178 218 260 320 378
#     4   9  23  41  74  89 130 167 211 265 323 387
#
# _framework density 19.991925999999999
#
# number of rings (size 3 to 8) (size 9 to 14) (size 15 to 20)
#    0.600    0.200    2.000    6.600    0.000    1.600 
#    0.000    6.000    0.000    0.000    0.000    0.000 
#    0.000    0.000    0.000    0.000    0.000    0.000 
#
# Total GULP energy -496106.207829 kJ/mol
# GULP energy per Si atom -12402.655196 kJ/mol
# Density = 1.994642 g / cm^3
# Si number density = 19.991926 Si / 1000 Ang^3
#
#
#
# Elastic Constant Matrix: (Units=GPa)
#
#
# Indices 1 2 3 4 5 6 
#
# 1 145.5617 93.5781 41.5469 0.0000 0.0000 0.0000
# 2 93.5781 155.7009 29.7992 0.0000 0.0000 0.0000
# 3 41.5469 29.7992 133.5634 0.0000 0.0000 0.0000
# 4 0.0000 0.0000 0.0000 -145.7819 0.0000 0.0000
# 5 0.0000 0.0000 0.0000 0.0000 15.2988 0.0000
# 6 0.0000 0.0000 0.0000 0.0000 0.0000 33.3141
#
#
#
# Elastic Compliance Matrix: (Units=1/GPa)
#
#
# Indices 1 2 3 4 5 6 
#
# 1 0.011772 -0.006658 -0.002176 0.000000 0.000000 0.000000
# 2 -0.006658 0.010475 -0.000266 0.000000 0.000000 0.000000
# 3 -0.002176 -0.000266 0.008223 0.000000 0.000000 0.000000
# 4 0.000000 0.000000 0.000000 -0.006860 0.000000 0.000000
# 5 0.000000 0.000000 0.000000 0.000000 0.065365 0.000000
# 6 0.000000 0.000000 0.000000 0.000000 0.000000 0.030017
#
#
# Mechanical properties :
#
#
# Convention : Reuss Voigt Hill
#
# Bulk Modulus (GPa) = 81.50501 84.96382 83.23441
# Shear Modulus (GPa) = 35.38991 -1.44035 16.97478
#
# Velocity S-wave (km/s) = 4.21195 -0.84972 2.91706
# Velocity P-wave (km/s) = 8.03191 6.45202 7.28492
#
# Compressibility (1/GPa) = 0.01226919
#
# Stress axis : x y z
#
# Youngs Moduli (GPa) = 84.95045 95.46339 121.60496
#
# Poissons Ratio (x) = 0.63563 0.26464
# Poissons Ratio (y) = 0.56563 0.03234
# Poissons Ratio (z) = 0.18487 0.02539
#
# Static dielectric constant tensor:
#      x y z
#    x 3.596050 0.000000 0.000000 
#    y 0.000000 3.657490 0.000000 
#    z 0.000000 0.000000 3.688080 
# 
# 
# High freq. dielectric constant tensor:
#      x y z
#    x 1.774400 0.000000 0.000000 
#    y 0.000000 1.795400 0.000000 
#    z 0.000000 0.000000 1.782060 
# 
# From -- ./inp_files/10013.got.cif
#   From: 2010.03.12/outbox.cif.g09.slc.cpg/sg55_6_cif.got.tgz:10013.got - 2010.04.16 15:19:21.
