data_PCOD8227030
_publ_section_title
;
Structure prediction by ZEFSAII (Michael W. Deem and Ramdas Pophale) SiO2 
 PCOD8227030
Probable space group: P B A M
;
_chemical_formula_sum "Si O2"
_cell_formula_units_Z 64
_cell_length_a 22.666653
_cell_length_b 16.300500
_cell_length_c 8.650599
_cell_angle_alpha 90.000000
_cell_angle_beta 90.000000
_cell_angle_gamma 90.000000
_cell_volume 3196.204090
_symmetry_space_group_name_H-M "P B A M"
_symmetry_group_IT_number 55
_symmetry_cell_setting 'orthorhombic'
loop_
_space_group_symop_operation_xyz
x,y,z
-x,-y,z
1/2+x,1/2-y,-z
1/2-x,1/2+y,-z
-x,-y,-z
x,y,-z
1/2-x,1/2+y,z
1/2+x,1/2-y,z
loop_
_atom_site_type_symbol
_atom_site_label
_atom_site_fract_x
_atom_site_fract_y
_atom_site_fract_z
Si Si1 0.491841 0.246964 0.315895
Si Si2 0.962044 0.922691 0.318041
Si Si3 0.461374 0.921963 0.819751
Si Si4 0.774601 0.388700 0.324719
Si Si5 0.663979 0.444480 0.177873
Si Si6 0.715508 0.602034 0.680068
Si Si7 0.639344 0.756503 0.317936
Si Si8 0.661554 0.061426 0.671890
O O1 0.494027 0.246354 0.500000
O O2 0.519010 0.332865 0.252134
O O3 0.524276 0.164771 0.259261
O O4 0.425850 0.244511 0.246763
O O5 0.971588 0.921916 0.500000
O O6 0.894120 0.935254 0.279540
O O7 0.000000 0.000000 0.249283
O O8 0.391975 0.938144 0.791765
O O9 0.500000 0.000000 0.755695
O O10 0.473418 0.912874 0.000000
O O11 0.761211 0.360561 0.500000
O O12 0.713515 0.379004 0.230913
O O13 0.824032 0.331635 0.246464
O O14 0.801272 0.478557 0.319907
O O15 0.692739 0.532329 0.206126
O O16 0.647602 0.431353 0.000000
O O17 0.706985 0.575946 0.500000
O O18 0.674663 0.676422 0.727392
O O19 0.785143 0.625825 0.708941
O O20 0.632846 0.767385 0.500000
O O21 0.634951 0.075235 0.500000
#
# Coordination Sequence:
#
# PCOD8227030 Si02
#       8
#     8   8   8   8   8   8   8   8
#     4  10  21  37  60  87 110 140 187 236 280 331
#     4  10  21  39  63  86 111 147 189 234 283 333
#     4  11  24  39  55  78 114 157 191 227 279 335
#     4   9  18  34  57  83 109 138 177 228 280 328
#     4  11  22  35  53  80 114 149 184 220 267 329
#     4   9  18  35  58  82 108 138 177 226 276 326
#     4   9  17  33  59  85 105 131 175 229 278 325
#     4   9  18  33  55  81 107 140 184 231 275 322
#
# _framework density 20.023752000000002
#
# number of rings (size 3 to 8) (size 9 to 14) (size 15 to 20)
#    0.000    2.250    0.000    3.750    0.000    7.750 
#    0.000    5.625    0.000    0.000    0.000    0.000 
#    0.000    0.000    0.000    0.000    0.000    0.000 
#
# Total GULP energy -793140.043602 kJ/mol
# GULP energy per Si atom -12392.813181 kJ/mol
# Density = 1.997818 g / cm^3
# Si number density = 20.023752 Si / 1000 Ang^3
#
#
#
# Elastic Constant Matrix: (Units=GPa)
#
#
# Indices 1 2 3 4 5 6 
#
# 1 138.6506 41.0041 10.6173 0.0000 0.0000 0.0000
# 2 41.0041 89.2341 16.7927 0.0000 0.0000 0.0000
# 3 10.6173 16.7927 29.8672 0.0000 0.0000 0.0000
# 4 0.0000 0.0000 0.0000 14.4994 0.0000 0.0000
# 5 0.0000 0.0000 0.0000 0.0000 14.0951 0.0000
# 6 0.0000 0.0000 0.0000 0.0000 0.0000 28.2175
#
#
#
# Elastic Compliance Matrix: (Units=1/GPa)
#
#
# Indices 1 2 3 4 5 6 
#
# 1 0.008369 -0.003674 -0.000909 0.000000 0.000000 0.000000
# 2 -0.003674 0.014146 -0.006647 0.000000 0.000000 0.000000
# 3 -0.000909 -0.006647 0.037542 0.000000 0.000000 0.000000
# 4 0.000000 0.000000 0.000000 0.068968 0.000000 0.000000
# 5 0.000000 0.000000 0.000000 0.000000 0.070946 0.000000
# 6 0.000000 0.000000 0.000000 0.000000 0.000000 0.035439
#
#
# Mechanical properties :
#
#
# Convention : Reuss Voigt Hill
#
# Bulk Modulus (GPa) = 26.59909 43.84223 35.22066
# Shear Modulus (GPa) = 18.49090 23.98493 21.23791
#
# Velocity S-wave (km/s) = 3.04213 3.46471 3.26027
# Velocity P-wave (km/s) = 5.06478 6.16022 5.63916
#
# Compressibility (1/GPa) = 0.03759527
#
# Stress axis : x y z
#
# Youngs Moduli (GPa) = 119.49365 70.69214 26.63678
#
# Poissons Ratio (x) = 0.25975 0.02421
# Poissons Ratio (y) = 0.43907 0.17706
# Poissons Ratio (z) = 0.10862 0.46991
#
# Static dielectric constant tensor:
#      x y z
#    x 4.239590 0.000000 0.000000 
#    y 0.000000 3.825940 0.000000 
#    z 0.000000 0.000000 3.265890 
# 
# 
# High freq. dielectric constant tensor:
#      x y z
#    x 1.799920 0.000000 0.000000 
#    y 0.000000 1.780220 0.000000 
#    z 0.000000 0.000000 1.743760 
# 
# From -- ./inp_files/9049.got.cif
#   From: 2010.03.12/outbox.cif.g09.slc.cpg/sg55_5_cif.got.tgz:9049.got - 2010.04.16 15:19:21.
