data_PCOD8227888
_publ_section_title
;
Structure prediction by ZEFSAII (Michael W. Deem and Ramdas Pophale) SiO2 
 PCOD8227888
Probable space group: P C C N
;
_chemical_formula_sum "Si O2"
_cell_formula_units_Z 64
_cell_length_a 16.584614
_cell_length_b 10.491601
_cell_length_c 19.337127
_cell_angle_alpha 90.000000
_cell_angle_beta 90.000000
_cell_angle_gamma 90.000000
_cell_volume 3364.643716
_symmetry_space_group_name_H-M "P C C N"
_symmetry_group_IT_number 56
_symmetry_cell_setting 'orthorhombic'
loop_
_space_group_symop_operation_xyz
x,y,z
1/2-x,1/2-y,z
1/2+x,-y,1/2-z
-x,1/2+y,1/2-z
-x,-y,-z
1/2+x,1/2+y,-z
1/2-x,y,1/2+z
x,1/2-y,1/2+z
loop_
_atom_site_type_symbol
_atom_site_label
_atom_site_fract_x
_atom_site_fract_y
_atom_site_fract_z
Si Si1 0.836617 0.796620 0.819405
Si Si2 0.711417 0.025501 0.407301
Si Si3 0.970876 0.597118 0.858519
Si Si4 0.631423 0.291189 0.810275
Si Si5 0.032499 0.023629 0.226952
Si Si6 0.662698 0.194090 0.521382
Si Si7 0.403183 0.802530 0.335680
Si Si8 0.113422 0.901474 0.568982
O O1 0.750000 0.750000 0.787735
O O2 0.889736 0.675033 0.839980
O O3 0.888534 0.883848 0.765915
O O4 0.817806 0.884534 0.886470
O O5 0.705656 0.125954 0.341991
O O6 0.653045 0.072705 0.470195
O O7 0.802308 0.022251 0.433674
O O8 0.954581 0.512108 0.927336
O O9 0.989882 0.493284 0.799777
O O10 0.048838 0.683364 0.867877
O O11 0.554931 0.386510 0.804850
O O12 0.648227 0.237063 0.732367
O O13 0.608176 0.176875 0.859773
O O14 0.966773 0.085876 0.176635
O O15 0.750000 0.250000 0.506136
O O16 0.654450 0.153973 0.601409
O O17 0.601338 0.306828 0.496318
#
# Coordination Sequence:
#
# PCOD8227888 Si02
#       8
#     8   8   8   8   8   8   8   8
#     4  10  18  32  56  83 103 140 193 227 266 330
#     4   9  18  33  51  79 103 135 182 237 258 313
#     4  10  19  32  52  80 110 139 174 230 277 318
#     4   9  17  30  51  74 101 138 176 215 264 315
#     4   9  19  33  48  79 114 135 175 234 273 317
#     4   9  20  34  51  76 109 140 180 229 276 324
#     4  10  19  33  51  76 108 143 175 216 281 332
#     4  10  17  32  52  74 104 136 175 224 269 308
#
# _framework density 19.021331
#
# number of rings (size 3 to 8) (size 9 to 14) (size 15 to 20)
#    0.000    2.500    2.500    1.125    0.000    1.500 
#    0.000   10.000    0.000    0.000    0.000    0.000 
#    0.000    0.000    0.000    0.000    0.000    0.000 
#
# Total GULP energy -792840.461122 kJ/mol
# GULP energy per Si atom -12388.132205 kJ/mol
# Density = 1.897804 g / cm^3
# Si number density = 19.021331 Si / 1000 Ang^3
#
#
#
# Elastic Constant Matrix: (Units=GPa)
#
#
# Indices 1 2 3 4 5 6 
#
# 1 32.6580 9.5118 12.4453 0.0000 0.0000 0.0000
# 2 9.5118 63.4858 22.8982 0.0000 0.0000 0.0000
# 3 12.4453 22.8982 98.4853 0.0000 0.0000 0.0000
# 4 0.0000 0.0000 0.0000 16.9433 0.0000 0.0000
# 5 0.0000 0.0000 0.0000 0.0000 20.7280 0.0000
# 6 0.0000 0.0000 0.0000 0.0000 0.0000 25.0155
#
#
#
# Elastic Compliance Matrix: (Units=1/GPa)
#
#
# Indices 1 2 3 4 5 6 
#
# 1 0.032968 -0.003751 -0.003294 0.000000 0.000000 0.000000
# 2 -0.003751 0.017620 -0.003623 0.000000 0.000000 0.000000
# 3 -0.003294 -0.003623 0.011412 0.000000 0.000000 0.000000
# 4 0.000000 0.000000 0.000000 0.059021 0.000000 0.000000
# 5 0.000000 0.000000 0.000000 0.000000 0.048244 0.000000
# 6 0.000000 0.000000 0.000000 0.000000 0.000000 0.039975
#
#
# Mechanical properties :
#
#
# Convention : Reuss Voigt Hill
#
# Bulk Modulus (GPa) = 24.59129 31.59328 28.09229
# Shear Modulus (GPa) = 20.48077 22.52228 21.50153
#
# Velocity S-wave (km/s) = 3.28491 3.44474 3.36578
# Velocity P-wave (km/s) = 5.22914 5.69799 5.46859
#
# Compressibility (1/GPa) = 0.04066480
#
# Stress axis : x y z
#
# Youngs Moduli (GPa) = 30.33221 56.75287 87.62446
#
# Poissons Ratio (x) = 0.21290 0.28863
# Poissons Ratio (y) = 0.11379 0.31744
# Poissons Ratio (z) = 0.09991 0.20560
#
# Static dielectric constant tensor:
#      x y z
#    x 3.394740 0.000000 0.000000 
#    y 0.000000 3.601860 0.000000 
#    z 0.000000 0.000000 3.233720 
# 
# 
# High freq. dielectric constant tensor:
#      x y z
#    x 1.725730 0.000000 0.000000 
#    y 0.000000 1.746380 0.000000 
#    z 0.000000 0.000000 1.710670 
# 
# From -- ./inp_files/16714.got.cif
#   From: 2010.03.12/outbox.cif.g09.slc.cpg/sg56_9_cif.got.tgz:16714.got - 2010.04.16 15:33:40.
