data_PCOD8227081
_publ_section_title
;
Structure prediction by ZEFSAII (Michael W. Deem and Ramdas Pophale) SiO2 
 PCOD8227081
Probable space group: P B A M
;
_chemical_formula_sum "Si O2"
_cell_formula_units_Z 48
_cell_length_a 8.772174
_cell_length_b 15.023226
_cell_length_c 17.090584
_cell_angle_alpha 90.000000
_cell_angle_beta 90.000000
_cell_angle_gamma 90.000000
_cell_volume 2252.305728
_symmetry_space_group_name_H-M "P B A M"
_symmetry_group_IT_number 55
_symmetry_cell_setting 'orthorhombic'
loop_
_space_group_symop_operation_xyz
x,y,z
-x,-y,z
1/2+x,1/2-y,-z
1/2-x,1/2+y,-z
-x,-y,-z
x,y,-z
1/2-x,1/2+y,z
1/2+x,1/2-y,z
loop_
_atom_site_type_symbol
_atom_site_label
_atom_site_fract_x
_atom_site_fract_y
_atom_site_fract_z
Si Si1 0.060590 0.195537 0.909947
Si Si2 0.850686 0.316834 0.588843
Si Si3 0.171350 0.340808 0.661750
Si Si4 0.259943 0.846037 0.159304
Si Si5 0.166851 0.034307 0.168931
Si Si6 0.171819 0.024338 0.651375
O O1 0.126578 0.294614 0.898629
O O2 0.190791 0.123776 0.882540
O O3 0.912811 0.183586 0.856548
O O4 0.018087 0.180648 0.000000
O O5 0.909983 0.313194 0.500000
O O6 0.767481 0.225254 0.608251
O O7 0.729721 0.396691 0.596658
O O8 0.992193 0.331238 0.646557
O O9 0.203171 0.319232 0.752061
O O10 0.220142 0.440004 0.639157
O O11 0.281545 0.952999 0.146965
O O12 0.180036 0.059469 0.259724
O O13 0.000000 0.000000 0.147909
O O14 0.000000 0.000000 0.627548
#
# Coordination Sequence:
#
# PCOD8227081 Si02
#       6
#     8   8   8   8   8   8
#     4  11  21  35  58  87 119 151 190 243 296 348
#     4  12  25  40  62  91 123 157 198 252 305 353
#     4  11  23  41  63  86 118 161 205 247 295 359
#     4  10  21  38  59  83 113 154 198 238 287 350
#     4   8  18  36  58  82 110 151 197 234 280 348
#     4  10  21  40  64  89 120 158 202 246 294 358
#
# _framework density 21.311496000000002
#
# number of rings (size 3 to 8) (size 9 to 14) (size 15 to 20)
#    0.000    1.667    0.000    5.500    0.000    6.000 
#    0.000    2.500    0.000    2.000    0.000    0.000 
#    0.000    0.000    0.000    0.000    0.000    0.000 
#
# Total GULP energy -595311.220060 kJ/mol
# GULP energy per Si atom -12402.317085 kJ/mol
# Density = 2.126299 g / cm^3
# Si number density = 21.311496 Si / 1000 Ang^3
#
#
#
# Elastic Constant Matrix: (Units=GPa)
#
#
# Indices 1 2 3 4 5 6 
#
# 1 84.7543 18.3913 38.7180 0.0000 0.0000 0.0000
# 2 18.3913 58.0669 53.5184 0.0000 0.0000 0.0000
# 3 38.7180 53.5184 114.7824 0.0000 0.0000 0.0000
# 4 0.0000 0.0000 0.0000 13.5332 0.0000 0.0000
# 5 0.0000 0.0000 0.0000 0.0000 27.8779 0.0000
# 6 0.0000 0.0000 0.0000 0.0000 0.0000 31.2234
#
#
#
# Elastic Compliance Matrix: (Units=1/GPa)
#
#
# Indices 1 2 3 4 5 6 
#
# 1 0.013949 -0.000143 -0.004639 0.000000 0.000000 0.000000
# 2 -0.000143 0.030201 -0.014033 0.000000 0.000000 0.000000
# 3 -0.004639 -0.014033 0.016820 0.000000 0.000000 0.000000
# 4 0.000000 0.000000 0.000000 0.073892 0.000000 0.000000
# 5 0.000000 0.000000 0.000000 0.000000 0.035871 0.000000
# 6 0.000000 0.000000 0.000000 0.000000 0.000000 0.032027
#
#
# Mechanical properties :
#
#
# Convention : Reuss Voigt Hill
#
# Bulk Modulus (GPa) = 42.84421 53.20657 48.02539
# Shear Modulus (GPa) = 20.14755 24.32529 22.23642
#
# Velocity S-wave (km/s) = 3.07805 3.38215 3.23368
# Velocity P-wave (km/s) = 5.72538 6.34604 6.04368
#
# Compressibility (1/GPa) = 0.02334038
#
# Stress axis : x y z
#
# Youngs Moduli (GPa) = 71.69061 33.11177 59.45312
#
# Poissons Ratio (x) = 0.00472 0.27578
# Poissons Ratio (y) = 0.01023 0.83432
# Poissons Ratio (z) = 0.33255 0.46467
#
# Static dielectric constant tensor:
#      x y z
#    x 3.677070 0.000000 0.000000 
#    y 0.000000 4.287370 0.000000 
#    z 0.000000 0.000000 3.710400 
# 
# 
# High freq. dielectric constant tensor:
#      x y z
#    x 1.822290 0.000000 0.000000 
#    y 0.000000 1.851640 0.000000 
#    z 0.000000 0.000000 1.827490 
# 
# From -- ./inp_files/20781.got.cif
#   From: 2010.03.12/outbox.cif.g09.slc.cpg/sg55_11_cif.got.tgz:20781.got - 2010.04.16 15:19:21.
