data_PCOD8227679
_publ_section_title
;
Structure prediction by ZEFSAII (Michael W. Deem and Ramdas Pophale) SiO2 
 PCOD8227679
Probable space group: P B A M
;
_chemical_formula_sum "Si O2"
_cell_formula_units_Z 48
_cell_length_a 8.521650
_cell_length_b 14.438076
_cell_length_c 18.428027
_cell_angle_alpha 90.000000
_cell_angle_beta 90.000000
_cell_angle_gamma 90.000000
_cell_volume 2267.314975
_symmetry_space_group_name_H-M "P B A M"
_symmetry_group_IT_number 55
_symmetry_cell_setting 'orthorhombic'
loop_
_space_group_symop_operation_xyz
x,y,z
-x,-y,z
1/2+x,1/2-y,-z
1/2-x,1/2+y,-z
-x,-y,-z
x,y,-z
1/2-x,1/2+y,z
1/2+x,1/2-y,z
loop_
_atom_site_type_symbol
_atom_site_label
_atom_site_fract_x
_atom_site_fract_y
_atom_site_fract_z
Si Si1 0.661419 0.805589 0.914703
Si Si2 0.669654 0.461143 0.165789
Si Si3 0.824454 0.536861 0.581099
Si Si4 0.279995 0.621015 0.677116
Si Si5 0.338067 0.851097 0.843027
Si Si6 0.572373 0.193092 0.681450
O O1 0.792413 0.879440 0.890346
O O2 0.491030 0.839449 0.891726
O O3 0.695453 0.706964 0.877291
O O4 0.669548 0.793015 0.000000
O O5 0.500000 0.500000 0.146215
O O6 0.673851 0.422999 0.246819
O O7 0.799031 0.540768 0.157672
O O8 0.763180 0.558460 0.500000
O O9 0.712413 0.459069 0.616558
O O10 0.822075 0.629721 0.628739
O O11 0.000000 0.500000 0.578793
O O12 0.405343 0.700427 0.656212
O O13 0.108754 0.666698 0.680525
O O14 0.361973 0.815462 0.762053
#
# Coordination Sequence:
#
# PCOD8227679 Si02
#       6
#     8   8   8   8   8   8
#     4  12  27  45  68  98 134 171 216 278 339 393
#     4  12  26  41  68  97 129 174 227 272 326 395
#     4   9  20  39  64  97 136 172 212 267 328 386
#     4  11  23  39  65  98 129 169 220 269 320 386
#     4  12  23  43  68  96 131 174 221 270 328 399
#     4  11  21  38  67  95 126 177 221 265 318 393
#
# _framework density 21.170414000000001
#
# number of rings (size 3 to 8) (size 9 to 14) (size 15 to 20)
#    0.000    0.833    5.000    2.000    2.333    3.000 
#    0.000    0.000    0.000    3.500    0.000    0.000 
#    0.000    0.000    0.000    0.000    0.000    0.000 
#
# Total GULP energy -595464.128522 kJ/mol
# GULP energy per Si atom -12405.502678 kJ/mol
# Density = 2.112223 g / cm^3
# Si number density = 21.170414 Si / 1000 Ang^3
#
#
#
# Elastic Constant Matrix: (Units=GPa)
#
#
# Indices 1 2 3 4 5 6 
#
# 1 49.4458 1.4042 1.6529 0.0000 0.0000 0.0000
# 2 1.4042 93.0037 4.0521 0.0000 0.0000 0.0000
# 3 1.6529 4.0521 83.4114 0.0000 0.0000 0.0000
# 4 0.0000 0.0000 0.0000 71.6302 0.0000 0.0000
# 5 0.0000 0.0000 0.0000 0.0000 9.5138 0.0000
# 6 0.0000 0.0000 0.0000 0.0000 0.0000 42.6500
#
#
#
# Elastic Compliance Matrix: (Units=1/GPa)
#
#
# Indices 1 2 3 4 5 6 
#
# 1 0.020245 -0.000289 -0.000387 0.000000 0.000000 0.000000
# 2 -0.000289 0.010779 -0.000518 0.000000 0.000000 0.000000
# 3 -0.000387 -0.000518 0.012022 0.000000 0.000000 0.000000
# 4 0.000000 0.000000 0.000000 0.013961 0.000000 0.000000
# 5 0.000000 0.000000 0.000000 0.000000 0.105110 0.000000
# 6 0.000000 0.000000 0.000000 0.000000 0.000000 0.023447
#
#
# Mechanical properties :
#
#
# Convention : Reuss Voigt Hill
#
# Bulk Modulus (GPa) = 24.59523 26.67549 25.63536
# Shear Modulus (GPa) = 24.81337 39.34226 32.07782
#
# Velocity S-wave (km/s) = 3.42728 4.31555 3.89680
# Velocity P-wave (km/s) = 5.22538 6.12043 5.69053
#
# Compressibility (1/GPa) = 0.04065830
#
# Stress axis : x y z
#
# Youngs Moduli (GPa) = 49.39420 92.77141 83.18360
#
# Poissons Ratio (x) = 0.02679 0.03220
# Poissons Ratio (y) = 0.01427 0.04308
# Poissons Ratio (z) = 0.01912 0.04805
#
# Static dielectric constant tensor:
#      x y z
#    x 3.763130 0.000000 0.000000 
#    y 0.000000 4.180500 0.000000 
#    z 0.000000 0.000000 3.931340 
# 
# 
# High freq. dielectric constant tensor:
#      x y z
#    x 1.823030 0.000000 0.000000 
#    y 0.000000 1.847440 0.000000 
#    z 0.000000 0.000000 1.826550 
# 
# From -- ./inp_files/20756.got.cif
#   From: 2010.03.12/outbox.cif.g09.slc.cpg/sg55_11_cif.got.tgz:20756.got - 2010.04.16 15:19:21.
