data_PCOD8227215
_publ_section_title
;
Structure prediction by ZEFSAII (Michael W. Deem and Ramdas Pophale) SiO2 
 PCOD8227215
Probable space group: P B A M
;
_chemical_formula_sum "Si O2"
_cell_formula_units_Z 32
_cell_length_a 12.892734
_cell_length_b 4.936776
_cell_length_c 22.486122
_cell_angle_alpha 90.000000
_cell_angle_beta 90.000000
_cell_angle_gamma 90.000000
_cell_volume 1431.208831
_symmetry_space_group_name_H-M "P B A M"
_symmetry_group_IT_number 55
_symmetry_cell_setting 'orthorhombic'
loop_
_space_group_symop_operation_xyz
x,y,z
-x,-y,z
1/2+x,1/2-y,-z
1/2-x,1/2+y,-z
-x,-y,-z
x,y,-z
1/2-x,1/2+y,z
1/2+x,1/2-y,z
loop_
_atom_site_type_symbol
_atom_site_label
_atom_site_fract_x
_atom_site_fract_y
_atom_site_fract_z
Si Si1 0.182817 0.221230 0.624575
Si Si2 0.000000 0.000000 0.294594
Si Si3 0.424303 0.744995 0.500000
Si Si4 0.678787 0.051757 0.873006
Si Si5 0.500000 0.000000 0.216534
Si Si6 0.816828 0.664648 0.000000
O O1 0.220080 0.525133 0.638319
O O2 0.088119 0.134512 0.665414
O O3 0.150353 0.222318 0.556180
O O4 0.042745 0.752364 0.254977
O O5 0.500000 0.500000 0.500000
O O6 0.500000 0.000000 0.500000
O O7 0.723246 0.750647 0.865903
O O8 0.593843 0.111726 0.823213
O O9 0.624232 0.092324 0.938280
O O10 0.788637 0.982198 0.000000
#
# Coordination Sequence:
#
# PCOD8227215 Si02
#       6
#     8   4   4   8   4   4
#     4  12  26  46  72 101 132 176 218 265 331 393
#     4  12  28  45  64  95 134 174 226 276 310 380
#     4  12  24  44  76 103 139 168 204 274 334 383
#     4  10  21  39  63  90 126 163 211 271 329 391
#     4  12  26  41  64  93 124 176 226 262 326 384
#     4   8  16  33  58  89 120 158 202 263 334 391
#
# _framework density 22.358723999999999
#
# number of rings (size 3 to 8) (size 9 to 14) (size 15 to 20)
#    0.000    1.000    1.250    5.250    1.750    6.500 
#    0.000    0.000    0.000   10.500    0.000    0.000 
#    0.000    0.000    0.000    0.000    0.000    0.000 
#
# Total GULP energy -396745.328301 kJ/mol
# GULP energy per Si atom -12398.291509 kJ/mol
# Density = 2.230783 g / cm^3
# Si number density = 22.358724 Si / 1000 Ang^3
#
#
#
# Elastic Constant Matrix: (Units=GPa)
#
#
# Indices 1 2 3 4 5 6 
#
# 1 73.4607 14.2030 42.4920 0.0000 0.0000 0.0000
# 2 14.2030 115.0508 27.7902 0.0000 0.0000 0.0000
# 3 42.4920 27.7902 142.1316 0.0000 0.0000 0.0000
# 4 0.0000 0.0000 0.0000 17.6124 0.0000 0.0000
# 5 0.0000 0.0000 0.0000 0.0000 23.3460 0.0000
# 6 0.0000 0.0000 0.0000 0.0000 0.0000 39.4806
#
#
#
# Elastic Compliance Matrix: (Units=1/GPa)
#
#
# Indices 1 2 3 4 5 6 
#
# 1 0.016545 -0.000890 -0.004772 0.000000 0.000000 0.000000
# 2 -0.000890 0.009171 -0.001527 0.000000 0.000000 0.000000
# 3 -0.004772 -0.001527 0.008761 0.000000 0.000000 0.000000
# 4 0.000000 0.000000 0.000000 0.056778 0.000000 0.000000
# 5 0.000000 0.000000 0.000000 0.000000 0.042834 0.000000
# 6 0.000000 0.000000 0.000000 0.000000 0.000000 0.025329
#
#
# Mechanical properties :
#
#
# Convention : Reuss Voigt Hill
#
# Bulk Modulus (GPa) = 49.75525 55.51261 52.63393
# Shear Modulus (GPa) = 27.70150 32.49834 30.09992
#
# Velocity S-wave (km/s) = 3.52370 3.81661 3.67308
# Velocity P-wave (km/s) = 6.23352 6.65613 6.44829
#
# Compressibility (1/GPa) = 0.02009838
#
# Stress axis : x y z
#
# Youngs Moduli (GPa) = 60.44025 109.04522 114.14099
#
# Poissons Ratio (x) = 0.09702 0.54473
# Poissons Ratio (y) = 0.05378 0.17430
# Poissons Ratio (z) = 0.28845 0.16652
#
# Static dielectric constant tensor:
#      x y z
#    x 3.641200 0.000000 0.000000 
#    y 0.000000 4.219360 0.000000 
#    z 0.000000 0.000000 4.438410 
# 
# 
# High freq. dielectric constant tensor:
#      x y z
#    x 1.850960 0.000000 0.000000 
#    y 0.000000 1.902600 0.000000 
#    z 0.000000 0.000000 1.902380 
# 
# From -- ./inp_files/22192.got.cif
#   From: 2010.03.12/outbox.cif.g09.slc.cpg/sg55_12_cif.got.tgz:22192.got - 2010.04.16 15:19:21.
