data_PCOD8227320
_publ_section_title
;
Structure prediction by ZEFSAII (Michael W. Deem and Ramdas Pophale) SiO2 
 PCOD8227320
Probable space group: P B A M
;
_chemical_formula_sum "Si O2"
_cell_formula_units_Z 24
_cell_length_a 11.785308
_cell_length_b 5.153778
_cell_length_c 16.046029
_cell_angle_alpha 90.000000
_cell_angle_beta 90.000000
_cell_angle_gamma 90.000000
_cell_volume 974.617527
_symmetry_space_group_name_H-M "P B A M"
_symmetry_group_IT_number 55
_symmetry_cell_setting 'orthorhombic'
loop_
_space_group_symop_operation_xyz
x,y,z
-x,-y,z
1/2+x,1/2-y,-z
1/2-x,1/2+y,-z
-x,-y,-z
x,y,-z
1/2-x,1/2+y,z
1/2+x,1/2-y,z
loop_
_atom_site_type_symbol
_atom_site_label
_atom_site_fract_x
_atom_site_fract_y
_atom_site_fract_z
Si Si1 0.827630 0.123382 0.500000
Si Si2 0.817081 0.743299 0.738323
Si Si3 0.576208 0.248453 0.092656
Si Si4 0.500000 0.500000 0.636770
O O1 0.732820 0.343711 0.500000
O O2 0.907342 0.149217 0.419139
O O3 0.769171 0.467916 0.708361
O O4 0.824962 0.755430 0.838800
O O5 0.939401 0.787031 0.695738
O O6 0.500000 0.500000 0.102574
O O7 0.500000 0.000000 0.110596
O O8 0.631092 0.235561 0.000000
#
# Coordination Sequence:
#
# PCOD8227320 Si02
#       4
#     4   8   8   4
#     4  11  26  49  74 104 132 181 229 272 344 426
#     4  12  26  41  67 104 136 181 232 277 342 408
#     4  10  21  41  66  93 134 185 231 281 340 393
#     4  11  26  46  73 100 146 176 219 296 342 403
#
# _framework density 24.625041
#
# number of rings (size 3 to 8) (size 9 to 14) (size 15 to 20)
#    0.000    1.000    1.667    4.000    0.000    6.667 
#    0.000    0.000    0.000    0.000    0.000    0.000 
#    0.000    0.000    0.000    0.000    0.000    0.000 
#
# Total GULP energy -297722.736158 kJ/mol
# GULP energy per Si atom -12405.114007 kJ/mol
# Density = 2.456899 g / cm^3
# Si number density = 24.625041 Si / 1000 Ang^3
#
#
#
# Elastic Constant Matrix: (Units=GPa)
#
#
# Indices 1 2 3 4 5 6 
#
# 1 95.2866 30.8449 45.0942 0.0000 0.0000 0.0000
# 2 30.8449 141.0410 18.6049 0.0000 0.0000 0.0000
# 3 45.0942 18.6049 128.1843 0.0000 0.0000 0.0000
# 4 0.0000 0.0000 0.0000 22.5795 0.0000 0.0000
# 5 0.0000 0.0000 0.0000 0.0000 49.8092 0.0000
# 6 0.0000 0.0000 0.0000 0.0000 0.0000 31.1140
#
#
#
# Elastic Compliance Matrix: (Units=1/GPa)
#
#
# Indices 1 2 3 4 5 6 
#
# 1 0.013306 -0.002337 -0.004342 0.000000 0.000000 0.000000
# 2 -0.002337 0.007639 -0.000287 0.000000 0.000000 0.000000
# 3 -0.004342 -0.000287 0.009370 0.000000 0.000000 0.000000
# 4 0.000000 0.000000 0.000000 0.044288 0.000000 0.000000
# 5 0.000000 0.000000 0.000000 0.000000 0.020077 0.000000
# 6 0.000000 0.000000 0.000000 0.000000 0.000000 0.032140
#
#
# Mechanical properties :
#
#
# Convention : Reuss Voigt Hill
#
# Bulk Modulus (GPa) = 61.03386 61.51108 61.27247
# Shear Modulus (GPa) = 34.19690 38.69839 36.44765
#
# Velocity S-wave (km/s) = 3.73058 3.96852 3.85139
# Velocity P-wave (km/s) = 6.58751 6.78470 6.68684
#
# Compressibility (1/GPa) = 0.01638435
#
# Stress axis : x y z
#
# Youngs Moduli (GPa) = 75.15455 130.90597 106.72103
#
# Poissons Ratio (x) = 0.30595 0.46335
# Poissons Ratio (y) = 0.17565 0.03058
# Poissons Ratio (z) = 0.32630 0.03751
#
# Static dielectric constant tensor:
#      x y z
#    x 4.229800 0.000000 0.000000 
#    y 0.000000 4.277620 0.000000 
#    z 0.000000 0.000000 4.976270 
# 
# 
# High freq. dielectric constant tensor:
#      x y z
#    x 1.966570 0.000000 0.000000 
#    y 0.000000 1.982270 0.000000 
#    z 0.000000 0.000000 2.004130 
# 
# From -- ./inp_files/21151.got.cif
#   From: 2010.03.12/outbox.cif.g09.slc.cpg/sg55_11_cif.got.tgz:21151.got - 2010.04.16 15:19:21.
