data_PCOD8227259
_publ_section_title
;
Structure prediction by ZEFSAII (Michael W. Deem and Ramdas Pophale) SiO2 
 PCOD8227259
Probable space group: P B A M
;
_chemical_formula_sum "Si O2"
_cell_formula_units_Z 48
_cell_length_a 27.301632
_cell_length_b 10.023816
_cell_length_c 8.625094
_cell_angle_alpha 90.000000
_cell_angle_beta 90.000000
_cell_angle_gamma 90.000000
_cell_volume 2360.399595
_symmetry_space_group_name_H-M "P B A M"
_symmetry_group_IT_number 55
_symmetry_cell_setting 'orthorhombic'
loop_
_space_group_symop_operation_xyz
x,y,z
-x,-y,z
1/2+x,1/2-y,-z
1/2-x,1/2+y,-z
-x,-y,-z
x,y,-z
1/2-x,1/2+y,z
1/2+x,1/2-y,z
loop_
_atom_site_type_symbol
_atom_site_label
_atom_site_fract_x
_atom_site_fract_y
_atom_site_fract_z
Si Si1 0.961299 0.394361 0.683439
Si Si2 0.291897 0.255905 0.179488
Si Si3 0.187887 0.246806 0.322058
Si Si4 0.537891 0.610875 0.181518
Si Si5 0.639471 0.529463 0.320065
Si Si6 0.353831 0.031718 0.679826
O O1 0.961734 0.402421 0.500000
O O2 0.976678 0.247523 0.735180
O O3 0.907231 0.430316 0.745436
O O4 0.000000 0.500000 0.753257
O O5 0.234322 0.253853 0.210892
O O6 0.316242 0.371324 0.281802
O O7 0.313563 0.112015 0.223355
O O8 0.301399 0.285997 0.000000
O O9 0.205912 0.236754 0.500000
O O10 0.155207 0.119919 0.277118
O O11 0.154010 0.375038 0.294764
O O12 0.500000 0.500000 0.242395
O O13 0.592786 0.567060 0.219037
O O14 0.532721 0.633400 0.000000
O O15 0.625778 0.544150 0.500000
O O16 0.348535 0.071472 0.500000
#
# Coordination Sequence:
#
# PCOD8227259 Si02
#       6
#     8   8   8   8   8   8
#     4  10  22  40  67  96 122 157 204 254 301 361
#     4  12  24  39  61  90 126 165 205 249 306 369
#     4  10  23  40  62  91 123 160 208 258 303 356
#     4  11  25  43  63  92 128 164 201 249 308 370
#     4  11  23  41  66  92 121 162 208 257 306 357
#     4  10  21  40  63  90 123 159 202 253 304 357
#
# _framework density 20.335540999999999
#
# number of rings (size 3 to 8) (size 9 to 14) (size 15 to 20)
#    0.000    1.333    1.667    3.500    2.333    7.667 
#    0.000    0.000    0.000    0.000    0.000    0.000 
#    0.000    0.000    0.000    0.000    0.000    0.000 
#
# Total GULP energy -595547.017803 kJ/mol
# GULP energy per Si atom -12407.229538 kJ/mol
# Density = 2.028926 g / cm^3
# Si number density = 20.335541 Si / 1000 Ang^3
#
#
#
# Elastic Constant Matrix: (Units=GPa)
#
#
# Indices 1 2 3 4 5 6 
#
# 1 93.4718 45.5503 14.2043 0.0000 0.0000 0.0000
# 2 45.5503 147.7402 6.1442 0.0000 0.0000 0.0000
# 3 14.2043 6.1442 18.4284 0.0000 0.0000 0.0000
# 4 0.0000 0.0000 0.0000 4.3856 0.0000 0.0000
# 5 0.0000 0.0000 0.0000 0.0000 23.8573 0.0000
# 6 0.0000 0.0000 0.0000 0.0000 0.0000 39.7341
#
#
#
# Elastic Compliance Matrix: (Units=1/GPa)
#
#
# Indices 1 2 3 4 5 6 
#
# 1 0.014067 -0.003941 -0.009529 0.000000 0.000000 0.000000
# 2 -0.003941 0.007968 0.000381 0.000000 0.000000 0.000000
# 3 -0.009529 0.000381 0.061482 0.000000 0.000000 0.000000
# 4 0.000000 0.000000 0.000000 0.228019 0.000000 0.000000
# 5 0.000000 0.000000 0.000000 0.000000 0.041916 0.000000
# 6 0.000000 0.000000 0.000000 0.000000 0.000000 0.025167
#
#
# Mechanical properties :
#
#
# Convention : Reuss Voigt Hill
#
# Bulk Modulus (GPa) = 17.44002 43.49310 30.46656
# Shear Modulus (GPa) = 11.79501 26.51152 19.15326
#
# Velocity S-wave (km/s) = 2.41097 3.61460 3.07231
# Velocity P-wave (km/s) = 4.04291 6.23335 5.25356
#
# Compressibility (1/GPa) = 0.05733940
#
# Stress axis : x y z
#
# Youngs Moduli (GPa) = 71.08941 125.50565 16.26502
#
# Poissons Ratio (x) = 0.49458 0.15498
# Poissons Ratio (y) = 0.28014 -0.00620
# Poissons Ratio (z) = 0.67738 -0.04781
#
# Static dielectric constant tensor:
#      x y z
#    x 3.751370 0.000000 0.000000 
#    y 0.000000 3.915460 0.000000 
#    z 0.000000 0.000000 3.544950 
# 
# 
# High freq. dielectric constant tensor:
#      x y z
#    x 1.799310 0.000000 0.000000 
#    y 0.000000 1.812490 0.000000 
#    z 0.000000 0.000000 1.784170 
# 
# From -- ./inp_files/10543.got.cif
#   From: 2010.03.12/outbox.cif.g09.slc.cpg/sg55_6_cif.got.tgz:10543.got - 2010.04.16 15:19:21.
