data_PCOD8227555
_publ_section_title
;
Structure prediction by ZEFSAII (Michael W. Deem and Ramdas Pophale) SiO2 
 PCOD8227555
Probable space group: P B A M
;
_chemical_formula_sum "Si O2"
_cell_formula_units_Z 48
_cell_length_a 7.593880
_cell_length_b 14.955482
_cell_length_c 20.838685
_cell_angle_alpha 90.000000
_cell_angle_beta 90.000000
_cell_angle_gamma 90.000000
_cell_volume 2366.652282
_symmetry_space_group_name_H-M "P B A M"
_symmetry_group_IT_number 55
_symmetry_cell_setting 'orthorhombic'
loop_
_space_group_symop_operation_xyz
x,y,z
-x,-y,z
1/2+x,1/2-y,-z
1/2-x,1/2+y,-z
-x,-y,-z
x,y,-z
1/2-x,1/2+y,z
1/2+x,1/2-y,z
loop_
_atom_site_type_symbol
_atom_site_label
_atom_site_fract_x
_atom_site_fract_y
_atom_site_fract_z
Si Si1 0.802855 0.517026 0.592512
Si Si2 0.214285 0.155811 0.828059
Si Si3 0.157827 0.335032 0.500000
Si Si4 0.249658 0.629157 0.500000
Si Si5 0.295284 0.499524 0.264031
Si Si6 0.196478 0.848804 0.834531
Si Si7 0.005490 0.394541 0.927709
O O1 0.752044 0.614760 0.562134
O O2 0.694249 0.432707 0.561955
O O3 0.797689 0.517047 0.668921
O O4 0.000000 0.500000 0.569906
O O5 0.252935 0.254754 0.802267
O O6 0.337125 0.141674 0.889585
O O7 0.011328 0.141673 0.849650
O O8 0.265381 0.091697 0.769047
O O9 0.164456 0.227211 0.500000
O O10 0.953552 0.350695 0.500000
O O11 0.500000 0.500000 0.278179
O O12 0.238405 0.421735 0.215961
O O13 0.308556 0.860579 0.899416
O O14 0.000000 0.500000 0.926226
O O15 0.992842 0.357576 0.000000
#
# Coordination Sequence:
#
# PCOD8227555 Si02
#       7
#     8   8   4   4   8   8   8
#     4   9  20  36  58  82 113 159 196 235 295 355
#     4  11  23  41  62  89 124 160 202 256 306 362
#     4   9  19  37  56  84 118 151 195 241 290 349
#     4   9  19  37  56  84 118 151 195 241 290 349
#     4  10  23  39  59  87 120 153 204 249 294 360
#     4  11  23  41  62  89 124 160 202 256 306 362
#     4  11  24  42  66  91 119 161 207 245 311 374
#
# _framework density 20.281813
#
# number of rings (size 3 to 8) (size 9 to 14) (size 15 to 20)
#    0.000    1.833    3.333    1.000    2.333    4.000 
#    0.000   10.000    0.000    0.000    0.000    0.000 
#    0.000    0.000    0.000    0.000    0.000    0.000 
#
# Total GULP energy -594868.427656 kJ/mol
# GULP energy per Si atom -12393.092243 kJ/mol
# Density = 2.023565 g / cm^3
# Si number density = 20.281813 Si / 1000 Ang^3
#
#
#
# Elastic Constant Matrix: (Units=GPa)
#
#
# Indices 1 2 3 4 5 6 
#
# 1 65.2007 -2.1395 24.3854 0.0000 0.0000 0.0000
# 2 -2.1395 114.3532 25.2158 0.0000 0.0000 0.0000
# 3 24.3854 25.2158 118.6695 0.0000 0.0000 0.0000
# 4 0.0000 0.0000 0.0000 -57.8853 0.0000 0.0000
# 5 0.0000 0.0000 0.0000 0.0000 23.7595 0.0000
# 6 0.0000 0.0000 0.0000 0.0000 0.0000 26.5457
#
#
#
# Elastic Compliance Matrix: (Units=1/GPa)
#
#
# Indices 1 2 3 4 5 6 
#
# 1 0.016751 0.001125 -0.003681 0.000000 0.000000 0.000000
# 2 0.001125 0.009250 -0.002197 0.000000 0.000000 0.000000
# 3 -0.003681 -0.002197 0.009650 0.000000 0.000000 0.000000
# 4 0.000000 0.000000 0.000000 -0.017276 0.000000 0.000000
# 5 0.000000 0.000000 0.000000 0.000000 0.042088 0.000000
# 6 0.000000 0.000000 0.000000 0.000000 0.000000 0.037671
#
#
# Mechanical properties :
#
#
# Convention : Reuss Voigt Hill
#
# Bulk Modulus (GPa) = 38.24745 43.68298 40.96522
# Shear Modulus (GPa) = 42.97158 15.20143 29.08651
#
# Velocity S-wave (km/s) = 4.60795 2.74069 3.79108
# Velocity P-wave (km/s) = 6.87095 5.62138 6.27734
#
# Compressibility (1/GPa) = 0.02614553
#
# Stress axis : x y z
#
# Youngs Moduli (GPa) = 59.69805 108.10465 103.62687
#
# Poissons Ratio (x) = -0.12163 0.38147
# Poissons Ratio (y) = -0.06717 0.22765
# Poissons Ratio (z) = 0.21976 0.23748
#
# Static dielectric constant tensor:
#      x y z
#    x 3.638240 0.000000 0.000000 
#    y 0.000000 4.326450 0.000000 
#    z 0.000000 0.000000 3.615110 
# 
# 
# High freq. dielectric constant tensor:
#      x y z
#    x 1.793720 0.000000 0.000000 
#    y 0.000000 1.807480 0.000000 
#    z 0.000000 0.000000 1.779370 
# 
# From -- ./inp_files/20851.got.cif
#   From: 2010.03.12/outbox.cif.g09.slc.cpg/sg55_11_cif.got.tgz:20851.got - 2010.04.16 15:19:21.
