data_PCOD8227349
_publ_section_title
;
Structure prediction by ZEFSAII (Michael W. Deem and Ramdas Pophale) SiO2 
 PCOD8227349
Probable space group: P B A M
;
_chemical_formula_sum "Si O2"
_cell_formula_units_Z 64
_cell_length_a 12.822189
_cell_length_b 29.540682
_cell_length_c 8.908360
_cell_angle_alpha 90.000000
_cell_angle_beta 90.000000
_cell_angle_gamma 90.000000
_cell_volume 3374.274818
_symmetry_space_group_name_H-M "P B A M"
_symmetry_group_IT_number 55
_symmetry_cell_setting 'orthorhombic'
loop_
_space_group_symop_operation_xyz
x,y,z
-x,-y,z
1/2+x,1/2-y,-z
1/2-x,1/2+y,-z
-x,-y,-z
x,y,-z
1/2-x,1/2+y,z
1/2+x,1/2-y,z
loop_
_atom_site_type_symbol
_atom_site_label
_atom_site_fract_x
_atom_site_fract_y
_atom_site_fract_z
Si Si1 0.121925 0.448951 0.322348
Si Si2 0.483405 0.741909 0.831117
Si Si3 0.226821 0.125338 0.678364
Si Si4 0.262633 0.783775 0.167499
Si Si5 0.111798 0.551851 0.322212
Si Si6 0.213622 0.883217 0.824740
Si Si7 0.854070 0.289067 0.325844
Si Si8 0.004020 0.854135 0.321271
O O1 0.135104 0.443425 0.500000
O O2 0.136000 0.500932 0.270859
O O3 0.213344 0.421890 0.241841
O O4 0.005283 0.433036 0.271177
O O5 0.364388 0.754068 0.825015
O O6 0.536687 0.787413 0.762414
O O7 0.507307 0.697252 0.735110
O O8 0.521664 0.732815 0.000000
O O9 0.230058 0.124725 0.500000
O O10 0.297678 0.084473 0.744812
O O11 0.278512 0.171970 0.737469
O O12 0.106170 0.122939 0.731429
O O13 0.274694 0.836396 0.208443
O O14 0.188694 0.761232 0.290829
O O15 0.214166 0.780079 0.000000
O O16 0.113830 0.554349 0.500000
O O17 0.099297 0.882956 0.747820
O O18 0.197346 0.892355 0.000000
O O19 0.875363 0.295880 0.500000
O O20 0.013170 0.854242 0.500000
#
# Coordination Sequence:
#
# PCOD8227349 Si02
#       8
#     8   8   8   8   8   8   8   8
#     4   9  18  35  63  89 109 140 181 224 278 339
#     4  11  22  36  51  72 108 149 185 225 275 328
#     4   9  19  34  54  83 114 140 177 230 280 322
#     4  10  22  37  52  72 107 153 189 222 270 328
#     4   8  16  35  60  87 115 140 172 225 286 338
#     4  11  23  38  55  79 113 151 186 228 278 325
#     4  11  21  33  53  81 109 142 185 232 273 319
#     4  11  21  36  56  79 107 145 190 229 270 322
#
# _framework density 18.967037000000001
#
# number of rings (size 3 to 8) (size 9 to 14) (size 15 to 20)
#    0.000    2.000    2.500    2.250    1.750    1.000 
#    0.000    1.875    0.000    8.250    0.000    0.000 
#    0.000    0.000    0.000    0.000    0.000    0.000 
#
# Total GULP energy -793074.239109 kJ/mol
# GULP energy per Si atom -12391.784986 kJ/mol
# Density = 1.892387 g / cm^3
# Si number density = 18.967037 Si / 1000 Ang^3
#
#
#
# Elastic Constant Matrix: (Units=GPa)
#
#
# Indices 1 2 3 4 5 6 
#
# 1 142.0979 72.0492 37.6753 0.0000 0.0000 0.0000
# 2 72.0492 101.5904 31.1172 0.0000 0.0000 0.0000
# 3 37.6753 31.1172 63.1690 0.0000 0.0000 0.0000
# 4 0.0000 0.0000 0.0000 16.7728 0.0000 0.0000
# 5 0.0000 0.0000 0.0000 0.0000 34.2103 0.0000
# 6 0.0000 0.0000 0.0000 0.0000 0.0000 6.4793
#
#
#
# Elastic Compliance Matrix: (Units=1/GPa)
#
#
# Indices 1 2 3 4 5 6 
#
# 1 0.011566 -0.007172 -0.003365 0.000000 0.000000 0.000000
# 2 -0.007172 0.016040 -0.003624 0.000000 0.000000 0.000000
# 3 -0.003365 -0.003624 0.019623 0.000000 0.000000 0.000000
# 4 0.000000 0.000000 0.000000 0.059620 0.000000 0.000000
# 5 0.000000 0.000000 0.000000 0.000000 0.029231 0.000000
# 6 0.000000 0.000000 0.000000 0.000000 0.000000 0.154339
#
#
# Mechanical properties :
#
#
# Convention : Reuss Voigt Hill
#
# Bulk Modulus (GPa) = 52.89158 65.39341 59.14249
# Shear Modulus (GPa) = 15.38257 22.56017 18.97137
#
# Velocity S-wave (km/s) = 2.85092 3.45257 3.16607
# Velocity P-wave (km/s) = 6.22765 7.10253 6.67943
#
# Compressibility (1/GPa) = 0.01890660
#
# Stress axis : x y z
#
# Youngs Moduli (GPa) = 86.45867 62.34436 50.96124
#
# Poissons Ratio (x) = 0.44714 0.17150
# Poissons Ratio (y) = 0.62009 0.18467
# Poissons Ratio (z) = 0.29096 0.22592
#
# Static dielectric constant tensor:
#      x y z
#    x 3.912700 0.000000 0.000000 
#    y 0.000000 3.498060 0.000000 
#    z 0.000000 0.000000 3.301950 
# 
# 
# High freq. dielectric constant tensor:
#      x y z
#    x 1.755870 0.000000 0.000000 
#    y 0.000000 1.721290 0.000000 
#    z 0.000000 0.000000 1.715030 
# 
# From -- ./inp_files/6930.got.cif
#   From: 2010.03.12/outbox.cif.g09.slc.cpg/sg55_4_cif.got.tgz:6930.got - 2010.04.16 15:19:21.
