data_PCOD8227612
_publ_section_title
;
Structure prediction by ZEFSAII (Michael W. Deem and Ramdas Pophale) SiO2 
 PCOD8227612
Probable space group: P B A M
;
_chemical_formula_sum "Si O2"
_cell_formula_units_Z 56
_cell_length_a 14.972067
_cell_length_b 9.342694
_cell_length_c 18.181028
_cell_angle_alpha 90.000000
_cell_angle_beta 90.000000
_cell_angle_gamma 90.000000
_cell_volume 2543.152025
_symmetry_space_group_name_H-M "P B A M"
_symmetry_group_IT_number 55
_symmetry_cell_setting 'orthorhombic'
loop_
_space_group_symop_operation_xyz
x,y,z
-x,-y,z
1/2+x,1/2-y,-z
1/2-x,1/2+y,-z
-x,-y,-z
x,y,-z
1/2-x,1/2+y,z
1/2+x,1/2-y,z
loop_
_atom_site_type_symbol
_atom_site_label
_atom_site_fract_x
_atom_site_fract_y
_atom_site_fract_z
Si Si1 0.663292 0.249601 0.181744
Si Si2 0.978008 0.834410 0.418481
Si Si3 0.146602 0.750059 0.334541
Si Si4 0.601738 0.964431 0.788440
Si Si5 0.493079 0.658485 0.917633
Si Si6 0.673053 0.816097 0.082056
Si Si7 0.316515 0.586106 0.675315
O O1 0.567471 0.254790 0.140224
O O2 0.740457 0.249742 0.121061
O O3 0.680427 0.380107 0.237656
O O4 0.661054 0.104957 0.232374
O O5 0.955291 0.774590 0.500000
O O6 0.894841 0.823981 0.363867
O O7 0.060404 0.740371 0.387099
O O8 0.000000 0.000000 0.424765
O O9 0.124543 0.682556 0.254483
O O10 0.226437 0.647533 0.363631
O O11 0.176717 0.915129 0.331087
O O12 0.628737 0.947580 0.873984
O O13 0.500000 0.000000 0.774976
O O14 0.500000 0.500000 0.886892
O O15 0.596117 0.699441 0.920015
O O16 0.451481 0.668416 0.000000
O O17 0.699278 0.867852 0.000000
#
# Coordination Sequence:
#
# PCOD8227612 Si02
#       7
#     8   8   8   8   8   8   8
#     4  12  25  41  67  94 128 177 221 280 345 409
#     4   9  21  43  70 101 138 182 225 271 335 409
#     4  11  24  43  67 103 138 179 225 281 340 407
#     4  12  25  43  66  97 133 176 229 291 346 414
#     4  10  24  42  61  88 124 169 223 283 344 410
#     4  11  26  43  62  91 128 173 227 283 344 406
#     4  11  24  40  70 101 138 179 227 278 339 406
#
# _framework density 22.019919000000002
#
# number of rings (size 3 to 8) (size 9 to 14) (size 15 to 20)
#    0.000    1.143    2.857    2.143    4.000    2.571 
#    0.000    0.000    0.000    9.857    0.000    0.000 
#    0.000    0.000    0.000    0.000    0.000    0.000 
#
# Total GULP energy -693963.098199 kJ/mol
# GULP energy per Si atom -12392.198182 kJ/mol
# Density = 2.196980 g / cm^3
# Si number density = 22.019919 Si / 1000 Ang^3
#
#
#
# Elastic Constant Matrix: (Units=GPa)
#
#
# Indices 1 2 3 4 5 6 
#
# 1 143.7812 33.0151 50.8528 0.0000 0.0000 0.0000
# 2 33.0151 105.9179 24.3365 0.0000 0.0000 0.0000
# 3 50.8528 24.3365 104.4362 0.0000 0.0000 0.0000
# 4 0.0000 0.0000 0.0000 16.7982 0.0000 0.0000
# 5 0.0000 0.0000 0.0000 0.0000 28.5555 0.0000
# 6 0.0000 0.0000 0.0000 0.0000 0.0000 36.6898
#
#
#
# Elastic Compliance Matrix: (Units=1/GPa)
#
#
# Indices 1 2 3 4 5 6 
#
# 1 0.008730 -0.001843 -0.003821 0.000000 0.000000 0.000000
# 2 -0.001843 0.010365 -0.001518 0.000000 0.000000 0.000000
# 3 -0.003821 -0.001518 0.011790 0.000000 0.000000 0.000000
# 4 0.000000 0.000000 0.000000 0.059530 0.000000 0.000000
# 5 0.000000 0.000000 0.000000 0.000000 0.035020 0.000000
# 6 0.000000 0.000000 0.000000 0.000000 0.000000 0.027256
#
#
# Mechanical properties :
#
#
# Convention : Reuss Voigt Hill
#
# Bulk Modulus (GPa) = 60.53417 63.39380 61.96399
# Shear Modulus (GPa) = 28.97546 32.80410 30.88978
#
# Velocity S-wave (km/s) = 3.63143 3.86391 3.74947
# Velocity P-wave (km/s) = 6.71814 6.98271 6.85170
#
# Compressibility (1/GPa) = 0.01651959
#
# Stress axis : x y z
#
# Youngs Moduli (GPa) = 114.55110 96.48316 84.82075
#
# Poissons Ratio (x) = 0.17783 0.32412
# Poissons Ratio (y) = 0.21113 0.12874
# Poissons Ratio (z) = 0.43773 0.14644
#
# Static dielectric constant tensor:
#      x y z
#    x 4.329090 0.000000 0.000000 
#    y 0.000000 3.906680 0.000000 
#    z 0.000000 0.000000 4.052660 
# 
# 
# High freq. dielectric constant tensor:
#      x y z
#    x 1.886230 0.000000 0.000000 
#    y 0.000000 1.860350 0.000000 
#    z 0.000000 0.000000 1.849820 
# 
# From -- ./inp_files/22970.got.cif
#   From: 2010.03.12/outbox.cif.g09.slc.cpg/sg55_12_cif.got.tgz:22970.got - 2010.04.16 15:19:21.
