data_PCOD8227306
_publ_section_title
;
Structure prediction by ZEFSAII (Michael W. Deem and Ramdas Pophale) SiO2 
 PCOD8227306
Probable space group: P B A M
;
_chemical_formula_sum "Si O2"
_cell_formula_units_Z 56
_cell_length_a 21.607464
_cell_length_b 14.455179
_cell_length_c 9.078492
_cell_angle_alpha 90.000000
_cell_angle_beta 90.000000
_cell_angle_gamma 90.000000
_cell_volume 2835.574011
_symmetry_space_group_name_H-M "P B A M"
_symmetry_group_IT_number 55
_symmetry_cell_setting 'orthorhombic'
loop_
_space_group_symop_operation_xyz
x,y,z
-x,-y,z
1/2+x,1/2-y,-z
1/2-x,1/2+y,-z
-x,-y,-z
x,y,-z
1/2-x,1/2+y,z
1/2+x,1/2-y,z
loop_
_atom_site_type_symbol
_atom_site_label
_atom_site_fract_x
_atom_site_fract_y
_atom_site_fract_z
Si Si1 0.252908 0.115009 0.326007
Si Si2 0.491192 0.724799 0.328499
Si Si3 0.279584 0.300031 0.831200
Si Si4 0.407335 0.396479 0.172174
Si Si5 0.539947 0.090082 0.829584
Si Si6 0.319921 0.950517 0.829720
Si Si7 0.886043 0.918267 0.328691
O O1 0.254345 0.115786 0.500000
O O2 0.281153 0.210639 0.270315
O O3 0.182745 0.102105 0.268193
O O4 0.295777 0.033368 0.269222
O O5 0.507766 0.726468 0.500000
O O6 0.546326 0.675637 0.243655
O O7 0.486249 0.828519 0.270425
O O8 0.426669 0.672561 0.298789
O O9 0.337862 0.364111 0.793561
O O10 0.218198 0.357926 0.795812
O O11 0.281351 0.267091 0.000000
O O12 0.417001 0.497468 0.241151
O O13 0.421224 0.402559 0.000000
O O14 0.610038 0.069018 0.784459
O O15 0.500000 0.000000 0.795747
O O16 0.535049 0.119726 0.000000
O O17 0.313387 0.979744 0.000000
O O18 0.885160 0.945300 0.500000
#
# Coordination Sequence:
#
# PCOD8227306 Si02
#       7
#     8   8   8   8   8   8   8
#     4  11  23  37  61  92 122 157 199 247 302 362
#     4  11  24  41  62  88 124 164 203 249 307 366
#     4  10  22  39  60  87 120 160 203 249 301 359
#     4  11  23  39  62  91 122 158 206 255 302 359
#     4  10  23  42  64  90 121 159 206 255 303 358
#     4  10  21  41  64  88 121 161 202 249 304 358
#     4  10  22  41  61  89 126 162 198 247 306 363
#
# _framework density 19.749088
#
# number of rings (size 3 to 8) (size 9 to 14) (size 15 to 20)
#    0.000    1.571    1.429    2.571    2.000    6.000 
#    0.000    0.000    0.000    0.000    0.000    0.000 
#    0.000    0.000    0.000    0.000    0.000    0.000 
#
# Total GULP energy -694808.396525 kJ/mol
# GULP energy per Si atom -12407.292795 kJ/mol
# Density = 1.970414 g / cm^3
# Si number density = 19.749088 Si / 1000 Ang^3
#
#
#
# Elastic Constant Matrix: (Units=GPa)
#
#
# Indices 1 2 3 4 5 6 
#
# 1 72.2092 30.5427 34.2648 0.0000 0.0000 0.0000
# 2 30.5427 103.0212 48.6021 0.0000 0.0000 0.0000
# 3 34.2648 48.6021 74.8737 0.0000 0.0000 0.0000
# 4 0.0000 0.0000 0.0000 11.8263 0.0000 0.0000
# 5 0.0000 0.0000 0.0000 0.0000 30.4385 0.0000
# 6 0.0000 0.0000 0.0000 0.0000 0.0000 13.9626
#
#
#
# Elastic Compliance Matrix: (Units=1/GPa)
#
#
# Indices 1 2 3 4 5 6 
#
# 1 0.017997 -0.002090 -0.006879 0.000000 0.000000 0.000000
# 2 -0.002090 0.014234 -0.008283 0.000000 0.000000 0.000000
# 3 -0.006879 -0.008283 0.021881 0.000000 0.000000 0.000000
# 4 0.000000 0.000000 0.000000 0.084557 0.000000 0.000000
# 5 0.000000 0.000000 0.000000 0.000000 0.032853 0.000000
# 6 0.000000 0.000000 0.000000 0.000000 0.000000 0.071620
#
#
# Mechanical properties :
#
#
# Convention : Reuss Voigt Hill
#
# Bulk Modulus (GPa) = 51.00278 52.99150 51.99714
# Shear Modulus (GPa) = 17.59426 20.35842 18.97634
#
# Velocity S-wave (km/s) = 2.98802 3.21417 3.10316
# Velocity P-wave (km/s) = 6.14701 6.37693 6.26302
#
# Compressibility (1/GPa) = 0.01960677
#
# Stress axis : x y z
#
# Youngs Moduli (GPa) = 55.56434 70.25361 45.70211
#
# Poissons Ratio (x) = 0.14684 0.31440
# Poissons Ratio (y) = 0.11614 0.37856
# Poissons Ratio (z) = 0.38225 0.58192
#
# Static dielectric constant tensor:
#      x y z
#    x 3.835100 0.000000 0.000000 
#    y 0.000000 3.626400 0.000000 
#    z 0.000000 0.000000 3.603630 
# 
# 
# High freq. dielectric constant tensor:
#      x y z
#    x 1.783290 0.000000 0.000000 
#    y 0.000000 1.778000 0.000000 
#    z 0.000000 0.000000 1.769240 
# 
# From -- ./inp_files/8691.got.cif
#   From: 2010.03.12/outbox.cif.g09.slc.cpg/sg55_5_cif.got.tgz:8691.got - 2010.04.16 15:19:21.
