data_PCOD8227276
_publ_section_title
;
Structure prediction by ZEFSAII (Michael W. Deem and Ramdas Pophale) SiO2 
 PCOD8227276
Probable space group: P B A M
;
_chemical_formula_sum "Si O2"
_cell_formula_units_Z 48
_cell_length_a 9.267407
_cell_length_b 28.681823
_cell_length_c 8.826216
_cell_angle_alpha 90.000000
_cell_angle_beta 90.000000
_cell_angle_gamma 90.000000
_cell_volume 2346.062293
_symmetry_space_group_name_H-M "P B A M"
_symmetry_group_IT_number 55
_symmetry_cell_setting 'orthorhombic'
loop_
_space_group_symop_operation_xyz
x,y,z
-x,-y,z
1/2+x,1/2-y,-z
1/2-x,1/2+y,-z
-x,-y,-z
x,y,-z
1/2-x,1/2+y,z
1/2+x,1/2-y,z
loop_
_atom_site_type_symbol
_atom_site_label
_atom_site_fract_x
_atom_site_fract_y
_atom_site_fract_z
Si Si1 0.988618 0.367068 0.325203
Si Si2 0.295058 0.220645 0.679740
Si Si3 0.893185 0.461206 0.177262
Si Si4 0.315566 0.379149 0.322650
Si Si5 0.484562 0.299587 0.820243
Si Si6 0.337717 0.484693 0.667962
O O1 0.965742 0.378614 0.500000
O O2 0.899231 0.321896 0.276054
O O3 0.926609 0.410192 0.234808
O O4 0.156808 0.358316 0.289152
O O5 0.288233 0.229183 0.500000
O O6 0.359489 0.265781 0.760376
O O7 0.135303 0.211811 0.740653
O O8 0.734217 0.477096 0.224046
O O9 0.000000 0.500000 0.248205
O O10 0.908616 0.459589 0.000000
O O11 0.355748 0.375572 0.500000
O O12 0.434692 0.351461 0.226086
O O13 0.319954 0.432584 0.266099
O O14 0.502020 0.295586 0.000000
O O15 0.500000 0.500000 0.658663
O O16 0.267631 0.486149 0.500000
#
# Coordination Sequence:
#
# PCOD8227276 Si02
#       6
#     8   8   8   8   8   8
#     4  10  22  40  66  92 118 161 214 262 306 363
#     4  11  24  44  69  95 124 164 213 259 308 377
#     4  11  23  38  59  90 127 166 205 253 316 377
#     4  10  21  40  64  91 125 167 214 263 312 371
#     4  12  26  43  66  97 132 165 202 257 323 380
#     4  10  22  39  62  90 122 165 217 265 308 364
#
# _framework density 20.459814999999999
#
# number of rings (size 3 to 8) (size 9 to 14) (size 15 to 20)
#    0.000    1.333    1.667    3.500    2.333    5.000 
#    0.000    0.000    0.000    0.000    0.000    0.000 
#    0.000    0.000    0.000    0.000    0.000    0.000 
#
# Total GULP energy -595397.047430 kJ/mol
# GULP energy per Si atom -12404.105155 kJ/mol
# Density = 2.041325 g / cm^3
# Si number density = 20.459815 Si / 1000 Ang^3
#
#
#
# Elastic Constant Matrix: (Units=GPa)
#
#
# Indices 1 2 3 4 5 6 
#
# 1 88.6403 17.3349 19.1263 0.0000 0.0000 0.0000
# 2 17.3349 68.3154 38.2846 0.0000 0.0000 0.0000
# 3 19.1263 38.2846 55.8064 0.0000 0.0000 0.0000
# 4 0.0000 0.0000 0.0000 58.6256 0.0000 0.0000
# 5 0.0000 0.0000 0.0000 0.0000 5.9056 0.0000
# 6 0.0000 0.0000 0.0000 0.0000 0.0000 40.4897
#
#
#
# Elastic Compliance Matrix: (Units=1/GPa)
#
#
# Indices 1 2 3 4 5 6 
#
# 1 0.012245 -0.001227 -0.003355 0.000000 0.000000 0.000000
# 2 -0.001227 0.023903 -0.015978 0.000000 0.000000 0.000000
# 3 -0.003355 -0.015978 0.030030 0.000000 0.000000 0.000000
# 4 0.000000 0.000000 0.000000 0.017057 0.000000 0.000000
# 5 0.000000 0.000000 0.000000 0.000000 0.169330 0.000000
# 6 0.000000 0.000000 0.000000 0.000000 0.000000 0.024698
#
#
# Mechanical properties :
#
#
# Convention : Reuss Voigt Hill
#
# Bulk Modulus (GPa) = 39.90549 40.25039 40.07794
# Shear Modulus (GPa) = 15.30284 30.20527 22.75405
#
# Velocity S-wave (km/s) = 2.73783 3.84646 3.33849
# Velocity P-wave (km/s) = 5.43516 6.28034 5.87297
#
# Compressibility (1/GPa) = 0.02505921
#
# Stress axis : x y z
#
# Youngs Moduli (GPa) = 81.66299 41.83489 33.29991
#
# Poissons Ratio (x) = 0.05133 0.11172
# Poissons Ratio (y) = 0.10021 0.53206
# Poissons Ratio (z) = 0.27398 0.66843
#
# Static dielectric constant tensor:
#      x y z
#    x 3.921260 0.000000 0.000000 
#    y 0.000000 4.072930 0.000000 
#    z 0.000000 0.000000 3.655100 
# 
# 
# High freq. dielectric constant tensor:
#      x y z
#    x 1.809930 0.000000 0.000000 
#    y 0.000000 1.813030 0.000000 
#    z 0.000000 0.000000 1.792550 
# 
# From -- ./inp_files/2898.got.cif
#   From: 2010.03.12/outbox.cif.g09.slc.cpg/sg55_2_cif.got.tgz:2898.got - 2010.04.16 15:19:21.
