data_PCOD8227172
_publ_section_title
;
Structure prediction by ZEFSAII (Michael W. Deem and Ramdas Pophale) SiO2 
 PCOD8227172
Probable space group: P B A M
;
_chemical_formula_sum "Si O2"
_cell_formula_units_Z 64
_cell_length_a 28.431387
_cell_length_b 12.404325
_cell_length_c 9.013186
_cell_angle_alpha 90.000000
_cell_angle_beta 90.000000
_cell_angle_gamma 90.000000
_cell_volume 3178.699816
_symmetry_space_group_name_H-M "P B A M"
_symmetry_group_IT_number 55
_symmetry_cell_setting 'orthorhombic'
loop_
_space_group_symop_operation_xyz
x,y,z
-x,-y,z
1/2+x,1/2-y,-z
1/2-x,1/2+y,-z
-x,-y,-z
x,y,-z
1/2-x,1/2+y,z
1/2+x,1/2-y,z
loop_
_atom_site_type_symbol
_atom_site_label
_atom_site_fract_x
_atom_site_fract_y
_atom_site_fract_z
Si Si1 0.432449 0.240931 0.828570
Si Si2 0.161905 0.724347 0.672713
Si Si3 0.706460 0.568408 0.174769
Si Si4 0.879571 0.664991 0.328411
Si Si5 0.201593 0.496316 0.669134
Si Si6 0.050886 0.986883 0.828395
Si Si7 0.985310 0.619988 0.674709
Si Si8 0.137169 0.118809 0.175831
O O1 0.388096 0.191046 0.743396
O O2 0.428448 0.368609 0.807688
O O3 0.481429 0.202744 0.759935
O O4 0.430523 0.206967 0.000000
O O5 0.153970 0.747796 0.500000
O O6 0.184473 0.827610 0.748660
O O7 0.196613 0.623623 0.698008
O O8 0.760328 0.554621 0.221371
O O9 0.679063 0.460705 0.225045
O O10 0.702686 0.587191 0.000000
O O11 0.881034 0.695693 0.500000
O O12 0.848466 0.559418 0.298656
O O13 0.932132 0.640861 0.270371
O O14 0.855127 0.763933 0.243825
O O15 0.217467 0.474129 0.500000
O O16 0.088220 0.070512 0.759565
O O17 0.044937 0.016262 0.000000
O O18 0.000000 0.000000 0.749158
O O19 0.990927 0.638332 0.500000
O O20 0.000000 0.500000 0.720189
O O21 0.135863 0.128457 0.000000
#
# Coordination Sequence:
#
# PCOD8227172 Si02
#       8
#     8   8   8   8   8   8   8   8
#     4  11  21  36  60  90 123 160 205 257 310 368
#     4  11  23  42  67  92 124 164 209 258 313 378
#     4  11  24  42  64  92 124 159 202 260 323 375
#     4  10  22  40  62  90 124 162 208 257 305 364
#     4  10  24  44  65  90 121 163 210 257 312 374
#     4   9  17  32  54  80 114 156 194 236 295 359
#     4  10  21  39  61  86 123 168 210 255 311 370
#     4  10  21  39  59  85 123 161 198 246 312 375
#
# _framework density 20.134018999999999
#
# number of rings (size 3 to 8) (size 9 to 14) (size 15 to 20)
#    0.000    1.750    1.250    2.625    1.750    6.250 
#    0.000    1.250    0.000    2.625    0.000    0.000 
#    0.000    0.000    0.000    0.000    0.000    0.000 
#
# Total GULP energy -793813.987665 kJ/mol
# GULP energy per Si atom -12403.343557 kJ/mol
# Density = 2.008819 g / cm^3
# Si number density = 20.134019 Si / 1000 Ang^3
#
#
#
# Elastic Constant Matrix: (Units=GPa)
#
#
# Indices 1 2 3 4 5 6 
#
# 1 120.8423 35.6261 42.4614 0.0000 0.0000 0.0000
# 2 35.6261 101.4957 41.9515 0.0000 0.0000 0.0000
# 3 42.4614 41.9515 69.0871 0.0000 0.0000 0.0000
# 4 0.0000 0.0000 0.0000 24.3303 0.0000 0.0000
# 5 0.0000 0.0000 0.0000 0.0000 29.7523 0.0000
# 6 0.0000 0.0000 0.0000 0.0000 0.0000 31.5821
#
#
#
# Elastic Compliance Matrix: (Units=1/GPa)
#
#
# Indices 1 2 3 4 5 6 
#
# 1 0.010699 -0.001385 -0.005734 0.000000 0.000000 0.000000
# 2 -0.001385 0.013333 -0.007245 0.000000 0.000000 0.000000
# 3 -0.005734 -0.007245 0.022398 0.000000 0.000000 0.000000
# 4 0.000000 0.000000 0.000000 0.041101 0.000000 0.000000
# 5 0.000000 0.000000 0.000000 0.000000 0.033611 0.000000
# 6 0.000000 0.000000 0.000000 0.000000 0.000000 0.031664
#
#
# Mechanical properties :
#
#
# Convention : Reuss Voigt Hill
#
# Bulk Modulus (GPa) = 56.49351 59.05588 57.77469
# Shear Modulus (GPa) = 26.67591 28.55868 27.61729
#
# Velocity S-wave (km/s) = 3.64389 3.77029 3.70763
# Velocity P-wave (km/s) = 6.76931 6.95331 6.86193
#
# Compressibility (1/GPa) = 0.01770115
#
# Stress axis : x y z
#
# Youngs Moduli (GPa) = 93.47101 74.99924 44.64638
#
# Poissons Ratio (x) = 0.10388 0.25602
# Poissons Ratio (y) = 0.12947 0.32347
# Poissons Ratio (z) = 0.53599 0.54338
#
# Static dielectric constant tensor:
#      x y z
#    x 3.838960 0.000000 0.000000 
#    y 0.000000 3.634050 0.000000 
#    z 0.000000 0.000000 3.478620 
# 
# 
# High freq. dielectric constant tensor:
#      x y z
#    x 1.798960 0.000000 0.000000 
#    y 0.000000 1.793360 0.000000 
#    z 0.000000 0.000000 1.769280 
# 
# From -- ./inp_files/10737.got.cif
#   From: 2010.03.12/outbox.cif.g09.slc.cpg/sg55_6_cif.got.tgz:10737.got - 2010.04.16 15:19:21.
