data_PCOD8227117
_publ_section_title
;
Structure prediction by ZEFSAII (Michael W. Deem and Ramdas Pophale) SiO2 
 PCOD8227117
Probable space group: P B A M
;
_chemical_formula_sum "Si O2"
_cell_formula_units_Z 56
_cell_length_a 15.032421
_cell_length_b 21.349336
_cell_length_c 8.741345
_cell_angle_alpha 90.000000
_cell_angle_beta 90.000000
_cell_angle_gamma 90.000000
_cell_volume 2805.379141
_symmetry_space_group_name_H-M "P B A M"
_symmetry_group_IT_number 55
_symmetry_cell_setting 'orthorhombic'
loop_
_space_group_symop_operation_xyz
x,y,z
-x,-y,z
1/2+x,1/2-y,-z
1/2-x,1/2+y,-z
-x,-y,-z
x,y,-z
1/2-x,1/2+y,z
1/2+x,1/2-y,z
loop_
_atom_site_type_symbol
_atom_site_label
_atom_site_fract_x
_atom_site_fract_y
_atom_site_fract_z
Si Si1 0.788667 0.605265 0.817867
Si Si2 0.963383 0.902777 0.180432
Si Si3 0.633907 0.522064 0.179860
Si Si4 0.906625 0.778932 0.677239
Si Si5 0.729868 0.741220 0.179599
Si Si6 0.563472 0.812694 0.320750
Si Si7 0.983268 0.570941 0.181691
O O1 0.726772 0.548645 0.754582
O O2 0.746137 0.670484 0.759100
O O3 0.887436 0.593401 0.753783
O O4 0.792932 0.605926 0.000000
O O5 0.958264 0.841981 0.283747
O O6 0.052323 0.936383 0.239649
O O7 0.880181 0.948919 0.219629
O O8 0.966064 0.886212 0.000000
O O9 0.633414 0.530364 0.000000
O O10 0.880092 0.776813 0.500000
O O11 0.818541 0.779359 0.780128
O O12 0.971298 0.721805 0.721209
O O13 0.645255 0.772769 0.257057
O O14 0.713150 0.742397 0.000000
O O15 0.577381 0.819038 0.500000
O O16 0.558471 0.882290 0.248224
O O17 0.000000 0.500000 0.238601
O O18 0.988458 0.574230 0.000000
#
# Coordination Sequence:
#
# PCOD8227117 Si02
#       7
#     8   8   8   8   8   8   8
#     4   9  17  32  55  84 114 147 194 248 298 350
#     4   9  17  31  54  82 113 150 193 240 292 348
#     4   8  15  29  51  81 114 147 188 243 297 342
#     4  11  23  38  56  82 120 158 191 237 296 358
#     4  11  22  37  63  89 112 150 202 255 299 353
#     4  11  24  41  60  85 123 162 198 249 308 370
#     4  10  21  38  61  88 119 156 204 256 300 355
#
# _framework density 19.961651
#
# number of rings (size 3 to 8) (size 9 to 14) (size 15 to 20)
#    0.000    2.143    1.429    3.000    0.000    4.286 
#    0.000    4.286    0.000    2.571    0.000    0.000 
#    0.000    0.000    0.000    0.000    0.000    0.000 
#
# Total GULP energy -694262.265291 kJ/mol
# GULP energy per Si atom -12397.540452 kJ/mol
# Density = 1.991622 g / cm^3
# Si number density = 19.961651 Si / 1000 Ang^3
#
#
#
# Elastic Constant Matrix: (Units=GPa)
#
#
# Indices 1 2 3 4 5 6 
#
# 1 103.7163 46.1480 32.8908 0.0000 0.0000 0.0000
# 2 46.1480 135.5909 38.5560 0.0000 0.0000 0.0000
# 3 32.8908 38.5560 38.4689 0.0000 0.0000 0.0000
# 4 0.0000 0.0000 0.0000 19.4422 0.0000 0.0000
# 5 0.0000 0.0000 0.0000 0.0000 20.3033 0.0000
# 6 0.0000 0.0000 0.0000 0.0000 0.0000 35.8711
#
#
#
# Elastic Compliance Matrix: (Units=1/GPa)
#
#
# Indices 1 2 3 4 5 6 
#
# 1 0.013550 -0.001842 -0.009738 0.000000 0.000000 0.000000
# 2 -0.001842 0.010565 -0.009014 0.000000 0.000000 0.000000
# 3 -0.009738 -0.009014 0.043356 0.000000 0.000000 0.000000
# 4 0.000000 0.000000 0.000000 0.051434 0.000000 0.000000
# 5 0.000000 0.000000 0.000000 0.000000 0.049253 0.000000
# 6 0.000000 0.000000 0.000000 0.000000 0.000000 0.027878
#
#
# Mechanical properties :
#
#
# Convention : Reuss Voigt Hill
#
# Bulk Modulus (GPa) = 38.05001 56.99619 47.52310
# Shear Modulus (GPa) = 20.32636 25.80209 23.06423
#
# Velocity S-wave (km/s) = 3.19450 3.59915 3.40284
# Velocity P-wave (km/s) = 5.71921 6.77397 6.26881
#
# Compressibility (1/GPa) = 0.02628120
#
# Stress axis : x y z
#
# Youngs Moduli (GPa) = 73.80221 94.64866 23.06498
#
# Poissons Ratio (x) = 0.17439 0.22462
# Poissons Ratio (y) = 0.13598 0.20791
# Poissons Ratio (z) = 0.71871 0.85317
#
# Static dielectric constant tensor:
#      x y z
#    x 3.870540 0.000000 0.000000 
#    y 0.000000 3.809150 0.000000 
#    z 0.000000 0.000000 3.230420 
# 
# 
# High freq. dielectric constant tensor:
#      x y z
#    x 1.781520 0.000000 0.000000 
#    y 0.000000 1.789200 0.000000 
#    z 0.000000 0.000000 1.743030 
# 
# From -- ./inp_files/5977.got.cif
#   From: 2010.03.12/outbox.cif.g09.slc.cpg/sg55_3_cif.got.tgz:5977.got - 2010.04.16 15:19:21.
