data_PCOD8227599
_publ_section_title
;
Structure prediction by ZEFSAII (Michael W. Deem and Ramdas Pophale) SiO2 
 PCOD8227599
Probable space group: P B A M
;
_chemical_formula_sum "Si O2"
_cell_formula_units_Z 40
_cell_length_a 12.669991
_cell_length_b 17.126722
_cell_length_c 8.228175
_cell_angle_alpha 90.000000
_cell_angle_beta 90.000000
_cell_angle_gamma 90.000000
_cell_volume 1785.476237
_symmetry_space_group_name_H-M "P B A M"
_symmetry_group_IT_number 55
_symmetry_cell_setting 'orthorhombic'
loop_
_space_group_symop_operation_xyz
x,y,z
-x,-y,z
1/2+x,1/2-y,-z
1/2-x,1/2+y,-z
-x,-y,-z
x,y,-z
1/2-x,1/2+y,z
1/2+x,1/2-y,z
loop_
_atom_site_type_symbol
_atom_site_label
_atom_site_fract_x
_atom_site_fract_y
_atom_site_fract_z
Si Si1 0.704719 0.843663 0.814403
Si Si2 0.216408 0.316297 0.685401
Si Si3 0.590843 0.600419 0.185040
Si Si4 0.991420 0.590617 0.692717
Si Si5 0.885051 0.936286 0.684877
O O1 0.755599 0.758416 0.794103
O O2 0.582918 0.853487 0.763791
O O3 0.769057 0.901576 0.699034
O O4 0.717992 0.868641 0.000000
O O5 0.195957 0.290070 0.500000
O O6 0.320117 0.368477 0.694873
O O7 0.117516 0.367925 0.750688
O O8 0.475890 0.625328 0.257229
O O9 0.602758 0.507538 0.191652
O O10 0.604010 0.630810 0.000000
O O11 0.998771 0.590307 0.500000
O O12 0.000000 0.500000 0.756048
O O13 0.904219 0.962689 0.500000
#
# Coordination Sequence:
#
# PCOD8227599 Si02
#       5
#     8   8   8   8   8
#     4  12  26  42  64  95 134 173 218 276 332 387
#     4  11  24  42  66  95 132 175 219 268 329 399
#     4  11  22  39  64  96 130 164 210 267 326 385
#     4  10  23  45  72  99 130 173 226 277 333 406
#     4  11  22  40  65  92 126 170 217 261 318 392
#
# _framework density 22.402985999999999
#
# number of rings (size 3 to 8) (size 9 to 14) (size 15 to 20)
#    0.000    1.000    0.000    8.400    2.800    3.600 
#    0.000    0.000    0.000    0.000    0.000    0.000 
#    0.000    0.000    0.000    0.000    0.000    0.000 
#
# Total GULP energy -495862.481498 kJ/mol
# GULP energy per Si atom -12396.562037 kJ/mol
# Density = 2.235200 g / cm^3
# Si number density = 22.402986 Si / 1000 Ang^3
#
#
#
# Elastic Constant Matrix: (Units=GPa)
#
#
# Indices 1 2 3 4 5 6 
#
# 1 77.2370 3.6057 20.2057 0.0000 0.0000 0.0000
# 2 3.6057 63.3757 11.3043 0.0000 0.0000 0.0000
# 3 20.2057 11.3043 83.6786 0.0000 0.0000 0.0000
# 4 0.0000 0.0000 0.0000 -32.8845 0.0000 0.0000
# 5 0.0000 0.0000 0.0000 0.0000 20.4378 0.0000
# 6 0.0000 0.0000 0.0000 0.0000 0.0000 41.3556
#
#
#
# Elastic Compliance Matrix: (Units=1/GPa)
#
#
# Indices 1 2 3 4 5 6 
#
# 1 0.013823 -0.000196 -0.003311 0.000000 0.000000 0.000000
# 2 -0.000196 0.016171 -0.002137 0.000000 0.000000 0.000000
# 3 -0.003311 -0.002137 0.013039 0.000000 0.000000 0.000000
# 4 0.000000 0.000000 0.000000 -0.030409 0.000000 0.000000
# 5 0.000000 0.000000 0.000000 0.000000 0.048929 0.000000
# 6 0.000000 0.000000 0.000000 0.000000 0.000000 0.024181
#
#
# Mechanical properties :
#
#
# Convention : Reuss Voigt Hill
#
# Bulk Modulus (GPa) = 31.50213 32.72473 32.11343
# Shear Modulus (GPa) = 46.46726 18.39349 32.43038
#
# Velocity S-wave (km/s) = 4.55923 2.86847 3.80885
# Velocity P-wave (km/s) = 6.46588 5.06062 5.80592
#
# Compressibility (1/GPa) = 0.03174388
#
# Stress axis : x y z
#
# Youngs Moduli (GPa) = 72.34558 61.83796 76.69425
#
# Poissons Ratio (x) = 0.01211 0.25395
# Poissons Ratio (y) = 0.01416 0.16392
# Poissons Ratio (z) = 0.23955 0.13217
#
# Static dielectric constant tensor:
#      x y z
#    x 4.651790 0.000000 0.000000 
#    y 0.000000 4.261350 0.000000 
#    z 0.000000 0.000000 3.708750 
# 
# 
# High freq. dielectric constant tensor:
#      x y z
#    x 1.903950 0.000000 0.000000 
#    y 0.000000 1.868880 0.000000 
#    z 0.000000 0.000000 1.878440 
# 
# From -- ./inp_files/3645.got.cif
#   From: 2010.03.12/outbox.cif.g09.slc.cpg/sg55_2_cif.got.tgz:3645.got - 2010.04.16 15:19:21.
