data_PCOD8227513
_publ_section_title
;
Structure prediction by ZEFSAII (Michael W. Deem and Ramdas Pophale) SiO2 
 PCOD8227513
Probable space group: P B A M
;
_chemical_formula_sum "Si O2"
_cell_formula_units_Z 48
_cell_length_a 13.720705
_cell_length_b 9.767224
_cell_length_c 16.865256
_cell_angle_alpha 90.000000
_cell_angle_beta 90.000000
_cell_angle_gamma 90.000000
_cell_volume 2260.166911
_symmetry_space_group_name_H-M "P B A M"
_symmetry_group_IT_number 55
_symmetry_cell_setting 'orthorhombic'
loop_
_space_group_symop_operation_xyz
x,y,z
-x,-y,z
1/2+x,1/2-y,-z
1/2-x,1/2+y,-z
-x,-y,-z
x,y,-z
1/2-x,1/2+y,z
1/2+x,1/2-y,z
loop_
_atom_site_type_symbol
_atom_site_label
_atom_site_fract_x
_atom_site_fract_y
_atom_site_fract_z
Si Si1 0.540100 0.147140 0.407935
Si Si2 0.771181 0.619157 0.689927
Si Si3 0.804877 0.359410 0.206842
Si Si4 0.085458 0.902382 0.407206
Si Si5 0.639383 0.414001 0.089446
Si Si6 0.931908 0.211110 0.909471
O O1 0.568556 0.158042 0.500000
O O2 0.638092 0.179045 0.359375
O O3 0.451584 0.249333 0.387168
O O4 0.500000 0.000000 0.384041
O O5 0.714079 0.743480 0.729227
O O6 0.811783 0.507087 0.751727
O O7 0.687679 0.555862 0.633133
O O8 0.717137 0.348803 0.146146
O O9 0.901749 0.326943 0.154624
O O10 0.102157 0.924614 0.500000
O O11 0.000000 0.000000 0.374928
O O12 0.540199 0.336640 0.110157
O O13 0.635171 0.577168 0.101805
O O14 0.670358 0.381204 0.000000
O O15 0.923819 0.266692 0.000000
#
# Coordination Sequence:
#
# PCOD8227513 Si02
#       6
#     8   8   8   8   8   8
#     4  10  22  42  64  86 118 162 208 254 303 358
#     4  12  25  38  60  93 130 161 199 255 318 375
#     4  12  23  38  58  93 129 157 195 248 318 371
#     4  10  22  42  66  89 117 163 215 254 297 366
#     4   9  19  39  64  86 115 161 210 251 295 360
#     4   9  19  39  64  86 114 161 212 250 295 361
#
# _framework density 21.237369999999999
#
# number of rings (size 3 to 8) (size 9 to 14) (size 15 to 20)
#    0.000    1.667    1.667    4.000    0.000    4.000 
#    0.000    6.667    0.000    2.000    0.000    0.000 
#    0.000    0.000    0.000    0.000    0.000    0.000 
#
# Total GULP energy -595207.319834 kJ/mol
# GULP energy per Si atom -12400.152497 kJ/mol
# Density = 2.118903 g / cm^3
# Si number density = 21.237370 Si / 1000 Ang^3
#
#
#
# Elastic Constant Matrix: (Units=GPa)
#
#
# Indices 1 2 3 4 5 6 
#
# 1 71.0131 -1.7304 39.6399 0.0000 0.0000 0.0000
# 2 -1.7304 56.6195 6.6323 0.0000 0.0000 0.0000
# 3 39.6399 6.6323 68.6041 0.0000 0.0000 0.0000
# 4 0.0000 0.0000 0.0000 28.1749 0.0000 0.0000
# 5 0.0000 0.0000 0.0000 0.0000 57.6280 0.0000
# 6 0.0000 0.0000 0.0000 0.0000 0.0000 28.2532
#
#
#
# Elastic Compliance Matrix: (Units=1/GPa)
#
#
# Indices 1 2 3 4 5 6 
#
# 1 0.021028 0.002090 -0.012352 0.000000 0.000000 0.000000
# 2 0.002090 0.018072 -0.002954 0.000000 0.000000 0.000000
# 3 -0.012352 -0.002954 0.021999 0.000000 0.000000 0.000000
# 4 0.000000 0.000000 0.000000 0.035493 0.000000 0.000000
# 5 0.000000 0.000000 0.000000 0.000000 0.017353 0.000000
# 6 0.000000 0.000000 0.000000 0.000000 0.000000 0.035394
#
#
# Mechanical properties :
#
#
# Convention : Reuss Voigt Hill
#
# Bulk Modulus (GPa) = 28.84773 31.70226 30.27500
# Shear Modulus (GPa) = 26.69134 32.92423 29.80779
#
# Velocity S-wave (km/s) = 3.54900 3.94165 3.75047
# Velocity P-wave (km/s) = 5.51424 5.97290 5.74814
#
# Compressibility (1/GPa) = 0.03466477
#
# Stress axis : x y z
#
# Youngs Moduli (GPa) = 47.55615 55.33510 45.45648
#
# Poissons Ratio (x) = -0.11563 0.56148
# Poissons Ratio (y) = -0.09937 0.13430
# Poissons Ratio (z) = 0.58741 0.16348
#
# Static dielectric constant tensor:
#      x y z
#    x 3.781050 0.000000 0.000000 
#    y 0.000000 3.781450 0.000000 
#    z 0.000000 0.000000 3.921130 
# 
# 
# High freq. dielectric constant tensor:
#      x y z
#    x 1.832020 0.000000 0.000000 
#    y 0.000000 1.824740 0.000000 
#    z 0.000000 0.000000 1.841200 
# 
# From -- ./inp_files/21509.got.cif
#   From: 2010.03.12/outbox.cif.g09.slc.cpg/sg55_11_cif.got.tgz:21509.got - 2010.04.16 15:19:21.
