data_PCOD8227341
_publ_section_title
;
Structure prediction by ZEFSAII (Michael W. Deem and Ramdas Pophale) SiO2 
 PCOD8227341
Probable space group: P B A M
;
_chemical_formula_sum "Si O2"
_cell_formula_units_Z 64
_cell_length_a 14.353038
_cell_length_b 30.373304
_cell_length_c 8.810966
_cell_angle_alpha 90.000000
_cell_angle_beta 90.000000
_cell_angle_gamma 90.000000
_cell_volume 3841.133460
_symmetry_space_group_name_H-M "P B A M"
_symmetry_group_IT_number 55
_symmetry_cell_setting 'orthorhombic'
loop_
_space_group_symop_operation_xyz
x,y,z
-x,-y,z
1/2+x,1/2-y,-z
1/2-x,1/2+y,-z
-x,-y,-z
x,y,-z
1/2-x,1/2+y,z
1/2+x,1/2-y,z
loop_
_atom_site_type_symbol
_atom_site_label
_atom_site_fract_x
_atom_site_fract_y
_atom_site_fract_z
Si Si1 0.107791 0.049227 0.321180
Si Si2 0.643823 0.366022 0.823894
Si Si3 0.201570 0.867294 0.671893
Si Si4 0.974224 0.273358 0.177215
Si Si5 0.655492 0.201318 0.319593
Si Si6 0.895578 0.048348 0.320319
Si Si7 0.236124 0.717548 0.822735
Si Si8 0.986318 0.183643 0.671412
O O1 0.115650 0.057648 0.500000
O O2 0.171708 0.084729 0.231292
O O3 0.001308 0.053261 0.261742
O O4 0.144376 0.000036 0.280201
O O5 0.725623 0.331336 0.789466
O O6 0.553612 0.355327 0.722921
O O7 0.617704 0.365916 0.000000
O O8 0.227879 0.878671 0.500000
O O9 0.289297 0.841637 0.746241
O O10 0.171318 0.913510 0.752201
O O11 0.118545 0.832477 0.680276
O O12 0.870129 0.282735 0.237823
O O13 0.001719 0.223241 0.211996
O O14 0.049282 0.303901 0.263107
O O15 0.982872 0.282647 0.000000
O O16 0.659965 0.202115 0.500000
O O17 0.701750 0.246557 0.262304
O O18 0.900133 0.055173 0.500000
O O19 0.238845 0.729391 0.000000
O O20 0.010837 0.198789 0.500000
#
# Coordination Sequence:
#
# PCOD8227341 Si02
#       8
#     8   8   8   8   8   8   8   8
#     4   9  16  28  49  71  93 126 161 195 234 290
#     4  11  21  32  46  69  99 131 162 199 242 284
#     4   9  17  29  47  72  98 125 160 198 237 282
#     4  11  22  36  49  66  97 132 166 203 244 287
#     4  11  21  32  50  74  97 125 163 205 243 282
#     4   8  14  27  47  70  96 125 158 193 237 289
#     4  10  22  36  49  66  94 133 168 197 239 290
#     4  11  19  30  49  71  96 128 166 199 234 281
#
# _framework density 16.661750000000001
#
# number of rings (size 3 to 8) (size 9 to 14) (size 15 to 20)
#    0.000    2.000    3.750    2.250    0.000    1.000 
#    0.000    1.250    0.000    0.000    0.000    0.875 
#    0.000    7.000    0.000    0.000    0.000    0.000 
#
# Total GULP energy -793250.355665 kJ/mol
# GULP energy per Si atom -12394.536807 kJ/mol
# Density = 1.662383 g / cm^3
# Si number density = 16.661750 Si / 1000 Ang^3
#
#
#
# Elastic Constant Matrix: (Units=GPa)
#
#
# Indices 1 2 3 4 5 6 
#
# 1 73.2998 28.5362 26.5359 0.0000 0.0000 0.0000
# 2 28.5362 103.2987 22.7542 0.0000 0.0000 0.0000
# 3 26.5359 22.7542 42.0663 0.0000 0.0000 0.0000
# 4 0.0000 0.0000 0.0000 16.4960 0.0000 0.0000
# 5 0.0000 0.0000 0.0000 0.0000 20.0289 0.0000
# 6 0.0000 0.0000 0.0000 0.0000 0.0000 23.7299
#
#
#
# Elastic Compliance Matrix: (Units=1/GPa)
#
#
# Indices 1 2 3 4 5 6 
#
# 1 0.018399 -0.002868 -0.010055 0.000000 0.000000 0.000000
# 2 -0.002868 0.011437 -0.004377 0.000000 0.000000 0.000000
# 3 -0.010055 -0.004377 0.032483 0.000000 0.000000 0.000000
# 4 0.000000 0.000000 0.000000 0.060621 0.000000 0.000000
# 5 0.000000 0.000000 0.000000 0.000000 0.049928 0.000000
# 6 0.000000 0.000000 0.000000 0.000000 0.000000 0.042141
#
#
# Mechanical properties :
#
#
# Convention : Reuss Voigt Hill
#
# Bulk Modulus (GPa) = 36.07739 41.59082 38.83411
# Shear Modulus (GPa) = 19.31629 21.44020 20.37825
#
# Velocity S-wave (km/s) = 3.40857 3.59108 3.50102
# Velocity P-wave (km/s) = 6.09844 6.49696 6.30085
#
# Compressibility (1/GPa) = 0.02771819
#
# Stress axis : x y z
#
# Youngs Moduli (GPa) = 54.35002 87.43428 30.78557
#
# Poissons Ratio (x) = 0.25075 0.30955
# Poissons Ratio (y) = 0.15587 0.13476
# Poissons Ratio (z) = 0.54650 0.38274
#
# Static dielectric constant tensor:
#      x y z
#    x 3.143410 0.000000 0.000000 
#    y 0.000000 3.326780 0.000000 
#    z 0.000000 0.000000 2.946310 
# 
# 
# High freq. dielectric constant tensor:
#      x y z
#    x 1.614540 0.000000 0.000000 
#    y 0.000000 1.639550 0.000000 
#    z 0.000000 0.000000 1.625150 
# 
# From -- ./inp_files/6947.got.cif
#   From: 2010.03.12/outbox.cif.g09.slc.cpg/sg55_4_cif.got.tgz:6947.got - 2010.04.16 15:19:21.
