data_PCOD8227540
_publ_section_title
;
Structure prediction by ZEFSAII (Michael W. Deem and Ramdas Pophale) SiO2 
 PCOD8227540
Probable space group: P B A M
;
_chemical_formula_sum "Si O2"
_cell_formula_units_Z 52
_cell_length_a 14.228521
_cell_length_b 8.582515
_cell_length_c 19.651580
_cell_angle_alpha 90.000000
_cell_angle_beta 90.000000
_cell_angle_gamma 90.000000
_cell_volume 2399.782069
_symmetry_space_group_name_H-M "P B A M"
_symmetry_group_IT_number 55
_symmetry_cell_setting 'orthorhombic'
loop_
_space_group_symop_operation_xyz
x,y,z
-x,-y,z
1/2+x,1/2-y,-z
1/2-x,1/2+y,-z
-x,-y,-z
x,y,-z
1/2-x,1/2+y,z
1/2+x,1/2-y,z
loop_
_atom_site_type_symbol
_atom_site_label
_atom_site_fract_x
_atom_site_fract_y
_atom_site_fract_z
Si Si1 0.526378 0.674269 0.169891
Si Si2 0.386809 0.682916 0.500000
Si Si3 0.796461 0.462366 0.294966
Si Si4 0.725737 0.566749 0.849042
Si Si5 0.000000 0.500000 0.248351
Si Si6 0.097731 0.815136 0.500000
Si Si7 0.360619 0.713270 0.921232
Si Si8 0.256257 0.286848 0.389357
O O1 0.500000 0.500000 0.202845
O O2 0.637844 0.685969 0.156779
O O3 0.498859 0.832386 0.209583
O O4 0.468777 0.683321 0.099213
O O5 0.492513 0.751650 0.500000
O O6 0.394605 0.499344 0.500000
O O7 0.335569 0.739244 0.568163
O O8 0.744035 0.494028 0.224610
O O9 0.906684 0.501153 0.293442
O O10 0.755828 0.536341 0.365124
O O11 0.770977 0.285470 0.313616
O O12 0.700749 0.437831 0.904797
O O13 0.819705 0.646800 0.875954
O O14 0.150510 0.754249 0.567030
O O15 0.354349 0.755572 0.000000
#
# Coordination Sequence:
#
# PCOD8227540 Si02
#       8
#     8   4   8   8   4   4   8   8
#     4  10  24  43  67  95 133 181 221 282 344 405
#     4  10  22  45  66  93 134 175 219 272 322 393
#     4  12  25  42  68 100 135 172 225 279 338 406
#     4  11  23  44  66  96 137 175 220 286 343 403
#     4  12  24  44  67  99 140 174 226 284 346 404
#     4  10  22  45  68  93 134 175 221 266 326 397
#     4  11  23  42  67  97 131 178 231 280 343 410
#     4  11  24  43  66 102 130 174 218 277 328 400
#
# _framework density 21.668634000000001
#
# number of rings (size 3 to 8) (size 9 to 14) (size 15 to 20)
#    0.000    1.077    3.077    3.231    4.308    3.385 
#    0.000    1.154    0.000    0.000    0.000    0.000 
#    0.000    0.000    0.000    0.000    0.000    0.000 
#
# Total GULP energy -644344.690085 kJ/mol
# GULP energy per Si atom -12391.244040 kJ/mol
# Density = 2.161932 g / cm^3
# Si number density = 21.668634 Si / 1000 Ang^3
#
#
#
# Elastic Constant Matrix: (Units=GPa)
#
#
# Indices 1 2 3 4 5 6 
#
# 1 139.8541 8.0435 49.7457 0.0000 0.0000 0.0000
# 2 8.0435 78.5547 28.0858 0.0000 0.0000 0.0000
# 3 49.7457 28.0858 111.4295 0.0000 0.0000 0.0000
# 4 0.0000 0.0000 0.0000 48.1828 0.0000 0.0000
# 5 0.0000 0.0000 0.0000 0.0000 29.0575 0.0000
# 6 0.0000 0.0000 0.0000 0.0000 0.0000 31.3798
#
#
#
# Elastic Compliance Matrix: (Units=1/GPa)
#
#
# Indices 1 2 3 4 5 6 
#
# 1 0.008521 0.000536 -0.003939 0.000000 0.000000 0.000000
# 2 0.000536 0.014024 -0.003774 0.000000 0.000000 0.000000
# 3 -0.003939 -0.003774 0.011684 0.000000 0.000000 0.000000
# 4 0.000000 0.000000 0.000000 0.020754 0.000000 0.000000
# 5 0.000000 0.000000 0.000000 0.000000 0.034415 0.000000
# 6 0.000000 0.000000 0.000000 0.000000 0.000000 0.031868
#
#
# Mechanical properties :
#
#
# Convention : Reuss Voigt Hill
#
# Bulk Modulus (GPa) = 50.31518 55.73203 53.02361
# Shear Modulus (GPa) = 35.15070 37.98824 36.56947
#
# Velocity S-wave (km/s) = 4.03201 4.19160 4.11258
# Velocity P-wave (km/s) = 6.70424 7.01441 6.86108
#
# Compressibility (1/GPa) = 0.01987472
#
# Stress axis : x y z
#
# Youngs Moduli (GPa) = 117.36334 71.30390 85.58720
#
# Poissons Ratio (x) = -0.03821 0.33712
# Poissons Ratio (y) = -0.06289 0.32301
# Poissons Ratio (z) = 0.46228 0.26911
#
# Static dielectric constant tensor:
#      x y z
#    x 4.203770 0.000000 0.000000 
#    y 0.000000 4.134560 0.000000 
#    z 0.000000 0.000000 3.608330 
# 
# 
# High freq. dielectric constant tensor:
#      x y z
#    x 1.861250 0.000000 0.000000 
#    y 0.000000 1.866530 0.000000 
#    z 0.000000 0.000000 1.839080 
# 
# From -- ./inp_files/22947.got.cif
#   From: 2010.03.12/outbox.cif.g09.slc.cpg/sg55_12_cif.got.tgz:22947.got - 2010.04.16 15:19:21.
