data_PCOD8227945
_publ_section_title
;
Structure prediction by ZEFSAII (Michael W. Deem and Ramdas Pophale) SiO2 
 PCOD8227945
Probable space group: P C C N
;
_chemical_formula_sum "Si O2"
_cell_formula_units_Z 48
_cell_length_a 21.693516
_cell_length_b 19.128524
_cell_length_c 5.386793
_cell_angle_alpha 90.000000
_cell_angle_beta 90.000000
_cell_angle_gamma 90.000000
_cell_volume 2235.330242
_symmetry_space_group_name_H-M "P C C N"
_symmetry_group_IT_number 56
_symmetry_cell_setting 'orthorhombic'
loop_
_space_group_symop_operation_xyz
x,y,z
1/2-x,1/2-y,z
1/2+x,-y,1/2-z
-x,1/2+y,1/2-z
-x,-y,-z
1/2+x,1/2+y,-z
1/2-x,y,1/2+z
x,1/2-y,1/2+z
loop_
_atom_site_type_symbol
_atom_site_label
_atom_site_fract_x
_atom_site_fract_y
_atom_site_fract_z
Si Si1 0.418355 0.207199 0.749998
Si Si2 0.875611 0.249032 0.750042
Si Si3 0.213306 0.975609 0.249992
Si Si4 0.966038 0.381067 0.750036
Si Si5 0.286872 0.361581 0.250005
Si Si6 0.917017 0.403218 0.250036
O O1 0.432292 0.249994 0.499986
O O2 0.462453 0.139764 0.750020
O O3 0.348425 0.182703 0.750001
O O4 0.833753 0.250000 0.500042
O O5 0.921813 0.313795 0.750044
O O6 0.918393 0.180885 0.750044
O O7 0.249998 0.955384 0.499997
O O8 0.151908 0.931013 0.249980
O O9 0.196404 0.056953 0.249993
O O10 0.951982 0.427432 0.502411
O O11 0.951987 0.427430 0.997671
O O12 0.250003 0.341532 0.500011
#
# Coordination Sequence:
#
# PCOD8227945 Si02
#       6
#     8   8   8   8   8   8
#     4  12  23  37  61  90 117 148 190 230 281 357
#     4   8  14  25  44  67  98 133 167 205 261 317
#     4  10  21  39  60  80 108 153 202 238 279 335
#     4  10  19  33  53  83 116 147 181 226 286 340
#     4  10  23  42  60  82 116 152 189 241 290 328
#     4  10  18  32  56  80 109 150 189 227 279 339
#
# _framework density 21.473336
#
# number of rings (size 3 to 8) (size 9 to 14) (size 15 to 20)
#    0.000    2.000    0.000    6.000    0.000    2.000 
#    0.000    1.667    0.000   27.000    0.000    0.000 
#    0.000    0.000    0.000    0.000    0.000    0.000 
#
# Total GULP energy -594650.876229 kJ/mol
# GULP energy per Si atom -12388.559921 kJ/mol
# Density = 2.142446 g / cm^3
# Si number density = 21.473336 Si / 1000 Ang^3
#
#
#
# Elastic Constant Matrix: (Units=GPa)
#
#
# Indices 1 2 3 4 5 6 
#
# 1 100.0466 14.2665 59.7485 0.0000 0.0000 0.0000
# 2 14.2665 10.7707 13.3959 0.0000 0.0000 0.0000
# 3 59.7485 13.3959 293.6011 0.0000 0.0000 0.0000
# 4 0.0000 0.0000 0.0000 5.1968 0.0000 0.0000
# 5 0.0000 0.0000 0.0000 0.0000 26.3473 0.0000
# 6 0.0000 0.0000 0.0000 0.0000 0.0000 4.9860
#
#
#
# Elastic Compliance Matrix: (Units=1/GPa)
#
#
# Indices 1 2 3 4 5 6 
#
# 1 0.013373 -0.015190 -0.002028 0.000000 0.000000 0.000000
# 2 -0.015190 0.115686 -0.002187 0.000000 0.000000 0.000000
# 3 -0.002028 -0.002187 0.003919 0.000000 0.000000 0.000000
# 4 0.000000 0.000000 0.000000 0.192426 0.000000 0.000000
# 5 0.000000 0.000000 0.000000 0.000000 0.037955 0.000000
# 6 0.000000 0.000000 0.000000 0.000000 0.000000 0.200560
#
#
# Mechanical properties :
#
#
# Convention : Reuss Voigt Hill
#
# Bulk Modulus (GPa) = 10.61962 64.36000 37.48981
# Shear Modulus (GPa) = 7.88497 28.43987 18.16242
#
# Velocity S-wave (km/s) = 1.91832 3.64322 2.91144
# Velocity P-wave (km/s) = 3.14051 6.90901 5.36644
#
# Compressibility (1/GPa) = 0.09416537
#
# Stress axis : x y z
#
# Youngs Moduli (GPa) = 74.77865 8.64412 255.19763
#
# Poissons Ratio (x) = 0.13131 0.51762
# Poissons Ratio (y) = 1.13592 0.55812
# Poissons Ratio (z) = 0.15167 0.01890
#
# Static dielectric constant tensor:
#      x y z
#    x 3.473730 0.000000 0.000000 
#    y 0.000000 3.568840 0.000000 
#    z 0.000000 0.000000 5.450840 
# 
# 
# High freq. dielectric constant tensor:
#      x y z
#    x 1.812610 0.000000 0.000000 
#    y 0.000000 1.816160 0.000000 
#    z 0.000000 0.000000 1.892310 
# 
# From -- ./inp_files/712.got.cif
#   From: 2010.03.12/outbox.cif.g09.slc.cpg/sg56_1_cif.got.tgz:712.got - 2010.04.16 15:33:40.
