data_PCOD8227509
_publ_section_title
;
Structure prediction by ZEFSAII (Michael W. Deem and Ramdas Pophale) SiO2 
 PCOD8227509
Probable space group: P B A M
;
_chemical_formula_sum "Si O2"
_cell_formula_units_Z 40
_cell_length_a 16.300503
_cell_length_b 14.491015
_cell_length_c 9.138633
_cell_angle_alpha 90.000000
_cell_angle_beta 90.000000
_cell_angle_gamma 90.000000
_cell_volume 2158.644118
_symmetry_space_group_name_H-M "P B A M"
_symmetry_group_IT_number 55
_symmetry_cell_setting 'orthorhombic'
loop_
_space_group_symop_operation_xyz
x,y,z
-x,-y,z
1/2+x,1/2-y,-z
1/2-x,1/2+y,-z
-x,-y,-z
x,y,-z
1/2-x,1/2+y,z
1/2+x,1/2-y,z
loop_
_atom_site_type_symbol
_atom_site_label
_atom_site_fract_x
_atom_site_fract_y
_atom_site_fract_z
Si Si1 0.560383 0.915114 0.668699
Si Si2 0.364007 0.426547 0.169334
Si Si3 0.984877 0.232170 0.830126
Si Si4 0.264567 0.020008 0.664770
Si Si5 0.403163 0.595935 0.665634
O O1 0.566147 0.883445 0.500000
O O2 0.525923 0.832810 0.765107
O O3 0.649934 0.943593 0.729701
O O4 0.500000 0.000000 0.688722
O O5 0.400788 0.325011 0.194388
O O6 0.272023 0.434830 0.238225
O O7 0.424653 0.499312 0.251654
O O8 0.360438 0.453431 0.000000
O O9 0.060747 0.183292 0.749948
O O10 0.007108 0.239797 0.000000
O O11 0.278841 0.982776 0.500000
O O12 0.196943 0.102934 0.666064
O O13 0.437446 0.593196 0.500000
#
# Coordination Sequence:
#
# PCOD8227509 Si02
#       5
#     8   8   8   8   8
#     4  10  22  42  62  79 109 152 197 238 278 330
#     4   9  18  33  55  83 116 146 179 230 285 336
#     4  11  22  35  55  86 118 152 189 229 282 342
#     4   8  18  36  56  81 109 143 185 232 282 330
#     4   9  18  33  56  85 115 145 182 232 285 332
#
# _framework density 18.530151
#
# number of rings (size 3 to 8) (size 9 to 14) (size 15 to 20)
#    1.200    1.400    0.000    1.800    0.000    6.800 
#    3.600    0.000    0.000    0.000    0.000    0.000 
#    0.000    0.000    0.000    0.000    0.000    0.000 
#
# Total GULP energy -495676.353119 kJ/mol
# GULP energy per Si atom -12391.908828 kJ/mol
# Density = 1.848798 g / cm^3
# Si number density = 18.530151 Si / 1000 Ang^3
#
#
#
# Elastic Constant Matrix: (Units=GPa)
#
#
# Indices 1 2 3 4 5 6 
#
# 1 61.3549 33.0736 34.9515 0.0000 0.0000 0.0000
# 2 33.0736 84.3046 52.5746 0.0000 0.0000 0.0000
# 3 34.9515 52.5746 118.0032 0.0000 0.0000 0.0000
# 4 0.0000 0.0000 0.0000 29.2972 0.0000 0.0000
# 5 0.0000 0.0000 0.0000 0.0000 17.3160 0.0000
# 6 0.0000 0.0000 0.0000 0.0000 0.0000 12.9496
#
#
#
# Elastic Compliance Matrix: (Units=1/GPa)
#
#
# Indices 1 2 3 4 5 6 
#
# 1 0.021753 -0.006253 -0.003657 0.000000 0.000000 0.000000
# 2 -0.006253 0.018223 -0.006267 0.000000 0.000000 0.000000
# 3 -0.003657 -0.006267 0.012350 0.000000 0.000000 0.000000
# 4 0.000000 0.000000 0.000000 0.034133 0.000000 0.000000
# 5 0.000000 0.000000 0.000000 0.000000 0.057750 0.000000
# 6 0.000000 0.000000 0.000000 0.000000 0.000000 0.077223
#
#
# Mechanical properties :
#
#
# Convention : Reuss Voigt Hill
#
# Bulk Modulus (GPa) = 50.07184 56.09581 53.08382
# Shear Modulus (GPa) = 19.19812 21.45010 20.32411
#
# Velocity S-wave (km/s) = 3.22226 3.40601 3.31541
# Velocity P-wave (km/s) = 6.39722 6.76804 6.58524
#
# Compressibility (1/GPa) = 0.01997130
#
# Stress axis : x y z
#
# Youngs Moduli (GPa) = 45.97144 54.87514 80.97426
#
# Poissons Ratio (x) = 0.34315 0.29611
# Poissons Ratio (y) = 0.28747 0.50746
# Poissons Ratio (z) = 0.16811 0.34390
#
# Static dielectric constant tensor:
#      x y z
#    x 3.375590 0.000000 0.000000 
#    y 0.000000 3.027250 0.000000 
#    z 0.000000 0.000000 3.457020 
# 
# 
# High freq. dielectric constant tensor:
#      x y z
#    x 1.715840 0.000000 0.000000 
#    y 0.000000 1.686190 0.000000 
#    z 0.000000 0.000000 1.726600 
# 
# From -- ./inp_files/7176.got.cif
#   From: 2010.03.12/outbox.cif.g09.slc.cpg/sg55_4_cif.got.tgz:7176.got - 2010.04.16 15:19:21.
