data_PCOD8227735
_publ_section_title
;
Structure prediction by ZEFSAII (Michael W. Deem and Ramdas Pophale) SiO2 
 PCOD8227735
Probable space group: P B A M
;
_chemical_formula_sum "Si O2"
_cell_formula_units_Z 40
_cell_length_a 9.613902
_cell_length_b 9.591301
_cell_length_c 20.630727
_cell_angle_alpha 90.000000
_cell_angle_beta 90.000000
_cell_angle_gamma 90.000000
_cell_volume 1902.355785
_symmetry_space_group_name_H-M "P B A M"
_symmetry_group_IT_number 55
_symmetry_cell_setting 'orthorhombic'
loop_
_space_group_symop_operation_xyz
x,y,z
-x,-y,z
1/2+x,1/2-y,-z
1/2-x,1/2+y,-z
-x,-y,-z
x,y,-z
1/2-x,1/2+y,z
1/2+x,1/2-y,z
loop_
_atom_site_type_symbol
_atom_site_label
_atom_site_fract_x
_atom_site_fract_y
_atom_site_fract_z
Si Si1 0.333608 0.499367 0.730360
Si Si2 0.232924 0.253131 0.348119
Si Si3 0.311288 0.588346 0.123585
Si Si4 0.094176 0.806419 0.074570
Si Si5 0.014628 0.835624 0.574573
O O1 0.500000 0.500000 0.719744
O O2 0.253206 0.599064 0.680649
O O3 0.264902 0.351154 0.713555
O O4 0.296236 0.539509 0.803011
O O5 0.331512 0.284634 0.408866
O O6 0.079913 0.261468 0.379310
O O7 0.177394 0.676827 0.103918
O O8 0.318554 0.449900 0.079332
O O9 0.450804 0.680062 0.114563
O O10 0.058967 0.776360 0.000000
O O11 0.980702 0.805492 0.500000
O O12 0.000000 0.000000 0.590319
#
# Coordination Sequence:
#
# PCOD8227735 Si02
#       5
#     8   8   8   8   8
#     4  12  24  44  66  94 139 169 220 270 327 392
#     4  12  22  45  67  97 132 179 213 273 329 383
#     4  11  24  42  65  97 130 175 217 268 328 390
#     4  11  22  42  68  96 133 171 217 271 330 388
#     4  11  24  45  68  98 136 172 218 272 327 389
#
# _framework density 21.026561999999998
#
# number of rings (size 3 to 8) (size 9 to 14) (size 15 to 20)
#    0.000    0.600    6.000    4.200    0.000    1.600 
#    0.000    5.000    0.000    0.000    0.000    0.000 
#    0.000    0.000    0.000    0.000    0.000    0.000 
#
# Total GULP energy -495933.717031 kJ/mol
# GULP energy per Si atom -12398.342926 kJ/mol
# Density = 2.097870 g / cm^3
# Si number density = 21.026562 Si / 1000 Ang^3
#
#
#
# Elastic Constant Matrix: (Units=GPa)
#
#
# Indices 1 2 3 4 5 6 
#
# 1 61.3207 33.5617 39.8464 0.0000 0.0000 0.0000
# 2 33.5617 62.8234 25.9925 0.0000 0.0000 0.0000
# 3 39.8464 25.9925 128.8798 0.0000 0.0000 0.0000
# 4 0.0000 0.0000 0.0000 29.3008 0.0000 0.0000
# 5 0.0000 0.0000 0.0000 0.0000 22.5156 0.0000
# 6 0.0000 0.0000 0.0000 0.0000 0.0000 45.5481
#
#
#
# Elastic Compliance Matrix: (Units=1/GPa)
#
#
# Indices 1 2 3 4 5 6 
#
# 1 0.026535 -0.011763 -0.005832 0.000000 0.000000 0.000000
# 2 -0.011763 0.022581 -0.000917 0.000000 0.000000 0.000000
# 3 -0.005832 -0.000917 0.009747 0.000000 0.000000 0.000000
# 4 0.000000 0.000000 0.000000 0.034129 0.000000 0.000000
# 5 0.000000 0.000000 0.000000 0.000000 0.044414 0.000000
# 6 0.000000 0.000000 0.000000 0.000000 0.000000 0.021955
#
#
# Mechanical properties :
#
#
# Convention : Reuss Voigt Hill
#
# Bulk Modulus (GPa) = 45.78827 50.20279 47.99553
# Shear Modulus (GPa) = 24.55019 29.71446 27.13233
#
# Velocity S-wave (km/s) = 3.42069 3.76332 3.59609
# Velocity P-wave (km/s) = 6.11761 6.54302 6.33389
#
# Compressibility (1/GPa) = 0.02183965
#
# Stress axis : x y z
#
# Youngs Moduli (GPa) = 37.68589 44.28464 102.59365
#
# Poissons Ratio (x) = 0.52091 0.59829
# Poissons Ratio (y) = 0.44329 0.09412
# Poissons Ratio (z) = 0.21977 0.04063
#
# Static dielectric constant tensor:
#      x y z
#    x 3.697360 0.000000 0.000000 
#    y 0.000000 3.867520 0.000000 
#    z 0.000000 0.000000 3.950200 
# 
# 
# High freq. dielectric constant tensor:
#      x y z
#    x 1.815800 0.000000 0.000000 
#    y 0.000000 1.821330 0.000000 
#    z 0.000000 0.000000 1.844630 
# 
# From -- ./inp_files/23415.got.cif
#   From: 2010.03.12/outbox.cif.g09.slc.cpg/sg55_12_cif.got.tgz:23415.got - 2010.04.16 15:19:21.
