data_PCOD8227559
_publ_section_title
;
Structure prediction by ZEFSAII (Michael W. Deem and Ramdas Pophale) SiO2 
 PCOD8227559
Probable space group: P B A M
;
_chemical_formula_sum "Si O2"
_cell_formula_units_Z 48
_cell_length_a 12.705859
_cell_length_b 21.538606
_cell_length_c 9.051984
_cell_angle_alpha 90.000000
_cell_angle_beta 90.000000
_cell_angle_gamma 90.000000
_cell_volume 2477.224697
_symmetry_space_group_name_H-M "P B A M"
_symmetry_group_IT_number 55
_symmetry_cell_setting 'orthorhombic'
loop_
_space_group_symop_operation_xyz
x,y,z
-x,-y,z
1/2+x,1/2-y,-z
1/2-x,1/2+y,-z
-x,-y,-z
x,y,-z
1/2-x,1/2+y,z
1/2+x,1/2-y,z
loop_
_atom_site_type_symbol
_atom_site_label
_atom_site_fract_x
_atom_site_fract_y
_atom_site_fract_z
Si Si1 0.411708 0.402174 0.167610
Si Si2 0.659342 0.934215 0.331337
Si Si3 0.480021 0.717983 0.166599
Si Si4 0.300588 0.925232 0.329916
Si Si5 0.482618 0.857751 0.173815
Si Si6 0.886546 0.886400 0.673612
O O1 0.415452 0.326089 0.171013
O O2 0.314287 0.427525 0.259239
O O3 0.521139 0.425646 0.243349
O O4 0.404927 0.427001 0.000000
O O5 0.639132 0.913482 0.500000
O O6 0.575935 0.901218 0.227829
O O7 0.775617 0.915158 0.279615
O O8 0.645139 0.007773 0.314395
O O9 0.508487 0.786958 0.220699
O O10 0.391772 0.685770 0.271902
O O11 0.434260 0.720509 0.000000
O O12 0.289325 0.905867 0.500000
O O13 0.372133 0.875368 0.247221
O O14 0.471254 0.866063 0.000000
O O15 0.905680 0.890531 0.500000
#
# Coordination Sequence:
#
# PCOD8227559 Si02
#       6
#     8   8   8   8   8   8
#     4   9  19  38  59  85 116 146 184 231 285 338
#     4  10  23  40  57  82 117 151 188 235 283 333
#     4   8  19  38  57  83 116 147 180 232 287 332
#     4  11  23  39  58  82 115 153 189 233 284 333
#     4  11  23  39  59  83 113 151 192 233 282 337
#     4   9  18  36  60  86 112 146 188 230 280 337
#
# _framework density 19.376522999999999
#
# number of rings (size 3 to 8) (size 9 to 14) (size 15 to 20)
#    1.000    1.333    0.000    2.000    0.000    8.000 
#    0.000    8.333    0.000    0.000    0.000    0.000 
#    0.000    0.000    0.000    0.000    0.000    0.000 
#
# Total GULP energy -594970.150187 kJ/mol
# GULP energy per Si atom -12395.211462 kJ/mol
# Density = 1.933242 g / cm^3
# Si number density = 19.376523 Si / 1000 Ang^3
#
#
#
# Elastic Constant Matrix: (Units=GPa)
#
#
# Indices 1 2 3 4 5 6 
#
# 1 71.5226 -9.0976 36.6554 0.0000 0.0000 0.0000
# 2 -9.0976 37.2947 15.4323 0.0000 0.0000 0.0000
# 3 36.6554 15.4323 99.6734 0.0000 0.0000 0.0000
# 4 0.0000 0.0000 0.0000 29.5631 0.0000 0.0000
# 5 0.0000 0.0000 0.0000 0.0000 31.7870 0.0000
# 6 0.0000 0.0000 0.0000 0.0000 0.0000 29.3146
#
#
#
# Elastic Compliance Matrix: (Units=1/GPa)
#
#
# Indices 1 2 3 4 5 6 
#
# 1 0.019309 0.008172 -0.008366 0.000000 0.000000 0.000000
# 2 0.008172 0.032108 -0.007976 0.000000 0.000000 0.000000
# 3 -0.008366 -0.007976 0.014344 0.000000 0.000000 0.000000
# 4 0.000000 0.000000 0.000000 0.033826 0.000000 0.000000
# 5 0.000000 0.000000 0.000000 0.000000 0.031459 0.000000
# 6 0.000000 0.000000 0.000000 0.000000 0.000000 0.034113
#
#
# Mechanical properties :
#
#
# Convention : Reuss Voigt Hill
#
# Bulk Modulus (GPa) = 20.23495 32.71899 26.47697
# Shear Modulus (GPa) = 25.25597 29.16633 27.21115
#
# Velocity S-wave (km/s) = 3.61422 3.88395 3.75151
# Velocity P-wave (km/s) = 5.28039 6.08572 5.69730
#
# Compressibility (1/GPa) = 0.04941946
#
# Stress axis : x y z
#
# Youngs Moduli (GPa) = 51.79013 31.14536 69.71350
#
# Poissons Ratio (x) = -0.25452 0.58323
# Poissons Ratio (y) = -0.42323 0.55607
# Poissons Ratio (z) = 0.43328 0.24843
#
# Static dielectric constant tensor:
#      x y z
#    x 3.353980 0.000000 0.000000 
#    y 0.000000 3.507100 0.000000 
#    z 0.000000 0.000000 3.551510 
# 
# 
# High freq. dielectric constant tensor:
#      x y z
#    x 1.743610 0.000000 0.000000 
#    y 0.000000 1.748410 0.000000 
#    z 0.000000 0.000000 1.763340 
# 
# From -- ./inp_files/4095.got.cif
#   From: 2010.03.12/outbox.cif.g09.slc.cpg/sg55_3_cif.got.tgz:4095.got - 2010.04.16 15:19:21.
