data_PCOD8227690
_publ_section_title
;
Structure prediction by ZEFSAII (Michael W. Deem and Ramdas Pophale) SiO2 
 PCOD8227690
Probable space group: P B A M
;
_chemical_formula_sum "Si O2"
_cell_formula_units_Z 64
_cell_length_a 5.152589
_cell_length_b 26.628474
_cell_length_c 26.134166
_cell_angle_alpha 90.000000
_cell_angle_beta 90.000000
_cell_angle_gamma 90.000000
_cell_volume 3585.753462
_symmetry_space_group_name_H-M "P B A M"
_symmetry_group_IT_number 55
_symmetry_cell_setting 'orthorhombic'
loop_
_space_group_symop_operation_xyz
x,y,z
-x,-y,z
1/2+x,1/2-y,-z
1/2-x,1/2+y,-z
-x,-y,-z
x,y,-z
1/2-x,1/2+y,z
1/2+x,1/2-y,z
loop_
_atom_site_type_symbol
_atom_site_label
_atom_site_fract_x
_atom_site_fract_y
_atom_site_fract_z
Si Si1 0.031092 0.607662 0.601224
Si Si2 0.969605 0.057232 0.440376
Si Si3 0.500930 0.778704 0.600223
Si Si4 0.997396 0.278912 0.722079
Si Si5 0.001858 0.440057 0.057826
Si Si6 0.529896 0.893041 0.721082
Si Si7 0.997834 0.940307 0.883247
Si Si8 0.029193 0.940687 0.766873
O O1 0.323858 0.590089 0.590774
O O2 0.003720 0.664294 0.580550
O O3 0.972862 0.604183 0.661109
O O4 0.823459 0.573720 0.571633
O O5 0.028496 0.063452 0.500000
O O6 0.000000 0.000000 0.422672
O O7 0.248119 0.751017 0.578252
O O8 0.507582 0.777852 0.661149
O O9 0.751732 0.248492 0.743893
O O10 0.990325 0.336109 0.741492
O O11 0.750979 0.418851 0.087066
O O12 0.000000 0.500000 0.057489
O O13 0.250113 0.418944 0.088003
O O14 0.004886 0.419351 0.000000
O O15 0.318704 0.926872 0.749648
O O16 0.817806 0.913436 0.731639
O O17 0.990203 0.921967 0.824868
O O18 0.000000 0.000000 0.884916
O O19 0.000000 0.000000 0.761549
#
# Coordination Sequence:
#
# PCOD8227690 Si02
#       8
#     8   8   8   8   8   8   8   8
#     4  11  22  37  59  81 101 126 162 208 244 286
#     4  11  24  41  59  77  99 130 165 203 252 298
#     4   9  17  31  53  79 104 128 152 186 238 293
#     4   9  17  31  50  72  97 122 156 203 246 287
#     4   9  15  24  40  60  79 107 162 224 254 271
#     4  11  22  34  52  78 100 129 171 203 240 289
#     4   9  17  28  40  56  85 127 165 198 243 287
#     4  11  22  34  46  66 104 145 174 200 234 289
#
# _framework density 17.848410999999999
#
# number of rings (size 3 to 8) (size 9 to 14) (size 15 to 20)
#    0.000    2.000    0.000    4.500    0.000   11.500 
#    0.000    0.000    0.000    7.500    0.000    0.000 
#    0.000    0.000    0.000    0.000    0.000  157.500 
#
# Total GULP energy -793789.390585 kJ/mol
# GULP energy per Si atom -12402.959228 kJ/mol
# Density = 1.780779 g / cm^3
# Si number density = 17.848411 Si / 1000 Ang^3
#
#
#
# Elastic Constant Matrix: (Units=GPa)
#
#
# Indices 1 2 3 4 5 6 
#
# 1 118.9744 27.1189 17.4075 0.0000 0.0000 0.0000
# 2 27.1189 85.8482 25.5679 0.0000 0.0000 0.0000
# 3 17.4075 25.5679 53.9192 0.0000 0.0000 0.0000
# 4 0.0000 0.0000 0.0000 -0.7361 0.0000 0.0000
# 5 0.0000 0.0000 0.0000 0.0000 28.0687 0.0000
# 6 0.0000 0.0000 0.0000 0.0000 0.0000 31.4613
#
#
#
# Elastic Compliance Matrix: (Units=1/GPa)
#
#
# Indices 1 2 3 4 5 6 
#
# 1 0.009214 -0.002358 -0.001857 0.000000 0.000000 0.000000
# 2 -0.002358 0.014167 -0.005957 0.000000 0.000000 0.000000
# 3 -0.001857 -0.005957 0.021970 0.000000 0.000000 0.000000
# 4 0.000000 0.000000 0.000000 -1.358514 0.000000 0.000000
# 5 0.000000 0.000000 0.000000 0.000000 0.035627 0.000000
# 6 0.000000 0.000000 0.000000 0.000000 0.000000 0.031785
#
#
# Mechanical properties :
#
#
# Convention : Reuss Voigt Hill
#
# Bulk Modulus (GPa) = 39.98503 44.32560 42.15532
# Shear Modulus (GPa) = -4.10823 24.33527 10.11352
#
# Velocity S-wave (km/s) = -1.51879 3.69649 2.38299
# Velocity P-wave (km/s) = 4.40177 6.56560 5.58939
#
# Compressibility (1/GPa) = 0.02500936
#
# Stress axis : x y z
#
# Youngs Moduli (GPa) = 108.52746 70.58477 45.51583
#
# Poissons Ratio (x) = 0.16642 0.08451
# Poissons Ratio (y) = 0.25588 0.27113
# Poissons Ratio (z) = 0.20151 0.42046
#
# Static dielectric constant tensor:
#      x y z
#    x 3.483910 0.000000 0.000000 
#    y 0.000000 3.158650 0.000000 
#    z 0.000000 0.000000 3.137510 
# 
# 
# High freq. dielectric constant tensor:
#      x y z
#    x 1.713820 0.000000 0.000000 
#    y 0.000000 1.661390 0.000000 
#    z 0.000000 0.000000 1.667910 
# 
# From -- ./inp_files/23376.got.cif
#   From: 2010.03.12/outbox.cif.g09.slc.cpg/sg55_12_cif.got.tgz:23376.got - 2010.04.16 15:19:21.
