data_PCOD8227814
_publ_section_title
;
Structure prediction by ZEFSAII (Michael W. Deem and Ramdas Pophale) SiO2 
 PCOD8227814
Probable space group: P B A M
;
_chemical_formula_sum "Si O2"
_cell_formula_units_Z 32
_cell_length_a 8.595543
_cell_length_b 14.807856
_cell_length_c 11.171835
_cell_angle_alpha 90.000000
_cell_angle_beta 90.000000
_cell_angle_gamma 90.000000
_cell_volume 1421.968620
_symmetry_space_group_name_H-M "P B A M"
_symmetry_group_IT_number 55
_symmetry_cell_setting 'orthorhombic'
loop_
_space_group_symop_operation_xyz
x,y,z
-x,-y,z
1/2+x,1/2-y,-z
1/2-x,1/2+y,-z
-x,-y,-z
x,y,-z
1/2-x,1/2+y,z
1/2+x,1/2-y,z
loop_
_atom_site_type_symbol
_atom_site_label
_atom_site_fract_x
_atom_site_fract_y
_atom_site_fract_z
Si Si1 0.668577 0.302552 0.137210
Si Si2 0.682906 0.879033 0.500000
Si Si3 0.022249 0.801192 0.500000
Si Si4 0.169674 0.531624 0.246901
Si Si5 0.650740 0.647713 0.751491
O O1 0.785871 0.383806 0.165279
O O2 0.710297 0.217882 0.221815
O O3 0.492286 0.330904 0.161618
O O4 0.687073 0.273890 0.000000
O O5 0.541410 0.807302 0.500000
O O6 0.671062 0.943077 0.613876
O O7 0.839850 0.820798 0.500000
O O8 0.101410 0.846498 0.385790
O O9 0.293508 0.453155 0.222365
O O10 0.000000 0.500000 0.206608
#
# Coordination Sequence:
#
# PCOD8227814 Si02
#       5
#     8   4   4   8   8
#     4  12  27  48  73 104 143 194 248 295 352 427
#     4  12  26  45  72 113 145 185 235 299 370 436
#     4  12  23  43  77 102 143 186 229 292 370 430
#     4  12  27  45  72 106 147 186 238 299 364 429
#     4  12  25  46  74 105 146 188 235 305 365 428
#
# _framework density 22.504013
#
# number of rings (size 3 to 8) (size 9 to 14) (size 15 to 20)
#    0.000    0.000    5.000    4.125    3.500    4.500 
#    0.000    0.000    0.000    0.000    0.000    0.000 
#    0.000    0.000    0.000    0.000    0.000    0.000 
#
# Total GULP energy -397138.760071 kJ/mol
# GULP energy per Si atom -12410.586252 kJ/mol
# Density = 2.245279 g / cm^3
# Si number density = 22.504013 Si / 1000 Ang^3
#
#
#
# Elastic Constant Matrix: (Units=GPa)
#
#
# Indices 1 2 3 4 5 6 
#
# 1 83.8408 5.9316 6.7144 0.0000 0.0000 0.0000
# 2 5.9316 92.9922 2.1243 0.0000 0.0000 0.0000
# 3 6.7144 2.1243 89.7567 0.0000 0.0000 0.0000
# 4 0.0000 0.0000 0.0000 13.2409 0.0000 0.0000
# 5 0.0000 0.0000 0.0000 0.0000 27.2629 0.0000
# 6 0.0000 0.0000 0.0000 0.0000 0.0000 45.9398
#
#
#
# Elastic Compliance Matrix: (Units=1/GPa)
#
#
# Indices 1 2 3 4 5 6 
#
# 1 0.012051 -0.000749 -0.000884 0.000000 0.000000 0.000000
# 2 -0.000749 0.010806 -0.000200 0.000000 0.000000 0.000000
# 3 -0.000884 -0.000200 0.011212 0.000000 0.000000 0.000000
# 4 0.000000 0.000000 0.000000 0.075523 0.000000 0.000000
# 5 0.000000 0.000000 0.000000 0.000000 0.036680 0.000000
# 6 0.000000 0.000000 0.000000 0.000000 0.000000 0.021768
#
#
# Mechanical properties :
#
#
# Convention : Reuss Voigt Hill
#
# Bulk Modulus (GPa) = 32.88937 32.90339 32.89638
# Shear Modulus (GPa) = 27.49683 34.07666 30.78674
#
# Velocity S-wave (km/s) = 3.49931 3.89556 3.70274
# Velocity P-wave (km/s) = 5.56538 5.90649 5.73847
#
# Compressibility (1/GPa) = 0.03040496
#
# Stress axis : x y z
#
# Youngs Moduli (GPa) = 82.97998 92.54204 89.18954
#
# Poissons Ratio (x) = 0.06927 0.07883
# Poissons Ratio (y) = 0.06211 0.01782
# Poissons Ratio (z) = 0.07334 0.01849
#
# Static dielectric constant tensor:
#      x y z
#    x 4.219690 0.000000 0.000000 
#    y 0.000000 4.145820 0.000000 
#    z 0.000000 0.000000 3.987210 
# 
# 
# High freq. dielectric constant tensor:
#      x y z
#    x 1.901320 0.000000 0.000000 
#    y 0.000000 1.897900 0.000000 
#    z 0.000000 0.000000 1.887650 
# 
# From -- ./inp_files/11651.got.cif
#   From: 2010.03.12/outbox.cif.g09.slc.cpg/sg55_6_cif.got.tgz:11651.got - 2010.04.16 15:19:21.
