data_PCOD8227928
_publ_section_title
;
Structure prediction by ZEFSAII (Michael W. Deem and Ramdas Pophale) SiO2 
 PCOD8227928
Probable space group: P C C N
;
_chemical_formula_sum "Si O2"
_cell_formula_units_Z 56
_cell_length_a 26.982664
_cell_length_b 5.315646
_cell_length_c 19.320108
_cell_angle_alpha 90.000000
_cell_angle_beta 90.000000
_cell_angle_gamma 90.000000
_cell_volume 2771.088693
_symmetry_space_group_name_H-M "P C C N"
_symmetry_group_IT_number 56
_symmetry_cell_setting 'orthorhombic'
loop_
_space_group_symop_operation_xyz
x,y,z
1/2-x,1/2-y,z
1/2+x,-y,1/2-z
-x,1/2+y,1/2-z
-x,-y,-z
1/2+x,1/2+y,-z
1/2-x,y,1/2+z
x,1/2-y,1/2+z
loop_
_atom_site_type_symbol
_atom_site_label
_atom_site_fract_x
_atom_site_fract_y
_atom_site_fract_z
Si Si1 0.563122 0.750000 0.503988
Si Si2 0.457344 0.749999 0.071356
Si Si3 0.304696 0.750001 0.922192
Si Si4 0.141496 0.750000 0.779852
Si Si5 0.191952 0.250000 0.774080
Si Si6 0.835223 0.749999 0.565562
Si Si7 0.468961 0.750000 0.232613
O O1 0.568723 0.501847 0.456858
O O2 0.514012 0.750002 0.548710
O O3 0.605774 0.750001 0.561418
O O4 0.568723 0.998150 0.456857
O O5 0.453466 0.750003 0.153158
O O6 0.250000 0.750000 0.888848
O O7 0.345579 0.750000 0.861425
O O8 0.313129 0.502605 0.969799
O O9 0.313129 0.997396 0.969799
O O10 0.165155 0.500701 0.743885
O O11 0.081956 0.750000 0.775991
O O12 0.165155 0.999298 0.743885
O O13 0.250000 0.250000 0.754479
O O14 0.184882 0.250000 0.856352
O O15 0.500000 0.500000 0.250000
#
# Coordination Sequence:
#
# PCOD8227928 Si02
#       7
#     8   8   8   8   8   8   8
#     4  10  21  38  59  79 106 159 192 242 275 333
#     4  10  23  40  55  80 116 148 207 232 277 338
#     4  10  19  31  51  86 117 139 180 242 300 353
#     4  10  20  33  52  81 114 155 177 228 304 347
#     4  10  19  34  56  89 118 142 187 246 301 356
#     4  10  18  29  54  79 109 141 184 222 297 335
#     4  12  26  39  59  86 121 162 197 250 293 346
#
# _framework density 20.208665
#
# number of rings (size 3 to 8) (size 9 to 14) (size 15 to 20)
#    0.000    1.714    0.000    6.857    8.000    0.000 
#    0.000    0.000    0.000    0.000    0.000   34.000 
#    0.000    0.000    0.000    0.000    0.000    0.000 
#
# Total GULP energy -693965.484123 kJ/mol
# GULP energy per Si atom -12392.240788 kJ/mol
# Density = 2.016267 g / cm^3
# Si number density = 20.208665 Si / 1000 Ang^3
#
#
#
# Elastic Constant Matrix: (Units=GPa)
#
#
# Indices 1 2 3 4 5 6 
#
# 1 156.8553 74.5600 20.2762 0.0000 0.0000 0.0000
# 2 74.5600 243.6922 11.9550 0.0000 0.0000 0.0000
# 3 20.2762 11.9550 31.6866 0.0000 0.0000 0.0000
# 4 0.0000 0.0000 0.0000 13.7248 0.0000 0.0000
# 5 0.0000 0.0000 0.0000 0.0000 26.2662 0.0000
# 6 0.0000 0.0000 0.0000 0.0000 0.0000 35.0982
#
#
#
# Elastic Compliance Matrix: (Units=1/GPa)
#
#
# Indices 1 2 3 4 5 6 
#
# 1 0.007990 -0.002235 -0.004269 0.000000 0.000000 0.000000
# 2 -0.002235 0.004806 -0.000383 0.000000 0.000000 0.000000
# 3 -0.004269 -0.000383 0.034435 0.000000 0.000000 0.000000
# 4 0.000000 0.000000 0.000000 0.072861 0.000000 0.000000
# 5 0.000000 0.000000 0.000000 0.000000 0.038072 0.000000
# 6 0.000000 0.000000 0.000000 0.000000 0.000000 0.028491
#
#
# Mechanical properties :
#
#
# Convention : Reuss Voigt Hill
#
# Bulk Modulus (GPa) = 29.88965 71.75739 50.82352
# Shear Modulus (GPa) = 23.63149 36.71404 30.17277
#
# Velocity S-wave (km/s) = 3.42332 4.26696 3.86821
# Velocity P-wave (km/s) = 5.51798 7.73700 6.71972
#
# Compressibility (1/GPa) = 0.03345640
#
# Stress axis : x y z
#
# Youngs Moduli (GPa) = 125.16285 208.06596 29.03983
#
# Poissons Ratio (x) = 0.46504 0.12398
# Poissons Ratio (y) = 0.27975 0.01113
# Poissons Ratio (z) = 0.53435 0.07971
#
# Static dielectric constant tensor:
#      x y z
#    x 3.672330 0.000000 0.000000 
#    y 0.000000 6.731400 0.000000 
#    z 0.000000 0.000000 3.013190 
# 
# 
# High freq. dielectric constant tensor:
#      x y z
#    x 1.797130 0.000000 0.000000 
#    y 0.000000 1.838060 0.000000 
#    z 0.000000 0.000000 1.710300 
# 
# From -- ./inp_files/19571.got.cif
#   From: 2010.03.12/outbox.cif.g09.slc.cpg/sg56_10_cif.got.tgz:19571.got - 2010.04.16 15:33:40.
