data_PCOD8227539
_publ_section_title
;
Structure prediction by ZEFSAII (Michael W. Deem and Ramdas Pophale) SiO2 
 PCOD8227539
Probable space group: P B A M
;
_chemical_formula_sum "Si O2"
_cell_formula_units_Z 64
_cell_length_a 12.833367
_cell_length_b 9.007461
_cell_length_c 25.831875
_cell_angle_alpha 90.000000
_cell_angle_beta 90.000000
_cell_angle_gamma 90.000000
_cell_volume 2986.062785
_symmetry_space_group_name_H-M "P B A M"
_symmetry_group_IT_number 55
_symmetry_cell_setting 'orthorhombic'
loop_
_space_group_symop_operation_xyz
x,y,z
-x,-y,z
1/2+x,1/2-y,-z
1/2-x,1/2+y,-z
-x,-y,-z
x,y,-z
1/2-x,1/2+y,z
1/2+x,1/2-y,z
loop_
_atom_site_type_symbol
_atom_site_label
_atom_site_fract_x
_atom_site_fract_y
_atom_site_fract_z
Si Si1 0.948843 0.338879 0.942176
Si Si2 0.805349 0.922567 0.683776
Si Si3 0.272453 0.319541 0.613056
Si Si4 0.025917 0.156030 0.231106
Si Si5 0.297230 0.038130 0.864862
Si Si6 0.106599 0.589337 0.247542
Si Si7 0.614270 0.268344 0.129115
Si Si8 0.116036 0.547626 0.561055
O O1 0.847522 0.349985 0.906664
O O2 0.000000 0.500000 0.943178
O O3 0.028353 0.222065 0.915962
O O4 0.920606 0.283986 0.000000
O O5 0.804789 0.783235 0.645702
O O6 0.889662 0.880941 0.725950
O O7 0.691375 0.951309 0.709185
O O8 0.836032 0.070480 0.651693
O O9 0.200470 0.421690 0.576111
O O10 0.353610 0.210917 0.583432
O O11 0.066003 0.265402 0.185830
O O12 0.923614 0.236311 0.254465
O O13 0.000000 0.000000 0.204088
O O14 0.345434 0.064803 0.808811
O O15 0.175189 0.076524 0.866884
O O16 0.307941 0.868185 0.881993
O O17 0.000000 0.500000 0.257515
O O18 0.117114 0.564023 0.500000
O O19 0.000000 0.500000 0.580353
#
# Coordination Sequence:
#
# PCOD8227539 Si02
#       8
#     8   8   8   8   8   8   8   8
#     4   9  19  40  63  87 117 152 201 261 328 382
#     4  11  24  39  58  92 131 175 216 267 321 391
#     4  10  23  41  64  97 140 169 217 280 330 378
#     4  12  25  37  59  89 125 171 219 262 318 383
#     4  11  22  38  62  86 119 158 205 261 315 385
#     4  12  22  39  62  84 125 174 221 259 319 393
#     4  11  23  38  60  88 118 156 205 261 315 384
#     4  10  22  44  74 100 130 179 228 273 332 393
#
# _framework density 21.432904000000001
#
# number of rings (size 3 to 8) (size 9 to 14) (size 15 to 20)
#    0.000    1.250    3.750    2.250    1.750    5.500 
#    0.000    1.875    0.000    9.375    0.000    0.000 
#    0.000    0.000    0.000    0.000    0.000    0.000 
#
# Total GULP energy -793304.396790 kJ/mol
# GULP energy per Si atom -12395.381200 kJ/mol
# Density = 2.138412 g / cm^3
# Si number density = 21.432904 Si / 1000 Ang^3
#
#
#
# Elastic Constant Matrix: (Units=GPa)
#
#
# Indices 1 2 3 4 5 6 
#
# 1 62.5163 14.8262 30.3291 0.0000 0.0000 0.0000
# 2 14.8262 98.4923 30.0368 0.0000 0.0000 0.0000
# 3 30.3291 30.0368 107.1475 0.0000 0.0000 0.0000
# 4 0.0000 0.0000 0.0000 28.8463 0.0000 0.0000
# 5 0.0000 0.0000 0.0000 0.0000 25.3794 0.0000
# 6 0.0000 0.0000 0.0000 0.0000 0.0000 39.0436
#
#
#
# Elastic Compliance Matrix: (Units=1/GPa)
#
#
# Indices 1 2 3 4 5 6 
#
# 1 0.018696 -0.001313 -0.004924 0.000000 0.000000 0.000000
# 2 -0.001313 0.011194 -0.002767 0.000000 0.000000 0.000000
# 3 -0.004924 -0.002767 0.011502 0.000000 0.000000 0.000000
# 4 0.000000 0.000000 0.000000 0.034666 0.000000 0.000000
# 5 0.000000 0.000000 0.000000 0.000000 0.039402 0.000000
# 6 0.000000 0.000000 0.000000 0.000000 0.000000 0.025612
#
#
# Mechanical properties :
#
#
# Convention : Reuss Voigt Hill
#
# Bulk Modulus (GPa) = 42.76059 46.50448 44.63253
# Shear Modulus (GPa) = 29.96243 31.51812 30.74028
#
# Velocity S-wave (km/s) = 3.74299 3.83893 3.79127
# Velocity P-wave (km/s) = 6.21886 6.43387 6.32728
#
# Compressibility (1/GPa) = 0.02338602
#
# Stress axis : x y z
#
# Youngs Moduli (GPa) = 53.48736 89.33053 86.93918
#
# Poissons Ratio (x) = 0.11726 0.42810
# Poissons Ratio (y) = 0.07021 0.24052
# Poissons Ratio (z) = 0.26338 0.24714
#
# Static dielectric constant tensor:
#      x y z
#    x 3.695830 0.000000 0.000000 
#    y 0.000000 4.075200 0.000000 
#    z 0.000000 0.000000 3.981570 
# 
# 
# High freq. dielectric constant tensor:
#      x y z
#    x 1.834420 0.000000 0.000000 
#    y 0.000000 1.847440 0.000000 
#    z 0.000000 0.000000 1.839810 
# 
# From -- ./inp_files/23605.got.cif
#   From: 2010.03.12/outbox.cif.g09.slc.cpg/sg55_12_cif.got.tgz:23605.got - 2010.04.16 15:19:21.
