data_PCOD8227524
_publ_section_title
;
Structure prediction by ZEFSAII (Michael W. Deem and Ramdas Pophale) SiO2 
 PCOD8227524
Probable space group: P B A M
;
_chemical_formula_sum "Si O2"
_cell_formula_units_Z 64
_cell_length_a 15.126878
_cell_length_b 8.817848
_cell_length_c 21.585183
_cell_angle_alpha 90.000000
_cell_angle_beta 90.000000
_cell_angle_gamma 90.000000
_cell_volume 2879.172248
_symmetry_space_group_name_H-M "P B A M"
_symmetry_group_IT_number 55
_symmetry_cell_setting 'orthorhombic'
loop_
_space_group_symop_operation_xyz
x,y,z
-x,-y,z
1/2+x,1/2-y,-z
1/2-x,1/2+y,-z
-x,-y,-z
x,y,-z
1/2-x,1/2+y,z
1/2+x,1/2-y,z
loop_
_atom_site_type_symbol
_atom_site_label
_atom_site_fract_x
_atom_site_fract_y
_atom_site_fract_z
Si Si1 0.311306 0.831315 0.878599
Si Si2 0.239758 0.765596 0.746410
Si Si3 0.153015 0.655455 0.071045
Si Si4 0.435281 0.133926 0.380516
Si Si5 0.244526 0.506938 0.659735
Si Si6 0.461990 0.334249 0.737231
Si Si7 0.488215 0.678352 0.127569
Si Si8 0.094677 0.942580 0.430668
O O1 0.295895 0.798844 0.806666
O O2 0.228978 0.780257 0.920059
O O3 0.395571 0.734107 0.900519
O O4 0.326824 0.010075 0.886607
O O5 0.251242 0.590542 0.727211
O O6 0.141427 0.834520 0.755309
O O7 0.277606 0.837811 0.682567
O O8 0.061676 0.728640 0.091327
O O9 0.147200 0.604790 0.000000
O O10 0.337880 0.065917 0.377669
O O11 0.473821 0.210750 0.317472
O O12 0.419101 0.261493 0.431878
O O13 0.500000 0.000000 0.402800
O O14 0.333167 0.504943 0.617939
O O15 0.500000 0.500000 0.717213
O O16 0.512051 0.281361 0.799302
O O17 0.500000 0.500000 0.115868
O O18 0.120257 0.996737 0.500000
O O19 0.000000 0.000000 0.408562
#
# Coordination Sequence:
#
# PCOD8227524 Si02
#       8
#     8   8   8   8   8   8   8   8
#     4  12  26  44  72 101 142 179 229 292 356 417
#     4  11  24  40  70 105 137 174 226 277 347 416
#     4  12  27  48  70 100 137 183 240 288 346 419
#     4  11  26  41  68 105 141 175 229 282 348 405
#     4  11  24  44  65 104 137 181 221 281 341 407
#     4  10  22  42  68 101 141 181 218 278 346 419
#     4  11  26  44  69 101 135 187 232 286 352 422
#     4  11  26  48  71  95 133 187 237 281 337 404
#
# _framework density 22.228611000000001
#
# number of rings (size 3 to 8) (size 9 to 14) (size 15 to 20)
#    0.000    0.875    3.750    2.625   10.500    2.500 
#    0.000    0.000    0.000    0.000    0.000    0.000 
#    0.000    0.000    0.000    0.000    0.000    0.000 
#
# Total GULP energy -793295.584612 kJ/mol
# GULP energy per Si atom -12395.243510 kJ/mol
# Density = 2.217802 g / cm^3
# Si number density = 22.228611 Si / 1000 Ang^3
#
#
#
# Elastic Constant Matrix: (Units=GPa)
#
#
# Indices 1 2 3 4 5 6 
#
# 1 140.8796 56.9747 35.4627 0.0000 0.0000 0.0000
# 2 56.9747 65.6349 1.3252 0.0000 0.0000 0.0000
# 3 35.4627 1.3252 86.0203 0.0000 0.0000 0.0000
# 4 0.0000 0.0000 0.0000 26.3932 0.0000 0.0000
# 5 0.0000 0.0000 0.0000 0.0000 118.1424 0.0000
# 6 0.0000 0.0000 0.0000 0.0000 0.0000 44.1178
#
#
#
# Elastic Compliance Matrix: (Units=1/GPa)
#
#
# Indices 1 2 3 4 5 6 
#
# 1 0.012865 -0.011064 -0.005133 0.000000 0.000000 0.000000
# 2 -0.011064 0.024755 0.004180 0.000000 0.000000 0.000000
# 3 -0.005133 0.004180 0.013677 0.000000 0.000000 0.000000
# 4 0.000000 0.000000 0.000000 0.037889 0.000000 0.000000
# 5 0.000000 0.000000 0.000000 0.000000 0.008464 0.000000
# 6 0.000000 0.000000 0.000000 0.000000 0.000000 0.022667
#
#
# Mechanical properties :
#
#
# Convention : Reuss Voigt Hill
#
# Bulk Modulus (GPa) = 36.68000 53.33998 45.00999
# Shear Modulus (GPa) = 32.58631 50.98215 41.78423
#
# Velocity S-wave (km/s) = 3.83294 4.79428 4.34031
# Velocity P-wave (km/s) = 6.01046 7.39561 6.73872
#
# Compressibility (1/GPa) = 0.02726281
#
# Stress axis : x y z
#
# Youngs Moduli (GPa) = 77.73133 40.39530 73.11549
#
# Poissons Ratio (x) = 0.44692 0.37532
# Poissons Ratio (y) = 0.86000 -0.30561
# Poissons Ratio (z) = 0.39901 -0.16884
#
# Static dielectric constant tensor:
#      x y z
#    x 4.077840 0.000000 0.000000 
#    y 0.000000 3.567450 0.000000 
#    z 0.000000 0.000000 3.831820 
# 
# 
# High freq. dielectric constant tensor:
#      x y z
#    x 1.885560 0.000000 0.000000 
#    y 0.000000 1.886030 0.000000 
#    z 0.000000 0.000000 1.865420 
# 
# From -- ./inp_files/23603.got.cif
#   From: 2010.03.12/outbox.cif.g09.slc.cpg/sg55_12_cif.got.tgz:23603.got - 2010.04.16 15:19:21.
