data_PCOD8227931
_publ_section_title
;
Structure prediction by ZEFSAII (Michael W. Deem and Ramdas Pophale) SiO2 
 PCOD8227931
Probable space group: P C C N
;
_chemical_formula_sum "Si O2"
_cell_formula_units_Z 48
_cell_length_a 13.260092
_cell_length_b 9.152547
_cell_length_c 21.554408
_cell_angle_alpha 90.000000
_cell_angle_beta 90.000000
_cell_angle_gamma 90.000000
_cell_volume 2615.920880
_symmetry_space_group_name_H-M "P C C N"
_symmetry_group_IT_number 56
_symmetry_cell_setting 'orthorhombic'
loop_
_space_group_symop_operation_xyz
x,y,z
1/2-x,1/2-y,z
1/2+x,-y,1/2-z
-x,1/2+y,1/2-z
-x,-y,-z
1/2+x,1/2+y,-z
1/2-x,y,1/2+z
x,1/2-y,1/2+z
loop_
_atom_site_type_symbol
_atom_site_label
_atom_site_fract_x
_atom_site_fract_y
_atom_site_fract_z
Si Si1 0.990409 0.684188 0.276677
Si Si2 0.417903 0.012278 0.184218
Si Si3 0.855555 0.324263 0.614184
Si Si4 0.461198 0.555022 0.434660
Si Si5 0.281199 0.084940 0.739287
Si Si6 0.230634 0.419857 0.879715
O O1 0.961837 0.854697 0.273947
O O2 0.892223 0.583290 0.291500
O O3 0.032222 0.637554 0.208891
O O4 0.076016 0.650481 0.326074
O O5 0.444628 0.041431 0.112643
O O6 0.296813 0.002096 0.193577
O O7 0.750000 0.250000 0.633345
O O8 0.917424 0.222465 0.565054
O O9 0.822983 0.485780 0.589135
O O10 0.500000 0.500000 0.500000
O O11 0.373359 0.446408 0.414782
O O12 0.250000 0.250000 0.748123
O O13 0.281570 0.019880 0.809066
O O14 0.250000 0.250000 0.885948
#
# Coordination Sequence:
#
# PCOD8227931 Si02
#       6
#     8   8   8   8   8   8
#     4  10  18  30  50  81 111 137 179 235 285 330
#     4  10  19  31  53  79 111 141 180 232 284 333
#     4   9  19  34  56  81 107 146 192 235 284 346
#     4  10  21  37  54  79 115 158 189 222 287 355
#     4   9  17  29  49  83 113 138 178 233 293 329
#     4  10  18  33  59  83 104 142 194 237 279 342
#
# _framework density 18.349178999999999
#
# number of rings (size 3 to 8) (size 9 to 14) (size 15 to 20)
#    0.000    2.333    3.333    0.000    0.000    0.000 
#    0.000    5.000    0.000   13.000    0.000    0.000 
#    0.000    0.000    0.000    0.000    0.000    0.000 
#
# Total GULP energy -594701.561220 kJ/mol
# GULP energy per Si atom -12389.615859 kJ/mol
# Density = 1.830742 g / cm^3
# Si number density = 18.349179 Si / 1000 Ang^3
#
#
#
# Elastic Constant Matrix: (Units=GPa)
#
#
# Indices 1 2 3 4 5 6 
#
# 1 118.4510 30.0287 59.7170 0.0000 0.0000 0.0000
# 2 30.0287 91.0370 40.8006 0.0000 0.0000 0.0000
# 3 59.7170 40.8006 102.1775 0.0000 0.0000 0.0000
# 4 0.0000 0.0000 0.0000 16.8772 0.0000 0.0000
# 5 0.0000 0.0000 0.0000 0.0000 24.1646 0.0000
# 6 0.0000 0.0000 0.0000 0.0000 0.0000 20.3632
#
#
#
# Elastic Compliance Matrix: (Units=1/GPa)
#
#
# Indices 1 2 3 4 5 6 
#
# 1 0.012043 -0.000996 -0.006640 0.000000 0.000000 0.000000
# 2 -0.000996 0.013461 -0.004793 0.000000 0.000000 0.000000
# 3 -0.006640 -0.004793 0.015582 0.000000 0.000000 0.000000
# 4 0.000000 0.000000 0.000000 0.059251 0.000000 0.000000
# 5 0.000000 0.000000 0.000000 0.000000 0.041383 0.000000
# 6 0.000000 0.000000 0.000000 0.000000 0.000000 0.049108
#
#
# Mechanical properties :
#
#
# Convention : Reuss Voigt Hill
#
# Bulk Modulus (GPa) = 61.62816 63.63979 62.63398
# Shear Modulus (GPa) = 22.61460 24.35563 23.48512
#
# Velocity S-wave (km/s) = 3.51445 3.64722 3.58145
# Velocity P-wave (km/s) = 7.08009 7.24529 7.16317
#
# Compressibility (1/GPa) = 0.01622635
#
# Stress axis : x y z
#
# Youngs Moduli (GPa) = 83.03825 74.28732 64.17762
#
# Poissons Ratio (x) = 0.07400 0.42617
# Poissons Ratio (y) = 0.08272 0.30760
# Poissons Ratio (z) = 0.55141 0.35606
#
# Static dielectric constant tensor:
#      x y z
#    x 3.858830 0.000000 0.000000 
#    y 0.000000 3.541700 0.000000 
#    z 0.000000 0.000000 2.941020 
# 
# 
# High freq. dielectric constant tensor:
#      x y z
#    x 1.729260 0.000000 0.000000 
#    y 0.000000 1.711960 0.000000 
#    z 0.000000 0.000000 1.654510 
# 
# From -- ./inp_files/18975.got.cif
#   From: 2010.03.12/outbox.cif.g09.slc.cpg/sg56_10_cif.got.tgz:18975.got - 2010.04.16 15:33:40.
