data_PCOD8227150
_publ_section_title
;
Structure prediction by ZEFSAII (Michael W. Deem and Ramdas Pophale) SiO2 
 PCOD8227150
Probable space group: P B A M
;
_chemical_formula_sum "Si O2"
_cell_formula_units_Z 44
_cell_length_a 14.628907
_cell_length_b 13.903185
_cell_length_c 11.410212
_cell_angle_alpha 90.000000
_cell_angle_beta 90.000000
_cell_angle_gamma 90.000000
_cell_volume 2320.704767
_symmetry_space_group_name_H-M "P B A M"
_symmetry_group_IT_number 55
_symmetry_cell_setting 'orthorhombic'
loop_
_space_group_symop_operation_xyz
x,y,z
-x,-y,z
1/2+x,1/2-y,-z
1/2-x,1/2+y,-z
-x,-y,-z
x,y,-z
1/2-x,1/2+y,z
1/2+x,1/2-y,z
loop_
_atom_site_type_symbol
_atom_site_label
_atom_site_fract_x
_atom_site_fract_y
_atom_site_fract_z
Si Si1 0.441265 0.595025 0.500000
Si Si2 0.998764 0.756642 0.689712
Si Si3 0.758994 0.358792 0.500000
Si Si4 0.038668 0.603467 0.500000
Si Si5 0.394527 0.018159 0.136175
Si Si6 0.687950 0.794331 0.745689
Si Si7 0.349022 0.806291 0.865990
O O1 0.500000 0.500000 0.500000
O O2 0.466333 0.652830 0.384022
O O3 0.331894 0.574806 0.500000
O O4 0.004280 0.659778 0.613462
O O5 0.930862 0.742414 0.796157
O O6 0.100599 0.776352 0.738053
O O7 0.760181 0.295161 0.380697
O O8 0.852908 0.417668 0.500000
O O9 0.000000 0.500000 0.500000
O O10 0.339183 0.919801 0.160789
O O11 0.500000 0.000000 0.173276
O O12 0.346237 0.099904 0.214170
O O13 0.390019 0.049078 0.000000
O O14 0.754619 0.747301 0.839782
O O15 0.375311 0.790181 0.000000
#
# Coordination Sequence:
#
# PCOD8227150 Si02
#       7
#     4   8   4   4   8   8   8
#     4  11  23  45  61  84 124 174 209 252 314 391
#     4  10  22  40  61  90 122 159 213 254 313 376
#     4  10  22  36  60  90 114 160 208 239 319 369
#     4   9  21  37  61  94 122 152 195 261 321 362
#     4  10  21  38  63  92 121 164 210 253 311 366
#     4  11  22  40  63  91 129 158 205 270 311 375
#     4  11  23  38  64  93 125 168 207 256 318 367
#
# _framework density 18.959758000000001
#
# number of rings (size 3 to 8) (size 9 to 14) (size 15 to 20)
#    0.000    1.636    3.636    1.091    5.091    2.182 
#    0.000    0.909    0.000    0.545    0.000    0.000 
#    0.000    0.000    0.000    0.000    0.000    0.000 
#
# Total GULP energy -545502.112558 kJ/mol
# GULP energy per Si atom -12397.775285 kJ/mol
# Density = 1.891660 g / cm^3
# Si number density = 18.959758 Si / 1000 Ang^3
#
#
#
# Elastic Constant Matrix: (Units=GPa)
#
#
# Indices 1 2 3 4 5 6 
#
# 1 136.2925 60.0196 48.5163 0.0000 0.0000 0.0000
# 2 60.0196 103.7668 49.0361 0.0000 0.0000 0.0000
# 3 48.5163 49.0361 110.5886 0.0000 0.0000 0.0000
# 4 0.0000 0.0000 0.0000 8.2775 0.0000 0.0000
# 5 0.0000 0.0000 0.0000 0.0000 31.8943 0.0000
# 6 0.0000 0.0000 0.0000 0.0000 0.0000 32.5338
#
#
#
# Elastic Compliance Matrix: (Units=1/GPa)
#
#
# Indices 1 2 3 4 5 6 
#
# 1 0.010317 -0.004843 -0.002378 0.000000 0.000000 0.000000
# 2 -0.004843 0.014465 -0.004289 0.000000 0.000000 0.000000
# 3 -0.002378 -0.004289 0.011988 0.000000 0.000000 0.000000
# 4 0.000000 0.000000 0.000000 0.120809 0.000000 0.000000
# 5 0.000000 0.000000 0.000000 0.000000 0.031354 0.000000
# 6 0.000000 0.000000 0.000000 0.000000 0.000000 0.030737
#
#
# Mechanical properties :
#
#
# Convention : Reuss Voigt Hill
#
# Bulk Modulus (GPa) = 72.73867 73.97686 73.35777
# Shear Modulus (GPa) = 20.22041 27.41285 23.81663
#
# Velocity S-wave (km/s) = 3.26926 3.80655 3.54809
# Velocity P-wave (km/s) = 7.25939 7.64345 7.45390
#
# Compressibility (1/GPa) = 0.01374785
#
# Stress axis : x y z
#
# Youngs Moduli (GPa) = 96.93033 69.13073 83.41753
#
# Poissons Ratio (x) = 0.33482 0.19841
# Poissons Ratio (y) = 0.46946 0.35780
# Poissons Ratio (z) = 0.23055 0.29652
#
# Static dielectric constant tensor:
#      x y z
#    x 3.646930 0.000000 0.000000 
#    y 0.000000 3.267310 0.000000 
#    z 0.000000 0.000000 3.689080 
# 
# 
# High freq. dielectric constant tensor:
#      x y z
#    x 1.746010 0.000000 0.000000 
#    y 0.000000 1.710660 0.000000 
#    z 0.000000 0.000000 1.753270 
# 
# From -- ./inp_files/14079.got.cif
#   From: 2010.03.12/outbox.cif.g09.slc.cpg/sg55_8_cif.got.tgz:14079.got - 2010.04.16 15:19:21.
