data_PCOD8227426
_publ_section_title
;
Structure prediction by ZEFSAII (Michael W. Deem and Ramdas Pophale) SiO2 
 PCOD8227426
Probable space group: P B A M
;
_chemical_formula_sum "Si O2"
_cell_formula_units_Z 48
_cell_length_a 20.945022
_cell_length_b 8.680034
_cell_length_c 13.076464
_cell_angle_alpha 90.000000
_cell_angle_beta 90.000000
_cell_angle_gamma 90.000000
_cell_volume 2377.346963
_symmetry_space_group_name_H-M "P B A M"
_symmetry_group_IT_number 55
_symmetry_cell_setting 'orthorhombic'
loop_
_space_group_symop_operation_xyz
x,y,z
-x,-y,z
1/2+x,1/2-y,-z
1/2-x,1/2+y,-z
-x,-y,-z
x,y,-z
1/2-x,1/2+y,z
1/2+x,1/2-y,z
loop_
_atom_site_type_symbol
_atom_site_label
_atom_site_fract_x
_atom_site_fract_y
_atom_site_fract_z
Si Si1 0.243726 0.816336 0.682209
Si Si2 0.065808 0.413364 0.883993
Si Si3 0.186340 0.558865 0.196635
Si Si4 0.764316 0.273629 0.000000
Si Si5 0.842386 0.921537 0.612322
Si Si6 0.346078 0.525510 0.000000
Si Si7 0.069086 0.075143 0.192449
O O1 0.270760 0.906710 0.782152
O O2 0.193870 0.682332 0.712412
O O3 0.304455 0.738845 0.626974
O O4 0.207355 0.936362 0.610253
O O5 0.113008 0.514807 0.815560
O O6 0.057116 0.252330 0.828832
O O7 0.000000 0.500000 0.884840
O O8 0.090739 0.389906 0.000000
O O9 0.209911 0.637969 0.096158
O O10 0.787611 0.097278 0.000000
O O11 0.686750 0.302593 0.000000
O O12 0.875171 0.916144 0.500000
O O13 0.894682 0.947619 0.700247
O O14 0.389247 0.500120 0.100807
O O15 0.000000 0.000000 0.198765
#
# Coordination Sequence:
#
# PCOD8227426 Si02
#       7
#     8   8   8   4   8   4   8
#     4  10  22  39  65  96 126 162 207 271 330 390
#     4  11  25  41  62  90 129 175 220 261 310 381
#     4  11  21  38  59  93 131 165 209 259 323 383
#     4  12  24  34  62  94 135 167 204 257 325 396
#     4  11  23  43  69  97 129 168 214 270 330 386
#     4  12  27  42  64  99 135 168 212 266 329 382
#     4  12  27  44  66  92 133 173 222 266 312 385
#
# _framework density 20.190574000000002
#
# number of rings (size 3 to 8) (size 9 to 14) (size 15 to 20)
#    0.000    0.833    3.333    4.750    7.000    0.333 
#    0.000    0.000    0.000    0.500    0.000    0.000 
#    0.000    0.000    0.000    0.000    0.000    0.000 
#
# Total GULP energy -595115.360427 kJ/mol
# GULP energy per Si atom -12398.236676 kJ/mol
# Density = 2.014462 g / cm^3
# Si number density = 20.190574 Si / 1000 Ang^3
#
#
#
# Elastic Constant Matrix: (Units=GPa)
#
#
# Indices 1 2 3 4 5 6 
#
# 1 110.1234 49.3897 48.1911 0.0000 0.0000 0.0000
# 2 49.3897 93.2546 36.8477 0.0000 0.0000 0.0000
# 3 48.1911 36.8477 131.7406 0.0000 0.0000 0.0000
# 4 0.0000 0.0000 0.0000 19.7384 0.0000 0.0000
# 5 0.0000 0.0000 0.0000 0.0000 19.3614 0.0000
# 6 0.0000 0.0000 0.0000 0.0000 0.0000 36.7553
#
#
#
# Elastic Compliance Matrix: (Units=1/GPa)
#
#
# Indices 1 2 3 4 5 6 
#
# 1 0.012996 -0.005626 -0.003180 0.000000 0.000000 0.000000
# 2 -0.005626 0.014491 -0.001995 0.000000 0.000000 0.000000
# 3 -0.003180 -0.001995 0.009312 0.000000 0.000000 0.000000
# 4 0.000000 0.000000 0.000000 0.050663 0.000000 0.000000
# 5 0.000000 0.000000 0.000000 0.000000 0.051649 0.000000
# 6 0.000000 0.000000 0.000000 0.000000 0.000000 0.027207
#
#
# Mechanical properties :
#
#
# Convention : Reuss Voigt Hill
#
# Bulk Modulus (GPa) = 65.80670 67.10842 66.45756
# Shear Modulus (GPa) = 25.90855 28.55038 27.22947
#
# Velocity S-wave (km/s) = 3.58606 3.76446 3.67634
# Velocity P-wave (km/s) = 7.05762 7.22527 7.14194
#
# Compressibility (1/GPa) = 0.01519602
#
# Stress axis : x y z
#
# Youngs Moduli (GPa) = 76.94813 69.00620 107.38772
#
# Poissons Ratio (x) = 0.38825 0.34152
# Poissons Ratio (y) = 0.43293 0.21425
# Poissons Ratio (z) = 0.24471 0.13768
#
# Static dielectric constant tensor:
#      x y z
#    x 5.312340 0.000000 0.000000 
#    y 0.000000 4.001890 0.000000 
#    z 0.000000 0.000000 3.548800 
# 
# 
# High freq. dielectric constant tensor:
#      x y z
#    x 1.779340 0.000000 0.000000 
#    y 0.000000 1.807700 0.000000 
#    z 0.000000 0.000000 1.777190 
# 
# From -- ./inp_files/15655.got.cif
#   From: 2010.03.12/outbox.cif.g09.slc.cpg/sg55_8_cif.got.tgz:15655.got - 2010.04.16 15:19:21.
