data_PCOD8227926
_publ_section_title
;
Structure prediction by ZEFSAII (Michael W. Deem and Ramdas Pophale) SiO2 
 PCOD8227926
Probable space group: P C C N
;
_chemical_formula_sum "Si O2"
_cell_formula_units_Z 40
_cell_length_a 21.802028
_cell_length_b 8.626929
_cell_length_c 9.318122
_cell_angle_alpha 90.000000
_cell_angle_beta 90.000000
_cell_angle_gamma 90.000000
_cell_volume 1752.594761
_symmetry_space_group_name_H-M "P C C N"
_symmetry_group_IT_number 56
_symmetry_cell_setting 'orthorhombic'
loop_
_space_group_symop_operation_xyz
x,y,z
1/2-x,1/2-y,z
1/2+x,-y,1/2-z
-x,1/2+y,1/2-z
-x,-y,-z
1/2+x,1/2+y,-z
1/2-x,y,1/2+z
x,1/2-y,1/2+z
loop_
_atom_site_type_symbol
_atom_site_label
_atom_site_fract_x
_atom_site_fract_y
_atom_site_fract_z
Si Si1 0.171983 0.998364 0.448597
Si Si2 0.045413 0.640951 0.650630
Si Si3 0.732164 0.428166 0.272565
Si Si4 0.879962 0.321444 0.617291
Si Si5 0.041930 0.098571 0.392203
O O1 0.210887 0.016018 0.302010
O O2 0.215718 0.026837 0.585565
O O3 0.148242 0.823805 0.466636
O O4 0.112601 0.109490 0.444294
O O5 0.084712 0.764869 0.741253
O O6 0.076337 0.595067 0.498785
O O7 0.036568 0.482505 0.736814
O O8 0.980689 0.724796 0.618413
O O9 0.750000 0.250000 0.308659
O O10 0.674248 0.436086 0.164652
O O11 0.000000 0.000000 0.500000
#
# Coordination Sequence:
#
# PCOD8227926 Si02
#       5
#     8   8   8   8   8
#     4  10  20  30  54  80 125 152 191 251 320 354
#     4  11  21  37  62  87 125 164 203 252 313 376
#     4  10  18  29  51  86 121 153 191 255 318 368
#     4  10  18  33  54  87 121 152 196 250 313 364
#     4  11  22  40  59  89 130 162 205 261 310 371
#
# _framework density 22.823302000000002
#
# number of rings (size 3 to 8) (size 9 to 14) (size 15 to 20)
#    0.000    1.600    6.000    1.800    5.600    0.800 
#    0.000    0.000    0.000    0.000    0.000   11.200 
#    0.000    0.000    0.000    0.000    0.000    0.000 
#
# Total GULP energy -495966.564134 kJ/mol
# GULP energy per Si atom -12399.164103 kJ/mol
# Density = 2.277136 g / cm^3
# Si number density = 22.823302 Si / 1000 Ang^3
#
#
#
# Elastic Constant Matrix: (Units=GPa)
#
#
# Indices 1 2 3 4 5 6 
#
# 1 152.7070 22.0151 59.6004 0.0000 0.0000 0.0000
# 2 22.0151 17.7385 12.6932 0.0000 0.0000 0.0000
# 3 59.6004 12.6932 125.1163 0.0000 0.0000 0.0000
# 4 0.0000 0.0000 0.0000 13.6084 0.0000 0.0000
# 5 0.0000 0.0000 0.0000 0.0000 55.5941 0.0000
# 6 0.0000 0.0000 0.0000 0.0000 0.0000 22.1295
#
#
#
# Elastic Compliance Matrix: (Units=1/GPa)
#
#
# Indices 1 2 3 4 5 6 
#
# 1 0.009190 -0.008921 -0.003473 0.000000 0.000000 0.000000
# 2 -0.008921 0.069447 -0.002796 0.000000 0.000000 0.000000
# 3 -0.003473 -0.002796 0.009930 0.000000 0.000000 0.000000
# 4 0.000000 0.000000 0.000000 0.073484 0.000000 0.000000
# 5 0.000000 0.000000 0.000000 0.000000 0.017988 0.000000
# 6 0.000000 0.000000 0.000000 0.000000 0.000000 0.045189
#
#
# Mechanical properties :
#
#
# Convention : Reuss Voigt Hill
#
# Bulk Modulus (GPa) = 17.18555 53.79768 35.49161
# Shear Modulus (GPa) = 18.18171 31.68327 24.93249
#
# Velocity S-wave (km/s) = 2.82552 3.72990 3.30875
# Velocity P-wave (km/s) = 4.26509 6.49400 5.49377
#
# Compressibility (1/GPa) = 0.05818843
#
# Stress axis : x y z
#
# Youngs Moduli (GPa) = 108.81529 14.39956 100.70005
#
# Poissons Ratio (x) = 0.12845 0.34970
# Poissons Ratio (y) = 0.97069 0.28156
# Poissons Ratio (z) = 0.37788 0.04026
#
# Static dielectric constant tensor:
#      x y z
#    x 4.637550 0.000000 0.000000 
#    y 0.000000 3.324650 0.000000 
#    z 0.000000 0.000000 4.170920 
# 
# 
# High freq. dielectric constant tensor:
#      x y z
#    x 1.918380 0.000000 0.000000 
#    y 0.000000 1.819800 0.000000 
#    z 0.000000 0.000000 1.916590 
# 
# From -- ./inp_files/2042.got.cif
#   From: 2010.03.12/outbox.cif.g09.slc.cpg/sg56_2_cif.got.tgz:2042.got - 2010.04.16 15:33:40.
