data_PCOD8227228
_publ_section_title
;
Structure prediction by ZEFSAII (Michael W. Deem and Ramdas Pophale) SiO2 
 PCOD8227228
Probable space group: P B A M
;
_chemical_formula_sum "Si O2"
_cell_formula_units_Z 64
_cell_length_a 8.584164
_cell_length_b 14.859147
_cell_length_c 24.438558
_cell_angle_alpha 90.000000
_cell_angle_beta 90.000000
_cell_angle_gamma 90.000000
_cell_volume 3117.220058
_symmetry_space_group_name_H-M "P B A M"
_symmetry_group_IT_number 55
_symmetry_cell_setting 'orthorhombic'
loop_
_space_group_symop_operation_xyz
x,y,z
-x,-y,z
1/2+x,1/2-y,-z
1/2-x,1/2+y,-z
-x,-y,-z
x,y,-z
1/2-x,1/2+y,z
1/2+x,1/2-y,z
loop_
_atom_site_type_symbol
_atom_site_label
_atom_site_fract_x
_atom_site_fract_y
_atom_site_fract_z
Si Si1 0.817195 0.319573 0.436749
Si Si2 0.924591 0.306830 0.942201
Si Si3 0.392410 0.181204 0.824202
Si Si4 0.330556 0.866940 0.563437
Si Si5 0.752723 0.628683 0.823210
Si Si6 0.820638 0.974119 0.629136
Si Si7 0.180098 0.525915 0.252787
Si Si8 0.731438 0.626956 0.941806
O O1 0.783163 0.339110 0.500000
O O2 0.783456 0.215687 0.423140
O O3 0.698797 0.380950 0.402916
O O4 0.994417 0.339759 0.420701
O O5 0.844984 0.346749 0.887042
O O6 0.905756 0.199493 0.942860
O O7 0.108330 0.318764 0.940522
O O8 0.858550 0.348769 0.000000
O O9 0.360190 0.286532 0.812968
O O10 0.575019 0.167577 0.817456
O O11 0.300797 0.117218 0.782337
O O12 0.319052 0.895619 0.500000
O O13 0.283936 0.950301 0.600571
O O14 0.725076 0.553575 0.777322
O O15 0.723116 0.577928 0.882527
O O16 0.761780 0.957801 0.689995
O O17 0.000000 0.000000 0.628115
O O18 0.000000 0.500000 0.260225
O O19 0.722496 0.569699 0.000000
#
# Coordination Sequence:
#
# PCOD8227228 Si02
#       8
#     8   8   8   8   8   8   8   8
#     4  10  21  39  64  93 123 153 185 224 273 328
#     4   8  13  23  42  69  97 124 159 205 260 323
#     4   9  18  33  53  74  99 135 174 217 271 326
#     4  10  21  39  64  93 123 153 185 224 273 328
#     4   9  18  33  53  74  99 135 174 217 271 326
#     4  12  25  39  58  84 115 153 195 236 279 326
#     4  10  22  39  54  72 104 143 185 230 275 324
#     4   8  13  23  42  69  97 124 159 205 260 323
#
# _framework density 20.531113999999999
#
# number of rings (size 3 to 8) (size 9 to 14) (size 15 to 20)
#    0.000    2.500    0.000    2.250    0.000    5.000 
#    0.000    3.125    0.000    3.750    0.000    0.000 
#    0.000   21.000    0.000    0.000    0.000    0.000 
#
# Total GULP energy -792888.676620 kJ/mol
# GULP energy per Si atom -12388.885572 kJ/mol
# Density = 2.048438 g / cm^3
# Si number density = 20.531114 Si / 1000 Ang^3
#
#
#
# Elastic Constant Matrix: (Units=GPa)
#
#
# Indices 1 2 3 4 5 6 
#
# 1 33.9074 -1.9221 18.0486 0.0000 0.0000 0.0000
# 2 -1.9221 49.8020 29.7552 0.0000 0.0000 0.0000
# 3 18.0486 29.7552 110.0553 0.0000 0.0000 0.0000
# 4 0.0000 0.0000 0.0000 13.5315 0.0000 0.0000
# 5 0.0000 0.0000 0.0000 0.0000 -51.3164 0.0000
# 6 0.0000 0.0000 0.0000 0.0000 0.0000 26.7074
#
#
#
# Elastic Compliance Matrix: (Units=1/GPa)
#
#
# Indices 1 2 3 4 5 6 
#
# 1 0.033513 0.005459 -0.006972 0.000000 0.000000 0.000000
# 2 0.005459 0.024837 -0.007610 0.000000 0.000000 0.000000
# 3 -0.006972 -0.007610 0.012287 0.000000 0.000000 0.000000
# 4 0.000000 0.000000 0.000000 0.073901 0.000000 0.000000
# 5 0.000000 0.000000 0.000000 0.000000 -0.019487 0.000000
# 6 0.000000 0.000000 0.000000 0.000000 0.000000 0.037443
#
#
# Mechanical properties :
#
#
# Convention : Reuss Voigt Hill
#
# Bulk Modulus (GPa) = 19.08746 31.72535 25.40641
# Shear Modulus (GPa) = 25.22649 7.64337 16.43493
#
# Velocity S-wave (km/s) = 3.50908 1.93156 2.83236
# Velocity P-wave (km/s) = 5.07299 4.52332 4.80602
#
# Compressibility (1/GPa) = 0.05239041
#
# Stress axis : x y z
#
# Youngs Moduli (GPa) = 29.83959 40.26222 81.38504
#
# Poissons Ratio (x) = -0.21979 0.56740
# Poissons Ratio (y) = -0.16289 0.61937
# Poissons Ratio (z) = 0.20804 0.30641
#
# Static dielectric constant tensor:
#      x y z
#    x 3.647680 0.000000 0.000000 
#    y 0.000000 3.543820 0.000000 
#    z 0.000000 0.000000 4.126380 
# 
# 
# High freq. dielectric constant tensor:
#      x y z
#    x 1.794610 0.000000 0.000000 
#    y 0.000000 1.774820 0.000000 
#    z 0.000000 0.000000 1.818030 
# 
# From -- ./inp_files/23490.got.cif
#   From: 2010.03.12/outbox.cif.g09.slc.cpg/sg55_12_cif.got.tgz:23490.got - 2010.04.16 15:19:21.
