data_PCOD8227281
_publ_section_title
;
Structure prediction by ZEFSAII (Michael W. Deem and Ramdas Pophale) SiO2 
 PCOD8227281
Probable space group: P B A M
;
_chemical_formula_sum "Si O2"
_cell_formula_units_Z 48
_cell_length_a 31.451129
_cell_length_b 9.205892
_cell_length_c 7.759327
_cell_angle_alpha 90.000000
_cell_angle_beta 90.000000
_cell_angle_gamma 90.000000
_cell_volume 2246.602150
_symmetry_space_group_name_H-M "P B A M"
_symmetry_group_IT_number 55
_symmetry_cell_setting 'orthorhombic'
loop_
_space_group_symop_operation_xyz
x,y,z
-x,-y,z
1/2+x,1/2-y,-z
1/2-x,1/2+y,-z
-x,-y,-z
x,y,-z
1/2-x,1/2+y,z
1/2+x,1/2-y,z
loop_
_atom_site_type_symbol
_atom_site_label
_atom_site_fract_x
_atom_site_fract_y
_atom_site_fract_z
Si Si1 0.708653 0.627330 0.195369
Si Si2 0.870737 0.961593 0.696971
Si Si3 0.509352 0.311473 0.000000
Si Si4 0.427143 0.432843 0.000000
Si Si5 0.209715 0.539453 0.701464
Si Si6 0.629563 0.132923 0.698544
Si Si7 0.965016 0.618163 0.696563
O O1 0.675615 0.534410 0.307695
O O2 0.712555 0.789730 0.266088
O O3 0.753623 0.546757 0.200357
O O4 0.692220 0.632662 0.000000
O O5 0.888809 0.964045 0.500000
O O6 0.868398 0.797480 0.773789
O O7 0.900002 0.056025 0.825049
O O8 0.527948 0.248596 0.175823
O O9 0.457367 0.289086 0.000000
O O10 0.531928 0.465471 0.000000
O O11 0.214709 0.509566 0.500000
O O12 0.165235 0.474489 0.777000
O O13 0.640424 0.150698 0.500000
O O14 0.583215 0.060516 0.728074
O O15 0.969870 0.673109 0.500000
O O16 0.000000 0.500000 0.742462
#
# Coordination Sequence:
#
# PCOD8227281 Si02
#       7
#     8   8   4   4   8   8   8
#     4  12  25  43  63  98 135 168 215 268 323 384
#     4  11  22  43  69  93 129 174 216 268 325 387
#     4  11  23  40  62  93 132 165 208 271 326 380
#     4  11  24  40  62  97 127 166 218 261 319 397
#     4  11  23  42  66  94 129 173 217 262 321 390
#     4   9  20  39  65  93 123 168 222 267 322 387
#     4  10  21  40  64  92 127 170 219 270 326 390
#
# _framework density 21.365597999999999
#
# number of rings (size 3 to 8) (size 9 to 14) (size 15 to 20)
#    0.000    1.333    2.500    3.250    0.000    3.333 
#    6.000    3.333    0.000    0.000    0.000    0.000 
#    0.000    0.000    0.000    0.000    0.000    0.000 
#
# Total GULP energy -594927.258035 kJ/mol
# GULP energy per Si atom -12394.317876 kJ/mol
# Density = 2.131697 g / cm^3
# Si number density = 21.365598 Si / 1000 Ang^3
#
#
#
# Elastic Constant Matrix: (Units=GPa)
#
#
# Indices 1 2 3 4 5 6 
#
# 1 150.3415 45.2123 18.7590 0.0000 0.0000 0.0000
# 2 45.2123 70.6769 2.6878 0.0000 0.0000 0.0000
# 3 18.7590 2.6878 81.0345 0.0000 0.0000 0.0000
# 4 0.0000 0.0000 0.0000 25.8805 0.0000 0.0000
# 5 0.0000 0.0000 0.0000 0.0000 30.3846 0.0000
# 6 0.0000 0.0000 0.0000 0.0000 0.0000 45.6826
#
#
#
# Elastic Compliance Matrix: (Units=1/GPa)
#
#
# Indices 1 2 3 4 5 6 
#
# 1 0.008487 -0.005361 -0.001787 0.000000 0.000000 0.000000
# 2 -0.005361 0.017553 0.000659 0.000000 0.000000 0.000000
# 3 -0.001787 0.000659 0.012732 0.000000 0.000000 0.000000
# 4 0.000000 0.000000 0.000000 0.038639 0.000000 0.000000
# 5 0.000000 0.000000 0.000000 0.000000 0.032911 0.000000
# 6 0.000000 0.000000 0.000000 0.000000 0.000000 0.021890
#
#
# Mechanical properties :
#
#
# Convention : Reuss Voigt Hill
#
# Bulk Modulus (GPa) = 38.76839 48.37458 43.57148
# Shear Modulus (GPa) = 32.51207 36.08246 34.29727
#
# Velocity S-wave (km/s) = 3.90513 4.11397 4.01091
# Velocity P-wave (km/s) = 6.20629 6.72732 6.47205
#
# Compressibility (1/GPa) = 0.02579421
#
# Stress axis : x y z
#
# Youngs Moduli (GPa) = 117.83145 56.96933 78.54095
#
# Poissons Ratio (x) = 0.30541 0.14034
# Poissons Ratio (y) = 0.63170 -0.05175
# Poissons Ratio (z) = 0.21054 -0.03753
#
# Static dielectric constant tensor:
#      x y z
#    x 4.106160 0.000000 0.000000 
#    y 0.000000 3.867010 0.000000 
#    z 0.000000 0.000000 3.759140 
# 
# 
# High freq. dielectric constant tensor:
#      x y z
#    x 1.856350 0.000000 0.000000 
#    y 0.000000 1.824400 0.000000 
#    z 0.000000 0.000000 1.838800 
# 
# From -- ./inp_files/10580.got.cif
#   From: 2010.03.12/outbox.cif.g09.slc.cpg/sg55_6_cif.got.tgz:10580.got - 2010.04.16 15:19:21.
