data_PCOD8227938
_publ_section_title
;
Structure prediction by ZEFSAII (Michael W. Deem and Ramdas Pophale) SiO2 
 PCOD8227938
Probable space group: P C C N
;
_chemical_formula_sum "Si O2"
_cell_formula_units_Z 64
_cell_length_a 18.805616
_cell_length_b 18.729604
_cell_length_c 9.048630
_cell_angle_alpha 90.000000
_cell_angle_beta 90.000000
_cell_angle_gamma 90.000000
_cell_volume 3187.124209
_symmetry_space_group_name_H-M "P C C N"
_symmetry_group_IT_number 56
_symmetry_cell_setting 'orthorhombic'
loop_
_space_group_symop_operation_xyz
x,y,z
1/2-x,1/2-y,z
1/2+x,-y,1/2-z
-x,1/2+y,1/2-z
-x,-y,-z
1/2+x,1/2+y,-z
1/2-x,y,1/2+z
x,1/2-y,1/2+z
loop_
_atom_site_type_symbol
_atom_site_label
_atom_site_fract_x
_atom_site_fract_y
_atom_site_fract_z
Si Si1 0.047266 0.265405 0.103901
Si Si2 0.285649 0.825868 0.531308
Si Si3 0.077913 0.600315 0.630473
Si Si4 0.980823 0.994555 0.668973
Si Si5 0.983507 0.341320 0.832285
Si Si6 0.111406 0.492711 0.370624
Si Si7 0.823821 0.114156 0.273095
Si Si8 0.920479 0.843094 0.121469
O O1 0.996598 0.218017 0.208716
O O2 0.095667 0.314207 0.212434
O O3 0.998283 0.314388 0.998559
O O4 0.098258 0.216935 0.001015
O O5 0.250000 0.750000 0.569735
O O6 0.358808 0.840911 0.622337
O O7 0.297343 0.832881 0.356600
O O8 0.229286 0.884499 0.588916
O O9 0.081077 0.550714 0.780263
O O10 0.084603 0.543387 0.499719
O O11 0.005589 0.644003 0.608445
O O12 0.966651 0.910693 0.704045
O O13 0.000000 0.000000 0.500000
O O14 0.047298 0.023530 0.760194
O O15 0.902014 0.364875 0.826178
O O16 0.176021 0.532481 0.287420
O O17 0.129423 0.411463 0.419249
#
# Coordination Sequence:
#
# PCOD8227938 Si02
#       8
#     8   8   8   8   8   8   8   8
#     4  10  20  28  48  76 109 129 165 206 270 340
#     4  11  24  37  50  75 105 147 189 227 260 310
#     4  10  20  35  53  69 103 147 186 218 265 320
#     4  10  18  31  52  79  99 127 180 237 278 314
#     4  10  20  33  49  74 102 140 174 220 274 327
#     4   9  18  35  54  69  96 140 180 220 267 324
#     4  10  23  37  52  70 101 140 191 228 262 306
#     4  10  18  32  51  77 106 136 169 213 274 327
#
# _framework density 20.080798000000001
#
# number of rings (size 3 to 8) (size 9 to 14) (size 15 to 20)
#    0.000    2.000    0.000    6.375    5.250    3.000 
#    0.000    0.000    0.000    0.000    0.000    0.000 
#    0.000   34.000    0.000    0.000    0.000    0.000 
#
# Total GULP energy -793006.974385 kJ/mol
# GULP energy per Si atom -12390.733975 kJ/mol
# Density = 2.003509 g / cm^3
# Si number density = 20.080798 Si / 1000 Ang^3
#
#
#
# Elastic Constant Matrix: (Units=GPa)
#
#
# Indices 1 2 3 4 5 6 
#
# 1 32.4785 25.9847 10.5892 0.0000 0.0000 0.0000
# 2 25.9847 117.7935 29.9605 0.0000 0.0000 0.0000
# 3 10.5892 29.9605 102.6413 0.0000 0.0000 0.0000
# 4 0.0000 0.0000 0.0000 33.5270 0.0000 0.0000
# 5 0.0000 0.0000 0.0000 0.0000 13.8748 0.0000
# 6 0.0000 0.0000 0.0000 0.0000 0.0000 29.7459
#
#
#
# Elastic Compliance Matrix: (Units=1/GPa)
#
#
# Indices 1 2 3 4 5 6 
#
# 1 0.037623 -0.007899 -0.001576 0.000000 0.000000 0.000000
# 2 -0.007899 0.010829 -0.002346 0.000000 0.000000 0.000000
# 3 -0.001576 -0.002346 0.010590 0.000000 0.000000 0.000000
# 4 0.000000 0.000000 0.000000 0.029827 0.000000 0.000000
# 5 0.000000 0.000000 0.000000 0.000000 0.072073 0.000000
# 6 0.000000 0.000000 0.000000 0.000000 0.000000 0.033618
#
#
# Mechanical properties :
#
#
# Convention : Reuss Voigt Hill
#
# Bulk Modulus (GPa) = 28.24818 42.88689 35.56754
# Shear Modulus (GPa) = 21.73914 27.85480 24.79697
#
# Velocity S-wave (km/s) = 3.29383 3.72847 3.51787
# Velocity P-wave (km/s) = 5.34449 6.31972 5.85245
#
# Compressibility (1/GPa) = 0.03540051
#
# Stress axis : x y z
#
# Youngs Moduli (GPa) = 26.57966 92.34888 94.42867
#
# Poissons Ratio (x) = 0.72942 0.14881
# Poissons Ratio (y) = 0.20994 0.22152
# Poissons Ratio (z) = 0.04189 0.21664
#
# Static dielectric constant tensor:
#      x y z
#    x 3.264680 0.000000 0.000000 
#    y 0.000000 5.637710 0.000000 
#    z 0.000000 0.000000 3.894930 
# 
# 
# High freq. dielectric constant tensor:
#      x y z
#    x 1.706170 0.000000 0.000000 
#    y 0.000000 1.805780 0.000000 
#    z 0.000000 0.000000 1.801100 
# 
# From -- ./inp_files/4566.got.cif
#   From: 2010.03.12/outbox.cif.g09.slc.cpg/sg56_3_cif.got.tgz:4566.got - 2010.04.16 15:33:40.
