data_PCOD8227300
_publ_section_title
;
Structure prediction by ZEFSAII (Michael W. Deem and Ramdas Pophale) SiO2 
 PCOD8227300
Probable space group: P B A M
;
_chemical_formula_sum "Si O2"
_cell_formula_units_Z 40
_cell_length_a 27.482653
_cell_length_b 9.320859
_cell_length_c 7.298912
_cell_angle_alpha 90.000000
_cell_angle_beta 90.000000
_cell_angle_gamma 90.000000
_cell_volume 1869.703411
_symmetry_space_group_name_H-M "P B A M"
_symmetry_group_IT_number 55
_symmetry_cell_setting 'orthorhombic'
loop_
_space_group_symop_operation_xyz
x,y,z
-x,-y,z
1/2+x,1/2-y,-z
1/2-x,1/2+y,-z
-x,-y,-z
x,y,-z
1/2-x,1/2+y,z
1/2+x,1/2-y,z
loop_
_atom_site_type_symbol
_atom_site_label
_atom_site_fract_x
_atom_site_fract_y
_atom_site_fract_z
Si Si1 0.691677 0.513044 0.500000
Si Si2 0.206948 0.330946 0.500000
Si Si3 0.868763 0.177500 0.215196
Si Si4 0.957059 0.610859 0.202163
Si Si5 0.021074 0.851776 0.781930
Si Si6 0.144447 0.496751 0.216108
O O1 0.738160 0.615705 0.500000
O O2 0.703816 0.342991 0.500000
O O3 0.661132 0.553925 0.681210
O O4 0.182932 0.396284 0.317519
O O5 0.924266 0.173337 0.288056
O O6 0.847041 0.335060 0.260120
O O7 0.865888 0.142849 0.000000
O O8 0.908875 0.546472 0.295856
O O9 0.000000 0.500000 0.186313
O O10 0.981769 0.743293 0.308515
O O11 0.940068 0.659163 0.000000
O O12 0.021273 0.832442 0.000000
O O13 0.000000 0.000000 0.713704
O O14 0.149900 0.471201 0.000000
#
# Coordination Sequence:
#
# PCOD8227300 Si02
#       6
#     4   4   8   8   8   8
#     4  12  28  48  68  90 124 161 206 271 325 378
#     4  12  28  48  68  92 122 160 208 269 329 375
#     4  10  21  41  68  97 129 169 211 256 312 372
#     4   9  15  29  55  90 128 168 208 244 293 361
#     4   9  17  29  53  90 132 171 205 247 300 360
#     4  10  21  40  69  98 128 167 212 257 309 375
#
# _framework density 21.393765999999999
#
# number of rings (size 3 to 8) (size 9 to 14) (size 15 to 20)
#    0.000    2.000    2.000    1.800    2.800    1.600 
#    0.000    2.000    0.000    0.000    0.000    0.000 
#    0.000    0.000    0.000    0.000    0.000    0.000 
#
# Total GULP energy -495628.355038 kJ/mol
# GULP energy per Si atom -12390.708876 kJ/mol
# Density = 2.134507 g / cm^3
# Si number density = 21.393766 Si / 1000 Ang^3
#
#
#
# Elastic Constant Matrix: (Units=GPa)
#
#
# Indices 1 2 3 4 5 6 
#
# 1 87.5251 35.4883 30.2934 0.0000 0.0000 0.0000
# 2 35.4883 159.5397 36.2599 0.0000 0.0000 0.0000
# 3 30.2934 36.2599 80.7012 0.0000 0.0000 0.0000
# 4 0.0000 0.0000 0.0000 27.1932 0.0000 0.0000
# 5 0.0000 0.0000 0.0000 0.0000 42.3033 0.0000
# 6 0.0000 0.0000 0.0000 0.0000 0.0000 42.8315
#
#
#
# Elastic Compliance Matrix: (Units=1/GPa)
#
#
# Indices 1 2 3 4 5 6 
#
# 1 0.013734 -0.002097 -0.004213 0.000000 0.000000 0.000000
# 2 -0.002097 0.007301 -0.002493 0.000000 0.000000 0.000000
# 3 -0.004213 -0.002493 0.015093 0.000000 0.000000 0.000000
# 4 0.000000 0.000000 0.000000 0.036774 0.000000 0.000000
# 5 0.000000 0.000000 0.000000 0.000000 0.023639 0.000000
# 6 0.000000 0.000000 0.000000 0.000000 0.000000 0.023347
#
#
# Mechanical properties :
#
#
# Convention : Reuss Voigt Hill
#
# Bulk Modulus (GPa) = 53.99293 59.09435 56.54364
# Shear Modulus (GPa) = 34.80221 37.51391 36.15806
#
# Velocity S-wave (km/s) = 4.03767 4.19202 4.11557
# Velocity P-wave (km/s) = 6.85781 7.14933 7.00508
#
# Compressibility (1/GPa) = 0.01852094
#
# Stress axis : x y z
#
# Youngs Moduli (GPa) = 72.81252 136.96296 66.25564
#
# Poissons Ratio (x) = 0.28728 0.27913
# Poissons Ratio (y) = 0.15272 0.16519
# Poissons Ratio (z) = 0.30676 0.34147
#
# Static dielectric constant tensor:
#      x y z
#    x 3.917800 0.000000 0.000000 
#    y 0.000000 3.813760 0.000000 
#    z 0.000000 0.000000 3.683730 
# 
# 
# High freq. dielectric constant tensor:
#      x y z
#    x 1.837040 0.000000 0.000000 
#    y 0.000000 1.845190 0.000000 
#    z 0.000000 0.000000 1.826430 
# 
# From -- ./inp_files/9316.got.cif
#   From: 2010.03.12/outbox.cif.g09.slc.cpg/sg55_5_cif.got.tgz:9316.got - 2010.04.16 15:19:21.
