data_PCOD8227394
_publ_section_title
;
Structure prediction by ZEFSAII (Michael W. Deem and Ramdas Pophale) SiO2 
 PCOD8227394
Probable space group: P B A M
;
_chemical_formula_sum "Si O2"
_cell_formula_units_Z 48
_cell_length_a 11.768975
_cell_length_b 23.840076
_cell_length_c 8.964442
_cell_angle_alpha 90.000000
_cell_angle_beta 90.000000
_cell_angle_gamma 90.000000
_cell_volume 2515.182702
_symmetry_space_group_name_H-M "P B A M"
_symmetry_group_IT_number 55
_symmetry_cell_setting 'orthorhombic'
loop_
_space_group_symop_operation_xyz
x,y,z
-x,-y,z
1/2+x,1/2-y,-z
1/2-x,1/2+y,-z
-x,-y,-z
x,y,-z
1/2-x,1/2+y,z
1/2+x,1/2-y,z
loop_
_atom_site_type_symbol
_atom_site_label
_atom_site_fract_x
_atom_site_fract_y
_atom_site_fract_z
Si Si1 0.375364 0.640555 0.672281
Si Si2 0.158500 0.716818 0.672301
Si Si3 0.760306 0.452057 0.826480
Si Si4 0.524798 0.876573 0.173539
Si Si5 0.786544 0.577422 0.823420
Si Si6 0.391893 0.330257 0.823369
O O1 0.406475 0.633055 0.500000
O O2 0.277420 0.686001 0.697223
O O3 0.336702 0.580746 0.736699
O O4 0.482789 0.663085 0.760515
O O5 0.132600 0.728567 0.500000
O O6 0.056401 0.679337 0.736753
O O7 0.166727 0.774846 0.759668
O O8 0.883479 0.425240 0.799308
O O9 0.763614 0.515057 0.761637
O O10 0.726640 0.450415 0.000000
O O11 0.405448 0.898617 0.238752
O O12 0.516774 0.860371 0.000000
O O13 0.683837 0.617005 0.771811
O O14 0.797341 0.573862 0.000000
O O15 0.397271 0.325544 0.000000
#
# Coordination Sequence:
#
# PCOD8227394 Si02
#       6
#     8   8   8   8   8   8
#     4  10  22  40  58  79 112 150 189 229 278 336
#     4  10  22  39  57  79 110 146 185 232 283 334
#     4   9  17  34  60  85 113 147 185 229 280 332
#     4   9  17  33  59  88 112 144 185 229 281 336
#     4   9  19  34  55  87 117 143 182 234 281 328
#     4  11  23  37  56  82 112 147 189 233 278 333
#
# _framework density 19.084101
#
# number of rings (size 3 to 8) (size 9 to 14) (size 15 to 20)
#    0.000    2.333    0.000    2.000    2.333    4.667 
#    0.000    6.667    0.000    4.000    0.000    0.000 
#    0.000    0.000    0.000    0.000    0.000    0.000 
#
# Total GULP energy -595381.446494 kJ/mol
# GULP energy per Si atom -12403.780135 kJ/mol
# Density = 1.904066 g / cm^3
# Si number density = 19.084101 Si / 1000 Ang^3
#
#
#
# Elastic Constant Matrix: (Units=GPa)
#
#
# Indices 1 2 3 4 5 6 
#
# 1 79.9240 50.4023 41.5622 0.0000 0.0000 0.0000
# 2 50.4023 134.6373 56.1734 0.0000 0.0000 0.0000
# 3 41.5622 56.1734 81.2261 0.0000 0.0000 0.0000
# 4 0.0000 0.0000 0.0000 12.6055 0.0000 0.0000
# 5 0.0000 0.0000 0.0000 0.0000 22.5649 0.0000
# 6 0.0000 0.0000 0.0000 0.0000 0.0000 20.9724
#
#
#
# Elastic Compliance Matrix: (Units=1/GPa)
#
#
# Indices 1 2 3 4 5 6 
#
# 1 0.018601 -0.004206 -0.006609 0.000000 0.000000 0.000000
# 2 -0.004206 0.011391 -0.005725 0.000000 0.000000 0.000000
# 3 -0.006609 -0.005725 0.019653 0.000000 0.000000 0.000000
# 4 0.000000 0.000000 0.000000 0.079330 0.000000 0.000000
# 5 0.000000 0.000000 0.000000 0.000000 0.044317 0.000000
# 6 0.000000 0.000000 0.000000 0.000000 0.000000 0.047682
#
#
# Mechanical properties :
#
#
# Convention : Reuss Voigt Hill
#
# Bulk Modulus (GPa) = 60.37387 65.78480 63.07933
# Shear Modulus (GPa) = 19.26223 21.07185 20.16704
#
# Velocity S-wave (km/s) = 3.18045 3.32649 3.25429
# Velocity P-wave (km/s) = 6.72245 7.02139 6.87355
#
# Compressibility (1/GPa) = 0.01656346
#
# Stress axis : x y z
#
# Youngs Moduli (GPa) = 53.75979 87.79192 50.88401
#
# Poissons Ratio (x) = 0.36925 0.33631
# Poissons Ratio (y) = 0.22611 0.29132
# Poissons Ratio (z) = 0.35531 0.50263
#
# Static dielectric constant tensor:
#      x y z
#    x 3.471640 0.000000 0.000000 
#    y 0.000000 3.677610 0.000000 
#    z 0.000000 0.000000 3.364040 
# 
# 
# High freq. dielectric constant tensor:
#      x y z
#    x 1.744350 0.000000 0.000000 
#    y 0.000000 1.752120 0.000000 
#    z 0.000000 0.000000 1.726850 
# 
# From -- ./inp_files/4060.got.cif
#   From: 2010.03.12/outbox.cif.g09.slc.cpg/sg55_3_cif.got.tgz:4060.got - 2010.04.16 15:19:21.
