data_PCOD8227263
_publ_section_title
;
Structure prediction by ZEFSAII (Michael W. Deem and Ramdas Pophale) SiO2 
 PCOD8227263
Probable space group: P B A M
;
_chemical_formula_sum "Si O2"
_cell_formula_units_Z 48
_cell_length_a 13.795651
_cell_length_b 9.726158
_cell_length_c 17.737721
_cell_angle_alpha 90.000000
_cell_angle_beta 90.000000
_cell_angle_gamma 90.000000
_cell_volume 2380.024014
_symmetry_space_group_name_H-M "P B A M"
_symmetry_group_IT_number 55
_symmetry_cell_setting 'orthorhombic'
loop_
_space_group_symop_operation_xyz
x,y,z
-x,-y,z
1/2+x,1/2-y,-z
1/2-x,1/2+y,-z
-x,-y,-z
x,y,-z
1/2-x,1/2+y,z
1/2+x,1/2-y,z
loop_
_atom_site_type_symbol
_atom_site_label
_atom_site_fract_x
_atom_site_fract_y
_atom_site_fract_z
Si Si1 0.083304 0.394109 0.587232
Si Si2 0.454639 0.143656 0.087971
Si Si3 0.933136 0.882207 0.337082
Si Si4 0.718482 0.817848 0.196170
Si Si5 0.257200 0.953838 0.704319
Si Si6 0.437847 0.633773 0.169159
O O1 0.106646 0.418321 0.500000
O O2 0.052908 0.237515 0.602059
O O3 0.182695 0.407313 0.632614
O O4 0.000000 0.500000 0.613956
O O5 0.355904 0.194858 0.127655
O O6 0.537426 0.251476 0.108387
O O7 0.500000 0.000000 0.115313
O O8 0.431768 0.141437 0.000000
O O9 0.828853 0.951288 0.326960
O O10 0.968158 0.825612 0.255029
O O11 0.000000 0.000000 0.370050
O O12 0.725543 0.676237 0.244060
O O13 0.676395 0.941741 0.247419
O O14 0.821253 0.877381 0.165243
O O15 0.500000 0.500000 0.146121
#
# Coordination Sequence:
#
# PCOD8227263 Si02
#       6
#     8   8   8   8   8   8
#     4  11  26  43  63  97 133 172 214 265 333 387
#     4  11  25  40  61  96 132 170 212 272 343 393
#     4  10  22  40  66  93 124 167 221 266 313 390
#     4  11  22  40  67  96 125 170 224 276 324 394
#     4  11  22  41  65  97 121 169 219 261 327 384
#     4  10  21  40  63  93 122 169 224 264 323 393
#
# _framework density 20.167864000000002
#
# number of rings (size 3 to 8) (size 9 to 14) (size 15 to 20)
#    0.000    1.333    3.333    4.000    4.667    2.000 
#    0.000    4.167    0.000    0.000    0.000    0.000 
#    0.000    0.000    0.000    0.000    0.000    0.000 
#
# Total GULP energy -594816.135126 kJ/mol
# GULP energy per Si atom -12392.002815 kJ/mol
# Density = 2.012196 g / cm^3
# Si number density = 20.167864 Si / 1000 Ang^3
#
#
#
# Elastic Constant Matrix: (Units=GPa)
#
#
# Indices 1 2 3 4 5 6 
#
# 1 89.0177 43.6956 43.6772 0.0000 0.0000 0.0000
# 2 43.6956 142.4098 52.2573 0.0000 0.0000 0.0000
# 3 43.6772 52.2573 81.5707 0.0000 0.0000 0.0000
# 4 0.0000 0.0000 0.0000 37.0437 0.0000 0.0000
# 5 0.0000 0.0000 0.0000 0.0000 32.2232 0.0000
# 6 0.0000 0.0000 0.0000 0.0000 0.0000 35.4785
#
#
#
# Elastic Compliance Matrix: (Units=1/GPa)
#
#
# Indices 1 2 3 4 5 6 
#
# 1 0.015782 -0.002277 -0.006992 0.000000 0.000000 0.000000
# 2 -0.002277 0.009508 -0.004872 0.000000 0.000000 0.000000
# 3 -0.006992 -0.004872 0.019125 0.000000 0.000000 0.000000
# 4 0.000000 0.000000 0.000000 0.026995 0.000000 0.000000
# 5 0.000000 0.000000 0.000000 0.000000 0.031034 0.000000
# 6 0.000000 0.000000 0.000000 0.000000 0.000000 0.028186
#
#
# Mechanical properties :
#
#
# Convention : Reuss Voigt Hill
#
# Bulk Modulus (GPa) = 61.98510 65.80649 63.89579
# Shear Modulus (GPa) = 30.43409 32.50697 31.47053
#
# Velocity S-wave (km/s) = 3.88885 4.01910 3.95451
# Velocity P-wave (km/s) = 7.13901 7.36463 7.25270
#
# Compressibility (1/GPa) = 0.01613291
#
# Stress axis : x y z
#
# Youngs Moduli (GPa) = 63.36376 105.16924 52.28859
#
# Poissons Ratio (x) = 0.23944 0.36560
# Poissons Ratio (y) = 0.14426 0.25477
# Poissons Ratio (z) = 0.44303 0.51243
#
# Static dielectric constant tensor:
#      x y z
#    x 3.694330 0.000000 0.000000 
#    y 0.000000 4.112250 0.000000 
#    z 0.000000 0.000000 3.520160 
# 
# 
# High freq. dielectric constant tensor:
#      x y z
#    x 1.789190 0.000000 0.000000 
#    y 0.000000 1.807780 0.000000 
#    z 0.000000 0.000000 1.768400 
# 
# From -- ./inp_files/21508.got.cif
#   From: 2010.03.12/outbox.cif.g09.slc.cpg/sg55_11_cif.got.tgz:21508.got - 2010.04.16 15:19:21.
