data_PCOD8227584
_publ_section_title
;
Structure prediction by ZEFSAII (Michael W. Deem and Ramdas Pophale) SiO2 
 PCOD8227584
Probable space group: P B A M
;
_chemical_formula_sum "Si O2"
_cell_formula_units_Z 56
_cell_length_a 9.038990
_cell_length_b 14.425799
_cell_length_c 19.948484
_cell_angle_alpha 90.000000
_cell_angle_beta 90.000000
_cell_angle_gamma 90.000000
_cell_volume 2601.175647
_symmetry_space_group_name_H-M "P B A M"
_symmetry_group_IT_number 55
_symmetry_cell_setting 'orthorhombic'
loop_
_space_group_symop_operation_xyz
x,y,z
-x,-y,z
1/2+x,1/2-y,-z
1/2-x,1/2+y,-z
-x,-y,-z
x,y,-z
1/2-x,1/2+y,z
1/2+x,1/2-y,z
loop_
_atom_site_type_symbol
_atom_site_label
_atom_site_fract_x
_atom_site_fract_y
_atom_site_fract_z
Si Si1 0.171097 0.475876 0.355463
Si Si2 0.727554 0.170683 0.252798
Si Si3 0.418189 0.089135 0.925481
Si Si4 0.838724 0.865133 0.574083
Si Si5 0.169357 0.805094 0.608709
Si Si6 0.084627 0.087378 0.074301
Si Si7 0.982356 0.240738 0.831375
O O1 0.195637 0.435683 0.279082
O O2 0.275716 0.563891 0.370319
O O3 0.226973 0.395159 0.406410
O O4 0.000000 0.500000 0.368756
O O5 0.802294 0.226851 0.314261
O O6 0.575950 0.220846 0.231420
O O7 0.843830 0.177554 0.192014
O O8 0.251747 0.056305 0.932411
O O9 0.429400 0.173495 0.874995
O O10 0.500000 0.000000 0.894741
O O11 0.480760 0.114938 0.000000
O O12 0.852262 0.911276 0.500000
O O13 0.724131 0.780275 0.564243
O O14 0.997964 0.828076 0.597361
O O15 0.080318 0.176074 0.121797
O O16 0.019593 0.111149 0.000000
O O17 0.000000 0.000000 0.106254
#
# Coordination Sequence:
#
# PCOD8227584 Si02
#       7
#     8   8   8   8   8   8   8
#     4  10  25  46  67  99 137 180 219 283 345 396
#     4  10  26  44  67  93 138 177 226 275 331 406
#     4  10  23  42  66  98 134 173 224 284 339 394
#     4  12  24  44  76 103 136 178 229 278 343 413
#     4  10  24  46  66 103 137 181 218 283 341 394
#     4  10  23  43  66  98 136 171 221 287 343 394
#     4  12  22  47  65 100 126 185 232 270 334 406
#
# _framework density 21.528727
#
# number of rings (size 3 to 8) (size 9 to 14) (size 15 to 20)
#    0.857    0.571    1.429    3.000    4.000    2.571 
#    5.143    0.000    0.000    0.000    0.000    0.000 
#    0.000    0.000    0.000    0.000    0.000    0.000 
#
# Total GULP energy -693928.277156 kJ/mol
# GULP energy per Si atom -12391.576378 kJ/mol
# Density = 2.147973 g / cm^3
# Si number density = 21.528727 Si / 1000 Ang^3
#
#
#
# Elastic Constant Matrix: (Units=GPa)
#
#
# Indices 1 2 3 4 5 6 
#
# 1 135.8228 66.3086 40.7972 0.0000 0.0000 0.0000
# 2 66.3086 137.2376 49.4343 0.0000 0.0000 0.0000
# 3 40.7972 49.4343 89.5622 0.0000 0.0000 0.0000
# 4 0.0000 0.0000 0.0000 30.9465 0.0000 0.0000
# 5 0.0000 0.0000 0.0000 0.0000 21.3330 0.0000
# 6 0.0000 0.0000 0.0000 0.0000 0.0000 40.5219
#
#
#
# Elastic Compliance Matrix: (Units=1/GPa)
#
#
# Indices 1 2 3 4 5 6 
#
# 1 0.010020 -0.003991 -0.002362 0.000000 0.000000 0.000000
# 2 -0.003991 0.010684 -0.004079 0.000000 0.000000 0.000000
# 3 -0.002362 -0.004079 0.014493 0.000000 0.000000 0.000000
# 4 0.000000 0.000000 0.000000 0.032314 0.000000 0.000000
# 5 0.000000 0.000000 0.000000 0.000000 0.046876 0.000000
# 6 0.000000 0.000000 0.000000 0.000000 0.000000 0.024678
#
#
# Mechanical properties :
#
#
# Convention : Reuss Voigt Hill
#
# Bulk Modulus (GPa) = 69.76554 75.07810 72.42182
# Shear Modulus (GPa) = 30.35708 32.29911 31.32809
#
# Velocity S-wave (km/s) = 3.75917 3.87755 3.81882
# Velocity P-wave (km/s) = 7.16365 7.41595 7.29089
#
# Compressibility (1/GPa) = 0.01433372
#
# Stress axis : x y z
#
# Youngs Moduli (GPa) = 99.79866 93.59582 68.99954
#
# Poissons Ratio (x) = 0.37351 0.16295
# Poissons Ratio (y) = 0.39827 0.28148
# Poissons Ratio (z) = 0.23569 0.38181
#
# Static dielectric constant tensor:
#      x y z
#    x 3.843430 0.000000 0.000000 
#    y 0.000000 3.729050 0.000000 
#    z 0.000000 0.000000 3.806120 
# 
# 
# High freq. dielectric constant tensor:
#      x y z
#    x 1.854230 0.000000 0.000000 
#    y 0.000000 1.838110 0.000000 
#    z 0.000000 0.000000 1.838850 
# 
# From -- ./inp_files/22622.got.cif
#   From: 2010.03.12/outbox.cif.g09.slc.cpg/sg55_12_cif.got.tgz:22622.got - 2010.04.16 15:19:21.
