data_PCOD8227470
_publ_section_title
;
Structure prediction by ZEFSAII (Michael W. Deem and Ramdas Pophale) SiO2 
 PCOD8227470
Probable space group: P B A M
;
_chemical_formula_sum "Si O2"
_cell_formula_units_Z 48
_cell_length_a 9.018682
_cell_length_b 19.298839
_cell_length_c 13.210108
_cell_angle_alpha 90.000000
_cell_angle_beta 90.000000
_cell_angle_gamma 90.000000
_cell_volume 2299.220512
_symmetry_space_group_name_H-M "P B A M"
_symmetry_group_IT_number 55
_symmetry_cell_setting 'orthorhombic'
loop_
_space_group_symop_operation_xyz
x,y,z
-x,-y,z
1/2+x,1/2-y,-z
1/2-x,1/2+y,-z
-x,-y,-z
x,y,-z
1/2-x,1/2+y,z
1/2+x,1/2-y,z
loop_
_atom_site_type_symbol
_atom_site_label
_atom_site_fract_x
_atom_site_fract_y
_atom_site_fract_z
Si Si1 0.975605 0.848454 0.500000
Si Si2 0.223979 0.270117 0.500000
Si Si3 0.906567 0.934467 0.308467
Si Si4 0.659174 0.171449 0.705172
Si Si5 0.635546 0.343993 0.890811
Si Si6 0.599523 0.757625 0.822520
Si Si7 0.663248 0.027988 0.613074
O O1 0.811788 0.812773 0.500000
O O2 0.994500 0.893060 0.396867
O O3 0.102371 0.789149 0.500000
O O4 0.134646 0.300092 0.406028
O O5 0.876505 0.890919 0.207945
O O6 0.753512 0.960231 0.354867
O O7 0.000000 0.000000 0.273214
O O8 0.508376 0.189841 0.763205
O O9 0.805844 0.207270 0.750000
O O10 0.682876 0.088497 0.696913
O O11 0.499949 0.290228 0.893986
O O12 0.790863 0.303546 0.889225
O O13 0.630592 0.383949 0.000000
O O14 0.713609 0.053590 0.500000
O O15 0.500000 0.000000 0.608905
#
# Coordination Sequence:
#
# PCOD8227470 Si02
#       7
#     4   4   8   8   8   8   8
#     4  12  25  40  61  93 130 167 205 252 320 374
#     4  12  22  34  57  89 124 163 204 254 300 372
#     4  12  25  42  63  89 127 172 210 257 309 374
#     4  11  21  39  59  92 126 165 206 256 312 375
#     4  11  23  42  67  94 123 162 211 265 318 374
#     4  10  22  40  64  92 124 159 203 264 328 373
#     4  11  23  39  58  86 125 172 212 247 298 369
#
# _framework density 20.876640999999999
#
# number of rings (size 3 to 8) (size 9 to 14) (size 15 to 20)
#    0.000    0.833    1.667    7.750    0.000    1.667 
#    0.000    0.000    0.000    5.500    0.000    0.000 
#    0.000    0.000    0.000    0.000    0.000    0.000 
#
# Total GULP energy -595066.868244 kJ/mol
# GULP energy per Si atom -12397.226422 kJ/mol
# Density = 2.082912 g / cm^3
# Si number density = 20.876641 Si / 1000 Ang^3
#
#
#
# Elastic Constant Matrix: (Units=GPa)
#
#
# Indices 1 2 3 4 5 6 
#
# 1 98.6970 28.1818 24.6012 0.0000 0.0000 0.0000
# 2 28.1818 94.6838 37.2539 0.0000 0.0000 0.0000
# 3 24.6012 37.2539 125.3326 0.0000 0.0000 0.0000
# 4 0.0000 0.0000 0.0000 8.0304 0.0000 0.0000
# 5 0.0000 0.0000 0.0000 0.0000 12.0328 0.0000
# 6 0.0000 0.0000 0.0000 0.0000 0.0000 32.3867
#
#
#
# Elastic Compliance Matrix: (Units=1/GPa)
#
#
# Indices 1 2 3 4 5 6 
#
# 1 0.011279 -0.002815 -0.001377 0.000000 0.000000 0.000000
# 2 -0.002815 0.012663 -0.003211 0.000000 0.000000 0.000000
# 3 -0.001377 -0.003211 0.009204 0.000000 0.000000 0.000000
# 4 0.000000 0.000000 0.000000 0.124527 0.000000 0.000000
# 5 0.000000 0.000000 0.000000 0.000000 0.083106 0.000000
# 6 0.000000 0.000000 0.000000 0.000000 0.000000 0.030877
#
#
# Mechanical properties :
#
#
# Convention : Reuss Voigt Hill
#
# Bulk Modulus (GPa) = 54.53102 55.42081 54.97591
# Shear Modulus (GPa) = 17.08959 25.73509 21.41234
#
# Velocity S-wave (km/s) = 2.86422 3.51482 3.20607
# Velocity P-wave (km/s) = 6.09226 6.56326 6.33214
#
# Compressibility (1/GPa) = 0.01833819
#
# Stress axis : x y z
#
# Youngs Moduli (GPa) = 88.65910 78.97061 108.65289
#
# Poissons Ratio (x) = 0.22233 0.14963
# Poissons Ratio (y) = 0.24960 0.34892
# Poissons Ratio (z) = 0.12210 0.25360
#
# Static dielectric constant tensor:
#      x y z
#    x 3.904040 0.000000 0.000000 
#    y 0.000000 4.079430 0.000000 
#    z 0.000000 0.000000 3.730230 
# 
# 
# High freq. dielectric constant tensor:
#      x y z
#    x 1.838240 0.000000 0.000000 
#    y 0.000000 1.811360 0.000000 
#    z 0.000000 0.000000 1.806810 
# 
# From -- ./inp_files/17382.got.cif
#   From: 2010.03.12/outbox.cif.g09.slc.cpg/sg55_9_cif.got.tgz:17382.got - 2010.04.16 15:19:21.
