data_PCOD8227991
_publ_section_title
;
Structure prediction by ZEFSAII (Michael W. Deem and Ramdas Pophale) SiO2 
 PCOD8227991
Probable space group: P C C N
;
_chemical_formula_sum "Si O2"
_cell_formula_units_Z 40
_cell_length_a 22.252012
_cell_length_b 13.432205
_cell_length_c 5.338595
_cell_angle_alpha 90.000000
_cell_angle_beta 90.000000
_cell_angle_gamma 90.000000
_cell_volume 1595.671808
_symmetry_space_group_name_H-M "P C C N"
_symmetry_group_IT_number 56
_symmetry_cell_setting 'orthorhombic'
loop_
_space_group_symop_operation_xyz
x,y,z
1/2-x,1/2-y,z
1/2+x,-y,1/2-z
-x,1/2+y,1/2-z
-x,-y,-z
1/2+x,1/2+y,-z
1/2-x,y,1/2+z
x,1/2-y,1/2+z
loop_
_atom_site_type_symbol
_atom_site_label
_atom_site_fract_x
_atom_site_fract_y
_atom_site_fract_z
Si Si1 0.774478 0.104980 0.038450
Si Si2 0.083483 0.363373 0.961554
Si Si3 0.724333 0.883225 0.046483
Si Si4 0.101229 0.812950 0.032742
Si Si5 0.466040 0.360949 0.961577
O O1 0.742474 0.159801 0.801415
O O2 0.846346 0.105079 0.000177
O O3 0.747648 0.995423 0.076897
O O4 0.154013 0.373343 0.994043
O O5 0.060329 0.250301 0.938771
O O6 0.062668 0.416713 0.703082
O O7 0.053177 0.416064 0.203765
O O8 0.743188 0.830567 0.308613
O O9 0.107229 0.767046 0.309959
O O10 0.037350 0.866290 0.007674
#
# Coordination Sequence:
#
# PCOD8227991 Si02
#       5
#     8   8   8   8   8
#     4  10  23  40  59  85 124 159 204 241 293 361
#     4  10  18  35  60  84 122 152 199 246 295 356
#     4  10  21  39  60  82 118 168 201 242 290 351
#     4  12  21  37  63  92 126 151 194 252 305 360
#     4  10  19  35  55  94 117 150 196 249 306 347
#
# _framework density 25.067810999999999
#
# number of rings (size 3 to 8) (size 9 to 14) (size 15 to 20)
#    0.000    1.600    4.000    2.400    0.000    2.400 
#    0.000   12.000    0.000   28.800    0.000    0.000 
#    0.000    0.000    0.000    0.000    0.000    0.000 
#
# Total GULP energy -495634.828922 kJ/mol
# GULP energy per Si atom -12390.870723 kJ/mol
# Density = 2.501076 g / cm^3
# Si number density = 25.067811 Si / 1000 Ang^3
#
#
#
# Elastic Constant Matrix: (Units=GPa)
#
#
# Indices 1 2 3 4 5 6 
#
# 1 168.6499 10.7604 11.3119 0.0000 0.0000 0.0000
# 2 10.7604 24.2479 -14.7047 0.0000 0.0000 0.0000
# 3 11.3119 -14.7047 242.4430 0.0000 0.0000 0.0000
# 4 0.0000 0.0000 0.0000 -8.9029 0.0000 0.0000
# 5 0.0000 0.0000 0.0000 0.0000 33.4022 0.0000
# 6 0.0000 0.0000 0.0000 0.0000 0.0000 15.5402
#
#
#
# Elastic Compliance Matrix: (Units=1/GPa)
#
#
# Indices 1 2 3 4 5 6 
#
# 1 0.006153 -0.003016 -0.000470 0.000000 0.000000 0.000000
# 2 -0.003016 0.044293 0.002827 0.000000 0.000000 0.000000
# 3 -0.000470 0.002827 0.004318 0.000000 0.000000 0.000000
# 4 0.000000 0.000000 0.000000 -0.112323 0.000000 0.000000
# 5 0.000000 0.000000 0.000000 0.000000 0.029938 0.000000
# 6 0.000000 0.000000 0.000000 0.000000 0.000000 0.064349
#
#
# Mechanical properties :
#
#
# Convention : Reuss Voigt Hill
#
# Bulk Modulus (GPa) = 18.70980 50.00844 34.35912
# Shear Modulus (GPa) = 89.50615 36.53945 63.02280
#
# Velocity S-wave (km/s) = 5.98190 3.82203 5.01951
# Velocity P-wave (km/s) = 7.42905 6.28250 6.87970
#
# Compressibility (1/GPa) = 0.05344792
#
# Stress axis : x y z
#
# Youngs Moduli (GPa) = 162.51232 22.57670 231.58406
#
# Poissons Ratio (x) = 0.06808 0.10885
# Poissons Ratio (y) = 0.49009 -0.65474
# Poissons Ratio (z) = 0.07638 -0.06383
#
# Static dielectric constant tensor:
#      x y z
#    x 4.504740 0.000000 0.000000 
#    y 0.000000 3.795760 0.000000 
#    z 0.000000 0.000000 7.240890 
# 
# 
# High freq. dielectric constant tensor:
#      x y z
#    x 2.006810 0.000000 0.000000 
#    y 0.000000 1.948930 0.000000 
#    z 0.000000 0.000000 2.050860 
# 
# From -- ./inp_files/633.got.cif
#   From: 2010.03.12/outbox.cif.g09.slc.cpg/sg56_1_cif.got.tgz:633.got - 2010.04.16 15:33:40.
