data_PCOD8227974
_publ_section_title
;
Structure prediction by ZEFSAII (Michael W. Deem and Ramdas Pophale) SiO2 
 PCOD8227974
Probable space group: P C C N
;
_chemical_formula_sum "Si O2"
_cell_formula_units_Z 56
_cell_length_a 19.415847
_cell_length_b 18.819124
_cell_length_c 8.719332
_cell_angle_alpha 90.000000
_cell_angle_beta 90.000000
_cell_angle_gamma 90.000000
_cell_volume 3185.950025
_symmetry_space_group_name_H-M "P C C N"
_symmetry_group_IT_number 56
_symmetry_cell_setting 'orthorhombic'
loop_
_space_group_symop_operation_xyz
x,y,z
1/2-x,1/2-y,z
1/2+x,-y,1/2-z
-x,1/2+y,1/2-z
-x,-y,-z
1/2+x,1/2+y,-z
1/2-x,y,1/2+z
x,1/2-y,1/2+z
loop_
_atom_site_type_symbol
_atom_site_label
_atom_site_fract_x
_atom_site_fract_y
_atom_site_fract_z
Si Si1 0.066667 0.430461 0.611359
Si Si2 0.543517 0.198868 0.115334
Si Si3 0.550214 0.092833 0.381337
Si Si4 0.750000 0.750000 0.588832
Si Si5 0.346702 0.703364 0.997837
Si Si6 0.473309 0.187927 0.808697
Si Si7 0.665591 0.683636 0.830598
Si Si8 0.750000 0.250000 0.244745
O O1 0.078312 0.513311 0.636195
O O2 0.021816 0.394021 0.749074
O O3 0.143366 0.395602 0.614841
O O4 0.026672 0.411228 0.453165
O O5 0.548806 0.126428 0.211815
O O6 0.613773 0.220981 0.027858
O O7 0.531546 0.262964 0.233966
O O8 0.482136 0.189663 0.991913
O O9 0.600168 0.137668 0.493519
O O10 0.725783 0.685404 0.701435
O O11 0.813060 0.725220 0.483528
O O12 0.291508 0.693339 0.861002
O O13 0.305013 0.706071 0.156552
O O14 0.400263 0.220956 0.752191
#
# Coordination Sequence:
#
# PCOD8227974 Si02
#       8
#     8   8   8   4   8   8   8   4
#     4   9  22  38  54  81 119 144 180 229 295 340
#     4  12  19  32  61  85 106 141 187 234 284 324
#     4  11  21  37  58  81 115 150 175 234 294 342
#     4  10  18  34  62  76 108 146 192 226 264 314
#     4  11  19  36  53  83 107 139 188 235 269 333
#     4  10  19  33  55  86 108 135 181 234 278 327
#     4   9  20  35  52  84 107 142 182 231 266 328
#     4  10  22  32  56  80 106 140 184 238 270 312
#
# _framework density 17.577175
#
# number of rings (size 3 to 8) (size 9 to 14) (size 15 to 20)
#    0.857    0.857    4.286    0.857    2.000    0.571 
#    0.000    1.429    0.000    0.000    0.000    0.000 
#    0.000    0.000    0.000    0.000    0.000    0.000 
#
# Total GULP energy -693760.625722 kJ/mol
# GULP energy per Si atom -12388.582602 kJ/mol
# Density = 1.753717 g / cm^3
# Si number density = 17.577175 Si / 1000 Ang^3
#
#
#
# Elastic Constant Matrix: (Units=GPa)
#
#
# Indices 1 2 3 4 5 6 
#
# 1 80.8078 39.1225 46.2154 0.0000 0.0000 0.0000
# 2 39.1225 114.9063 52.5729 0.0000 0.0000 0.0000
# 3 46.2154 52.5729 117.6754 0.0000 0.0000 0.0000
# 4 0.0000 0.0000 0.0000 23.7109 0.0000 0.0000
# 5 0.0000 0.0000 0.0000 0.0000 33.2350 0.0000
# 6 0.0000 0.0000 0.0000 0.0000 0.0000 23.4941
#
#
#
# Elastic Compliance Matrix: (Units=1/GPa)
#
#
# Indices 1 2 3 4 5 6 
#
# 1 0.016971 -0.003430 -0.005133 0.000000 0.000000 0.000000
# 2 -0.003430 0.011632 -0.003850 0.000000 0.000000 0.000000
# 3 -0.005133 -0.003850 0.012234 0.000000 0.000000 0.000000
# 4 0.000000 0.000000 0.000000 0.042175 0.000000 0.000000
# 5 0.000000 0.000000 0.000000 0.000000 0.030089 0.000000
# 6 0.000000 0.000000 0.000000 0.000000 0.000000 0.042564
#
#
# Mechanical properties :
#
#
# Convention : Reuss Voigt Hill
#
# Bulk Modulus (GPa) = 62.45306 65.46788 63.96047
# Shear Modulus (GPa) = 26.90691 27.78660 27.34675
#
# Velocity S-wave (km/s) = 3.91677 3.98028 3.94866
# Velocity P-wave (km/s) = 7.48750 7.64528 7.56680
#
# Compressibility (1/GPa) = 0.01601202
#
# Stress axis : x y z
#
# Youngs Moduli (GPa) = 58.92358 85.97109 81.74136
#
# Poissons Ratio (x) = 0.29486 0.41957
# Poissons Ratio (y) = 0.20209 0.31468
# Poissons Ratio (z) = 0.30245 0.33096
#
# Static dielectric constant tensor:
#      x y z
#    x 3.291730 0.000000 0.000000 
#    y 0.000000 2.938790 0.000000 
#    z 0.000000 0.000000 3.420810 
# 
# 
# High freq. dielectric constant tensor:
#      x y z
#    x 1.678970 0.000000 0.000000 
#    y 0.000000 1.637620 0.000000 
#    z 0.000000 0.000000 1.693070 
# 
# From -- ./inp_files/4853.got.cif
#   From: 2010.03.12/outbox.cif.g09.slc.cpg/sg56_3_cif.got.tgz:4853.got - 2010.04.16 15:33:40.
