data_PCOD8227058
_publ_section_title
;
Structure prediction by ZEFSAII (Michael W. Deem and Ramdas Pophale) SiO2 
 PCOD8227058
Probable space group: P B A M
;
_chemical_formula_sum "Si O2"
_cell_formula_units_Z 44
_cell_length_a 21.614442
_cell_length_b 13.684026
_cell_length_c 7.603676
_cell_angle_alpha 90.000000
_cell_angle_beta 90.000000
_cell_angle_gamma 90.000000
_cell_volume 2248.958916
_symmetry_space_group_name_H-M "P B A M"
_symmetry_group_IT_number 55
_symmetry_cell_setting 'orthorhombic'
loop_
_space_group_symop_operation_xyz
x,y,z
-x,-y,z
1/2+x,1/2-y,-z
1/2-x,1/2+y,-z
-x,-y,-z
x,y,-z
1/2-x,1/2+y,z
1/2+x,1/2-y,z
loop_
_atom_site_type_symbol
_atom_site_label
_atom_site_fract_x
_atom_site_fract_y
_atom_site_fract_z
Si Si1 0.067942 0.401305 0.807820
Si Si2 0.642263 0.298247 0.194490
Si Si3 0.221731 0.272803 0.500000
Si Si4 0.976714 0.898082 0.791474
Si Si5 0.849617 0.314501 0.500000
Si Si6 0.647528 0.029304 0.500000
Si Si7 0.448913 0.210592 0.206041
O O1 0.100038 0.296767 0.814719
O O2 0.102306 0.468063 0.667642
O O3 0.995620 0.381428 0.762308
O O4 0.073322 0.451979 0.000000
O O5 0.698378 0.284428 0.327971
O O6 0.595561 0.383296 0.261209
O O7 0.669523 0.321563 0.000000
O O8 0.295755 0.267033 0.500000
O O9 0.199104 0.385462 0.500000
O O10 0.019397 0.809972 0.722614
O O11 0.981374 0.899661 0.000000
O O12 0.000000 0.000000 0.708291
O O13 0.819550 0.423778 0.500000
O O14 0.888289 0.303411 0.678060
O O15 0.431027 0.218123 0.000000
#
# Coordination Sequence:
#
# PCOD8227058 Si02
#       7
#     8   8   4   8   4   4   8
#     4   8  15  31  57  83 105 131 166 208 265 330
#     4   8  15  31  55  77 100 135 175 217 260 306
#     4  10  22  40  53  69 101 143 189 228 250 303
#     4   8  14  29  55  86 114 137 168 216 274 330
#     4  12  25  38  52  76 109 146 181 225 269 309
#     4  10  21  38  57  73 102 140 180 225 266 306
#     4   9  19  35  54  82 117 141 165 216 276 322
#
# _framework density 19.564608
#
# number of rings (size 3 to 8) (size 9 to 14) (size 15 to 20)
#    0.000    3.091    0.000    2.727    0.000    5.091 
#    3.273    2.727    0.000    0.000    0.000    0.000 
#    0.000    0.000    0.000    0.000    0.000    0.000 
#
# Total GULP energy -545330.125303 kJ/mol
# GULP energy per Si atom -12393.866484 kJ/mol
# Density = 1.952008 g / cm^3
# Si number density = 19.564608 Si / 1000 Ang^3
#
#
#
# Elastic Constant Matrix: (Units=GPa)
#
#
# Indices 1 2 3 4 5 6 
#
# 1 105.9943 23.1676 50.4180 0.0000 0.0000 0.0000
# 2 23.1676 65.5056 19.9182 0.0000 0.0000 0.0000
# 3 50.4180 19.9182 100.8723 0.0000 0.0000 0.0000
# 4 0.0000 0.0000 0.0000 9.7713 0.0000 0.0000
# 5 0.0000 0.0000 0.0000 0.0000 -4.3821 0.0000
# 6 0.0000 0.0000 0.0000 0.0000 0.0000 24.0556
#
#
#
# Elastic Compliance Matrix: (Units=1/GPa)
#
#
# Indices 1 2 3 4 5 6 
#
# 1 0.012827 -0.002752 -0.005868 0.000000 0.000000 0.000000
# 2 -0.002752 0.016832 -0.001948 0.000000 0.000000 0.000000
# 3 -0.005868 -0.001948 0.013231 0.000000 0.000000 0.000000
# 4 0.000000 0.000000 0.000000 0.102340 0.000000 0.000000
# 5 0.000000 0.000000 0.000000 0.000000 -0.228203 0.000000
# 6 0.000000 0.000000 0.000000 0.000000 0.000000 0.041570
#
#
# Mechanical properties :
#
#
# Convention : Reuss Voigt Hill
#
# Bulk Modulus (GPa) = 45.96928 51.04220 48.50574
# Shear Modulus (GPa) = -384.15997 17.81352 -183.17323
#
# Velocity S-wave (km/s) = -14.02786 3.02072 -9.68649
# Velocity P-wave (km/s) = 15.45404 6.18967 10.01287
#
# Compressibility (1/GPa) = 0.02175366
#
# Stress axis : x y z
#
# Youngs Moduli (GPa) = 77.95933 59.41196 75.58012
#
# Poissons Ratio (x) = 0.16353 0.44349
# Poissons Ratio (y) = 0.21458 0.14722
# Poissons Ratio (z) = 0.45745 0.11573
#
# Static dielectric constant tensor:
#      x y z
#    x 3.234250 0.000000 0.000000 
#    y 0.000000 3.693610 0.000000 
#    z 0.000000 0.000000 4.104990 
# 
# 
# High freq. dielectric constant tensor:
#      x y z
#    x 1.727510 0.000000 0.000000 
#    y 0.000000 1.752850 0.000000 
#    z 0.000000 0.000000 1.766550 
# 
# From -- ./inp_files/7388.got.cif
#   From: 2010.03.12/outbox.cif.g09.slc.cpg/sg55_4_cif.got.tgz:7388.got - 2010.04.16 15:19:21.
