data_PCOD8227026
_publ_section_title
;
Structure prediction by ZEFSAII (Michael W. Deem and Ramdas Pophale) SiO2 
 PCOD8227026
Probable space group: P B A M
;
_chemical_formula_sum "Si O2"
_cell_formula_units_Z 64
_cell_length_a 25.747477
_cell_length_b 14.539442
_cell_length_c 9.011309
_cell_angle_alpha 90.000000
_cell_angle_beta 90.000000
_cell_angle_gamma 90.000000
_cell_volume 3373.419105
_symmetry_space_group_name_H-M "P B A M"
_symmetry_group_IT_number 55
_symmetry_cell_setting 'orthorhombic'
loop_
_space_group_symop_operation_xyz
x,y,z
-x,-y,z
1/2+x,1/2-y,-z
1/2-x,1/2+y,-z
-x,-y,-z
x,y,-z
1/2-x,1/2+y,z
1/2+x,1/2-y,z
loop_
_atom_site_type_symbol
_atom_site_label
_atom_site_fract_x
_atom_site_fract_y
_atom_site_fract_z
Si Si1 0.001589 0.394338 0.324132
Si Si2 0.604560 0.171941 0.171951
Si Si3 0.215926 0.994033 0.674599
Si Si4 0.363419 0.649820 0.331590
Si Si5 0.824661 0.498305 0.828651
Si Si6 0.362093 0.367129 0.827135
Si Si7 0.058327 0.991855 0.330525
Si Si8 0.600923 0.833667 0.827294
O O1 0.002279 0.389033 0.500000
O O2 0.951919 0.339388 0.265174
O O3 0.000000 0.500000 0.268107
O O4 0.052558 0.344073 0.264469
O O5 0.633186 0.264659 0.221683
O O6 0.645223 0.091757 0.203091
O O7 0.589375 0.177825 0.000000
O O8 0.213767 0.979069 0.500000
O O9 0.184585 0.085957 0.719586
O O10 0.274255 0.004413 0.727601
O O11 0.189401 0.904322 0.746579
O O12 0.355341 0.684740 0.500000
O O13 0.416251 0.592024 0.318358
O O14 0.861353 0.415398 0.777755
O O15 0.808277 0.488709 0.000000
O O16 0.413407 0.418704 0.772657
O O17 0.368798 0.259922 0.790621
O O18 0.354963 0.385249 0.000000
O O19 0.060674 0.956042 0.500000
O O20 0.000000 0.000000 0.271952
O O21 0.586205 0.841219 0.000000
#
# Coordination Sequence:
#
# PCOD8227026 Si02
#       8
#     8   8   8   8   8   8   8   8
#     4  11  23  38  59  86 118 156 195 240 288 339
#     4  11  23  38  60  87 118 157 195 236 289 343
#     4  10  22  41  63  85 115 153 191 242 298 343
#     4   9  20  38  57  83 117 152 192 237 289 343
#     4  10  22  40  61  84 115 154 194 238 289 346
#     4  10  21  37  59  87 116 149 193 240 287 343
#     4   9  19  36  56  80 115 155 191 235 291 345
#     4  10  22  40  60  86 120 156 193 237 289 346
#
# _framework density 18.971848999999999
#
# number of rings (size 3 to 8) (size 9 to 14) (size 15 to 20)
#    0.000    2.000    1.250    2.250    1.750    6.750 
#    0.000    3.750    0.000    0.000    0.000    0.000 
#    0.000    0.000    0.000    0.000    0.000    0.000 
#
# Total GULP energy -793909.371547 kJ/mol
# GULP energy per Si atom -12404.833930 kJ/mol
# Density = 1.892867 g / cm^3
# Si number density = 18.971849 Si / 1000 Ang^3
#
#
#
# Elastic Constant Matrix: (Units=GPa)
#
#
# Indices 1 2 3 4 5 6 
#
# 1 115.0159 36.9404 46.3594 0.0000 0.0000 0.0000
# 2 36.9404 107.0659 49.0267 0.0000 0.0000 0.0000
# 3 46.3594 49.0267 76.7199 0.0000 0.0000 0.0000
# 4 0.0000 0.0000 0.0000 30.8098 0.0000 0.0000
# 5 0.0000 0.0000 0.0000 0.0000 37.7393 0.0000
# 6 0.0000 0.0000 0.0000 0.0000 0.0000-4905.2358
#
#
#
# Elastic Compliance Matrix: (Units=1/GPa)
#
#
# Indices 1 2 3 4 5 6 
#
# 1 0.011588 -0.001119 -0.006287 0.000000 0.000000 0.000000
# 2 -0.001119 0.013312 -0.007830 0.000000 0.000000 0.000000
# 3 -0.006287 -0.007830 0.021837 0.000000 0.000000 0.000000
# 4 0.000000 0.000000 0.000000 0.032457 0.000000 0.000000
# 5 0.000000 0.000000 0.000000 0.000000 0.026498 0.000000
# 6 0.000000 0.000000 0.000000 0.000000 0.000000 -0.000204
#
#
# Mechanical properties :
#
#
# Convention : Reuss Voigt Hill
#
# Bulk Modulus (GPa) = 61.48595 62.60607 62.04601
# Shear Modulus (GPa) = 35.36497 -956.23900 -460.43701
#
# Velocity S-wave (km/s) = 4.32218 -22.47498 -15.59557
# Velocity P-wave (km/s) = 7.57547 25.30669 17.07397
#
# Compressibility (1/GPa) = 0.01626388
#
# Stress axis : x y z
#
# Youngs Moduli (GPa) = 86.29581 75.12108 45.79304
#
# Poissons Ratio (x) = 0.08408 0.28790
# Poissons Ratio (y) = 0.09659 0.35858
# Poissons Ratio (z) = 0.54255 0.58823
#
# Static dielectric constant tensor:
#      x y z
#    x 3.455440 0.000000 0.000000 
#    y 0.000000 3.520070 0.000000 
#    z 0.000000 0.000000 3.458690 
# 
# 
# High freq. dielectric constant tensor:
#      x y z
#    x 1.741550 0.000000 0.000000 
#    y 0.000000 1.741550 0.000000 
#    z 0.000000 0.000000 1.740340 
# 
# From -- ./inp_files/9832.got.cif
#   From: 2010.03.12/outbox.cif.g09.slc.cpg/sg55_5_cif.got.tgz:9832.got - 2010.04.16 15:19:21.
