data_PCOD8227452
_publ_section_title
;
Structure prediction by ZEFSAII (Michael W. Deem and Ramdas Pophale) SiO2 
 PCOD8227452
Probable space group: P B A M
;
_chemical_formula_sum "Si O2"
_cell_formula_units_Z 64
_cell_length_a 14.334711
_cell_length_b 24.875911
_cell_length_c 8.644871
_cell_angle_alpha 90.000000
_cell_angle_beta 90.000000
_cell_angle_gamma 90.000000
_cell_volume 3082.665862
_symmetry_space_group_name_H-M "P B A M"
_symmetry_group_IT_number 55
_symmetry_cell_setting 'orthorhombic'
loop_
_space_group_symop_operation_xyz
x,y,z
-x,-y,z
1/2+x,1/2-y,-z
1/2-x,1/2+y,-z
-x,-y,-z
x,y,-z
1/2-x,1/2+y,z
1/2+x,1/2-y,z
loop_
_atom_site_type_symbol
_atom_site_label
_atom_site_fract_x
_atom_site_fract_y
_atom_site_fract_z
Si Si1 0.081258 0.251433 0.676157
Si Si2 0.895152 0.493334 0.182567
Si Si3 0.795123 0.385772 0.179989
Si Si4 0.872966 0.277956 0.322273
Si Si5 0.586507 0.361346 0.823014
Si Si6 0.752206 0.690571 0.178149
Si Si7 0.546569 0.556271 0.321939
Si Si8 0.244589 0.424549 0.321241
O O1 0.115562 0.259371 0.500000
O O2 0.074970 0.188445 0.708889
O O3 0.152753 0.277212 0.795650
O O4 0.983216 0.280617 0.702977
O O5 0.846625 0.438865 0.246802
O O6 0.835156 0.545269 0.226353
O O7 0.000000 0.500000 0.250483
O O8 0.899396 0.489561 0.000000
O O9 0.830463 0.334344 0.272090
O O10 0.684357 0.391850 0.207873
O O11 0.818258 0.377198 0.000000
O O12 0.846563 0.267220 0.500000
O O13 0.833951 0.228645 0.222283
O O14 0.501005 0.400637 0.789116
O O15 0.580475 0.341722 0.000000
O O16 0.753774 0.638083 0.282861
O O17 0.743267 0.673963 0.000000
O O18 0.500000 0.500000 0.286717
O O19 0.533579 0.574095 0.500000
O O20 0.655045 0.550755 0.278750
O O21 0.220821 0.432172 0.500000
#
# Coordination Sequence:
#
# PCOD8227452 Si02
#       8
#     8   8   8   8   8   8   8   8
#     4  11  24  41  62  91 125 164 209 259 314 380
#     4  10  23  43  65  92 125 168 216 265 320 376
#     4  10  22  40  62  91 128 165 209 260 315 379
#     4  11  24  41  64  94 127 166 211 260 319 379
#     4  11  22  37  61  94 126 164 206 255 315 378
#     4  12  25  42  65  93 128 169 211 259 317 377
#     4  10  22  40  63  91 124 165 209 257 314 374
#     4  11  24  42  64  92 127 166 212 266 321 378
#
# _framework density 20.761251000000001
#
# number of rings (size 3 to 8) (size 9 to 14) (size 15 to 20)
#    0.000    1.250    1.250    4.125    1.750    7.500 
#    0.000    0.000    0.000    0.000    0.000    0.000 
#    0.000    0.000    0.000    0.000    0.000    0.000 
#
# Total GULP energy -793990.961307 kJ/mol
# GULP energy per Si atom -12406.108770 kJ/mol
# Density = 2.071400 g / cm^3
# Si number density = 20.761251 Si / 1000 Ang^3
#
#
#
# Elastic Constant Matrix: (Units=GPa)
#
#
# Indices 1 2 3 4 5 6 
#
# 1 79.4459 23.1730 25.9064 0.0000 0.0000 0.0000
# 2 23.1730 88.9719 4.4460 0.0000 0.0000 0.0000
# 3 25.9064 4.4460 42.9660 0.0000 0.0000 0.0000
# 4 0.0000 0.0000 0.0000 140.0918 0.0000 0.0000
# 5 0.0000 0.0000 0.0000 0.0000 30.5407 0.0000
# 6 0.0000 0.0000 0.0000 0.0000 0.0000 37.5282
#
#
#
# Elastic Compliance Matrix: (Units=1/GPa)
#
#
# Indices 1 2 3 4 5 6 
#
# 1 0.016926 -0.003919 -0.009800 0.000000 0.000000 0.000000
# 2 -0.003919 0.012205 0.001100 0.000000 0.000000 0.000000
# 3 -0.009800 0.001100 0.029069 0.000000 0.000000 0.000000
# 4 0.000000 0.000000 0.000000 0.007138 0.000000 0.000000
# 5 0.000000 0.000000 0.000000 0.000000 0.032743 0.000000
# 6 0.000000 0.000000 0.000000 0.000000 0.000000 0.026647
#
#
# Mechanical properties :
#
#
# Convention : Reuss Voigt Hill
#
# Bulk Modulus (GPa) = 30.33734 35.38163 32.85948
# Shear Modulus (GPa) = 31.06486 52.15603 41.61045
#
# Velocity S-wave (km/s) = 3.87239 5.01760 4.48173
# Velocity P-wave (km/s) = 5.88541 7.11671 6.53015
#
# Compressibility (1/GPa) = 0.03296268
#
# Stress axis : x y z
#
# Youngs Moduli (GPa) = 59.08122 81.93243 34.40050
#
# Poissons Ratio (x) = 0.32107 0.33712
# Poissons Ratio (y) = 0.23152 -0.03783
# Poissons Ratio (z) = 0.57900 -0.09011
#
# Static dielectric constant tensor:
#      x y z
#    x 3.789980 0.000000 0.000000 
#    y 0.000000 3.707420 0.000000 
#    z 0.000000 0.000000 3.665780 
# 
# 
# High freq. dielectric constant tensor:
#      x y z
#    x 1.827790 0.000000 0.000000 
#    y 0.000000 1.816940 0.000000 
#    z 0.000000 0.000000 1.810070 
# 
# From -- ./inp_files/6590.got.cif
#   From: 2010.03.12/outbox.cif.g09.slc.cpg/sg55_4_cif.got.tgz:6590.got - 2010.04.16 15:19:21.
