data_PCOD8227262
_publ_section_title
;
Structure prediction by ZEFSAII (Michael W. Deem and Ramdas Pophale) SiO2 
 PCOD8227262
Probable space group: P B A M
;
_chemical_formula_sum "Si O2"
_cell_formula_units_Z 40
_cell_length_a 16.258604
_cell_length_b 10.677204
_cell_length_c 10.959760
_cell_angle_alpha 90.000000
_cell_angle_beta 90.000000
_cell_angle_gamma 90.000000
_cell_volume 1902.575228
_symmetry_space_group_name_H-M "P B A M"
_symmetry_group_IT_number 55
_symmetry_cell_setting 'orthorhombic'
loop_
_space_group_symop_operation_xyz
x,y,z
-x,-y,z
1/2+x,1/2-y,-z
1/2-x,1/2+y,-z
-x,-y,-z
x,y,-z
1/2-x,1/2+y,z
1/2+x,1/2-y,z
loop_
_atom_site_type_symbol
_atom_site_label
_atom_site_fract_x
_atom_site_fract_y
_atom_site_fract_z
Si Si1 0.303290 0.342148 0.638591
Si Si2 0.509422 0.646955 0.362763
Si Si3 0.103708 0.216330 0.134760
Si Si4 0.747087 0.901364 0.243553
Si Si5 0.409877 0.998563 0.863685
O O1 0.293361 0.378655 0.500000
O O2 0.397970 0.316433 0.671874
O O3 0.268878 0.463823 0.704860
O O4 0.250614 0.216225 0.663398
O O5 0.500000 0.500000 0.368465
O O6 0.486046 0.699930 0.500000
O O7 0.454202 0.695983 0.251712
O O8 0.185354 0.130999 0.140846
O O9 0.129959 0.361102 0.138866
O O10 0.063074 0.188047 0.000000
O O11 0.653863 0.905214 0.195539
O O12 0.500000 0.000000 0.797439
O O13 0.423953 0.048817 0.000000
#
# Coordination Sequence:
#
# PCOD8227262 Si02
#       5
#     8   8   8   8   8
#     4  11  24  41  65  93 128 171 218 265 325 391
#     4  10  21  40  63  92 130 174 215 267 328 385
#     4  11  23  40  64  99 130 169 222 269 325 393
#     4  12  22  42  64  94 129 168 216 272 326 383
#     4  10  22  42  64  89 129 173 213 265 330 390
#
# _framework density 21.024135999999999
#
# number of rings (size 3 to 8) (size 9 to 14) (size 15 to 20)
#    0.000    1.200    4.000    2.400    0.000    1.200 
#    0.000    1.000    0.000    4.200    0.000    0.000 
#    0.000    0.000    0.000    0.000    0.000    0.000 
#
# Total GULP energy -495607.609710 kJ/mol
# GULP energy per Si atom -12390.190243 kJ/mol
# Density = 2.097628 g / cm^3
# Si number density = 21.024136 Si / 1000 Ang^3
#
#
#
# Elastic Constant Matrix: (Units=GPa)
#
#
# Indices 1 2 3 4 5 6 
#
# 1 100.8619 34.8584 66.5222 0.0000 0.0000 0.0000
# 2 34.8584 96.5180 33.8973 0.0000 0.0000 0.0000
# 3 66.5222 33.8973 111.9400 0.0000 0.0000 0.0000
# 4 0.0000 0.0000 0.0000 24.9445 0.0000 0.0000
# 5 0.0000 0.0000 0.0000 0.0000 35.1737 0.0000
# 6 0.0000 0.0000 0.0000 0.0000 0.0000 34.5779
#
#
#
# Elastic Compliance Matrix: (Units=1/GPa)
#
#
# Indices 1 2 3 4 5 6 
#
# 1 0.017001 -0.002900 -0.009225 0.000000 0.000000 0.000000
# 2 -0.002900 0.012089 -0.001937 0.000000 0.000000 0.000000
# 3 -0.009225 -0.001937 0.015002 0.000000 0.000000 0.000000
# 4 0.000000 0.000000 0.000000 0.040089 0.000000 0.000000
# 5 0.000000 0.000000 0.000000 0.000000 0.028430 0.000000
# 6 0.000000 0.000000 0.000000 0.000000 0.000000 0.028920
#
#
# Mechanical properties :
#
#
# Convention : Reuss Voigt Hill
#
# Bulk Modulus (GPa) = 62.62894 64.43062 63.52978
# Shear Modulus (GPa) = 28.57500 30.54201 29.55851
#
# Velocity S-wave (km/s) = 3.69067 3.81558 3.75364
# Velocity P-wave (km/s) = 6.92929 7.07984 7.00497
#
# Compressibility (1/GPa) = 0.01596706
#
# Stress axis : x y z
#
# Youngs Moduli (GPa) = 58.81978 82.72302 66.65778
#
# Poissons Ratio (x) = 0.23992 0.61491
# Poissons Ratio (y) = 0.17059 0.12912
# Poissons Ratio (z) = 0.54261 0.16024
#
# Static dielectric constant tensor:
#      x y z
#    x 3.604890 0.000000 0.000000 
#    y 0.000000 3.594810 0.000000 
#    z 0.000000 0.000000 4.039900 
# 
# 
# High freq. dielectric constant tensor:
#      x y z
#    x 1.827990 0.000000 0.000000 
#    y 0.000000 1.824910 0.000000 
#    z 0.000000 0.000000 1.818660 
# 
# From -- ./inp_files/13024.got.cif
#   From: 2010.03.12/outbox.cif.g09.slc.cpg/sg55_7_cif.got.tgz:13024.got - 2010.04.16 15:19:21.
