data_PCOD8227329
_publ_section_title
;
Structure prediction by ZEFSAII (Michael W. Deem and Ramdas Pophale) SiO2 
 PCOD8227329
Probable space group: P B A M
;
_chemical_formula_sum "Si O2"
_cell_formula_units_Z 64
_cell_length_a 21.563556
_cell_length_b 9.969112
_cell_length_c 14.045260
_cell_angle_alpha 90.000000
_cell_angle_beta 90.000000
_cell_angle_gamma 90.000000
_cell_volume 3019.302588
_symmetry_space_group_name_H-M "P B A M"
_symmetry_group_IT_number 55
_symmetry_cell_setting 'orthorhombic'
loop_
_space_group_symop_operation_xyz
x,y,z
-x,-y,z
1/2+x,1/2-y,-z
1/2-x,1/2+y,-z
-x,-y,-z
x,y,-z
1/2-x,1/2+y,z
1/2+x,1/2-y,z
loop_
_atom_site_type_symbol
_atom_site_label
_atom_site_fract_x
_atom_site_fract_y
_atom_site_fract_z
Si Si1 0.702395 0.965204 0.111205
Si Si2 0.046206 0.116681 0.386720
Si Si3 0.842973 0.989549 0.888966
Si Si4 0.997487 0.649702 0.739871
Si Si5 0.213576 0.809106 0.610874
Si Si6 0.892480 0.696362 0.889632
Si Si7 0.370306 0.254793 0.221219
Si Si8 0.685386 0.395716 0.390069
O O1 0.772100 0.990762 0.146426
O O2 0.663722 0.097550 0.136904
O O3 0.677813 0.833168 0.161988
O O4 0.701789 0.932518 0.000000
O O5 0.044809 0.121953 0.500000
O O6 0.022129 0.257202 0.347386
O O7 0.116160 0.093796 0.345476
O O8 0.000000 0.000000 0.349375
O O9 0.878413 0.100512 0.827654
O O10 0.872459 0.846663 0.864724
O O11 0.848767 0.024252 0.000000
O O12 0.951672 0.657198 0.828875
O O13 0.000000 0.500000 0.698371
O O14 0.063773 0.686060 0.781594
O O15 0.199763 0.776557 0.500000
O O16 0.153194 0.764970 0.669897
O O17 0.274357 0.729590 0.649159
O O18 0.224311 0.967866 0.627165
O O19 0.910509 0.681663 0.000000
O O20 0.674378 0.369006 0.500000
#
# Coordination Sequence:
#
# PCOD8227329 Si02
#       8
#     8   8   8   8   8   8   8   8
#     4  10  21  42  68  95 130 168 208 260 328 396
#     4  10  23  44  71  96 129 177 221 269 326 379
#     4  10  23  42  66  99 128 161 214 272 328 386
#     4  12  27  44  62  94 131 172 225 264 314 390
#     4  10  23  41  63  96 133 169 214 262 324 384
#     4  10  23  43  67  92 130 171 209 269 324 384
#     4  12  25  39  65  96 128 175 211 272 319 380
#     4   9  20  41  65  92 127 170 215 265 320 381
#
# _framework density 21.196947999999999
#
# number of rings (size 3 to 8) (size 9 to 14) (size 15 to 20)
#    0.000    1.625    1.250    1.875    5.250    7.000 
#    0.000    2.500    0.000    0.000    0.000    0.000 
#    0.000    0.000    0.000    0.000    0.000    0.000 
#
# Total GULP energy -793803.013715 kJ/mol
# GULP energy per Si atom -12403.172089 kJ/mol
# Density = 2.114870 g / cm^3
# Si number density = 21.196948 Si / 1000 Ang^3
#
#
#
# Elastic Constant Matrix: (Units=GPa)
#
#
# Indices 1 2 3 4 5 6 
#
# 1 117.4038 56.6991 17.4456 0.0000 0.0000 0.0000
# 2 56.6991 161.6481 32.6851 0.0000 0.0000 0.0000
# 3 17.4456 32.6851 43.3834 0.0000 0.0000 0.0000
# 4 0.0000 0.0000 0.0000 20.0211 0.0000 0.0000
# 5 0.0000 0.0000 0.0000 0.0000 24.3940 0.0000
# 6 0.0000 0.0000 0.0000 0.0000 0.0000 37.7176
#
#
#
# Elastic Compliance Matrix: (Units=1/GPa)
#
#
# Indices 1 2 3 4 5 6 
#
# 1 0.010358 -0.003293 -0.001685 0.000000 0.000000 0.000000
# 2 -0.003293 0.008345 -0.004963 0.000000 0.000000 0.000000
# 3 -0.001685 -0.004963 0.027467 0.000000 0.000000 0.000000
# 4 0.000000 0.000000 0.000000 0.049947 0.000000 0.000000
# 5 0.000000 0.000000 0.000000 0.000000 0.040994 0.000000
# 6 0.000000 0.000000 0.000000 0.000000 0.000000 0.026513
#
#
# Mechanical properties :
#
#
# Convention : Reuss Voigt Hill
#
# Bulk Modulus (GPa) = 38.03814 59.56610 48.80212
# Shear Modulus (GPa) = 26.00557 30.80024 28.40291
#
# Velocity S-wave (km/s) = 3.50645 3.81603 3.66451
# Velocity P-wave (km/s) = 5.86324 6.89771 6.40140
#
# Compressibility (1/GPa) = 0.02628940
#
# Stress axis : x y z
#
# Youngs Moduli (GPa) = 96.54352 119.83755 36.40763
#
# Poissons Ratio (x) = 0.39457 0.06133
# Poissons Ratio (y) = 0.31787 0.18069
# Poissons Ratio (z) = 0.16264 0.59474
#
# Static dielectric constant tensor:
#      x y z
#    x 3.976280 0.000000 0.000000 
#    y 0.000000 4.002170 0.000000 
#    z 0.000000 0.000000 3.755940 
# 
# 
# High freq. dielectric constant tensor:
#      x y z
#    x 1.830400 0.000000 0.000000 
#    y 0.000000 1.843240 0.000000 
#    z 0.000000 0.000000 1.833880 
# 
# From -- ./inp_files/19968.got.cif
#   From: 2010.03.12/outbox.cif.g09.slc.cpg/sg55_10_cif.got.tgz:19968.got - 2010.04.16 15:19:21.
