data_PCOD8227785
_publ_section_title
;
Structure prediction by ZEFSAII (Michael W. Deem and Ramdas Pophale) SiO2 
 PCOD8227785
Probable space group: P B A M
;
_chemical_formula_sum "Si O2"
_cell_formula_units_Z 28
_cell_length_a 11.434120
_cell_length_b 4.933176
_cell_length_c 20.855448
_cell_angle_alpha 90.000000
_cell_angle_beta 90.000000
_cell_angle_gamma 90.000000
_cell_volume 1176.383377
_symmetry_space_group_name_H-M "P B A M"
_symmetry_group_IT_number 55
_symmetry_cell_setting 'orthorhombic'
loop_
_space_group_symop_operation_xyz
x,y,z
-x,-y,z
1/2+x,1/2-y,-z
1/2-x,1/2+y,-z
-x,-y,-z
x,y,-z
1/2-x,1/2+y,z
1/2+x,1/2-y,z
loop_
_atom_site_type_symbol
_atom_site_label
_atom_site_fract_x
_atom_site_fract_y
_atom_site_fract_z
Si Si1 0.175192 0.445178 0.000000
Si Si2 0.000000 0.500000 0.608311
Si Si3 0.334755 0.712750 0.299076
Si Si4 0.166559 0.656794 0.500000
Si Si5 0.000000 0.500000 0.891644
Si Si6 0.500000 0.500000 0.191803
O O1 0.102351 0.380453 0.063942
O O2 0.289702 0.259908 0.000000
O O3 0.060374 0.260819 0.650211
O O4 0.089581 0.665038 0.563989
O O5 0.239767 0.482987 0.308455
O O6 0.396417 0.643609 0.231787
O O7 0.248320 0.402654 0.500000
O O8 0.949408 0.248790 0.850067
#
# Coordination Sequence:
#
# PCOD8227785 Si02
#       6
#     4   4   8   4   4   4
#     4  11  24  43  70 100 136 181 228 286 350 409
#     4  11  25  46  72 102 143 181 236 294 350 421
#     4  12  26  44  69 101 139 186 232 284 349 414
#     4  11  26  45  72 104 136 182 232 290 356 420
#     4  11  25  44  68 102 139 179 232 288 346 415
#     4  12  26  45  68 101 142 182 234 290 344 418
#
# _framework density 23.801762
#
# number of rings (size 3 to 8) (size 9 to 14) (size 15 to 20)
#    0.000    0.571    0.000    7.714    0.000   16.000 
#    0.000    0.000    0.000    0.000    0.000    0.000 
#    0.000    0.000    0.000    0.000    0.000    0.000 
#
# Total GULP energy -347093.003839 kJ/mol
# GULP energy per Si atom -12396.178709 kJ/mol
# Density = 2.374759 g / cm^3
# Si number density = 23.801762 Si / 1000 Ang^3
#
#
#
# Elastic Constant Matrix: (Units=GPa)
#
#
# Indices 1 2 3 4 5 6 
#
# 1 143.6212 78.2279 69.6413 0.0000 0.0000 0.0000
# 2 78.2279 201.7938 71.2616 0.0000 0.0000 0.0000
# 3 69.6413 71.2616 157.7057 0.0000 0.0000 0.0000
# 4 0.0000 0.0000 0.0000 32.8029 0.0000 0.0000
# 5 0.0000 0.0000 0.0000 0.0000 -4.5364 0.0000
# 6 0.0000 0.0000 0.0000 0.0000 0.0000 51.8069
#
#
#
# Elastic Compliance Matrix: (Units=1/GPa)
#
#
# Indices 1 2 3 4 5 6 
#
# 1 0.010002 -0.002758 -0.003171 0.000000 0.000000 0.000000
# 2 -0.002758 0.006657 -0.001790 0.000000 0.000000 0.000000
# 3 -0.003171 -0.001790 0.008550 0.000000 0.000000 0.000000
# 4 0.000000 0.000000 0.000000 0.030485 0.000000 0.000000
# 5 0.000000 0.000000 0.000000 0.000000 -0.220438 0.000000
# 6 0.000000 0.000000 0.000000 0.000000 0.000000 0.019302
#
#
# Mechanical properties :
#
#
# Convention : Reuss Voigt Hill
#
# Bulk Modulus (GPa) = 102.33632 104.59805 103.46718
# Shear Modulus (GPa) = -39.44901 34.94732 -2.25085
#
# Velocity S-wave (km/s) = -4.07553 3.83595 -0.97351
# Velocity P-wave (km/s) = 4.57624 7.97874 6.50393
#
# Compressibility (1/GPa) = 0.00977170
#
# Stress axis : x y z
#
# Youngs Moduli (GPa) = 99.97589 150.22156 116.95866
#
# Poissons Ratio (x) = 0.41428 0.37085
# Poissons Ratio (y) = 0.27572 0.20937
# Poissons Ratio (z) = 0.31700 0.26892
#
# Static dielectric constant tensor:
#      x y z
#    x 4.654000 0.000000 0.000000 
#    y 0.000000 4.057110 0.000000 
#    z 0.000000 0.000000 4.542410 
# 
# 
# High freq. dielectric constant tensor:
#      x y z
#    x 1.954720 0.000000 0.000000 
#    y 0.000000 1.955660 0.000000 
#    z 0.000000 0.000000 1.954820 
# 
# From -- ./inp_files/22771.got.cif
#   From: 2010.03.12/outbox.cif.g09.slc.cpg/sg55_12_cif.got.tgz:22771.got - 2010.04.16 15:19:21.
