data_PCOD8227551
_publ_section_title
;
Structure prediction by ZEFSAII (Michael W. Deem and Ramdas Pophale) SiO2 
 PCOD8227551
Probable space group: P B A M
;
_chemical_formula_sum "Si O2"
_cell_formula_units_Z 56
_cell_length_a 9.504870
_cell_length_b 15.773285
_cell_length_c 17.697106
_cell_angle_alpha 90.000000
_cell_angle_beta 90.000000
_cell_angle_gamma 90.000000
_cell_volume 2653.203637
_symmetry_space_group_name_H-M "P B A M"
_symmetry_group_IT_number 55
_symmetry_cell_setting 'orthorhombic'
loop_
_space_group_symop_operation_xyz
x,y,z
-x,-y,z
1/2+x,1/2-y,-z
1/2-x,1/2+y,-z
-x,-y,-z
x,y,-z
1/2-x,1/2+y,z
1/2+x,1/2-y,z
loop_
_atom_site_type_symbol
_atom_site_label
_atom_site_fract_x
_atom_site_fract_y
_atom_site_fract_z
Si Si1 0.750196 0.227679 0.221983
Si Si2 0.488547 0.268274 0.679461
Si Si3 0.355251 0.532733 0.916665
Si Si4 0.857193 0.619589 0.916140
Si Si5 0.868831 0.390705 0.171918
Si Si6 0.401484 0.578704 0.411118
Si Si7 0.098886 0.575195 0.663463
O O1 0.846885 0.184488 0.287137
O O2 0.612567 0.268176 0.258371
O O3 0.713845 0.175813 0.147778
O O4 0.871482 0.294088 0.197592
O O5 0.533742 0.329970 0.611502
O O6 0.462231 0.170884 0.650117
O O7 0.500000 0.500000 0.879697
O O8 0.236406 0.462515 0.922602
O O9 0.288516 0.602789 0.862848
O O10 0.389638 0.570052 0.000000
O O11 0.012227 0.591108 0.890443
O O12 0.864598 0.663083 0.000000
O O13 0.888947 0.447022 0.246809
O O14 0.500000 0.500000 0.386062
O O15 0.379784 0.579525 0.500000
O O16 0.250450 0.566291 0.373247
O O17 0.000000 0.500000 0.629537
#
# Coordination Sequence:
#
# PCOD8227551 Si02
#       7
#     8   8   8   8   8   8   8
#     4  11  23  42  63  95 126 171 228 276 334 399
#     4  11  23  47  69  99 140 178 226 280 331 407
#     4  10  23  38  55  84 120 166 221 277 336 394
#     4  11  23  39  60  88 128 172 219 279 342 393
#     4  11  22  39  62  90 125 171 223 273 330 401
#     4  11  27  48  72 107 141 177 223 273 338 407
#     4  11  24  42  72 105 137 181 227 276 336 407
#
# _framework density 21.106559000000001
#
# number of rings (size 3 to 8) (size 9 to 14) (size 15 to 20)
#    0.000    1.143    5.714    1.714    4.000    3.714 
#    0.000    0.000    0.000    0.000    0.000    0.000 
#    0.000    0.000    0.000    0.000    0.000    0.000 
#
# Total GULP energy -693802.192688 kJ/mol
# GULP energy per Si atom -12389.324869 kJ/mol
# Density = 2.105852 g / cm^3
# Si number density = 21.106559 Si / 1000 Ang^3
#
#
#
# Elastic Constant Matrix: (Units=GPa)
#
#
# Indices 1 2 3 4 5 6 
#
# 1 147.5254 39.9847 41.7458 0.0000 0.0000 0.0000
# 2 39.9847 91.3058 37.7953 0.0000 0.0000 0.0000
# 3 41.7458 37.7953 85.2745 0.0000 0.0000 0.0000
# 4 0.0000 0.0000 0.0000 18.8941 0.0000 0.0000
# 5 0.0000 0.0000 0.0000 0.0000 20.7484 0.0000
# 6 0.0000 0.0000 0.0000 0.0000 0.0000 40.8710
#
#
#
# Elastic Compliance Matrix: (Units=1/GPa)
#
#
# Indices 1 2 3 4 5 6 
#
# 1 0.008271 -0.002383 -0.002993 0.000000 0.000000 0.000000
# 2 -0.002383 0.014100 -0.005083 0.000000 0.000000 0.000000
# 3 -0.002993 -0.005083 0.015445 0.000000 0.000000 0.000000
# 4 0.000000 0.000000 0.000000 0.052927 0.000000 0.000000
# 5 0.000000 0.000000 0.000000 0.000000 0.048196 0.000000
# 6 0.000000 0.000000 0.000000 0.000000 0.000000 0.024467
#
#
# Mechanical properties :
#
#
# Convention : Reuss Voigt Hill
#
# Bulk Modulus (GPa) = 59.17746 62.57302 60.87524
# Shear Modulus (GPa) = 26.32182 29.74136 28.03159
#
# Velocity S-wave (km/s) = 3.53525 3.75788 3.64826
# Velocity P-wave (km/s) = 6.69047 6.96703 6.83015
#
# Compressibility (1/GPa) = 0.01689832
#
# Stress axis : x y z
#
# Youngs Moduli (GPa) = 120.89904 70.92300 64.74722
#
# Poissons Ratio (x) = 0.16903 0.19378
# Poissons Ratio (y) = 0.28814 0.32908
# Poissons Ratio (z) = 0.36184 0.36047
#
# Static dielectric constant tensor:
#      x y z
#    x 4.276320 0.000000 0.000000 
#    y 0.000000 3.822990 0.000000 
#    z 0.000000 0.000000 4.018600 
# 
# 
# High freq. dielectric constant tensor:
#      x y z
#    x 1.851670 0.000000 0.000000 
#    y 0.000000 1.812730 0.000000 
#    z 0.000000 0.000000 1.819900 
# 
# From -- ./inp_files/22644.got.cif
#   From: 2010.03.12/outbox.cif.g09.slc.cpg/sg55_12_cif.got.tgz:22644.got - 2010.04.16 15:19:21.
