data_PCOD8227274
_publ_section_title
;
Structure prediction by ZEFSAII (Michael W. Deem and Ramdas Pophale) SiO2 
 PCOD8227274
Probable space group: P B A M
;
_chemical_formula_sum "Si O2"
_cell_formula_units_Z 56
_cell_length_a 8.437784
_cell_length_b 19.209351
_cell_length_c 16.842259
_cell_angle_alpha 90.000000
_cell_angle_beta 90.000000
_cell_angle_gamma 90.000000
_cell_volume 2729.866679
_symmetry_space_group_name_H-M "P B A M"
_symmetry_group_IT_number 55
_symmetry_cell_setting 'orthorhombic'
loop_
_space_group_symop_operation_xyz
x,y,z
-x,-y,z
1/2+x,1/2-y,-z
1/2-x,1/2+y,-z
-x,-y,-z
x,y,-z
1/2-x,1/2+y,z
1/2+x,1/2-y,z
loop_
_atom_site_type_symbol
_atom_site_label
_atom_site_fract_x
_atom_site_fract_y
_atom_site_fract_z
Si Si1 0.670742 0.117431 0.724914
Si Si2 0.008576 0.733698 0.342172
Si Si3 0.296399 0.651747 0.591501
Si Si4 0.818432 0.981216 0.299688
Si Si5 0.399559 0.064320 0.167081
Si Si6 0.776376 0.816098 0.090741
Si Si7 0.595255 0.702045 0.820136
O O1 0.642973 0.181688 0.664566
O O2 0.504490 0.102917 0.767282
O O3 0.803032 0.135840 0.791328
O O4 0.724938 0.050956 0.673163
O O5 0.951858 0.806118 0.380372
O O6 0.141290 0.698620 0.396444
O O7 0.070807 0.745919 0.253281
O O8 0.314797 0.632337 0.500000
O O9 0.282802 0.580146 0.639113
O O10 0.757180 0.963163 0.211539
O O11 0.000000 0.000000 0.295170
O O12 0.343727 0.118764 0.100366
O O13 0.500000 0.000000 0.128900
O O14 0.688424 0.744325 0.112212
O O15 0.929072 0.826145 0.146665
O O16 0.831431 0.811963 0.000000
#
# Coordination Sequence:
#
# PCOD8227274 Si02
#       7
#     8   8   8   8   8   8   8
#     4  11  21  38  69  93 117 161 233 271 310 370
#     4  12  21  41  68  93 121 169 225 263 310 388
#     4  12  26  42  63  97 137 167 207 272 340 386
#     4  11  23  41  66  94 125 172 223 271 314 392
#     4  10  21  40  64  90 123 168 224 269 315 384
#     4  12  23  37  59  98 138 168 207 271 342 388
#     4  12  21  39  66  94 123 172 221 273 312 385
#
# _framework density 20.513822999999999
#
# number of rings (size 3 to 8) (size 9 to 14) (size 15 to 20)
#    0.000    0.571    5.714    3.429    0.000    0.571 
#    0.000    2.857    0.000    9.000    0.000    0.000 
#    0.000    0.000    0.000    0.000    0.000    0.000 
#
# Total GULP energy -694553.374322 kJ/mol
# GULP energy per Si atom -12402.738827 kJ/mol
# Density = 2.046713 g / cm^3
# Si number density = 20.513823 Si / 1000 Ang^3
#
#
#
# Elastic Constant Matrix: (Units=GPa)
#
#
# Indices 1 2 3 4 5 6 
#
# 1 91.4070 25.9517 19.5808 0.0000 0.0000 0.0000
# 2 25.9517 117.9462 25.8605 0.0000 0.0000 0.0000
# 3 19.5808 25.8605 65.5816 0.0000 0.0000 0.0000
# 4 0.0000 0.0000 0.0000 21.2325 0.0000 0.0000
# 5 0.0000 0.0000 0.0000 0.0000 19.1355 0.0000
# 6 0.0000 0.0000 0.0000 0.0000 0.0000 39.9183
#
#
#
# Elastic Compliance Matrix: (Units=1/GPa)
#
#
# Indices 1 2 3 4 5 6 
#
# 1 0.012125 -0.002051 -0.002811 0.000000 0.000000 0.000000
# 2 -0.002051 0.009628 -0.003184 0.000000 0.000000 0.000000
# 3 -0.002811 -0.003184 0.017343 0.000000 0.000000 0.000000
# 4 0.000000 0.000000 0.000000 0.047098 0.000000 0.000000
# 5 0.000000 0.000000 0.000000 0.000000 0.052259 0.000000
# 6 0.000000 0.000000 0.000000 0.000000 0.000000 0.025051
#
#
# Mechanical properties :
#
#
# Convention : Reuss Voigt Hill
#
# Bulk Modulus (GPa) = 43.47366 46.41342 44.94354
# Shear Modulus (GPa) = 26.70025 29.62671 28.16348
#
# Velocity S-wave (km/s) = 3.61165 3.80443 3.70929
# Velocity P-wave (km/s) = 6.21533 6.47864 6.34835
#
# Compressibility (1/GPa) = 0.02300243
#
# Stress axis : x y z
#
# Youngs Moduli (GPa) = 82.47625 103.86435 57.65995
#
# Poissons Ratio (x) = 0.21307 0.16209
# Poissons Ratio (y) = 0.16919 0.18359
# Poissons Ratio (z) = 0.23185 0.33071
#
# Static dielectric constant tensor:
#      x y z
#    x 3.875460 0.000000 0.000000 
#    y 0.000000 4.081300 0.000000 
#    z 0.000000 0.000000 3.298660 
# 
# 
# High freq. dielectric constant tensor:
#      x y z
#    x 1.819650 0.000000 0.000000 
#    y 0.000000 1.819630 0.000000 
#    z 0.000000 0.000000 1.760420 
# 
# From -- ./inp_files/17616.got.cif
#   From: 2010.03.12/outbox.cif.g09.slc.cpg/sg55_9_cif.got.tgz:17616.got - 2010.04.16 15:19:21.
