data_PCOD8227133
_publ_section_title
;
Structure prediction by ZEFSAII (Michael W. Deem and Ramdas Pophale) SiO2 
 PCOD8227133
Probable space group: P B A M
;
_chemical_formula_sum "Si O2"
_cell_formula_units_Z 48
_cell_length_a 30.923466
_cell_length_b 8.834530
_cell_length_c 8.467164
_cell_angle_alpha 90.000000
_cell_angle_beta 90.000000
_cell_angle_gamma 90.000000
_cell_volume 2313.180841
_symmetry_space_group_name_H-M "P B A M"
_symmetry_group_IT_number 55
_symmetry_cell_setting 'orthorhombic'
loop_
_space_group_symop_operation_xyz
x,y,z
-x,-y,z
1/2+x,1/2-y,-z
1/2-x,1/2+y,-z
-x,-y,-z
x,y,-z
1/2-x,1/2+y,z
1/2+x,1/2-y,z
loop_
_atom_site_type_symbol
_atom_site_label
_atom_site_fract_x
_atom_site_fract_y
_atom_site_fract_z
Si Si1 0.788765 0.913129 0.682262
Si Si2 0.870726 0.420682 0.315241
Si Si3 0.042739 0.423153 0.684920
Si Si4 0.378152 0.432109 0.682514
Si Si5 0.458656 0.593919 0.817276
Si Si6 0.789773 0.588097 0.181210
O O1 0.778176 0.947591 0.500000
O O2 0.789421 0.734105 0.707781
O O3 0.834816 0.981022 0.731254
O O4 0.752669 0.988994 0.790113
O O5 0.863959 0.455836 0.500000
O O6 0.914420 0.496477 0.247072
O O7 0.872252 0.243467 0.281439
O O8 0.831159 0.486898 0.218115
O O9 0.041998 0.453023 0.500000
O O10 0.044081 0.245926 0.717088
O O11 0.000000 0.500000 0.761798
O O12 0.389927 0.460994 0.500000
O O13 0.416304 0.494101 0.790837
O O14 0.500000 0.500000 0.757787
O O15 0.463039 0.637012 0.000000
O O16 0.791049 0.639981 0.000000
#
# Coordination Sequence:
#
# PCOD8227133 Si02
#       6
#     8   8   8   8   8   8
#     4  11  23  41  64  89 119 158 202 245 295 355
#     4  10  21  39  62  89 120 155 198 246 298 354
#     4  10  21  38  62  89 116 152 200 249 293 345
#     4  10  22  40  64  89 114 152 200 246 290 345
#     4  11  24  39  57  85 121 158 194 238 296 357
#     4  12  25  40  61  91 124 158 198 246 300 355
#
# _framework density 20.750647000000001
#
# number of rings (size 3 to 8) (size 9 to 14) (size 15 to 20)
#    0.000    1.333    0.000    5.500    0.000   11.000 
#    0.000    0.000    0.000    0.000    0.000    0.000 
#    0.000    0.000    0.000    0.000    0.000    0.000 
#
# Total GULP energy -595561.584875 kJ/mol
# GULP energy per Si atom -12407.533018 kJ/mol
# Density = 2.070342 g / cm^3
# Si number density = 20.750647 Si / 1000 Ang^3
#
#
#
# Elastic Constant Matrix: (Units=GPa)
#
#
# Indices 1 2 3 4 5 6 
#
# 1 159.8030 59.3777 29.6110 0.0000 0.0000 0.0000
# 2 59.3777 120.0725 6.4355 0.0000 0.0000 0.0000
# 3 29.6110 6.4355 40.2127 0.0000 0.0000 0.0000
# 4 0.0000 0.0000 0.0000 17.1562 0.0000 0.0000
# 5 0.0000 0.0000 0.0000 0.0000 65.2181 0.0000
# 6 0.0000 0.0000 0.0000 0.0000 0.0000 1414.2263
#
#
#
# Elastic Compliance Matrix: (Units=1/GPa)
#
#
# Indices 1 2 3 4 5 6 
#
# 1 0.008856 -0.004065 -0.005871 0.000000 0.000000 0.000000
# 2 -0.004065 0.010266 0.001350 0.000000 0.000000 0.000000
# 3 -0.005871 0.001350 0.028975 0.000000 0.000000 0.000000
# 4 0.000000 0.000000 0.000000 0.058288 0.000000 0.000000
# 5 0.000000 0.000000 0.000000 0.000000 0.015333 0.000000
# 6 0.000000 0.000000 0.000000 0.000000 0.000000 0.000707
#
#
# Mechanical properties :
#
#
# Convention : Reuss Voigt Hill
#
# Bulk Modulus (GPa) = 32.33509 56.77070 44.55290
# Shear Modulus (GPa) = 33.35477 314.29772 173.82624
#
# Velocity S-wave (km/s) = 4.01360 12.32043 9.16247
# Velocity P-wave (km/s) = 6.09058 15.15943 11.55213
#
# Compressibility (1/GPa) = 0.03092615
#
# Stress axis : x y z
#
# Youngs Moduli (GPa) = 112.92022 97.40904 34.51303
#
# Poissons Ratio (x) = 0.39594 0.20261
# Poissons Ratio (y) = 0.45899 -0.04660
# Poissons Ratio (z) = 0.66291 -0.13152
#
# Static dielectric constant tensor:
#      x y z
#    x 4.018680 0.000000 0.000000 
#    y 0.000000 3.724770 0.000000 
#    z 0.000000 0.000000 3.531620 
# 
# 
# High freq. dielectric constant tensor:
#      x y z
#    x 1.832170 0.000000 0.000000 
#    y 0.000000 1.826520 0.000000 
#    z 0.000000 0.000000 1.798530 
# 
# From -- ./inp_files/10491.got.cif
#   From: 2010.03.12/outbox.cif.g09.slc.cpg/sg55_6_cif.got.tgz:10491.got - 2010.04.16 15:19:21.
