data_PCOD8227958
_publ_section_title
;
Structure prediction by ZEFSAII (Michael W. Deem and Ramdas Pophale) SiO2 
 PCOD8227958
Probable space group: P C C N
;
_chemical_formula_sum "Si O2"
_cell_formula_units_Z 48
_cell_length_a 8.293136
_cell_length_b 26.009033
_cell_length_c 9.775579
_cell_angle_alpha 90.000000
_cell_angle_beta 90.000000
_cell_angle_gamma 90.000000
_cell_volume 2108.557666
_symmetry_space_group_name_H-M "P C C N"
_symmetry_group_IT_number 56
_symmetry_cell_setting 'orthorhombic'
loop_
_space_group_symop_operation_xyz
x,y,z
1/2-x,1/2-y,z
1/2+x,-y,1/2-z
-x,1/2+y,1/2-z
-x,-y,-z
1/2+x,1/2+y,-z
1/2-x,y,1/2+z
x,1/2-y,1/2+z
loop_
_atom_site_type_symbol
_atom_site_label
_atom_site_fract_x
_atom_site_fract_y
_atom_site_fract_z
Si Si1 0.474582 0.194640 0.286298
Si Si2 0.842678 0.532769 0.966947
Si Si3 0.698332 0.069991 0.420646
Si Si4 0.569769 0.272995 0.079402
Si Si5 0.222119 0.631291 0.317008
Si Si6 0.848799 0.908529 0.183844
O O1 0.449719 0.237534 0.169121
O O2 0.495800 0.224112 0.429107
O O3 0.633018 0.162856 0.248905
O O4 0.327527 0.153478 0.294985
O O5 0.702600 0.491196 0.941123
O O6 0.864963 0.566421 0.832174
O O7 0.799073 0.568984 0.096004
O O8 0.000000 0.500000 0.000000
O O9 0.816152 0.087264 0.295283
O O10 0.773472 0.101148 0.547315
O O11 0.511259 0.083014 0.402397
O O12 0.750000 0.250000 0.070653
O O13 0.576111 0.329587 0.149783
#
# Coordination Sequence:
#
# PCOD8227958 Si02
#       6
#     8   8   8   8   8   8
#     4  10  21  36  59  96 134 178 222 281 340 402
#     4  12  25  44  68  96 132 180 228 282 348 426
#     4  11  22  39  65 100 135 172 218 286 352 411
#     4  10  18  33  59  96 136 173 219 277 333 405
#     4  10  18  33  58  97 137 167 216 271 342 402
#     4  11  24  45  64  98 133 174 230 285 349 408
#
# _framework density 22.764378000000001
#
# number of rings (size 3 to 8) (size 9 to 14) (size 15 to 20)
#    0.000    1.333    3.333    6.000    2.333    1.333 
#    0.000    0.000    0.000    3.000    0.000    0.000 
#    0.000    0.000    0.000    0.000    0.000    0.000 
#
# Total GULP energy -594993.509093 kJ/mol
# GULP energy per Si atom -12395.698106 kJ/mol
# Density = 2.271256 g / cm^3
# Si number density = 22.764378 Si / 1000 Ang^3
#
#
#
# Elastic Constant Matrix: (Units=GPa)
#
#
# Indices 1 2 3 4 5 6 
#
# 1 44.5821 23.8947 38.0764 0.0000 0.0000 0.0000
# 2 23.8947 138.7040 78.8614 0.0000 0.0000 0.0000
# 3 38.0764 78.8614 195.3644 0.0000 0.0000 0.0000
# 4 0.0000 0.0000 0.0000 38.3798 0.0000 0.0000
# 5 0.0000 0.0000 0.0000 0.0000 14.9194 0.0000
# 6 0.0000 0.0000 0.0000 0.0000 0.0000 32.7236
#
#
#
# Elastic Compliance Matrix: (Units=1/GPa)
#
#
# Indices 1 2 3 4 5 6 
#
# 1 0.027412 -0.002187 -0.004460 0.000000 0.000000 0.000000
# 2 -0.002187 0.009532 -0.003421 0.000000 0.000000 0.000000
# 3 -0.004460 -0.003421 0.007369 0.000000 0.000000 0.000000
# 4 0.000000 0.000000 0.000000 0.026055 0.000000 0.000000
# 5 0.000000 0.000000 0.000000 0.000000 0.067027 0.000000
# 6 0.000000 0.000000 0.000000 0.000000 0.000000 0.030559
#
#
# Mechanical properties :
#
#
# Convention : Reuss Voigt Hill
#
# Bulk Modulus (GPa) = 41.36255 73.36841 57.36548
# Shear Modulus (GPa) = 25.49102 33.05909 29.27505
#
# Velocity S-wave (km/s) = 3.34994 3.81495 3.58998
# Velocity P-wave (km/s) = 5.75952 7.19059 6.51447
#
# Compressibility (1/GPa) = 0.02417646
#
# Stress axis : x y z
#
# Youngs Moduli (GPa) = 36.48101 104.91501 135.70453
#
# Poissons Ratio (x) = 0.22940 0.60523
# Poissons Ratio (y) = 0.07977 0.46430
# Poissons Ratio (z) = 0.16270 0.35895
#
# Static dielectric constant tensor:
#      x y z
#    x 3.616940 0.000000 0.000000 
#    y 0.000000 5.128380 0.000000 
#    z 0.000000 0.000000 4.339700 
# 
# 
# High freq. dielectric constant tensor:
#      x y z
#    x 1.846010 0.000000 0.000000 
#    y 0.000000 1.921410 0.000000 
#    z 0.000000 0.000000 1.915620 
# 
# From -- ./inp_files/2250.got.cif
#   From: 2010.03.12/outbox.cif.g09.slc.cpg/sg56_2_cif.got.tgz:2250.got - 2010.04.16 15:33:40.
