data_PCOD8227334
_publ_section_title
;
Structure prediction by ZEFSAII (Michael W. Deem and Ramdas Pophale) SiO2 
 PCOD8227334
Probable space group: P B A M
;
_chemical_formula_sum "Si O2"
_cell_formula_units_Z 32
_cell_length_a 5.093533
_cell_length_b 12.320790
_cell_length_c 21.269957
_cell_angle_alpha 90.000000
_cell_angle_beta 90.000000
_cell_angle_gamma 90.000000
_cell_volume 1334.824876
_symmetry_space_group_name_H-M "P B A M"
_symmetry_group_IT_number 55
_symmetry_cell_setting 'orthorhombic'
loop_
_space_group_symop_operation_xyz
x,y,z
-x,-y,z
1/2+x,1/2-y,-z
1/2-x,1/2+y,-z
-x,-y,-z
x,y,-z
1/2-x,1/2+y,z
1/2+x,1/2-y,z
loop_
_atom_site_type_symbol
_atom_site_label
_atom_site_fract_x
_atom_site_fract_y
_atom_site_fract_z
Si Si1 0.742602 0.316986 0.000000
Si Si2 0.739042 0.683196 0.695424
Si Si3 0.853699 0.824062 0.864710
Si Si4 0.500000 0.500000 0.772093
Si Si5 0.754132 0.573392 0.429841
O O1 0.674727 0.378355 0.065338
O O2 0.551979 0.210814 0.000000
O O3 0.512989 0.766142 0.717599
O O4 0.699772 0.566572 0.727840
O O5 0.731996 0.671133 0.619764
O O6 0.637089 0.731111 0.854700
O O7 0.823450 0.921057 0.815167
O O8 0.500000 0.500000 0.426041
O O9 0.788415 0.622899 0.500000
O O10 0.000000 0.500000 0.410825
#
# Coordination Sequence:
#
# PCOD8227334 Si02
#       5
#     4   8   8   4   8
#     4   8  16  35  62  89 124 156 208 273 321 378
#     4  12  27  43  66  97 129 174 221 264 323 389
#     4  10  22  41  64  94 125 168 215 268 328 386
#     4  12  26  43  65  90 136 176 218 270 318 388
#     4  10  21  42  70  97 127 165 212 269 327 382
#
# _framework density 23.973184
#
# number of rings (size 3 to 8) (size 9 to 14) (size 15 to 20)
#    0.000    1.500    1.250    3.000    0.000    4.500 
#    0.000    0.000    0.000    9.000    0.000    0.000 
#    0.000    0.000    0.000    0.000    0.000    0.000 
#
# Total GULP energy -396816.229296 kJ/mol
# GULP energy per Si atom -12400.507165 kJ/mol
# Density = 2.391862 g / cm^3
# Si number density = 23.973184 Si / 1000 Ang^3
#
#
#
# Elastic Constant Matrix: (Units=GPa)
#
#
# Indices 1 2 3 4 5 6 
#
# 1 122.3368 22.7443 22.5680 0.0000 0.0000 0.0000
# 2 22.7443 83.3620 60.2799 0.0000 0.0000 0.0000
# 3 22.5680 60.2799 150.5872 0.0000 0.0000 0.0000
# 4 0.0000 0.0000 0.0000 42.1576 0.0000 0.0000
# 5 0.0000 0.0000 0.0000 0.0000 25.7193 0.0000
# 6 0.0000 0.0000 0.0000 0.0000 0.0000 23.6197
#
#
#
# Elastic Compliance Matrix: (Units=1/GPa)
#
#
# Indices 1 2 3 4 5 6 
#
# 1 0.008637 -0.001999 -0.000494 0.000000 0.000000 0.000000
# 2 -0.001999 0.017346 -0.006644 0.000000 0.000000 0.000000
# 3 -0.000494 -0.006644 0.009374 0.000000 0.000000 0.000000
# 4 0.000000 0.000000 0.000000 0.023721 0.000000 0.000000
# 5 0.000000 0.000000 0.000000 0.000000 0.038881 0.000000
# 6 0.000000 0.000000 0.000000 0.000000 0.000000 0.042338
#
#
# Mechanical properties :
#
#
# Convention : Reuss Voigt Hill
#
# Bulk Modulus (GPa) = 58.53932 63.05229 60.79581
# Shear Modulus (GPa) = 30.43871 35.01222 32.72547
#
# Velocity S-wave (km/s) = 3.56715 3.82576 3.69872
# Velocity P-wave (km/s) = 6.43722 6.77300 6.60724
#
# Compressibility (1/GPa) = 0.01708253
#
# Stress axis : x y z
#
# Youngs Moduli (GPa) = 115.78108 57.65174 106.67550
#
# Poissons Ratio (x) = 0.11526 0.05271
# Poissons Ratio (y) = 0.23147 0.70873
# Poissons Ratio (z) = 0.05721 0.38303
#
# Static dielectric constant tensor:
#      x y z
#    x 4.222600 0.000000 0.000000 
#    y 0.000000 3.818820 0.000000 
#    z 0.000000 0.000000 5.104550 
# 
# 
# High freq. dielectric constant tensor:
#      x y z
#    x 1.958590 0.000000 0.000000 
#    y 0.000000 1.906420 0.000000 
#    z 0.000000 0.000000 1.987390 
# 
# From -- ./inp_files/22215.got.cif
#   From: 2010.03.12/outbox.cif.g09.slc.cpg/sg55_12_cif.got.tgz:22215.got - 2010.04.16 15:19:21.
