data_PCOD8227200
_publ_section_title
;
Structure prediction by ZEFSAII (Michael W. Deem and Ramdas Pophale) SiO2 
 PCOD8227200
Probable space group: P B A M
;
_chemical_formula_sum "Si O2"
_cell_formula_units_Z 56
_cell_length_a 12.327853
_cell_length_b 14.660683
_cell_length_c 13.789943
_cell_angle_alpha 90.000000
_cell_angle_beta 90.000000
_cell_angle_gamma 90.000000
_cell_volume 2492.321830
_symmetry_space_group_name_H-M "P B A M"
_symmetry_group_IT_number 55
_symmetry_cell_setting 'orthorhombic'
loop_
_space_group_symop_operation_xyz
x,y,z
-x,-y,z
1/2+x,1/2-y,-z
1/2-x,1/2+y,-z
-x,-y,-z
x,y,-z
1/2-x,1/2+y,z
1/2+x,1/2-y,z
loop_
_atom_site_type_symbol
_atom_site_label
_atom_site_fract_x
_atom_site_fract_y
_atom_site_fract_z
Si Si1 0.817865 0.666494 0.772394
Si Si2 0.304806 0.413017 0.391163
Si Si3 0.272067 0.102487 0.610814
Si Si4 0.124012 0.500661 0.889233
Si Si5 0.318107 0.206934 0.111672
Si Si6 0.534865 0.392855 0.388742
Si Si7 0.548784 0.779343 0.286700
O O1 0.727587 0.665958 0.685687
O O2 0.805675 0.571475 0.829340
O O3 0.793511 0.750399 0.845687
O O4 0.933372 0.672658 0.722150
O O5 0.308745 0.371009 0.500000
O O6 0.214237 0.492371 0.386624
O O7 0.427021 0.461651 0.370295
O O8 0.280412 0.138212 0.500000
O O9 0.152654 0.117818 0.662728
O O10 0.364642 0.147050 0.675081
O O11 0.182129 0.597905 0.877224
O O12 0.000000 0.500000 0.851380
O O13 0.124374 0.468134 0.000000
O O14 0.415222 0.249518 0.177228
O O15 0.335453 0.235781 0.000000
O O16 0.567906 0.394040 0.500000
O O17 0.461960 0.304465 0.360522
#
# Coordination Sequence:
#
# PCOD8227200 Si02
#       7
#     8   8   8   8   8   8   8
#     4  12  24  40  67  96 138 171 217 274 339 406
#     4  10  22  39  62  93 127 169 218 268 326 394
#     4  10  22  40  63  91 126 169 219 270 320 386
#     4  10  21  41  69  97 127 172 226 280 337 403
#     4  11  24  42  64  95 129 168 220 275 336 400
#     4  10  21  39  62  88 124 170 221 267 319 388
#     4  12  23  39  60  96 127 168 210 271 330 397
#
# _framework density 22.469007999999999
#
# number of rings (size 3 to 8) (size 9 to 14) (size 15 to 20)
#    0.000    1.286    2.857    3.000    0.000    3.429 
#    0.000    1.429    0.000    0.000    0.000    4.000 
#    0.000    0.000    0.000    0.000    0.000    0.000 
#
# Total GULP energy -693925.229621 kJ/mol
# GULP energy per Si atom -12391.521958 kJ/mol
# Density = 2.241787 g / cm^3
# Si number density = 22.469008 Si / 1000 Ang^3
#
#
#
# Elastic Constant Matrix: (Units=GPa)
#
#
# Indices 1 2 3 4 5 6 
#
# 1 150.6420 42.3863 61.2983 0.0000 0.0000 0.0000
# 2 42.3863 56.4856 31.7789 0.0000 0.0000 0.0000
# 3 61.2983 31.7789 109.8694 0.0000 0.0000 0.0000
# 4 0.0000 0.0000 0.0000 34.0281 0.0000 0.0000
# 5 0.0000 0.0000 0.0000 0.0000 32.8270 0.0000
# 6 0.0000 0.0000 0.0000 0.0000 0.0000 32.2409
#
#
#
# Elastic Compliance Matrix: (Units=1/GPa)
#
#
# Indices 1 2 3 4 5 6 
#
# 1 0.009654 -0.005033 -0.003930 0.000000 0.000000 0.000000
# 2 -0.005033 0.023768 -0.004067 0.000000 0.000000 0.000000
# 3 -0.003930 -0.004067 0.012471 0.000000 0.000000 0.000000
# 4 0.000000 0.000000 0.000000 0.029387 0.000000 0.000000
# 5 0.000000 0.000000 0.000000 0.000000 0.030463 0.000000
# 6 0.000000 0.000000 0.000000 0.000000 0.000000 0.031016
#
#
# Mechanical properties :
#
#
# Convention : Reuss Voigt Hill
#
# Bulk Modulus (GPa) = 50.42161 65.32488 57.87325
# Shear Modulus (GPa) = 29.51072 31.92147 30.71609
#
# Velocity S-wave (km/s) = 3.62801 3.77329 3.70137
# Velocity P-wave (km/s) = 6.32765 6.93686 6.63925
#
# Compressibility (1/GPa) = 0.01983277
#
# Stress axis : x y z
#
# Youngs Moduli (GPa) = 103.58828 42.07299 80.18747
#
# Poissons Ratio (x) = 0.21175 0.31515
# Poissons Ratio (y) = 0.52134 0.32611
# Poissons Ratio (z) = 0.40713 0.17111
#
# Static dielectric constant tensor:
#      x y z
#    x 4.112330 0.000000 0.000000 
#    y 0.000000 4.202810 0.000000 
#    z 0.000000 0.000000 4.152190 
# 
# 
# High freq. dielectric constant tensor:
#      x y z
#    x 1.895840 0.000000 0.000000 
#    y 0.000000 1.895860 0.000000 
#    z 0.000000 0.000000 1.878030 
# 
# From -- ./inp_files/18385.got.cif
#   From: 2010.03.12/outbox.cif.g09.slc.cpg/sg55_10_cif.got.tgz:18385.got - 2010.04.16 15:19:21.
