data_PCOD8227560
_publ_section_title
;
Structure prediction by ZEFSAII (Michael W. Deem and Ramdas Pophale) SiO2 
 PCOD8227560
Probable space group: P B A M
;
_chemical_formula_sum "Si O2"
_cell_formula_units_Z 56
_cell_length_a 21.071861
_cell_length_b 14.766363
_cell_length_c 9.172357
_cell_angle_alpha 90.000000
_cell_angle_beta 90.000000
_cell_angle_gamma 90.000000
_cell_volume 2854.022437
_symmetry_space_group_name_H-M "P B A M"
_symmetry_group_IT_number 55
_symmetry_cell_setting 'orthorhombic'
loop_
_space_group_symop_operation_xyz
x,y,z
-x,-y,z
1/2+x,1/2-y,-z
1/2-x,1/2+y,-z
-x,-y,-z
x,y,-z
1/2-x,1/2+y,z
1/2+x,1/2-y,z
loop_
_atom_site_type_symbol
_atom_site_label
_atom_site_fract_x
_atom_site_fract_y
_atom_site_fract_z
Si Si1 0.399081 0.285554 0.827700
Si Si2 0.598420 0.037575 0.664989
Si Si3 0.695681 0.440458 0.668200
Si Si4 0.739004 0.776509 0.832526
Si Si5 0.721111 0.076758 0.832768
Si Si6 0.931033 0.031560 0.668411
Si Si7 0.477131 0.145556 0.335293
O O1 0.333174 0.238449 0.777277
O O2 0.406028 0.384180 0.760069
O O3 0.457366 0.223507 0.776390
O O4 0.400038 0.297349 0.000000
O O5 0.625117 0.044198 0.500000
O O6 0.653357 0.040950 0.782657
O O7 0.550271 0.120405 0.693640
O O8 0.564487 0.942884 0.690130
O O9 0.715102 0.437158 0.500000
O O10 0.724130 0.351182 0.740691
O O11 0.724357 0.530769 0.738252
O O12 0.619285 0.448742 0.687365
O O13 0.777238 0.683992 0.810816
O O14 0.738735 0.807987 0.000000
O O15 0.731917 0.049430 0.000000
O O16 0.935621 0.061302 0.500000
O O17 0.000000 0.000000 0.725975
O O18 0.468282 0.181540 0.500000
#
# Coordination Sequence:
#
# PCOD8227560 Si02
#       7
#     8   8   8   8   8   8   8
#     4  11  22  38  60  87 117 157 204 244 296 367
#     4   9  19  36  57  84 116 154 198 241 295 351
#     4  11  23  39  63  91 118 155 204 254 304 362
#     4  10  23  40  59  85 120 159 196 242 303 362
#     4  11  22  38  59  85 121 156 190 241 299 355
#     4  10  23  43  64  87 118 156 200 252 308 359
#     4   9  19  36  57  82 117 155 193 244 295 348
#
# _framework density 19.621428999999999
#
# number of rings (size 3 to 8) (size 9 to 14) (size 15 to 20)
#    0.000    1.857    1.429    3.000    0.000    7.714 
#    0.000    5.714    0.000    0.000    0.000    0.000 
#    0.000    0.000    0.000    0.000    0.000    0.000 
#
# Total GULP energy -694481.989103 kJ/mol
# GULP energy per Si atom -12401.464091 kJ/mol
# Density = 1.957677 g / cm^3
# Si number density = 19.621429 Si / 1000 Ang^3
#
#
#
# Elastic Constant Matrix: (Units=GPa)
#
#
# Indices 1 2 3 4 5 6 
#
# 1 113.2637 40.4984 50.0809 0.0000 0.0000 0.0000
# 2 40.4984 88.3286 52.9182 0.0000 0.0000 0.0000
# 3 50.0809 52.9182 98.7505 0.0000 0.0000 0.0000
# 4 0.0000 0.0000 0.0000 35.5988 0.0000 0.0000
# 5 0.0000 0.0000 0.0000 0.0000 23.1777 0.0000
# 6 0.0000 0.0000 0.0000 0.0000 0.0000 27.9741
#
#
#
# Elastic Compliance Matrix: (Units=1/GPa)
#
#
# Indices 1 2 3 4 5 6 
#
# 1 0.011799 -0.002688 -0.004543 0.000000 0.000000 0.000000
# 2 -0.002688 0.017287 -0.007901 0.000000 0.000000 0.000000
# 3 -0.004543 -0.007901 0.016665 0.000000 0.000000 0.000000
# 4 0.000000 0.000000 0.000000 0.028091 0.000000 0.000000
# 5 0.000000 0.000000 0.000000 0.000000 0.043145 0.000000
# 6 0.000000 0.000000 0.000000 0.000000 0.000000 0.035747
#
#
# Mechanical properties :
#
#
# Convention : Reuss Voigt Hill
#
# Bulk Modulus (GPa) = 64.57144 65.25975 64.91560
# Shear Modulus (GPa) = 26.57318 27.80646 27.18982
#
# Velocity S-wave (km/s) = 3.68407 3.76859 3.72657
# Velocity P-wave (km/s) = 7.14678 7.22966 7.18834
#
# Compressibility (1/GPa) = 0.01548672
#
# Stress axis : x y z
#
# Youngs Moduli (GPa) = 84.75347 57.84684 60.00772
#
# Poissons Ratio (x) = 0.15548 0.27264
# Poissons Ratio (y) = 0.22780 0.47410
# Poissons Ratio (z) = 0.38507 0.45703
#
# Static dielectric constant tensor:
#      x y z
#    x 3.774790 0.000000 0.000000 
#    y 0.000000 3.466150 0.000000 
#    z 0.000000 0.000000 3.564090 
# 
# 
# High freq. dielectric constant tensor:
#      x y z
#    x 1.771040 0.000000 0.000000 
#    y 0.000000 1.763210 0.000000 
#    z 0.000000 0.000000 1.764320 
# 
# From -- ./inp_files/5978.got.cif
#   From: 2010.03.12/outbox.cif.g09.slc.cpg/sg55_3_cif.got.tgz:5978.got - 2010.04.16 15:19:21.
