data_PCOD8227593
_publ_section_title
;
Structure prediction by ZEFSAII (Michael W. Deem and Ramdas Pophale) SiO2 
 PCOD8227593
Probable space group: P B A M
;
_chemical_formula_sum "Si O2"
_cell_formula_units_Z 56
_cell_length_a 15.081669
_cell_length_b 9.490086
_cell_length_c 19.809306
_cell_angle_alpha 90.000000
_cell_angle_beta 90.000000
_cell_angle_gamma 90.000000
_cell_volume 2835.233383
_symmetry_space_group_name_H-M "P B A M"
_symmetry_group_IT_number 55
_symmetry_cell_setting 'orthorhombic'
loop_
_space_group_symop_operation_xyz
x,y,z
-x,-y,z
1/2+x,1/2-y,-z
1/2-x,1/2+y,-z
-x,-y,-z
x,y,-z
1/2-x,1/2+y,z
1/2+x,1/2-y,z
loop_
_atom_site_type_symbol
_atom_site_label
_atom_site_fract_x
_atom_site_fract_y
_atom_site_fract_z
Si Si1 0.917009 0.589959 0.579222
Si Si2 0.389368 0.643388 0.000000
Si Si3 0.405645 0.323616 0.854156
Si Si4 0.762327 0.288532 0.243824
Si Si5 0.749272 0.535868 0.662996
Si Si6 0.910749 0.914839 0.577664
Si Si7 0.891157 0.840754 0.146086
Si Si8 0.098111 0.837516 0.000000
O O1 0.906800 0.569937 0.500000
O O2 0.829892 0.523569 0.611574
O O3 0.928645 0.753530 0.598767
O O4 0.000000 0.500000 0.606588
O O5 0.360993 0.715921 0.071010
O O6 0.494533 0.630577 0.000000
O O7 0.349779 0.485711 0.000000
O O8 0.349314 0.240409 0.799627
O O9 0.384963 0.489827 0.851344
O O10 0.508603 0.293708 0.837524
O O11 0.379831 0.260213 0.928901
O O12 0.761544 0.195201 0.311553
O O13 0.767707 0.448139 0.269226
O O14 0.673246 0.267524 0.199912
O O15 0.661627 0.483631 0.625677
O O16 0.879070 0.925123 0.500000
O O17 0.000000 0.000000 0.589539
#
# Coordination Sequence:
#
# PCOD8227593 Si02
#       8
#     8   4   8   8   8   8   8   4
#     4  10  23  43  67  94 121 153 197 247 296 348
#     4   7  12  27  54  81 106 143 192 249 296 337
#     4   9  18  35  58  81 112 153 196 248 295 348
#     4  12  24  37  57  86 120 160 201 236 289 358
#     4  12  25  42  58  87 125 162 197 239 293 357
#     4  10  23  43  68  94 118 153 200 247 296 349
#     4   9  18  35  57  82 113 151 199 246 293 349
#     4   7  12  27  54  83 104 139 198 247 295 342
#
# _framework density 19.751460999999999
#
# number of rings (size 3 to 8) (size 9 to 14) (size 15 to 20)
#    0.000    2.143    2.857    2.143    2.000    2.857 
#    0.000    0.000    0.000    0.000    0.000    3.000 
#    0.000    0.000    0.000    0.000    0.000    0.000 
#
# Total GULP energy -694094.041006 kJ/mol
# GULP energy per Si atom -12394.536447 kJ/mol
# Density = 1.970651 g / cm^3
# Si number density = 19.751461 Si / 1000 Ang^3
#
#
#
# Elastic Constant Matrix: (Units=GPa)
#
#
# Indices 1 2 3 4 5 6 
#
# 1 101.2699 36.0157 50.7716 0.0000 0.0000 0.0000
# 2 36.0157 46.4388 30.9963 0.0000 0.0000 0.0000
# 3 50.7716 30.9963 83.6422 0.0000 0.0000 0.0000
# 4 0.0000 0.0000 0.0000 12.0310 0.0000 0.0000
# 5 0.0000 0.0000 0.0000 0.0000 44.7580 0.0000
# 6 0.0000 0.0000 0.0000 0.0000 0.0000 28.2813
#
#
#
# Elastic Compliance Matrix: (Units=1/GPa)
#
#
# Indices 1 2 3 4 5 6 
#
# 1 0.016133 -0.007939 -0.006851 0.000000 0.000000 0.000000
# 2 -0.007939 0.032518 -0.007231 0.000000 0.000000 0.000000
# 3 -0.006851 -0.007231 0.018794 0.000000 0.000000 0.000000
# 4 0.000000 0.000000 0.000000 0.083119 0.000000 0.000000
# 5 0.000000 0.000000 0.000000 0.000000 0.022342 0.000000
# 6 0.000000 0.000000 0.000000 0.000000 0.000000 0.035359
#
#
# Mechanical properties :
#
#
# Convention : Reuss Voigt Hill
#
# Bulk Modulus (GPa) = 42.73133 51.87977 47.30555
# Shear Modulus (GPa) = 19.22289 24.58522 21.90406
#
# Velocity S-wave (km/s) = 3.12306 3.53190 3.33375
# Velocity P-wave (km/s) = 5.88950 6.55406 6.23065
#
# Compressibility (1/GPa) = 0.02340203
#
# Stress axis : x y z
#
# Youngs Moduli (GPa) = 61.98637 30.75260 53.20906
#
# Poissons Ratio (x) = 0.24415 0.36451
# Poissons Ratio (y) = 0.49212 0.38477
# Poissons Ratio (z) = 0.42464 0.22238
#
# Static dielectric constant tensor:
#      x y z
#    x 3.470200 0.000000 0.000000 
#    y 0.000000 3.364210 0.000000 
#    z 0.000000 0.000000 3.860660 
# 
# 
# High freq. dielectric constant tensor:
#      x y z
#    x 1.764180 0.000000 0.000000 
#    y 0.000000 1.741700 0.000000 
#    z 0.000000 0.000000 1.786630 
# 
# From -- ./inp_files/23001.got.cif
#   From: 2010.03.12/outbox.cif.g09.slc.cpg/sg55_12_cif.got.tgz:23001.got - 2010.04.16 15:19:21.
