data_PCOD8227752
_publ_section_title
;
Structure prediction by ZEFSAII (Michael W. Deem and Ramdas Pophale) SiO2 
 PCOD8227752
Probable space group: P B A M
;
_chemical_formula_sum "Si O2"
_cell_formula_units_Z 48
_cell_length_a 9.550808
_cell_length_b 27.629149
_cell_length_c 8.430844
_cell_angle_alpha 90.000000
_cell_angle_beta 90.000000
_cell_angle_gamma 90.000000
_cell_volume 2224.736994
_symmetry_space_group_name_H-M "P B A M"
_symmetry_group_IT_number 55
_symmetry_cell_setting 'orthorhombic'
loop_
_space_group_symop_operation_xyz
x,y,z
-x,-y,z
1/2+x,1/2-y,-z
1/2-x,1/2+y,-z
-x,-y,-z
x,y,-z
1/2-x,1/2+y,z
1/2+x,1/2-y,z
loop_
_atom_site_type_symbol
_atom_site_label
_atom_site_fract_x
_atom_site_fract_y
_atom_site_fract_z
Si Si1 0.847068 0.206116 0.315453
Si Si2 0.035283 0.554112 0.186465
Si Si3 0.468278 0.446181 0.183185
Si Si4 0.843138 0.789240 0.815327
Si Si5 0.220702 0.395851 0.684758
Si Si6 0.288018 0.608774 0.684101
O O1 0.885655 0.204696 0.500000
O O2 0.739003 0.248885 0.282448
O O3 0.767243 0.157509 0.261280
O O4 0.991727 0.212281 0.221382
O O5 0.940471 0.594517 0.272841
O O6 0.000000 0.500000 0.247892
O O7 0.192994 0.567937 0.232907
O O8 0.013031 0.557450 0.000000
O O9 0.500000 0.500000 0.240312
O O10 0.305681 0.435575 0.213618
O O11 0.552767 0.408547 0.292353
O O12 0.508778 0.438724 0.000000
O O13 0.771226 0.839751 0.768426
O O14 0.820729 0.779666 0.000000
O O15 0.246778 0.403921 0.500000
O O16 0.251686 0.614038 0.500000
#
# Coordination Sequence:
#
# PCOD8227752 Si02
#       6
#     8   8   8   8   8   8
#     4  11  25  46  70  99 136 173 215 271 333 393
#     4  11  25  44  66  95 134 178 223 273 329 390
#     4  11  23  40  65  96 131 171 215 267 325 388
#     4  12  26  45  71 101 133 174 221 269 328 395
#     4  11  24  42  67  97 131 172 216 268 328 389
#     4  12  25  43  67  96 133 174 219 273 328 388
#
# _framework density 21.575586999999999
#
# number of rings (size 3 to 8) (size 9 to 14) (size 15 to 20)
#    0.000    0.667    1.667    6.000    2.333    8.667 
#    0.000    0.000    0.000    0.000    0.000    0.000 
#    0.000    0.000    0.000    0.000    0.000    0.000 
#
# Total GULP energy -595588.860138 kJ/mol
# GULP energy per Si atom -12408.101253 kJ/mol
# Density = 2.152648 g / cm^3
# Si number density = 21.575587 Si / 1000 Ang^3
#
#
#
# Elastic Constant Matrix: (Units=GPa)
#
#
# Indices 1 2 3 4 5 6 
#
# 1 77.3675 21.5233 9.5425 0.0000 0.0000 0.0000
# 2 21.5233 88.0513 24.4618 0.0000 0.0000 0.0000
# 3 9.5425 24.4618 66.8214 0.0000 0.0000 0.0000
# 4 0.0000 0.0000 0.0000 28.7203 0.0000 0.0000
# 5 0.0000 0.0000 0.0000 0.0000 41.4126 0.0000
# 6 0.0000 0.0000 0.0000 0.0000 0.0000 45.4237
#
#
#
# Elastic Compliance Matrix: (Units=1/GPa)
#
#
# Indices 1 2 3 4 5 6 
#
# 1 0.013909 -0.003171 -0.000826 0.000000 0.000000 0.000000
# 2 -0.003171 0.013366 -0.004440 0.000000 0.000000 0.000000
# 3 -0.000826 -0.004440 0.016709 0.000000 0.000000 0.000000
# 4 0.000000 0.000000 0.000000 0.034819 0.000000 0.000000
# 5 0.000000 0.000000 0.000000 0.000000 0.024147 0.000000
# 6 0.000000 0.000000 0.000000 0.000000 0.000000 0.022015
#
#
# Mechanical properties :
#
#
# Convention : Reuss Voigt Hill
#
# Bulk Modulus (GPa) = 36.88571 38.14394 37.51483
# Shear Modulus (GPa) = 33.14034 34.89216 34.01625
#
# Velocity S-wave (km/s) = 3.92345 4.02581 3.97496
# Velocity P-wave (km/s) = 6.13659 6.27114 6.20423
#
# Compressibility (1/GPa) = 0.02711077
#
# Stress axis : x y z
#
# Youngs Moduli (GPa) = 71.89488 74.81918 59.84950
#
# Poissons Ratio (x) = 0.23722 0.04941
# Poissons Ratio (y) = 0.22795 0.26574
# Poissons Ratio (z) = 0.05936 0.33220
#
# Static dielectric constant tensor:
#      x y z
#    x 3.836210 0.000000 0.000000 
#    y 0.000000 4.007380 0.000000 
#    z 0.000000 0.000000 3.767340 
# 
# 
# High freq. dielectric constant tensor:
#      x y z
#    x 1.856090 0.000000 0.000000 
#    y 0.000000 1.857780 0.000000 
#    z 0.000000 0.000000 1.853580 
# 
# From -- ./inp_files/2888.got.cif
#   From: 2010.03.12/outbox.cif.g09.slc.cpg/sg55_2_cif.got.tgz:2888.got - 2010.04.16 15:19:21.
