data_PCOD8227258
_publ_section_title
;
Structure prediction by ZEFSAII (Michael W. Deem and Ramdas Pophale) SiO2 
 PCOD8227258
Probable space group: P B A M
;
_chemical_formula_sum "Si O2"
_cell_formula_units_Z 64
_cell_length_a 14.926063
_cell_length_b 23.825707
_cell_length_c 8.683127
_cell_angle_alpha 90.000000
_cell_angle_beta 90.000000
_cell_angle_gamma 90.000000
_cell_volume 3087.928388
_symmetry_space_group_name_H-M "P B A M"
_symmetry_group_IT_number 55
_symmetry_cell_setting 'orthorhombic'
loop_
_space_group_symop_operation_xyz
x,y,z
-x,-y,z
1/2+x,1/2-y,-z
1/2-x,1/2+y,-z
-x,-y,-z
x,y,-z
1/2-x,1/2+y,z
1/2+x,1/2-y,z
loop_
_atom_site_type_symbol
_atom_site_label
_atom_site_fract_x
_atom_site_fract_y
_atom_site_fract_z
Si Si1 0.006214 0.357577 0.325153
Si Si2 0.305442 0.135270 0.674907
Si Si3 0.080450 0.460624 0.178442
Si Si4 0.426553 0.752625 0.178247
Si Si5 0.570958 0.545143 0.678004
Si Si6 0.422027 0.332219 0.818519
Si Si7 0.766077 0.243677 0.317704
Si Si8 0.744844 0.982383 0.321504
O O1 0.024155 0.337891 0.500000
O O2 0.078741 0.403739 0.277127
O O3 0.009295 0.305173 0.210295
O O4 0.907904 0.384302 0.306123
O O5 0.279274 0.147276 0.500000
O O6 0.288639 0.195065 0.757460
O O7 0.244917 0.082930 0.733693
O O8 0.174295 0.489350 0.209410
O O9 0.000000 0.500000 0.234097
O O10 0.070853 0.445255 0.000000
O O11 0.485144 0.698632 0.231888
O O12 0.337646 0.765503 0.276505
O O13 0.400373 0.748151 0.000000
O O14 0.500000 0.500000 0.743548
O O15 0.550639 0.558495 0.500000
O O16 0.568733 0.603330 0.768887
O O17 0.665278 0.515876 0.702310
O O18 0.332876 0.303541 0.748600
O O19 0.410640 0.328647 0.000000
O O20 0.779210 0.240968 0.500000
O O21 0.712802 0.983574 0.500000
#
# Coordination Sequence:
#
# PCOD8227258 Si02
#       8
#     8   8   8   8   8   8   8   8
#     4  11  21  38  63  89 120 162 207 258 311 371
#     4   9  19  36  62  93 121 153 206 266 316 370
#     4  11  23  37  55  87 127 165 203 248 307 376
#     4  11  25  43  63  92 128 168 207 256 324 388
#     4  10  24  44  69  95 124 165 220 278 323 371
#     4  11  25  45  67  93 134 175 213 266 324 390
#     4  11  23  41  68  98 126 164 213 266 320 381
#     4  10  21  40  63  90 122 162 209 260 316 373
#
# _framework density 20.725868999999999
#
# number of rings (size 3 to 8) (size 9 to 14) (size 15 to 20)
#    0.000    1.500    2.500    1.875    3.500    2.750 
#    0.000    1.250    0.000    0.000    0.000    0.000 
#    0.000    0.000    0.000    0.000    0.000    0.000 
#
# Total GULP energy -793441.759854 kJ/mol
# GULP energy per Si atom -12397.527498 kJ/mol
# Density = 2.067870 g / cm^3
# Si number density = 20.725869 Si / 1000 Ang^3
#
#
#
# Elastic Constant Matrix: (Units=GPa)
#
#
# Indices 1 2 3 4 5 6 
#
# 1 96.3492 47.9501 35.9998 0.0000 0.0000 0.0000
# 2 47.9501 154.6808 37.9651 0.0000 0.0000 0.0000
# 3 35.9998 37.9651 54.2108 0.0000 0.0000 0.0000
# 4 0.0000 0.0000 0.0000 28.4384 0.0000 0.0000
# 5 0.0000 0.0000 0.0000 0.0000 243.7604 0.0000
# 6 0.0000 0.0000 0.0000 0.0000 0.0000 34.9699
#
#
#
# Elastic Compliance Matrix: (Units=1/GPa)
#
#
# Indices 1 2 3 4 5 6 
#
# 1 0.014619 -0.002595 -0.007890 0.000000 0.000000 0.000000
# 2 -0.002595 0.008267 -0.004067 0.000000 0.000000 0.000000
# 3 -0.007890 -0.004067 0.026534 0.000000 0.000000 0.000000
# 4 0.000000 0.000000 0.000000 0.035164 0.000000 0.000000
# 5 0.000000 0.000000 0.000000 0.000000 0.004102 0.000000
# 6 0.000000 0.000000 0.000000 0.000000 0.000000 0.028596
#
#
# Mechanical properties :
#
#
# Convention : Reuss Voigt Hill
#
# Bulk Modulus (GPa) = 49.22185 61.00787 55.11486
# Shear Modulus (GPa) = 32.64591 73.65546 53.15069
#
# Velocity S-wave (km/s) = 3.97309 5.96784 5.06954
# Velocity P-wave (km/s) = 6.69685 8.77418 7.80494
#
# Compressibility (1/GPa) = 0.02031618
#
# Stress axis : x y z
#
# Youngs Moduli (GPa) = 68.40635 120.95563 37.68714
#
# Poissons Ratio (x) = 0.31388 0.29737
# Poissons Ratio (y) = 0.17752 0.15326
# Poissons Ratio (z) = 0.53975 0.49188
#
# Static dielectric constant tensor:
#      x y z
#    x 3.667240 0.000000 0.000000 
#    y 0.000000 3.895030 0.000000 
#    z 0.000000 0.000000 3.554300 
# 
# 
# High freq. dielectric constant tensor:
#      x y z
#    x 1.810740 0.000000 0.000000 
#    y 0.000000 1.827550 0.000000 
#    z 0.000000 0.000000 1.794800 
# 
# From -- ./inp_files/6712.got.cif
#   From: 2010.03.12/outbox.cif.g09.slc.cpg/sg55_4_cif.got.tgz:6712.got - 2010.04.16 15:19:21.
