data_PCOD8227817
_publ_section_title
;
Structure prediction by ZEFSAII (Michael W. Deem and Ramdas Pophale) SiO2 
 PCOD8227817
Probable space group: P B A M
;
_chemical_formula_sum "Si O2"
_cell_formula_units_Z 32
_cell_length_a 7.443326
_cell_length_b 21.449994
_cell_length_c 7.598858
_cell_angle_alpha 90.000000
_cell_angle_beta 90.000000
_cell_angle_gamma 90.000000
_cell_volume 1213.228334
_symmetry_space_group_name_H-M "P B A M"
_symmetry_group_IT_number 55
_symmetry_cell_setting 'orthorhombic'
loop_
_space_group_symop_operation_xyz
x,y,z
-x,-y,z
1/2+x,1/2-y,-z
1/2-x,1/2+y,-z
-x,-y,-z
x,y,-z
1/2-x,1/2+y,z
1/2+x,1/2-y,z
loop_
_atom_site_type_symbol
_atom_site_label
_atom_site_fract_x
_atom_site_fract_y
_atom_site_fract_z
Si Si1 0.660073 0.962594 0.205588
Si Si2 0.435065 0.647096 0.500000
Si Si3 0.454640 0.849025 0.800693
Si Si4 0.576747 0.772304 0.500000
Si Si5 0.094106 0.929565 0.799700
O O1 0.631342 0.890186 0.257686
O O2 0.500000 0.000000 0.303330
O O3 0.853773 0.996319 0.246747
O O4 0.625106 0.968079 0.000000
O O5 0.600588 0.697068 0.500000
O O6 0.265162 0.692608 0.500000
O O7 0.447101 0.601355 0.330141
O O8 0.457619 0.790023 0.672367
O O9 0.278866 0.891762 0.780255
O O10 0.470479 0.824055 0.000000
O O11 0.019357 0.924036 0.000000
#
# Coordination Sequence:
#
# PCOD8227817 Si02
#       5
#     8   4   8   4   8
#     4   7  12  27  55  88 115 141 176 216 263 325
#     4  12  26  41  56  77 109 148 192 236 277 328
#     4   9  18  36  62  88 114 145 182 225 272 324
#     4  12  26  41  56  77 109 148 192 236 277 328
#     4   9  18  36  62  88 114 145 182 225 272 324
#
# _framework density 26.375910000000001
#
# number of rings (size 3 to 8) (size 9 to 14) (size 15 to 20)
#    0.000    2.750    0.000    5.250    0.000    3.000 
#    0.000    6.250    0.000    4.500    0.000    0.000 
#    0.000    0.000    0.000    0.000    0.000    0.000 
#
# Total GULP energy -396445.335175 kJ/mol
# GULP energy per Si atom -12388.916724 kJ/mol
# Density = 2.631588 g / cm^3
# Si number density = 26.375910 Si / 1000 Ang^3
#
#
#
# Elastic Constant Matrix: (Units=GPa)
#
#
# Indices 1 2 3 4 5 6 
#
# 1 54.9626 6.3616 -1.1830 0.0000 0.0000 0.0000
# 2 6.3616 146.5555 67.8500 0.0000 0.0000 0.0000
# 3 -1.1830 67.8500 130.5214 0.0000 0.0000 0.0000
# 4 0.0000 0.0000 0.0000 12.0945 0.0000 0.0000
# 5 0.0000 0.0000 0.0000 0.0000 18.9672 0.0000
# 6 0.0000 0.0000 0.0000 0.0000 0.0000 35.6860
#
#
#
# Elastic Compliance Matrix: (Units=1/GPa)
#
#
# Indices 1 2 3 4 5 6 
#
# 1 0.018344 -0.001150 0.000764 0.000000 0.000000 0.000000
# 2 -0.001150 0.009058 -0.004719 0.000000 0.000000 0.000000
# 3 0.000764 -0.004719 0.010122 0.000000 0.000000 0.000000
# 4 0.000000 0.000000 0.000000 0.082682 0.000000 0.000000
# 5 0.000000 0.000000 0.000000 0.000000 0.052723 0.000000
# 6 0.000000 0.000000 0.000000 0.000000 0.000000 0.028022
#
#
# Mechanical properties :
#
#
# Convention : Reuss Voigt Hill
#
# Bulk Modulus (GPa) = 36.61213 53.12187 44.86700
# Shear Modulus (GPa) = 22.69993 30.61694 26.65843
#
# Velocity S-wave (km/s) = 2.93683 3.41074 3.18262
# Velocity P-wave (km/s) = 5.04093 5.97452 5.52747
#
# Compressibility (1/GPa) = 0.02731335
#
# Stress axis : x y z
#
# Youngs Moduli (GPa) = 54.51455 110.39876 98.79762
#
# Poissons Ratio (x) = 0.12696 -0.07549
# Poissons Ratio (y) = 0.06269 0.46624
# Poissons Ratio (z) = -0.04165 0.52099
#
# Static dielectric constant tensor:
#      x y z
#    x 4.981260 0.000000 0.000000 
#    y 0.000000 5.477490 0.000000 
#    z 0.000000 0.000000 4.454380 
# 
# 
# High freq. dielectric constant tensor:
#      x y z
#    x 2.099420 0.000000 0.000000 
#    y 0.000000 2.062720 0.000000 
#    z 0.000000 0.000000 2.031260 
# 
# From -- ./inp_files/2255.got.cif
#   From: 2010.03.12/outbox.cif.g09.slc.cpg/sg55_2_cif.got.tgz:2255.got - 2010.04.16 15:19:21.
