data_PCOD8227731
_publ_section_title
;
Structure prediction by ZEFSAII (Michael W. Deem and Ramdas Pophale) SiO2 
 PCOD8227731
Probable space group: P B A M
;
_chemical_formula_sum "Si O2"
_cell_formula_units_Z 32
_cell_length_a 8.885303
_cell_length_b 10.196427
_cell_length_c 16.521305
_cell_angle_alpha 90.000000
_cell_angle_beta 90.000000
_cell_angle_gamma 90.000000
_cell_volume 1496.802864
_symmetry_space_group_name_H-M "P B A M"
_symmetry_group_IT_number 55
_symmetry_cell_setting 'orthorhombic'
loop_
_space_group_symop_operation_xyz
x,y,z
-x,-y,z
1/2+x,1/2-y,-z
1/2-x,1/2+y,-z
-x,-y,-z
x,y,-z
1/2-x,1/2+y,z
1/2+x,1/2-y,z
loop_
_atom_site_type_symbol
_atom_site_label
_atom_site_fract_x
_atom_site_fract_y
_atom_site_fract_z
Si Si1 0.097969 0.621631 0.343470
Si Si2 0.073218 0.136194 0.406824
Si Si3 0.819765 0.396247 0.842604
Si Si4 0.862867 0.668316 0.906595
O O1 0.247804 0.632108 0.396541
O O2 0.138242 0.599329 0.250743
O O3 0.000000 0.500000 0.376304
O O4 0.998922 0.752114 0.351242
O O5 0.034698 0.165743 0.500000
O O6 0.000000 0.000000 0.378384
O O7 0.774224 0.542948 0.870030
O O8 0.682293 0.298431 0.857581
O O9 0.959247 0.348780 0.896811
O O10 0.820532 0.684876 0.000000
#
# Coordination Sequence:
#
# PCOD8227731 Si02
#       4
#     8   8   8   8
#     4  12  24  44  68  99 136 177 219 276 333 398
#     4  11  26  44  69 100 134 175 221 273 333 400
#     4  11  24  41  63  98 127 172 216 266 327 385
#     4  11  22  42  65  92 132 170 217 269 323 387
#
# _framework density 21.378900999999999
#
# number of rings (size 3 to 8) (size 9 to 14) (size 15 to 20)
#    0.000    0.750    2.500    6.750    3.500    5.000 
#    0.000    2.500    0.000    0.000    0.000    0.000 
#    0.000    0.000    0.000    0.000    0.000    0.000 
#
# Total GULP energy -397049.815678 kJ/mol
# GULP energy per Si atom -12407.806740 kJ/mol
# Density = 2.133024 g / cm^3
# Si number density = 21.378901 Si / 1000 Ang^3
#
#
#
# Elastic Constant Matrix: (Units=GPa)
#
#
# Indices 1 2 3 4 5 6 
#
# 1 74.8213 23.0457 -0.1980 0.0000 0.0000 0.0000
# 2 23.0457 92.8346 10.4558 0.0000 0.0000 0.0000
# 3 -0.1980 10.4558 62.4912 0.0000 0.0000 0.0000
# 4 0.0000 0.0000 0.0000 12.2588 0.0000 0.0000
# 5 0.0000 0.0000 0.0000 0.0000 26.4433 0.0000
# 6 0.0000 0.0000 0.0000 0.0000 0.0000 46.0011
#
#
#
# Elastic Compliance Matrix: (Units=1/GPa)
#
#
# Indices 1 2 3 4 5 6 
#
# 1 0.014498 -0.003674 0.000661 0.000000 0.000000 0.000000
# 2 -0.003674 0.011910 -0.002004 0.000000 0.000000 0.000000
# 3 0.000661 -0.002004 0.016340 0.000000 0.000000 0.000000
# 4 0.000000 0.000000 0.000000 0.081574 0.000000 0.000000
# 5 0.000000 0.000000 0.000000 0.000000 0.037817 0.000000
# 6 0.000000 0.000000 0.000000 0.000000 0.000000 0.021739
#
#
# Mechanical properties :
#
#
# Convention : Reuss Voigt Hill
#
# Bulk Modulus (GPa) = 30.56880 32.97268 31.77074
# Shear Modulus (GPa) = 24.41212 30.06353 27.23783
#
# Velocity S-wave (km/s) = 3.38284 3.75403 3.57326
# Velocity P-wave (km/s) = 5.43946 5.85208 5.64954
#
# Compressibility (1/GPa) = 0.03271309
#
# Stress axis : x y z
#
# Youngs Moduli (GPa) = 68.97311 83.96643 61.20060
#
# Poissons Ratio (x) = 0.30845 -0.04043
# Poissons Ratio (y) = 0.25338 0.12266
# Poissons Ratio (z) = -0.04556 0.16829
#
# Static dielectric constant tensor:
#      x y z
#    x 3.871710 0.000000 0.000000 
#    y 0.000000 4.151900 0.000000 
#    z 0.000000 0.000000 3.769690 
# 
# 
# High freq. dielectric constant tensor:
#      x y z
#    x 1.833360 0.000000 0.000000 
#    y 0.000000 1.854670 0.000000 
#    z 0.000000 0.000000 1.848280 
# 
# From -- ./inp_files/16859.got.cif
#   From: 2010.03.12/outbox.cif.g09.slc.cpg/sg55_9_cif.got.tgz:16859.got - 2010.04.16 15:19:21.
