data_PCOD8227374
_publ_section_title
;
Structure prediction by ZEFSAII (Michael W. Deem and Ramdas Pophale) SiO2 
 PCOD8227374
Probable space group: P B A M
;
_chemical_formula_sum "Si O2"
_cell_formula_units_Z 56
_cell_length_a 10.866596
_cell_length_b 15.417205
_cell_length_c 15.037065
_cell_angle_alpha 90.000000
_cell_angle_beta 90.000000
_cell_angle_gamma 90.000000
_cell_volume 2519.197666
_symmetry_space_group_name_H-M "P B A M"
_symmetry_group_IT_number 55
_symmetry_cell_setting 'orthorhombic'
loop_
_space_group_symop_operation_xyz
x,y,z
-x,-y,z
1/2+x,1/2-y,-z
1/2-x,1/2+y,-z
-x,-y,-z
x,y,-z
1/2-x,1/2+y,z
1/2+x,1/2-y,z
loop_
_atom_site_type_symbol
_atom_site_label
_atom_site_fract_x
_atom_site_fract_y
_atom_site_fract_z
Si Si1 0.310696 0.677620 0.898710
Si Si2 0.444040 0.237103 0.830199
Si Si3 0.930751 0.119925 0.684095
Si Si4 0.192355 0.117349 0.601351
Si Si5 0.283055 0.517779 0.767733
Si Si6 0.698026 0.183708 0.599095
Si Si7 0.439812 0.914566 0.257544
O O1 0.439341 0.729739 0.888182
O O2 0.315654 0.591522 0.838534
O O3 0.191010 0.738229 0.876786
O O4 0.299735 0.646925 0.000000
O O5 0.439596 0.292919 0.741150
O O6 0.468619 0.135397 0.809033
O O7 0.906420 0.037770 0.748735
O O8 0.819282 0.126962 0.614386
O O9 0.049307 0.104731 0.624335
O O10 0.218446 0.086672 0.500000
O O11 0.231431 0.216402 0.615532
O O12 0.266229 0.061377 0.674546
O O13 0.179289 0.448721 0.798285
O O14 0.647439 0.169573 0.500000
O O15 0.592039 0.153682 0.665670
O O16 0.500000 0.000000 0.299419
#
# Coordination Sequence:
#
# PCOD8227374 Si02
#       7
#     8   8   8   8   8   8   8
#     4  12  26  47  75 109 144 181 233 290 353 426
#     4  12  24  48  75 103 137 188 233 286 350 431
#     4  11  22  39  69  92 133 186 236 288 350 420
#     4  11  22  38  64  96 135 183 234 290 351 420
#     4  11  23  42  64 101 137 181 226 292 348 413
#     4  10  22  38  57  94 137 181 235 292 346 411
#     4  11  22  40  69  92 129 182 230 284 346 407
#
# _framework density 22.229299999999999
#
# number of rings (size 3 to 8) (size 9 to 14) (size 15 to 20)
#    0.000    0.857    4.286    3.857    0.000    3.714 
#    0.000    5.714    0.000    0.000    0.000    0.000 
#    0.000    0.000    0.000    0.000    0.000    0.000 
#
# Total GULP energy -694110.782117 kJ/mol
# GULP energy per Si atom -12394.835395 kJ/mol
# Density = 2.217870 g / cm^3
# Si number density = 22.229300 Si / 1000 Ang^3
#
#
#
# Elastic Constant Matrix: (Units=GPa)
#
#
# Indices 1 2 3 4 5 6 
#
# 1 88.6125 17.8684 11.5404 0.0000 0.0000 0.0000
# 2 17.8684 100.6423 45.7840 0.0000 0.0000 0.0000
# 3 11.5404 45.7840 94.0369 0.0000 0.0000 0.0000
# 4 0.0000 0.0000 0.0000 13.0486 0.0000 0.0000
# 5 0.0000 0.0000 0.0000 0.0000 16.6386 0.0000
# 6 0.0000 0.0000 0.0000 0.0000 0.0000 39.8876
#
#
#
# Elastic Compliance Matrix: (Units=1/GPa)
#
#
# Indices 1 2 3 4 5 6 
#
# 1 0.011726 -0.001833 -0.000546 0.000000 0.000000 0.000000
# 2 -0.001833 0.013050 -0.006129 0.000000 0.000000 0.000000
# 3 -0.000546 -0.006129 0.013685 0.000000 0.000000 0.000000
# 4 0.000000 0.000000 0.000000 0.076637 0.000000 0.000000
# 5 0.000000 0.000000 0.000000 0.000000 0.060101 0.000000
# 6 0.000000 0.000000 0.000000 0.000000 0.000000 0.025070
#
#
# Mechanical properties :
#
#
# Convention : Reuss Voigt Hill
#
# Bulk Modulus (GPa) = 46.63300 48.18639 47.40969
# Shear Modulus (GPa) = 22.27833 27.78824 25.03328
#
# Velocity S-wave (km/s) = 3.16920 3.53947 3.35944
# Velocity P-wave (km/s) = 5.86647 6.19902 6.03504
#
# Compressibility (1/GPa) = 0.02144404
#
# Stress axis : x y z
#
# Youngs Moduli (GPa) = 85.28111 76.63046 73.07272
#
# Poissons Ratio (x) = 0.14048 0.03993
# Poissons Ratio (y) = 0.15634 0.44783
# Poissons Ratio (z) = 0.04660 0.46963
#
# Static dielectric constant tensor:
#      x y z
#    x 4.283760 0.000000 0.000000 
#    y 0.000000 4.203190 0.000000 
#    z 0.000000 0.000000 3.718770 
# 
# 
# High freq. dielectric constant tensor:
#      x y z
#    x 1.890130 0.000000 0.000000 
#    y 0.000000 1.892080 0.000000 
#    z 0.000000 0.000000 1.838500 
# 
# From -- ./inp_files/18380.got.cif
#   From: 2010.03.12/outbox.cif.g09.slc.cpg/sg55_10_cif.got.tgz:18380.got - 2010.04.16 15:19:21.
