data_PCOD8227137
_publ_section_title
;
Structure prediction by ZEFSAII (Michael W. Deem and Ramdas Pophale) SiO2 
 PCOD8227137
Probable space group: P B A M
;
_chemical_formula_sum "Si O2"
_cell_formula_units_Z 48
_cell_length_a 18.899813
_cell_length_b 14.961662
_cell_length_c 8.441508
_cell_angle_alpha 90.000000
_cell_angle_beta 90.000000
_cell_angle_gamma 90.000000
_cell_volume 2387.027283
_symmetry_space_group_name_H-M "P B A M"
_symmetry_group_IT_number 55
_symmetry_cell_setting 'orthorhombic'
loop_
_space_group_symop_operation_xyz
x,y,z
-x,-y,z
1/2+x,1/2-y,-z
1/2-x,1/2+y,-z
-x,-y,-z
x,y,-z
1/2-x,1/2+y,z
1/2+x,1/2-y,z
loop_
_atom_site_type_symbol
_atom_site_label
_atom_site_fract_x
_atom_site_fract_y
_atom_site_fract_z
Si Si1 0.416765 0.270109 0.815690
Si Si2 0.923498 0.525423 0.313429
Si Si3 0.664412 0.383375 0.815596
Si Si4 0.924747 0.038471 0.316004
Si Si5 0.573079 0.216095 0.813536
Si Si6 0.317697 0.126000 0.684740
O O1 0.406849 0.374858 0.786578
O O2 0.494091 0.239519 0.756752
O O3 0.359102 0.218058 0.712710
O O4 0.405514 0.249099 0.000000
O O5 0.927982 0.516790 0.500000
O O6 0.900687 0.624790 0.265866
O O7 0.865030 0.456113 0.250239
O O8 0.000000 0.500000 0.238470
O O9 0.636171 0.466523 0.715088
O O10 0.625119 0.294145 0.755176
O O11 0.747157 0.372417 0.787486
O O12 0.648398 0.399803 0.000000
O O13 0.926726 0.064400 0.500000
O O14 0.000000 0.000000 0.258720
O O15 0.576838 0.204096 0.000000
O O16 0.299228 0.116148 0.500000
#
# Coordination Sequence:
#
# PCOD8227137 Si02
#       6
#     8   8   8   8   8   8
#     4  11  22  39  64  93 123 161 206 256 310 369
#     4  10  21  38  62  90 121 158 201 250 306 363
#     4  11  24  43  63  90 128 166 205 256 313 369
#     4  11  23  39  64  95 124 161 208 257 311 372
#     4  10  22  38  62  92 121 157 205 252 303 364
#     4  11  24  42  62  91 128 164 205 256 312 371
#
# _framework density 20.108694
#
# number of rings (size 3 to 8) (size 9 to 14) (size 15 to 20)
#    0.000    1.333    3.333    2.000    0.000    5.667 
#    0.000    3.333    0.000    0.000    0.000    0.000 
#    0.000    0.000    0.000    0.000    0.000    0.000 
#
# Total GULP energy -595560.073596 kJ/mol
# GULP energy per Si atom -12407.501533 kJ/mol
# Density = 2.006293 g / cm^3
# Si number density = 20.108694 Si / 1000 Ang^3
#
#
#
# Elastic Constant Matrix: (Units=GPa)
#
#
# Indices 1 2 3 4 5 6 
#
# 1 121.6057 45.9240 11.3247 0.0000 0.0000 0.0000
# 2 45.9240 136.2854 8.4702 0.0000 0.0000 0.0000
# 3 11.3247 8.4702 33.4111 0.0000 0.0000 0.0000
# 4 0.0000 0.0000 0.0000 33.2939 0.0000 0.0000
# 5 0.0000 0.0000 0.0000 0.0000 29.3172 0.0000
# 6 0.0000 0.0000 0.0000 0.0000 0.0000 34.6091
#
#
#
# Elastic Compliance Matrix: (Units=1/GPa)
#
#
# Indices 1 2 3 4 5 6 
#
# 1 0.009620 -0.003088 -0.002478 0.000000 0.000000 0.000000
# 2 -0.003088 0.008446 -0.001095 0.000000 0.000000 0.000000
# 3 -0.002478 -0.001095 0.031048 0.000000 0.000000 0.000000
# 4 0.000000 0.000000 0.000000 0.030036 0.000000 0.000000
# 5 0.000000 0.000000 0.000000 0.000000 0.034110 0.000000
# 6 0.000000 0.000000 0.000000 0.000000 0.000000 0.028894
#
#
# Mechanical properties :
#
#
# Convention : Reuss Voigt Hill
#
# Bulk Modulus (GPa) = 27.93828 46.97111 37.45469
# Shear Modulus (GPa) = 29.86774 34.48292 32.17533
#
# Velocity S-wave (km/s) = 3.85816 4.14554 4.00443
# Velocity P-wave (km/s) = 5.81128 6.80612 6.32828
#
# Compressibility (1/GPa) = 0.03579319
#
# Stress axis : x y z
#
# Youngs Moduli (GPa) = 103.94890 118.39888 32.20862
#
# Poissons Ratio (x) = 0.36558 0.07981
# Poissons Ratio (y) = 0.32096 0.03526
# Poissons Ratio (z) = 0.25758 0.12960
#
# Static dielectric constant tensor:
#      x y z
#    x 3.645600 0.000000 0.000000 
#    y 0.000000 3.725010 0.000000 
#    z 0.000000 0.000000 3.466710 
# 
# 
# High freq. dielectric constant tensor:
#      x y z
#    x 1.782680 0.000000 0.000000 
#    y 0.000000 1.797280 0.000000 
#    z 0.000000 0.000000 1.780610 
# 
# From -- ./inp_files/5603.got.cif
#   From: 2010.03.12/outbox.cif.g09.slc.cpg/sg55_3_cif.got.tgz:5603.got - 2010.04.16 15:19:21.
