data_PCOD8227759
_publ_section_title
;
Structure prediction by ZEFSAII (Michael W. Deem and Ramdas Pophale) SiO2 
 PCOD8227759
Probable space group: P B A M
;
_chemical_formula_sum "Si O2"
_cell_formula_units_Z 48
_cell_length_a 8.996312
_cell_length_b 13.762626
_cell_length_c 18.338063
_cell_angle_alpha 90.000000
_cell_angle_beta 90.000000
_cell_angle_gamma 90.000000
_cell_volume 2270.488347
_symmetry_space_group_name_H-M "P B A M"
_symmetry_group_IT_number 55
_symmetry_cell_setting 'orthorhombic'
loop_
_space_group_symop_operation_xyz
x,y,z
-x,-y,z
1/2+x,1/2-y,-z
1/2-x,1/2+y,-z
-x,-y,-z
x,y,-z
1/2-x,1/2+y,z
1/2+x,1/2-y,z
loop_
_atom_site_type_symbol
_atom_site_label
_atom_site_fract_x
_atom_site_fract_y
_atom_site_fract_z
Si Si1 0.407330 0.901194 0.000000
Si Si2 0.332233 0.033039 0.330634
Si Si3 0.359056 0.680656 0.417071
Si Si4 0.181549 0.832962 0.650861
Si Si5 0.058435 0.241691 0.118829
Si Si6 0.818188 0.306131 0.781875
Si Si7 0.930788 0.102809 0.000000
O O1 0.436748 0.839271 0.072056
O O2 0.500000 0.000000 0.000000
O O3 0.237821 0.927508 0.000000
O O4 0.270261 0.106321 0.391859
O O5 0.325681 0.084956 0.251191
O O6 0.500000 0.000000 0.349596
O O7 0.221198 0.942691 0.330151
O O8 0.403162 0.657165 0.500000
O O9 0.507035 0.672413 0.367961
O O10 0.286379 0.788805 0.413148
O O11 0.230494 0.768227 0.719616
O O12 0.216071 0.198532 0.145367
O O13 0.979221 0.270185 0.193617
O O14 0.974380 0.159893 0.072902
O O15 0.000000 0.000000 0.000000
#
# Coordination Sequence:
#
# PCOD8227759 Si02
#       7
#     4   8   8   8   8   8   4
#     4  11  26  44  69  97 133 175 219 275 326 394
#     4  11  24  42  65  97 134 168 224 283 330 403
#     4  11  24  42  67  96 132 181 223 271 341 402
#     4  11  23  42  65  96 135 169 223 283 330 399
#     4  11  24  44  68  92 135 172 222 270 327 397
#     4  11  23  42  67  95 126 178 216 271 335 389
#     4  11  26  44  65 101 135 171 219 275 328 392
#
# _framework density 21.140826000000001
#
# number of rings (size 3 to 8) (size 9 to 14) (size 15 to 20)
#    0.000    1.000    1.667    6.000    2.333    5.667 
#    0.000    0.000    0.000    0.000    0.000    0.000 
#    0.000    0.000    0.000    0.000    0.000    0.000 
#
# Total GULP energy -595150.662464 kJ/mol
# GULP energy per Si atom -12398.972135 kJ/mol
# Density = 2.109271 g / cm^3
# Si number density = 21.140826 Si / 1000 Ang^3
#
#
#
# Elastic Constant Matrix: (Units=GPa)
#
#
# Indices 1 2 3 4 5 6 
#
# 1 133.1845 55.8606 38.6536 0.0000 0.0000 0.0000
# 2 55.8606 156.7412 46.6925 0.0000 0.0000 0.0000
# 3 38.6536 46.6925 97.4388 0.0000 0.0000 0.0000
# 4 0.0000 0.0000 0.0000 34.2695 0.0000 0.0000
# 5 0.0000 0.0000 0.0000 0.0000 48.8597 0.0000
# 6 0.0000 0.0000 0.0000 0.0000 0.0000 42.7293
#
#
#
# Elastic Compliance Matrix: (Units=1/GPa)
#
#
# Indices 1 2 3 4 5 6 
#
# 1 0.009304 -0.002586 -0.002452 0.000000 0.000000 0.000000
# 2 -0.002586 0.008161 -0.002885 0.000000 0.000000 0.000000
# 3 -0.002452 -0.002885 0.012618 0.000000 0.000000 0.000000
# 4 0.000000 0.000000 0.000000 0.029180 0.000000 0.000000
# 5 0.000000 0.000000 0.000000 0.000000 0.020467 0.000000
# 6 0.000000 0.000000 0.000000 0.000000 0.000000 0.023403
#
#
# Mechanical properties :
#
#
# Convention : Reuss Voigt Hill
#
# Bulk Modulus (GPa) = 70.23369 74.41978 72.32673
# Shear Modulus (GPa) = 40.41222 41.58221 40.99721
#
# Velocity S-wave (km/s) = 4.37690 4.43980 4.40846
# Velocity P-wave (km/s) = 7.67052 7.84607 7.75879
#
# Compressibility (1/GPa) = 0.01423818
#
# Stress axis : x y z
#
# Youngs Moduli (GPa) = 107.47522 122.53668 79.25151
#
# Poissons Ratio (x) = 0.31682 0.19433
# Poissons Ratio (y) = 0.27788 0.22864
# Poissons Ratio (z) = 0.26354 0.35352
#
# Static dielectric constant tensor:
#      x y z
#    x 3.853910 0.000000 0.000000 
#    y 0.000000 3.867340 0.000000 
#    z 0.000000 0.000000 3.820130 
# 
# 
# High freq. dielectric constant tensor:
#      x y z
#    x 1.846310 0.000000 0.000000 
#    y 0.000000 1.832200 0.000000 
#    z 0.000000 0.000000 1.828080 
# 
# From -- ./inp_files/20835.got.cif
#   From: 2010.03.12/outbox.cif.g09.slc.cpg/sg55_11_cif.got.tgz:20835.got - 2010.04.16 15:19:21.
