data_PCOD8227554
_publ_section_title
;
Structure prediction by ZEFSAII (Michael W. Deem and Ramdas Pophale) SiO2 
 PCOD8227554
Probable space group: P B A M
;
_chemical_formula_sum "Si O2"
_cell_formula_units_Z 56
_cell_length_a 18.760234
_cell_length_b 9.697291
_cell_length_c 15.138616
_cell_angle_alpha 90.000000
_cell_angle_beta 90.000000
_cell_angle_gamma 90.000000
_cell_volume 2754.069226
_symmetry_space_group_name_H-M "P B A M"
_symmetry_group_IT_number 55
_symmetry_cell_setting 'orthorhombic'
loop_
_space_group_symop_operation_xyz
x,y,z
-x,-y,z
1/2+x,1/2-y,-z
1/2-x,1/2+y,-z
-x,-y,-z
x,y,-z
1/2-x,1/2+y,z
1/2+x,1/2-y,z
loop_
_atom_site_type_symbol
_atom_site_label
_atom_site_fract_x
_atom_site_fract_y
_atom_site_fract_z
Si Si1 0.808162 0.766736 0.100649
Si Si2 0.320442 0.042741 0.894013
Si Si3 0.066658 0.898018 0.272182
Si Si4 0.067741 0.590729 0.749994
Si Si5 0.690883 0.622577 0.399106
Si Si6 0.675933 0.939813 0.602077
Si Si7 0.084583 0.005980 0.904791
O O1 0.808557 0.613925 0.142005
O O2 0.747285 0.868030 0.138978
O O3 0.885807 0.838922 0.112251
O O4 0.788127 0.743951 0.000000
O O5 0.387913 0.101451 0.840930
O O6 0.334331 0.049332 0.000000
O O7 0.040515 0.741436 0.279900
O O8 0.123466 0.936564 0.346567
O O9 0.107439 0.912379 0.177507
O O10 0.000000 0.000000 0.280747
O O11 0.110964 0.526008 0.667511
O O12 0.000000 0.500000 0.770949
O O13 0.673005 0.590989 0.500000
O O14 0.761572 0.543047 0.370112
O O15 0.703164 0.784299 0.381456
O O16 0.652193 0.961423 0.500000
O O17 0.116314 0.953267 0.000000
O O18 0.000000 0.000000 0.910637
#
# Coordination Sequence:
#
# PCOD8227554 Si02
#       7
#     8   8   8   8   8   8   8
#     4   9  20  38  58  83 113 153 198 238 289 343
#     4  10  23  40  60  87 120 154 194 245 293 346
#     4  10  23  39  58  87 118 156 198 242 289 345
#     4  11  26  40  56  87 118 157 199 240 294 349
#     4   9  19  38  63  91 118 148 189 236 292 352
#     4   9  20  40  63  87 116 148 190 241 291 348
#     4   9  19  35  58  83 112 153 200 240 280 338
#
# _framework density 20.333549000000001
#
# number of rings (size 3 to 8) (size 9 to 14) (size 15 to 20)
#    0.000    2.429    0.000    0.000    8.000    3.714 
#    0.000    0.000    0.000    0.000    0.000    0.000 
#    0.000    0.000    0.000    0.000    0.000    0.000 
#
# Total GULP energy -694094.186175 kJ/mol
# GULP energy per Si atom -12394.539039 kJ/mol
# Density = 2.028727 g / cm^3
# Si number density = 20.333549 Si / 1000 Ang^3
#
#
#
# Elastic Constant Matrix: (Units=GPa)
#
#
# Indices 1 2 3 4 5 6 
#
# 1 106.8973 52.6345 36.7390 0.0000 0.0000 0.0000
# 2 52.6345 83.4926 19.7494 0.0000 0.0000 0.0000
# 3 36.7390 19.7494 78.4343 0.0000 0.0000 0.0000
# 4 0.0000 0.0000 0.0000 20.3687 0.0000 0.0000
# 5 0.0000 0.0000 0.0000 0.0000 28.7824 0.0000
# 6 0.0000 0.0000 0.0000 0.0000 0.0000 36.5413
#
#
#
# Elastic Compliance Matrix: (Units=1/GPa)
#
#
# Indices 1 2 3 4 5 6 
#
# 1 0.015216 -0.008407 -0.005011 0.000000 0.000000 0.000000
# 2 -0.008407 0.017381 -0.000438 0.000000 0.000000 0.000000
# 3 -0.005011 -0.000438 0.015207 0.000000 0.000000 0.000000
# 4 0.000000 0.000000 0.000000 0.049095 0.000000 0.000000
# 5 0.000000 0.000000 0.000000 0.000000 0.034743 0.000000
# 6 0.000000 0.000000 0.000000 0.000000 0.000000 0.027366
#
#
# Mechanical properties :
#
#
# Convention : Reuss Voigt Hill
#
# Bulk Modulus (GPa) = 49.77193 54.11888 51.94541
# Shear Modulus (GPa) = 25.85063 27.78523 26.81793
#
# Velocity S-wave (km/s) = 3.56944 3.70059 3.63561
# Velocity P-wave (km/s) = 6.44350 6.70317 6.57462
#
# Compressibility (1/GPa) = 0.02009164
#
# Stress axis : x y z
#
# Youngs Moduli (GPa) = 65.71820 57.53433 65.75989
#
# Poissons Ratio (x) = 0.48372 0.32949
# Poissons Ratio (y) = 0.55252 0.02883
# Poissons Ratio (z) = 0.32928 0.02522
#
# Static dielectric constant tensor:
#      x y z
#    x 3.495280 0.000000 0.000000 
#    y 0.000000 3.777010 0.000000 
#    z 0.000000 0.000000 4.020980 
# 
# 
# High freq. dielectric constant tensor:
#      x y z
#    x 1.782140 0.000000 0.000000 
#    y 0.000000 1.795340 0.000000 
#    z 0.000000 0.000000 1.797330 
# 
# From -- ./inp_files/17657.got.cif
#   From: 2010.03.12/outbox.cif.g09.slc.cpg/sg55_9_cif.got.tgz:17657.got - 2010.04.16 15:19:21.
