data_PCOD8227100
_publ_section_title
;
Structure prediction by ZEFSAII (Michael W. Deem and Ramdas Pophale) SiO2 
 PCOD8227100
Probable space group: P B A M
;
_chemical_formula_sum "Si O2"
_cell_formula_units_Z 64
_cell_length_a 10.944413
_cell_length_b 32.554372
_cell_length_c 9.019315
_cell_angle_alpha 90.000000
_cell_angle_beta 90.000000
_cell_angle_gamma 90.000000
_cell_volume 3213.478141
_symmetry_space_group_name_H-M "P B A M"
_symmetry_group_IT_number 55
_symmetry_cell_setting 'orthorhombic'
loop_
_space_group_symop_operation_xyz
x,y,z
-x,-y,z
1/2+x,1/2-y,-z
1/2-x,1/2+y,-z
-x,-y,-z
x,y,-z
1/2-x,1/2+y,z
1/2+x,1/2-y,z
loop_
_atom_site_type_symbol
_atom_site_label
_atom_site_fract_x
_atom_site_fract_y
_atom_site_fract_z
Si Si1 0.476992 0.229599 0.828998
Si Si2 0.506092 0.312046 0.333125
Si Si3 0.383526 0.471602 0.676245
Si Si4 0.786247 0.315969 0.662039
Si Si5 0.908994 0.396814 0.332178
Si Si6 0.378771 0.383234 0.824308
Si Si7 0.366767 0.013970 0.324527
Si Si8 0.117187 0.348878 0.174050
O O1 0.454596 0.270569 0.736530
O O2 0.352533 0.204875 0.800566
O O3 0.586570 0.198481 0.776871
O O4 0.490677 0.241599 0.000000
O O5 0.455162 0.318192 0.500000
O O6 0.648162 0.303326 0.332888
O O7 0.480953 0.352134 0.235069
O O8 0.500000 0.500000 0.722217
O O9 0.381599 0.466170 0.500000
O O10 0.398633 0.427249 0.750270
O O11 0.253448 0.489946 0.736000
O O12 0.842650 0.303372 0.500000
O O13 0.797936 0.364980 0.679492
O O14 0.954550 0.403651 0.500000
O O15 0.854286 0.439163 0.269876
O O16 0.026952 0.381928 0.244031
O O17 0.252045 0.361643 0.775907
O O18 0.389158 0.388168 0.000000
O O19 0.364573 0.009219 0.500000
O O20 0.500000 0.000000 0.262250
O O21 0.099122 0.351901 0.000000
#
# Coordination Sequence:
#
# PCOD8227100 Si02
#       8
#     8   8   8   8   8   8   8   8
#     4  10  21  38  60  85 116 153 192 237 297 352
#     4  11  24  39  59  86 116 150 198 246 291 347
#     4  10  22  39  62  88 118 157 200 248 302 356
#     4   9  20  37  57  83 114 148 192 242 287 339
#     4   9  17  32  58  85 113 148 188 237 290 341
#     4  11  24  41  60  85 119 159 200 239 293 355
#     4   9  17  30  54  87 116 144 187 240 292 347
#     4   9  20  38  58  84 119 155 191 236 287 349
#
# _framework density 19.916115999999999
#
# number of rings (size 3 to 8) (size 9 to 14) (size 15 to 20)
#    0.000    2.250    0.000    1.875    3.500    3.750 
#    0.000    0.625    0.000    2.250    0.000    0.000 
#    0.000    0.000    0.000    0.000    0.000    0.000 
#
# Total GULP energy -793188.065746 kJ/mol
# GULP energy per Si atom -12393.563527 kJ/mol
# Density = 1.987079 g / cm^3
# Si number density = 19.916116 Si / 1000 Ang^3
#
#
#
# Elastic Constant Matrix: (Units=GPa)
#
#
# Indices 1 2 3 4 5 6 
#
# 1 83.8762 42.5959 27.1544 0.0000 0.0000 0.0000
# 2 42.5959 143.5909 38.6005 0.0000 0.0000 0.0000
# 3 27.1544 38.6005 41.9290 0.0000 0.0000 0.0000
# 4 0.0000 0.0000 0.0000 29.1451 0.0000 0.0000
# 5 0.0000 0.0000 0.0000 0.0000 22.1345 0.0000
# 6 0.0000 0.0000 0.0000 0.0000 0.0000 26.0566
#
#
#
# Elastic Compliance Matrix: (Units=1/GPa)
#
#
# Indices 1 2 3 4 5 6 
#
# 1 0.015767 -0.002568 -0.007847 0.000000 0.000000 0.000000
# 2 -0.002568 0.009673 -0.007242 0.000000 0.000000 0.000000
# 3 -0.007847 -0.007242 0.035599 0.000000 0.000000 0.000000
# 4 0.000000 0.000000 0.000000 0.034311 0.000000 0.000000
# 5 0.000000 0.000000 0.000000 0.000000 0.045178 0.000000
# 6 0.000000 0.000000 0.000000 0.000000 0.000000 0.038378
#
#
# Mechanical properties :
#
#
# Convention : Reuss Voigt Hill
#
# Bulk Modulus (GPa) = 38.87292 54.01087 46.44190
# Shear Modulus (GPa) = 22.44221 26.20359 24.32290
#
# Velocity S-wave (km/s) = 3.36048 3.63119 3.49845
# Velocity P-wave (km/s) = 5.88369 6.69020 6.29986
#
# Compressibility (1/GPa) = 0.02572485
#
# Stress axis : x y z
#
# Youngs Moduli (GPa) = 63.42449 103.38338 28.09070
#
# Poissons Ratio (x) = 0.26546 0.22043
# Poissons Ratio (y) = 0.16285 0.20343
# Poissons Ratio (z) = 0.49770 0.74870
#
# Static dielectric constant tensor:
#      x y z
#    x 3.675590 0.000000 0.000000 
#    y 0.000000 3.786090 0.000000 
#    z 0.000000 0.000000 3.568960 
# 
# 
# High freq. dielectric constant tensor:
#      x y z
#    x 1.773110 0.000000 0.000000 
#    y 0.000000 1.790500 0.000000 
#    z 0.000000 0.000000 1.758160 
# 
# From -- ./inp_files/4516.got.cif
#   From: 2010.03.12/outbox.cif.g09.slc.cpg/sg55_3_cif.got.tgz:4516.got - 2010.04.16 15:19:21.
