data_PCOD8227862
_publ_section_title
;
Structure prediction by ZEFSAII (Michael W. Deem and Ramdas Pophale) SiO2 
 PCOD8227862
Probable space group: P C C N
;
_chemical_formula_sum "Si O2"
_cell_formula_units_Z 60
_cell_length_a 11.872320
_cell_length_b 10.860073
_cell_length_c 22.980994
_cell_angle_alpha 90.000000
_cell_angle_beta 90.000000
_cell_angle_gamma 90.000000
_cell_volume 2963.037499
_symmetry_space_group_name_H-M "P C C N"
_symmetry_group_IT_number 56
_symmetry_cell_setting 'orthorhombic'
loop_
_space_group_symop_operation_xyz
x,y,z
1/2-x,1/2-y,z
1/2+x,-y,1/2-z
-x,1/2+y,1/2-z
-x,-y,-z
1/2+x,1/2+y,-z
1/2-x,y,1/2+z
x,1/2-y,1/2+z
loop_
_atom_site_type_symbol
_atom_site_label
_atom_site_fract_x
_atom_site_fract_y
_atom_site_fract_z
Si Si1 0.763089 0.486358 0.353960
Si Si2 0.063310 0.080001 0.582980
Si Si3 0.413062 0.509586 0.317259
Si Si4 0.250000 0.750000 0.566532
Si Si5 0.499836 0.009988 0.307468
Si Si6 0.615720 0.745817 0.137032
Si Si7 0.982359 0.183739 0.471344
Si Si8 0.793568 0.386795 0.730519
O O1 0.688787 0.588544 0.388545
O O2 0.757344 0.363955 0.390832
O O3 0.705324 0.461470 0.291437
O O4 0.893157 0.529757 0.347203
O O5 0.040657 0.186134 0.535183
O O6 0.044174 0.952077 0.550528
O O7 0.972656 0.092367 0.634189
O O8 0.455071 0.554693 0.254564
O O9 0.431940 0.363917 0.327845
O O10 0.281319 0.543143 0.317815
O O11 0.138807 0.748162 0.525990
O O12 0.418797 0.892008 0.297303
O O13 0.430132 0.123400 0.333217
O O14 0.750000 0.750000 0.135766
O O15 0.568950 0.747690 0.071375
O O16 0.750000 0.250000 0.741715
#
# Coordination Sequence:
#
# PCOD8227862 Si02
#       8
#     8   8   8   4   8   8   8   8
#     4  10  19  33  59  84 125 161 209 252 311 383
#     4   9  18  36  57  87 116 160 205 257 311 356
#     4  10  22  35  59  87 126 163 201 257 311 384
#     4  10  16  32  58  90 112 164 210 262 306 364
#     4  11  22  35  59  94 127 166 208 257 319 387
#     4  11  21  39  61  90 122 163 214 260 320 379
#     4   9  19  33  61  85 116 155 217 265 299 366
#     4  11  22  36  57  89 126 170 201 255 317 387
#
# _framework density 20.249490000000002
#
# number of rings (size 3 to 8) (size 9 to 14) (size 15 to 20)
#    0.000    1.867    4.667    0.000    3.733    0.000 
#    1.200    0.000    2.933    0.800    0.000    0.000 
#    0.000    0.000    0.000    0.000    0.000    0.000 
#
# Total GULP energy -743659.091984 kJ/mol
# GULP energy per Si atom -12394.318200 kJ/mol
# Density = 2.020340 g / cm^3
# Si number density = 20.249490 Si / 1000 Ang^3
#
#
#
# Elastic Constant Matrix: (Units=GPa)
#
#
# Indices 1 2 3 4 5 6 
#
# 1 175.4477 28.2693 78.8594 0.0000 0.0000 0.0000
# 2 28.2693 29.8854 27.7936 0.0000 0.0000 0.0000
# 3 78.8594 27.7936 117.9009 0.0000 0.0000 0.0000
# 4 0.0000 0.0000 0.0000 29.9087 0.0000 0.0000
# 5 0.0000 0.0000 0.0000 0.0000 33.1762 0.0000
# 6 0.0000 0.0000 0.0000 0.0000 0.0000 21.4153
#
#
#
# Elastic Compliance Matrix: (Units=1/GPa)
#
#
# Indices 1 2 3 4 5 6 
#
# 1 0.008426 -0.003495 -0.004812 0.000000 0.000000 0.000000
# 2 -0.003495 0.044307 -0.008107 0.000000 0.000000 0.000000
# 3 -0.004812 -0.008107 0.013611 0.000000 0.000000 0.000000
# 4 0.000000 0.000000 0.000000 0.033435 0.000000 0.000000
# 5 0.000000 0.000000 0.000000 0.000000 0.030142 0.000000
# 6 0.000000 0.000000 0.000000 0.000000 0.000000 0.046696
#
#
# Mechanical properties :
#
#
# Convention : Reuss Voigt Hill
#
# Bulk Modulus (GPa) = 29.83649 65.89763 47.86706
# Shear Modulus (GPa) = 22.66384 29.45415 26.05900
#
# Velocity S-wave (km/s) = 3.34912 3.81801 3.59123
# Velocity P-wave (km/s) = 5.45178 7.21455 6.39420
#
# Compressibility (1/GPa) = 0.03351601
#
# Stress axis : x y z
#
# Youngs Moduli (GPa) = 118.68664 22.56991 73.46928
#
# Poissons Ratio (x) = 0.07888 0.35351
# Poissons Ratio (y) = 0.41482 0.59562
# Poissons Ratio (z) = 0.57107 0.18298
#
# Static dielectric constant tensor:
#      x y z
#    x 4.325100 0.000000 0.000000 
#    y 0.000000 3.299160 0.000000 
#    z 0.000000 0.000000 3.827310 
# 
# 
# High freq. dielectric constant tensor:
#      x y z
#    x 1.811930 0.000000 0.000000 
#    y 0.000000 1.751300 0.000000 
#    z 0.000000 0.000000 1.782430 
# 
# From -- ./inp_files/18793.got.cif
#   From: 2010.03.12/outbox.cif.g09.slc.cpg/sg56_10_cif.got.tgz:18793.got - 2010.04.16 15:33:40.
