data_PCOD8227280
_publ_section_title
;
Structure prediction by ZEFSAII (Michael W. Deem and Ramdas Pophale) SiO2 
 PCOD8227280
Probable space group: P B A M
;
_chemical_formula_sum "Si O2"
_cell_formula_units_Z 40
_cell_length_a 17.741690
_cell_length_b 10.338856
_cell_length_c 10.046993
_cell_angle_alpha 90.000000
_cell_angle_beta 90.000000
_cell_angle_gamma 90.000000
_cell_volume 1842.907650
_symmetry_space_group_name_H-M "P B A M"
_symmetry_group_IT_number 55
_symmetry_cell_setting 'orthorhombic'
loop_
_space_group_symop_operation_xyz
x,y,z
-x,-y,z
1/2+x,1/2-y,-z
1/2-x,1/2+y,-z
-x,-y,-z
x,y,-z
1/2-x,1/2+y,z
1/2+x,1/2-y,z
loop_
_atom_site_type_symbol
_atom_site_label
_atom_site_fract_x
_atom_site_fract_y
_atom_site_fract_z
Si Si1 0.589110 0.753410 0.647108
Si Si2 0.037586 0.234162 0.156653
Si Si3 0.697180 0.148314 0.852466
Si Si4 0.106289 0.042440 0.355212
Si Si5 0.236823 0.614750 0.280371
O O1 0.551192 0.764821 0.500000
O O2 0.533076 0.799697 0.765994
O O3 0.615668 0.608023 0.677828
O O4 0.662814 0.843037 0.640956
O O5 0.108288 0.329091 0.170754
O O6 0.055084 0.101926 0.237656
O O7 0.019560 0.206245 0.000000
O O8 0.745780 0.279363 0.833717
O O9 0.725445 0.031780 0.763885
O O10 0.711833 0.100400 0.000000
O O11 0.066994 0.063329 0.500000
O O12 0.187768 0.110712 0.368884
#
# Coordination Sequence:
#
# PCOD8227280 Si02
#       5
#     8   8   8   8   8
#     4  11  23  40  63  94 127 168 212 261 319 376
#     4  10  23  41  62  93 129 170 212 260 316 376
#     4  10  22  40  63  92 130 166 209 261 318 376
#     4  10  21  40  64  92 127 167 212 262 313 375
#     4  11  21  41  63  96 123 167 214 260 315 377
#
# _framework density 21.704832
#
# number of rings (size 3 to 8) (size 9 to 14) (size 15 to 20)
#    0.000    1.600    2.000    2.400    0.000    6.400 
#    0.000    6.000    0.000    0.000    0.000    0.000 
#    0.000    0.000    0.000    0.000    0.000    0.000 
#
# Total GULP energy -495683.849390 kJ/mol
# GULP energy per Si atom -12392.096235 kJ/mol
# Density = 2.165543 g / cm^3
# Si number density = 21.704832 Si / 1000 Ang^3
#
#
#
# Elastic Constant Matrix: (Units=GPa)
#
#
# Indices 1 2 3 4 5 6 
#
# 1 100.4449 21.5011 48.3945 0.0000 0.0000 0.0000
# 2 21.5011 79.5577 21.8203 0.0000 0.0000 0.0000
# 3 48.3945 21.8203 139.1527 0.0000 0.0000 0.0000
# 4 0.0000 0.0000 0.0000 17.5912 0.0000 0.0000
# 5 0.0000 0.0000 0.0000 0.0000 16.2985 0.0000
# 6 0.0000 0.0000 0.0000 0.0000 0.0000 30.1600
#
#
#
# Elastic Compliance Matrix: (Units=1/GPa)
#
#
# Indices 1 2 3 4 5 6 
#
# 1 0.012335 -0.002254 -0.003936 0.000000 0.000000 0.000000
# 2 -0.002254 0.013546 -0.001340 0.000000 0.000000 0.000000
# 3 -0.003936 -0.001340 0.008765 0.000000 0.000000 0.000000
# 4 0.000000 0.000000 0.000000 0.056847 0.000000 0.000000
# 5 0.000000 0.000000 0.000000 0.000000 0.061355 0.000000
# 6 0.000000 0.000000 0.000000 0.000000 0.000000 0.033156
#
#
# Mechanical properties :
#
#
# Convention : Reuss Voigt Hill
#
# Bulk Modulus (GPa) = 51.05859 55.84299 53.45079
# Shear Modulus (GPa) = 24.08543 27.97257 26.02900
#
# Velocity S-wave (km/s) = 3.33480 3.59384 3.46674
# Velocity P-wave (km/s) = 6.19702 6.55783 6.37997
#
# Compressibility (1/GPa) = 0.01958534
#
# Stress axis : x y z
#
# Youngs Moduli (GPa) = 81.07203 73.82118 114.08373
#
# Poissons Ratio (x) = 0.16639 0.44907
# Poissons Ratio (y) = 0.18273 0.15290
# Poissons Ratio (z) = 0.31913 0.09894
#
# Static dielectric constant tensor:
#      x y z
#    x 4.081790 0.000000 0.000000 
#    y 0.000000 3.675680 0.000000 
#    z 0.000000 0.000000 3.859440 
# 
# 
# High freq. dielectric constant tensor:
#      x y z
#    x 1.863950 0.000000 0.000000 
#    y 0.000000 1.839860 0.000000 
#    z 0.000000 0.000000 1.849200 
# 
# From -- ./inp_files/14655.got.cif
#   From: 2010.03.12/outbox.cif.g09.slc.cpg/sg55_8_cif.got.tgz:14655.got - 2010.04.16 15:19:21.
