data_PCOD8227477
_publ_section_title
;
Structure prediction by ZEFSAII (Michael W. Deem and Ramdas Pophale) SiO2 
 PCOD8227477
Probable space group: P B A M
;
_chemical_formula_sum "Si O2"
_cell_formula_units_Z 64
_cell_length_a 33.300892
_cell_length_b 11.472734
_cell_length_c 8.682802
_cell_angle_alpha 90.000000
_cell_angle_beta 90.000000
_cell_angle_gamma 90.000000
_cell_volume 3317.284265
_symmetry_space_group_name_H-M "P B A M"
_symmetry_group_IT_number 55
_symmetry_cell_setting 'orthorhombic'
loop_
_space_group_symop_operation_xyz
x,y,z
-x,-y,z
1/2+x,1/2-y,-z
1/2-x,1/2+y,-z
-x,-y,-z
x,y,-z
1/2-x,1/2+y,z
1/2+x,1/2-y,z
loop_
_atom_site_type_symbol
_atom_site_label
_atom_site_fract_x
_atom_site_fract_y
_atom_site_fract_z
Si Si1 0.297591 0.564272 0.179311
Si Si2 0.135027 0.215652 0.681578
Si Si3 0.326486 0.309228 0.179439
Si Si4 0.859946 0.537571 0.820487
Si Si5 0.555920 0.411568 0.682991
Si Si6 0.287406 0.098523 0.679954
Si Si7 0.970514 0.160788 0.318425
Si Si8 0.906755 0.310758 0.822010
O O1 0.325665 0.670113 0.231367
O O2 0.320618 0.444430 0.214958
O O3 0.257617 0.563606 0.279352
O O4 0.286888 0.577946 0.000000
O O5 0.140287 0.196965 0.500000
O O6 0.129726 0.351261 0.718007
O O7 0.096156 0.147801 0.748435
O O8 0.294138 0.233388 0.273847
O O9 0.370925 0.273686 0.235425
O O10 0.320736 0.278732 0.000000
O O11 0.817041 0.484746 0.774793
O O12 0.895057 0.444004 0.785746
O O13 0.858537 0.570842 0.000000
O O14 0.557210 0.408564 0.500000
O O15 0.516590 0.340234 0.741490
O O16 0.552525 0.544822 0.742566
O O17 0.295073 0.080383 0.500000
O O18 0.970808 0.158537 0.500000
O O19 0.947837 0.276849 0.263230
O O20 0.914649 0.291164 0.000000
#
# Coordination Sequence:
#
# PCOD8227477 Si02
#       8
#     8   8   8   8   8   8   8   8
#     4  11  23  38  58  81 110 148 184 222 278 341
#     4  11  22  37  57  83 113 145 188 238 282 329
#     4   9  20  38  57  78 108 145 183 222 271 334
#     4  10  22  41  59  76 109 153 189 227 283 346
#     4   8  17  33  53  82 117 148 180 226 280 335
#     4  11  23  38  58  83 110 139 183 236 278 322
#     4   9  16  31  57  83 111 148 184 222 279 339
#     4   9  18  34  55  80 107 138 183 233 275 322
#
# _framework density 19.292888999999999
#
# number of rings (size 3 to 8) (size 9 to 14) (size 15 to 20)
#    0.000    2.250    0.000    4.500    1.750    3.500 
#    0.000    3.750    0.000    3.750    0.000    0.000 
#    0.000    0.000    0.000    0.000    0.000    0.000 
#
# Total GULP energy -793678.260595 kJ/mol
# GULP energy per Si atom -12401.222822 kJ/mol
# Density = 1.924898 g / cm^3
# Si number density = 19.292889 Si / 1000 Ang^3
#
#
#
# Elastic Constant Matrix: (Units=GPa)
#
#
# Indices 1 2 3 4 5 6 
#
# 1 83.7708 23.6321 11.9105 0.0000 0.0000 0.0000
# 2 23.6321 76.5293 15.0560 0.0000 0.0000 0.0000
# 3 11.9105 15.0560 40.6931 0.0000 0.0000 0.0000
# 4 0.0000 0.0000 0.0000 27.0810 0.0000 0.0000
# 5 0.0000 0.0000 0.0000 0.0000 25.8217 0.0000
# 6 0.0000 0.0000 0.0000 0.0000 0.0000 23.3758
#
#
#
# Elastic Compliance Matrix: (Units=1/GPa)
#
#
# Indices 1 2 3 4 5 6 
#
# 1 0.013320 -0.003609 -0.002563 0.000000 0.000000 0.000000
# 2 -0.003609 0.015070 -0.004520 0.000000 0.000000 0.000000
# 3 -0.002563 -0.004520 0.026997 0.000000 0.000000 0.000000
# 4 0.000000 0.000000 0.000000 0.036926 0.000000 0.000000
# 5 0.000000 0.000000 0.000000 0.000000 0.038727 0.000000
# 6 0.000000 0.000000 0.000000 0.000000 0.000000 0.042779
#
#
# Mechanical properties :
#
#
# Convention : Reuss Voigt Hill
#
# Bulk Modulus (GPa) = 29.40889 33.57671 31.49280
# Shear Modulus (GPa) = 24.20865 25.28201 24.74533
#
# Velocity S-wave (km/s) = 3.54615 3.62392 3.58525
# Velocity P-wave (km/s) = 5.66069 5.91201 5.78771
#
# Compressibility (1/GPa) = 0.03400332
#
# Stress axis : x y z
#
# Youngs Moduli (GPa) = 75.07581 66.35499 37.04160
#
# Poissons Ratio (x) = 0.23947 0.09495
# Poissons Ratio (y) = 0.27094 0.16741
# Poissons Ratio (z) = 0.19245 0.29990
#
# Static dielectric constant tensor:
#      x y z
#    x 3.637590 0.000000 0.000000 
#    y 0.000000 3.552160 0.000000 
#    z 0.000000 0.000000 3.331530 
# 
# 
# High freq. dielectric constant tensor:
#      x y z
#    x 1.750990 0.000000 0.000000 
#    y 0.000000 1.747500 0.000000 
#    z 0.000000 0.000000 1.739250 
# 
# From -- ./inp_files/10864.got.cif
#   From: 2010.03.12/outbox.cif.g09.slc.cpg/sg55_6_cif.got.tgz:10864.got - 2010.04.16 15:19:21.
