data_PCOD8227372
_publ_section_title
;
Structure prediction by ZEFSAII (Michael W. Deem and Ramdas Pophale) SiO2 
 PCOD8227372
Probable space group: P B A M
;
_chemical_formula_sum "Si O2"
_cell_formula_units_Z 24
_cell_length_a 4.904161
_cell_length_b 11.893847
_cell_length_c 16.444808
_cell_angle_alpha 90.000000
_cell_angle_beta 90.000000
_cell_angle_gamma 90.000000
_cell_volume 959.214807
_symmetry_space_group_name_H-M "P B A M"
_symmetry_group_IT_number 55
_symmetry_cell_setting 'orthorhombic'
loop_
_space_group_symop_operation_xyz
x,y,z
-x,-y,z
1/2+x,1/2-y,-z
1/2-x,1/2+y,-z
-x,-y,-z
x,y,-z
1/2-x,1/2+y,z
1/2+x,1/2-y,z
loop_
_atom_site_type_symbol
_atom_site_label
_atom_site_fract_x
_atom_site_fract_y
_atom_site_fract_z
Si Si1 0.257109 0.671849 0.174036
Si Si2 0.729582 0.175459 0.593119
Si Si3 0.869652 0.822209 0.000000
Si Si4 0.000000 0.000000 0.295084
O O1 0.953292 0.719725 0.184908
O O2 0.307160 0.577699 0.240617
O O3 0.295904 0.614093 0.084284
O O4 0.763414 0.136158 0.500000
O O5 0.425489 0.218194 0.611875
O O6 0.793197 0.070130 0.649397
O O7 0.189703 0.792869 0.000000
#
# Coordination Sequence:
#
# PCOD8227372 Si02
#       4
#     8   8   4   4
#     4  10  22  38  57  84 116 150 190 234 279 333
#     4  10  23  42  61  84 115 150 189 231 279 340
#     4   8  16  35  56  75 110 152 186 227 276 327
#     4  12  23  37  62  88 116 148 188 235 289 332
#
# _framework density 25.020465999999999
#
# number of rings (size 3 to 8) (size 9 to 14) (size 15 to 20)
#    0.000    2.000    0.000    2.500    0.000    6.000 
#    0.000    5.000    0.000   12.000    0.000    0.000 
#    0.000    0.000    0.000    0.000    0.000    0.000 
#
# Total GULP energy -297636.560603 kJ/mol
# GULP energy per Si atom -12401.523358 kJ/mol
# Density = 2.496352 g / cm^3
# Si number density = 25.020466 Si / 1000 Ang^3
#
#
#
# Elastic Constant Matrix: (Units=GPa)
#
#
# Indices 1 2 3 4 5 6 
#
# 1 69.8166 -3.0480 -3.1800 0.0000 0.0000 0.0000
# 2 -3.0480 76.5318 60.3780 0.0000 0.0000 0.0000
# 3 -3.1800 60.3780 142.2435 0.0000 0.0000 0.0000
# 4 0.0000 0.0000 0.0000 -99.2229 0.0000 0.0000
# 5 0.0000 0.0000 0.0000 0.0000 4.9702 0.0000
# 6 0.0000 0.0000 0.0000 0.0000 0.0000 4.8045
#
#
#
# Elastic Compliance Matrix: (Units=1/GPa)
#
#
# Indices 1 2 3 4 5 6 
#
# 1 0.014349 0.000479 0.000118 0.000000 0.000000 0.000000
# 2 0.000479 0.019661 -0.008335 0.000000 0.000000 0.000000
# 3 0.000118 -0.008335 0.010571 0.000000 0.000000 0.000000
# 4 0.000000 0.000000 0.000000 -0.010078 0.000000 0.000000
# 5 0.000000 0.000000 0.000000 0.000000 0.201199 0.000000
# 6 0.000000 0.000000 0.000000 0.000000 0.000000 0.208137
#
#
# Mechanical properties :
#
#
# Convention : Reuss Voigt Hill
#
# Bulk Modulus (GPa) = 34.35921 44.09908 39.22914
# Shear Modulus (GPa) = 10.66059 -2.26018 4.20021
#
# Velocity S-wave (km/s) = 2.06640 -0.95147 1.29706
# Velocity P-wave (km/s) = 4.41085 4.05665 4.23745
#
# Compressibility (1/GPa) = 0.02910428
#
# Stress axis : x y z
#
# Youngs Moduli (GPa) = 69.68885 50.86184 94.60104
#
# Poissons Ratio (x) = -0.02435 -0.01112
# Poissons Ratio (y) = -0.03336 0.78848
# Poissons Ratio (z) = -0.00820 0.42392
#
# Static dielectric constant tensor:
#      x y z
#    x 4.437060 0.000000 0.000000 
#    y 0.000000 3.924400 0.000000 
#    z 0.000000 0.000000 5.165560 
# 
# 
# High freq. dielectric constant tensor:
#      x y z
#    x 2.006270 0.000000 0.000000 
#    y 0.000000 1.950980 0.000000 
#    z 0.000000 0.000000 2.033250 
# 
# From -- ./inp_files/20237.got.cif
#   From: 2010.03.12/outbox.cif.g09.slc.cpg/sg55_11_cif.got.tgz:20237.got - 2010.04.16 15:19:21.
