data_PCOD8227857
_publ_section_title
;
Structure prediction by ZEFSAII (Michael W. Deem and Ramdas Pophale) SiO2 
 PCOD8227857
Probable space group: P C C N
;
_chemical_formula_sum "Si O2"
_cell_formula_units_Z 32
_cell_length_a 29.065945
_cell_length_b 8.425900
_cell_length_c 5.308626
_cell_angle_alpha 90.000000
_cell_angle_beta 90.000000
_cell_angle_gamma 90.000000
_cell_volume 1300.118319
_symmetry_space_group_name_H-M "P C C N"
_symmetry_group_IT_number 56
_symmetry_cell_setting 'orthorhombic'
loop_
_space_group_symop_operation_xyz
x,y,z
1/2-x,1/2-y,z
1/2+x,-y,1/2-z
-x,1/2+y,1/2-z
-x,-y,-z
1/2+x,1/2+y,-z
1/2-x,y,1/2+z
x,1/2-y,1/2+z
loop_
_atom_site_type_symbol
_atom_site_label
_atom_site_fract_x
_atom_site_fract_y
_atom_site_fract_z
Si Si1 0.874149 0.153257 0.841531
Si Si2 0.269364 0.573846 0.164696
Si Si3 0.989915 0.314182 0.028932
Si Si4 0.590688 0.678279 0.925797
O O1 0.881816 0.214480 0.556457
O O2 0.908996 0.009303 0.886489
O O3 0.823769 0.077315 0.870946
O O4 0.250000 0.750000 0.204886
O O5 0.245663 0.486002 0.924985
O O6 0.962522 0.262080 0.287158
O O7 0.037231 0.221011 0.066266
O O8 0.000000 0.500000 0.000000
O O9 0.614719 0.766734 0.686864
#
# Coordination Sequence:
#
# PCOD8227857 Si02
#       4
#     8   8   8   8
#     4  12  21  35  63  93 116 163 208 258 300 355
#     4  10  16  30  51  87 115 148 201 257 287 346
#     4  10  21  42  67  93 121 161 201 248 304 366
#     4  10  23  43  59  86 131 165 194 252 307 369
#
# _framework density 24.613144999999999
#
# number of rings (size 3 to 8) (size 9 to 14) (size 15 to 20)
#    0.000    1.500    5.000    2.250    0.000    0.000 
#    0.000   30.000    0.000    4.500    0.000    0.000 
#    0.000    0.000    0.000    0.000    0.000    0.000 
#
# Total GULP energy -396681.085438 kJ/mol
# GULP energy per Si atom -12396.283920 kJ/mol
# Density = 2.455712 g / cm^3
# Si number density = 24.613145 Si / 1000 Ang^3
#
#
#
# Elastic Constant Matrix: (Units=GPa)
#
#
# Indices 1 2 3 4 5 6 
#
# 1 34.4183 21.8340 5.5169 0.0000 0.0000 0.0000
# 2 21.8340 89.1824 39.6106 0.0000 0.0000 0.0000
# 3 5.5169 39.6106 267.5025 0.0000 0.0000 0.0000
# 4 0.0000 0.0000 0.0000 25.7643 0.0000 0.0000
# 5 0.0000 0.0000 0.0000 0.0000 30.2569 0.0000
# 6 0.0000 0.0000 0.0000 0.0000 0.0000 11.7677
#
#
#
# Elastic Compliance Matrix: (Units=1/GPa)
#
#
# Indices 1 2 3 4 5 6 
#
# 1 0.034479 -0.008698 0.000577 0.000000 0.000000 0.000000
# 2 -0.008698 0.014196 -0.001923 0.000000 0.000000 0.000000
# 3 0.000577 -0.001923 0.004011 0.000000 0.000000 0.000000
# 4 0.000000 0.000000 0.000000 0.038813 0.000000 0.000000
# 5 0.000000 0.000000 0.000000 0.000000 0.033050 0.000000
# 6 0.000000 0.000000 0.000000 0.000000 0.000000 0.084978
#
#
# Mechanical properties :
#
#
# Convention : Reuss Voigt Hill
#
# Bulk Modulus (GPa) = 30.67506 58.33623 44.50564
# Shear Modulus (GPa) = 20.79154 35.16724 27.97939
#
# Velocity S-wave (km/s) = 2.90958 3.78405 3.37525
# Velocity P-wave (km/s) = 4.87622 6.54559 5.77158
#
# Compressibility (1/GPa) = 0.03259977
#
# Stress axis : x y z
#
# Youngs Moduli (GPa) = 29.00289 70.44071 249.30818
#
# Poissons Ratio (x) = 0.61266 -0.14380
# Poissons Ratio (y) = 0.25225 0.47936
# Poissons Ratio (z) = -0.01673 0.13544
#
# Static dielectric constant tensor:
#      x y z
#    x 0.000000 0.000000 0.000000 
#    y 0.000000 0.000000 0.000000 
#    z 0.000000 0.000000 0.000000 
# 
# 
# High freq. dielectric constant tensor:
#      x y z
#    x 1.967940 0.000000 0.000000 
#    y 0.000000 1.938490 0.000000 
#    z 0.000000 0.000000 2.028150 
# 
# From -- ./inp_files/120.got.cif
#   From: 2010.03.12/outbox.cif.g09.slc.cpg/sg56_1_cif.got.tgz:120.got - 2010.04.16 15:33:40.
