data_PCOD8227815
_publ_section_title
;
Structure prediction by ZEFSAII (Michael W. Deem and Ramdas Pophale) SiO2 
 PCOD8227815
Probable space group: P B A M
;
_chemical_formula_sum "Si O2"
_cell_formula_units_Z 40
_cell_length_a 9.220451
_cell_length_b 12.898470
_cell_length_c 14.977233
_cell_angle_alpha 90.000000
_cell_angle_beta 90.000000
_cell_angle_gamma 90.000000
_cell_volume 1781.237986
_symmetry_space_group_name_H-M "P B A M"
_symmetry_group_IT_number 55
_symmetry_cell_setting 'orthorhombic'
loop_
_space_group_symop_operation_xyz
x,y,z
-x,-y,z
1/2+x,1/2-y,-z
1/2-x,1/2+y,-z
-x,-y,-z
x,y,-z
1/2-x,1/2+y,z
1/2+x,1/2-y,z
loop_
_atom_site_type_symbol
_atom_site_label
_atom_site_fract_x
_atom_site_fract_y
_atom_site_fract_z
Si Si1 0.552601 0.174322 0.831232
Si Si2 0.557287 0.692870 0.671739
Si Si3 0.737553 0.354681 0.099836
Si Si4 0.239831 0.986213 0.755593
Si Si5 0.259903 0.637919 0.599920
O O1 0.517526 0.228740 0.738755
O O2 0.410095 0.155415 0.889142
O O3 0.666377 0.242082 0.887489
O O4 0.624438 0.065073 0.805559
O O5 0.621021 0.596646 0.726544
O O6 0.433647 0.651330 0.605511
O O7 0.683197 0.751587 0.617779
O O8 0.670064 0.433525 0.172815
O O9 0.704650 0.395136 0.000000
O O10 0.295322 0.051234 0.669650
O O11 0.221715 0.600304 0.500000
#
# Coordination Sequence:
#
# PCOD8227815 Si02
#       5
#     8   8   8   8   8
#     4  12  23  48  72  98 145 190 227 287 357 413
#     4  12  23  48  72  98 145 190 227 287 357 413
#     4  12  27  45  73 108 141 184 237 290 348 420
#     4  12  24  44  76  98 140 182 236 288 350 412
#     4  12  27  45  73 108 141 184 237 290 348 420
#
# _framework density 22.456292000000001
#
# number of rings (size 3 to 8) (size 9 to 14) (size 15 to 20)
#    0.000    0.000    8.000    2.400    0.000    4.800 
#    0.000    2.000    0.000    0.000    0.000    0.000 
#    0.000    0.000    0.000    0.000    0.000    0.000 
#
# Total GULP energy -496162.292674 kJ/mol
# GULP energy per Si atom -12404.057317 kJ/mol
# Density = 2.240518 g / cm^3
# Si number density = 22.456292 Si / 1000 Ang^3
#
#
#
# Elastic Constant Matrix: (Units=GPa)
#
#
# Indices 1 2 3 4 5 6 
#
# 1 98.8899 23.9681 11.0835 0.0000 0.0000 0.0000
# 2 23.9681 88.1749 33.6823 0.0000 0.0000 0.0000
# 3 11.0835 33.6823 159.3672 0.0000 0.0000 0.0000
# 4 0.0000 0.0000 0.0000 15.7453 0.0000 0.0000
# 5 0.0000 0.0000 0.0000 0.0000 29.3669 0.0000
# 6 0.0000 0.0000 0.0000 0.0000 0.0000 32.5884
#
#
#
# Elastic Compliance Matrix: (Units=1/GPa)
#
#
# Indices 1 2 3 4 5 6 
#
# 1 0.010828 -0.002889 -0.000142 0.000000 0.000000 0.000000
# 2 -0.002889 0.013108 -0.002569 0.000000 0.000000 0.000000
# 3 -0.000142 -0.002569 0.006828 0.000000 0.000000 0.000000
# 4 0.000000 0.000000 0.000000 0.063511 0.000000 0.000000
# 5 0.000000 0.000000 0.000000 0.000000 0.034052 0.000000
# 6 0.000000 0.000000 0.000000 0.000000 0.000000 0.030686
#
#
# Mechanical properties :
#
#
# Convention : Reuss Voigt Hill
#
# Bulk Modulus (GPa) = 51.11885 53.76663 52.44274
# Shear Modulus (GPa) = 28.29089 34.05333 31.17211
#
# Velocity S-wave (km/s) = 3.55325 3.89836 3.72980
# Velocity P-wave (km/s) = 6.29660 6.65265 6.47707
#
# Compressibility (1/GPa) = 0.01956226
#
# Stress axis : x y z
#
# Youngs Moduli (GPa) = 92.34945 76.28981 146.46048
#
# Poissons Ratio (x) = 0.22040 0.02087
# Poissons Ratio (y) = 0.26680 0.37632
# Poissons Ratio (z) = 0.01316 0.19602
#
# Static dielectric constant tensor:
#      x y z
#    x 4.176660 0.000000 0.000000 
#    y 0.000000 4.300420 0.000000 
#    z 0.000000 0.000000 3.907420 
# 
# 
# High freq. dielectric constant tensor:
#      x y z
#    x 1.890250 0.000000 0.000000 
#    y 0.000000 1.893090 0.000000 
#    z 0.000000 0.000000 1.878380 
# 
# From -- ./inp_files/18156.got.cif
#   From: 2010.03.12/outbox.cif.g09.slc.cpg/sg55_10_cif.got.tgz:18156.got - 2010.04.16 15:19:21.
