data_PCOD8227089
_publ_section_title
;
Structure prediction by ZEFSAII (Michael W. Deem and Ramdas Pophale) SiO2 
 PCOD8227089
Probable space group: P B A M
;
_chemical_formula_sum "Si O2"
_cell_formula_units_Z 40
_cell_length_a 29.052850
_cell_length_b 8.707969
_cell_length_c 7.625024
_cell_angle_alpha 90.000000
_cell_angle_beta 90.000000
_cell_angle_gamma 90.000000
_cell_volume 1929.064865
_symmetry_space_group_name_H-M "P B A M"
_symmetry_group_IT_number 55
_symmetry_cell_setting 'orthorhombic'
loop_
_space_group_symop_operation_xyz
x,y,z
-x,-y,z
1/2+x,1/2-y,-z
1/2-x,1/2+y,-z
-x,-y,-z
x,y,-z
1/2-x,1/2+y,z
1/2+x,1/2-y,z
loop_
_atom_site_type_symbol
_atom_site_label
_atom_site_fract_x
_atom_site_fract_y
_atom_site_fract_z
Si Si1 0.861081 0.425116 0.703794
Si Si2 0.700674 0.064455 0.000000
Si Si3 0.452395 0.565187 0.801659
Si Si4 0.301210 0.573554 0.000000
Si Si5 0.955592 0.590939 0.295354
Si Si6 0.140423 0.929708 0.304387
O O1 0.848483 0.453027 0.500000
O O2 0.911320 0.489085 0.748441
O O3 0.860891 0.246771 0.754185
O O4 0.824000 0.510309 0.822917
O O5 0.703366 0.245745 0.000000
O O6 0.751752 0.001493 0.000000
O O7 0.500000 0.500000 0.721589
O O8 0.451691 0.748784 0.803790
O O9 0.410929 0.497258 0.688663
O O10 0.446270 0.505920 0.000000
O O11 0.328133 0.525192 0.826222
O O12 0.960493 0.626155 0.500000
O O13 0.000000 0.500000 0.224673
O O14 0.161158 0.945428 0.500000
#
# Coordination Sequence:
#
# PCOD8227089 Si02
#       6
#     8   4   8   4   8   8
#     4  10  23  42  66  97 128 168 214 260 318 377
#     4  12  26  44  71  92 131 166 202 270 316 382
#     4  11  23  37  57  91 130 170 216 261 311 375
#     4  12  26  46  67 100 125 164 214 256 326 380
#     4  10  21  38  59  88 127 171 220 262 311 374
#     4  11  23  43  69  94 130 169 210 264 315 378
#
# _framework density 20.735434999999999
#
# number of rings (size 3 to 8) (size 9 to 14) (size 15 to 20)
#    0.000    1.200    1.000    4.800    1.400    6.800 
#    0.000    0.000    0.000    0.000    0.000    0.000 
#    0.000    0.000    0.000    0.000    0.000    0.000 
#
# Total GULP energy -496244.775037 kJ/mol
# GULP energy per Si atom -12406.119376 kJ/mol
# Density = 2.068824 g / cm^3
# Si number density = 20.735435 Si / 1000 Ang^3
#
#
#
# Elastic Constant Matrix: (Units=GPa)
#
#
# Indices 1 2 3 4 5 6 
#
# 1 161.5213 72.3297 58.5726 0.0000 0.0000 0.0000
# 2 72.3297 181.2234 51.6784 0.0000 0.0000 0.0000
# 3 58.5726 51.6784 92.4467 0.0000 0.0000 0.0000
# 4 0.0000 0.0000 0.0000 25.7123 0.0000 0.0000
# 5 0.0000 0.0000 0.0000 0.0000 -109.7493 0.0000
# 6 0.0000 0.0000 0.0000 0.0000 0.0000 43.6255
#
#
#
# Elastic Compliance Matrix: (Units=1/GPa)
#
#
# Indices 1 2 3 4 5 6 
#
# 1 0.008762 -0.002277 -0.004279 0.000000 0.000000 0.000000
# 2 -0.002277 0.007156 -0.002558 0.000000 0.000000 0.000000
# 3 -0.004279 -0.002558 0.014958 0.000000 0.000000 0.000000
# 4 0.000000 0.000000 0.000000 0.038892 0.000000 0.000000
# 5 0.000000 0.000000 0.000000 0.000000 -0.009112 0.000000
# 6 0.000000 0.000000 0.000000 0.000000 0.000000 0.022922
#
#
# Mechanical properties :
#
#
# Convention : Reuss Voigt Hill
#
# Bulk Modulus (GPa) = 79.05569 88.92809 83.99189
# Shear Modulus (GPa) = 47.15974 8.75843 27.95909
#
# Velocity S-wave (km/s) = 4.77419 2.05744 3.67600
# Velocity P-wave (km/s) = 8.28246 6.97311 7.65583
#
# Compressibility (1/GPa) = 0.01264931
#
# Stress axis : x y z
#
# Youngs Moduli (GPa) = 114.12324 139.73826 66.85479
#
# Poissons Ratio (x) = 0.31820 0.28606
# Poissons Ratio (y) = 0.25987 0.17099
# Poissons Ratio (z) = 0.48831 0.35740
#
# Static dielectric constant tensor:
#      x y z
#    x 3.798030 0.000000 0.000000 
#    y 0.000000 3.820680 0.000000 
#    z 0.000000 0.000000 3.832420 
# 
# 
# High freq. dielectric constant tensor:
#      x y z
#    x 1.811650 0.000000 0.000000 
#    y 0.000000 1.827150 0.000000 
#    z 0.000000 0.000000 1.820550 
# 
# From -- ./inp_files/10006.got.cif
#   From: 2010.03.12/outbox.cif.g09.slc.cpg/sg55_6_cif.got.tgz:10006.got - 2010.04.16 15:19:21.
