data_PCOD8227692
_publ_section_title
;
Structure prediction by ZEFSAII (Michael W. Deem and Ramdas Pophale) SiO2 
 PCOD8227692
Probable space group: P B A M
;
_chemical_formula_sum "Si O2"
_cell_formula_units_Z 64
_cell_length_a 14.241001
_cell_length_b 28.695102
_cell_length_c 8.695467
_cell_angle_alpha 90.000000
_cell_angle_beta 90.000000
_cell_angle_gamma 90.000000
_cell_volume 3553.376297
_symmetry_space_group_name_H-M "P B A M"
_symmetry_group_IT_number 55
_symmetry_cell_setting 'orthorhombic'
loop_
_space_group_symop_operation_xyz
x,y,z
-x,-y,z
1/2+x,1/2-y,-z
1/2-x,1/2+y,-z
-x,-y,-z
x,y,-z
1/2-x,1/2+y,z
1/2+x,1/2-y,z
loop_
_atom_site_type_symbol
_atom_site_label
_atom_site_fract_x
_atom_site_fract_y
_atom_site_fract_z
Si Si1 0.993547 0.197297 0.816909
Si Si2 0.356488 0.374683 0.319739
Si Si3 0.146947 0.625094 0.183819
Si Si4 0.154018 0.374798 0.180772
Si Si5 0.000483 0.301514 0.182136
Si Si6 0.000185 0.551664 0.181900
Si Si7 0.507511 0.552695 0.818191
Si Si8 0.855197 0.874841 0.181446
O O1 0.901571 0.171427 0.754601
O O2 0.999670 0.249465 0.748327
O O3 0.086799 0.170102 0.760541
O O4 0.986593 0.197178 0.000000
O O5 0.370889 0.372144 0.500000
O O6 0.247479 0.375675 0.279543
O O7 0.403948 0.421927 0.257865
O O8 0.091877 0.671148 0.241580
O O9 0.091067 0.579633 0.244331
O O10 0.251489 0.624931 0.256127
O O11 0.149698 0.624610 0.000000
O O12 0.094576 0.329110 0.230111
O O13 0.094873 0.420932 0.224565
O O14 0.177871 0.373811 0.000000
O O15 0.997029 0.298748 0.000000
O O16 0.000000 0.500000 0.256122
O O17 0.008485 0.548139 0.000000
O O18 0.500000 0.500000 0.757257
O O19 0.411087 0.578547 0.770658
O O20 0.523623 0.554453 0.000000
O O21 0.844394 0.872498 0.000000
#
# Coordination Sequence:
#
# PCOD8227692 Si02
#       8
#     8   8   8   8   8   8   8   8
#     4   9  17  31  49  69  93 122 159 201 244 288
#     4  11  22  34  48  69  99 134 167 200 242 290
#     4   8  13  22  37  63  95 118 142 183 235 285
#     4   9  17  31  50  73 100 128 162 203 243 286
#     4   8  15  27  46  71  95 120 153 197 244 284
#     4   8  14  24  41  68  99 125 150 188 238 285
#     4   9  18  33  52  73  95 122 159 202 246 289
#     4   8  14  24  40  64  92 116 140 180 234 287
#
# _framework density 18.011039
#
# number of rings (size 3 to 8) (size 9 to 14) (size 15 to 20)
#    0.000    3.250    0.000    3.375    0.000    2.250 
#    0.000    8.125    0.000    0.375    0.000   14.000 
#    0.000    0.000    0.000    0.000    0.000    0.000 
#
# Total GULP energy -793259.358303 kJ/mol
# GULP energy per Si atom -12394.677473 kJ/mol
# Density = 1.797005 g / cm^3
# Si number density = 18.011039 Si / 1000 Ang^3
#
#
#
# Elastic Constant Matrix: (Units=GPa)
#
#
# Indices 1 2 3 4 5 6 
#
# 1 154.2188 81.5574 15.7095 0.0000 0.0000 0.0000
# 2 81.5574 189.1562 18.0144 0.0000 0.0000 0.0000
# 3 15.7095 18.0144 23.4556 0.0000 0.0000 0.0000
# 4 0.0000 0.0000 0.0000 4.1259 0.0000 0.0000
# 5 0.0000 0.0000 0.0000 0.0000 4.4632 0.0000
# 6 0.0000 0.0000 0.0000 0.0000 0.0000 14.6613
#
#
#
# Elastic Compliance Matrix: (Units=1/GPa)
#
#
# Indices 1 2 3 4 5 6 
#
# 1 0.008609 -0.003413 -0.003145 0.000000 0.000000 0.000000
# 2 -0.003413 0.007056 -0.003134 0.000000 0.000000 0.000000
# 3 -0.003145 -0.003134 0.047147 0.000000 0.000000 0.000000
# 4 0.000000 0.000000 0.000000 0.242371 0.000000 0.000000
# 5 0.000000 0.000000 0.000000 0.000000 0.224055 0.000000
# 6 0.000000 0.000000 0.000000 0.000000 0.000000 0.068207
#
#
# Mechanical properties :
#
#
# Convention : Reuss Voigt Hill
#
# Bulk Modulus (GPa) = 23.02576 66.37699 44.70138
# Shear Modulus (GPa) = 7.92009 21.42004 14.67006
#
# Velocity S-wave (km/s) = 2.09926 3.45232 2.85705
# Velocity P-wave (km/s) = 4.32295 7.26807 5.97966
#
# Compressibility (1/GPa) = 0.04342962
#
# Stress axis : x y z
#
# Youngs Moduli (GPa) = 116.15264 141.71432 21.21013
#
# Poissons Ratio (x) = 0.48360 0.06671
# Poissons Ratio (y) = 0.39637 0.06647
# Poissons Ratio (z) = 0.36533 0.44413
#
# Static dielectric constant tensor:
#      x y z
#    x 3.507620 0.000000 0.000000 
#    y 0.000000 3.888280 0.000000 
#    z 0.000000 0.000000 2.719920 
# 
# 
# High freq. dielectric constant tensor:
#      x y z
#    x 1.702580 0.000000 0.000000 
#    y 0.000000 1.705200 0.000000 
#    z 0.000000 0.000000 1.637750 
# 
# From -- ./inp_files/6941.got.cif
#   From: 2010.03.12/outbox.cif.g09.slc.cpg/sg55_4_cif.got.tgz:6941.got - 2010.04.16 15:19:21.
