data_PCOD8227119
_publ_section_title
;
Structure prediction by ZEFSAII (Michael W. Deem and Ramdas Pophale) SiO2 
 PCOD8227119
Probable space group: P B A M
;
_chemical_formula_sum "Si O2"
_cell_formula_units_Z 64
_cell_length_a 27.532050
_cell_length_b 9.161104
_cell_length_c 12.924023
_cell_angle_alpha 90.000000
_cell_angle_beta 90.000000
_cell_angle_gamma 90.000000
_cell_volume 3259.748433
_symmetry_space_group_name_H-M "P B A M"
_symmetry_group_IT_number 55
_symmetry_cell_setting 'orthorhombic'
loop_
_space_group_symop_operation_xyz
x,y,z
-x,-y,z
1/2+x,1/2-y,-z
1/2-x,1/2+y,-z
-x,-y,-z
x,y,-z
1/2-x,1/2+y,z
1/2+x,1/2-y,z
loop_
_atom_site_type_symbol
_atom_site_label
_atom_site_fract_x
_atom_site_fract_y
_atom_site_fract_z
Si Si1 0.301718 0.092489 0.195056
Si Si2 0.524314 0.311482 0.384644
Si Si3 0.114048 0.072626 0.882282
Si Si4 0.555947 0.028618 0.687816
Si Si5 0.136161 0.680082 0.617717
Si Si6 0.284647 0.416285 0.881344
Si Si7 0.431279 0.414965 0.698346
Si Si8 0.390388 0.912904 0.883537
O O1 0.319741 0.118126 0.312930
O O2 0.289993 0.245620 0.141433
O O3 0.254146 0.990729 0.195607
O O4 0.341620 0.006007 0.128982
O O5 0.504780 0.280906 0.500000
O O6 0.564363 0.193976 0.349810
O O7 0.553345 0.463662 0.385100
O O8 0.478005 0.305404 0.304080
O O9 0.118987 0.243626 0.855705
O O10 0.165432 0.998968 0.861812
O O11 0.074722 0.990831 0.810230
O O12 0.096666 0.049359 0.000000
O O13 0.569105 0.016394 0.809085
O O14 0.500000 0.000000 0.664776
O O15 0.590278 0.927602 0.619065
O O16 0.154605 0.698248 0.500000
O O17 0.118265 0.835156 0.664142
O O18 0.267385 0.435321 0.000000
O O19 0.409633 0.929576 0.000000
#
# Coordination Sequence:
#
# PCOD8227119 Si02
#       8
#     8   8   8   8   8   8   8   8
#     4  11  23  39  63  91 119 152 196 243 289 357
#     4  11  22  36  60  86 116 157 210 256 292 337
#     4  10  21  38  61  88 120 155 191 242 300 357
#     4  11  22  36  57  85 117 155 203 252 289 347
#     4  11  23  40  62  86 122 162 199 244 297 345
#     4  11  21  37  62  92 118 148 189 237 293 350
#     4  11  20  38  58  88 119 155 201 248 293 348
#     4  10  21  39  58  82 119 159 194 240 300 355
#
# _framework density 19.633417000000001
#
# number of rings (size 3 to 8) (size 9 to 14) (size 15 to 20)
#    0.000    1.250    3.750    3.750    0.000    1.750 
#    0.000    2.500    0.000    0.000    0.000    0.000 
#    0.000    0.000    0.000    0.000    0.000    0.000 
#
# Total GULP energy -793506.809355 kJ/mol
# GULP energy per Si atom -12398.543896 kJ/mol
# Density = 1.958873 g / cm^3
# Si number density = 19.633417 Si / 1000 Ang^3
#
#
#
# Elastic Constant Matrix: (Units=GPa)
#
#
# Indices 1 2 3 4 5 6 
#
# 1 68.1494 22.6490 41.1317 0.0000 0.0000 0.0000
# 2 22.6490 71.4986 30.3597 0.0000 0.0000 0.0000
# 3 41.1317 30.3597 118.1143 0.0000 0.0000 0.0000
# 4 0.0000 0.0000 0.0000 27.1020 0.0000 0.0000
# 5 0.0000 0.0000 0.0000 0.0000 26.1046 0.0000
# 6 0.0000 0.0000 0.0000 0.0000 0.0000 37.7477
#
#
#
# Elastic Compliance Matrix: (Units=1/GPa)
#
#
# Indices 1 2 3 4 5 6 
#
# 1 0.019404 -0.003679 -0.005812 0.000000 0.000000 0.000000
# 2 -0.003679 0.016397 -0.002934 0.000000 0.000000 0.000000
# 3 -0.005812 -0.002934 0.011244 0.000000 0.000000 0.000000
# 4 0.000000 0.000000 0.000000 0.036898 0.000000 0.000000
# 5 0.000000 0.000000 0.000000 0.000000 0.038307 0.000000
# 6 0.000000 0.000000 0.000000 0.000000 0.000000 0.026492
#
#
# Mechanical properties :
#
#
# Convention : Reuss Voigt Hill
#
# Bulk Modulus (GPa) = 45.05055 49.56036 47.30545
# Shear Modulus (GPa) = 27.62591 29.09896 28.36244
#
# Velocity S-wave (km/s) = 3.75518 3.85400 3.80491
# Velocity P-wave (km/s) = 6.46510 6.71581 6.59165
#
# Compressibility (1/GPa) = 0.02219729
#
# Stress axis : x y z
#
# Youngs Moduli (GPa) = 51.53604 60.98549 88.93485
#
# Poissons Ratio (x) = 0.22437 0.51685
# Poissons Ratio (y) = 0.18960 0.26089
# Poissons Ratio (z) = 0.29950 0.17890
#
# Static dielectric constant tensor:
#      x y z
#    x 3.415450 0.000000 0.000000 
#    y 0.000000 3.957220 0.000000 
#    z 0.000000 0.000000 3.471370 
# 
# 
# High freq. dielectric constant tensor:
#      x y z
#    x 1.743260 0.000000 0.000000 
#    y 0.000000 1.788480 0.000000 
#    z 0.000000 0.000000 1.757860 
# 
# From -- ./inp_files/16238.got.cif
#   From: 2010.03.12/outbox.cif.g09.slc.cpg/sg55_9_cif.got.tgz:16238.got - 2010.04.16 15:19:21.
