data_PCOD8227002
_publ_section_title
;
Structure prediction by ZEFSAII (Michael W. Deem and Ramdas Pophale) SiO2 
 PCOD8227002
Probable space group: P B A M
;
_chemical_formula_sum "Si O2"
_cell_formula_units_Z 64
_cell_length_a 19.700096
_cell_length_b 9.883244
_cell_length_c 17.366632
_cell_angle_alpha 90.000000
_cell_angle_beta 90.000000
_cell_angle_gamma 90.000000
_cell_volume 3381.298109
_symmetry_space_group_name_H-M "P B A M"
_symmetry_group_IT_number 55
_symmetry_cell_setting 'orthorhombic'
loop_
_space_group_symop_operation_xyz
x,y,z
-x,-y,z
1/2+x,1/2-y,-z
1/2-x,1/2+y,-z
-x,-y,-z
x,y,-z
1/2-x,1/2+y,z
1/2+x,1/2-y,z
loop_
_atom_site_type_symbol
_atom_site_label
_atom_site_fract_x
_atom_site_fract_y
_atom_site_fract_z
Si Si1 0.750155 0.777045 0.318266
Si Si2 0.634475 0.163602 0.784955
Si Si3 0.048000 0.885257 0.589729
Si Si4 0.000837 0.350964 0.691481
Si Si5 0.201017 0.963119 0.409901
Si Si6 0.582708 0.654555 0.088768
Si Si7 0.128359 0.647424 0.211920
Si Si8 0.424899 0.653896 0.911404
O O1 0.797882 0.726553 0.250087
O O2 0.746539 0.663785 0.384651
O O3 0.676827 0.803211 0.280663
O O4 0.778521 0.909672 0.359013
O O5 0.575426 0.185555 0.722021
O O6 0.619867 0.242899 0.863048
O O7 0.646378 0.007376 0.808648
O O8 0.035980 0.870161 0.500000
O O9 0.024808 0.744696 0.624512
O O10 0.124122 0.925469 0.609700
O O11 0.000000 0.000000 0.625690
O O12 0.949639 0.344676 0.762729
O O13 0.000000 0.500000 0.654516
O O14 0.212710 0.993389 0.500000
O O15 0.631869 0.753199 0.138048
O O16 0.593372 0.498992 0.114469
O O17 0.503735 0.688554 0.101314
O O18 0.603027 0.674936 0.000000
O O19 0.405235 0.673774 0.000000
#
# Coordination Sequence:
#
# PCOD8227002 Si02
#       8
#     8   8   8   8   8   8   8   8
#     4  12  24  42  60  91 121 160 209 253 298 364
#     4  11  23  38  60  89 123 159 199 247 302 358
#     4  10  21  38  60  88 117 150 199 254 308 362
#     4  10  21  37  57  86 119 153 196 245 303 360
#     4  11  24  43  65  86 119 163 205 255 308 364
#     4   9  19  36  60  92 124 156 197 245 297 355
#     4  11  22  38  59  88 123 157 200 249 299 355
#     4   9  19  36  60  92 123 156 198 244 297 358
#
# _framework density 18.927641999999999
#
# number of rings (size 3 to 8) (size 9 to 14) (size 15 to 20)
#    0.000    1.625    3.750    1.875    1.750    1.750 
#    0.000    2.500    0.000    0.000    0.000    0.000 
#    0.000    0.000    0.000    0.000    0.000    0.000 
#
# Total GULP energy -793674.602862 kJ/mol
# GULP energy per Si atom -12401.165670 kJ/mol
# Density = 1.888456 g / cm^3
# Si number density = 18.927642 Si / 1000 Ang^3
#
#
#
# Elastic Constant Matrix: (Units=GPa)
#
#
# Indices 1 2 3 4 5 6 
#
# 1 50.9964 35.1738 32.6297 0.0000 0.0000 0.0000
# 2 35.1738 139.6256 68.1565 0.0000 0.0000 0.0000
# 3 32.6297 68.1565 82.0808 0.0000 0.0000 0.0000
# 4 0.0000 0.0000 0.0000 1306.2803 0.0000 0.0000
# 5 0.0000 0.0000 0.0000 0.0000 34.1863 0.0000
# 6 0.0000 0.0000 0.0000 0.0000 0.0000 23.7148
#
#
#
# Elastic Compliance Matrix: (Units=1/GPa)
#
#
# Indices 1 2 3 4 5 6 
#
# 1 0.026854 -0.002613 -0.008505 0.000000 0.000000 0.000000
# 2 -0.002613 0.012298 -0.009173 0.000000 0.000000 0.000000
# 3 -0.008505 -0.009173 0.023181 0.000000 0.000000 0.000000
# 4 0.000000 0.000000 0.000000 0.000766 0.000000 0.000000
# 5 0.000000 0.000000 0.000000 0.000000 0.029251 0.000000
# 6 0.000000 0.000000 0.000000 0.000000 0.000000 0.042168
#
#
# Mechanical properties :
#
#
# Convention : Reuss Voigt Hill
#
# Bulk Modulus (GPa) = 45.97712 60.51364 53.24538
# Shear Modulus (GPa) = 27.41978 281.95247 154.68613
#
# Velocity S-wave (km/s) = 3.81026 12.21829 9.04999
# Velocity P-wave (km/s) = 6.61069 15.20163 11.72157
#
# Compressibility (1/GPa) = 0.02174995
#
# Stress axis : x y z
#
# Youngs Moduli (GPa) = 37.23889 81.31449 43.13856
#
# Poissons Ratio (x) = 0.21248 0.36691
# Poissons Ratio (y) = 0.09731 0.39571
# Poissons Ratio (z) = 0.31673 0.74589
#
# Static dielectric constant tensor:
#      x y z
#    x 3.147300 0.000000 0.000000 
#    y 0.000000 2.673160 0.000000 
#    z 0.000000 0.000000 3.275800 
# 
# 
# High freq. dielectric constant tensor:
#      x y z
#    x 1.728980 0.000000 0.000000 
#    y 0.000000 1.750580 0.000000 
#    z 0.000000 0.000000 1.729480 
# 
# From -- ./inp_files/23071.got.cif
#   From: 2010.03.12/outbox.cif.g09.slc.cpg/sg55_12_cif.got.tgz:23071.got - 2010.04.16 15:19:21.
