data_PCOD8227031
_publ_section_title
;
Structure prediction by ZEFSAII (Michael W. Deem and Ramdas Pophale) SiO2 
 PCOD8227031
Probable space group: P B A M
;
_chemical_formula_sum "Si O2"
_cell_formula_units_Z 64
_cell_length_a 12.395912
_cell_length_b 29.368019
_cell_length_c 9.035602
_cell_angle_alpha 90.000000
_cell_angle_beta 90.000000
_cell_angle_gamma 90.000000
_cell_volume 3289.351085
_symmetry_space_group_name_H-M "P B A M"
_symmetry_group_IT_number 55
_symmetry_cell_setting 'orthorhombic'
loop_
_space_group_symop_operation_xyz
x,y,z
-x,-y,z
1/2+x,1/2-y,-z
1/2-x,1/2+y,-z
-x,-y,-z
x,y,-z
1/2-x,1/2+y,z
1/2+x,1/2-y,z
loop_
_atom_site_type_symbol
_atom_site_label
_atom_site_fract_x
_atom_site_fract_y
_atom_site_fract_z
Si Si1 0.125946 0.996636 0.174429
Si Si2 0.003459 0.552311 0.326248
Si Si3 0.755214 0.174226 0.831808
Si Si4 0.293080 0.678788 0.166151
Si Si5 0.722116 0.919565 0.825832
Si Si6 0.765056 0.581223 0.675642
Si Si7 0.605087 0.243364 0.669850
Si Si8 0.906275 0.255269 0.160189
O O1 0.191487 0.042002 0.220588
O O2 0.183653 0.955476 0.257425
O O3 0.133436 0.987705 0.000000
O O4 0.000000 0.000000 0.223094
O O5 0.020520 0.558332 0.500000
O O6 0.105120 0.575378 0.247813
O O7 0.000000 0.500000 0.278821
O O8 0.889577 0.573892 0.274416
O O9 0.773726 0.129815 0.733673
O O10 0.661318 0.204821 0.765164
O O11 0.863036 0.203937 0.826316
O O12 0.725378 0.160548 0.000000
O O13 0.272823 0.628172 0.227467
O O14 0.373888 0.705169 0.274602
O O15 0.183779 0.706749 0.166051
O O16 0.341829 0.676792 0.000000
O O17 0.701899 0.919431 0.000000
O O18 0.755703 0.578644 0.500000
O O19 0.637036 0.237865 0.500000
O O20 0.479443 0.234804 0.697840
O O21 0.966207 0.259295 0.000000
#
# Coordination Sequence:
#
# PCOD8227031 Si02
#       8
#     8   8   8   8   8   8   8   8
#     4  10  22  40  60  85 119 158 201 246 292 345
#     4  10  21  38  58  84 122 159 189 235 299 355
#     4  10  22  40  61  84 114 153 196 240 287 344
#     4   9  20  38  57  82 113 150 197 242 287 340
#     4  10  21  37  60  88 114 150 202 248 285 342
#     4  11  23  39  60  89 121 154 195 243 300 358
#     4  11  22  36  57  86 118 152 190 236 289 345
#     4   9  19  37  58  79 109 151 193 236 286 340
#
# _framework density 19.456724999999999
#
# number of rings (size 3 to 8) (size 9 to 14) (size 15 to 20)
#    0.000    2.000    1.250    2.625    1.750    5.500 
#    0.000    2.500    0.000    0.000    0.000    0.000 
#    0.000    0.000    0.000    0.000    0.000    0.000 
#
# Total GULP energy -793434.975432 kJ/mol
# GULP energy per Si atom -12397.421491 kJ/mol
# Density = 1.941244 g / cm^3
# Si number density = 19.456725 Si / 1000 Ang^3
#
#
#
# Elastic Constant Matrix: (Units=GPa)
#
#
# Indices 1 2 3 4 5 6 
#
# 1 88.4511 28.5416 36.5227 0.0000 0.0000 0.0000
# 2 28.5416 122.7059 19.1932 0.0000 0.0000 0.0000
# 3 36.5227 19.1932 50.6354 0.0000 0.0000 0.0000
# 4 0.0000 0.0000 0.0000 14.9673 0.0000 0.0000
# 5 0.0000 0.0000 0.0000 0.0000 25.3038 0.0000
# 6 0.0000 0.0000 0.0000 0.0000 0.0000 4.5393
#
#
#
# Elastic Compliance Matrix: (Units=1/GPa)
#
#
# Indices 1 2 3 4 5 6 
#
# 1 0.016601 -0.002114 -0.011173 0.000000 0.000000 0.000000
# 2 -0.002114 0.008932 -0.001861 0.000000 0.000000 0.000000
# 3 -0.011173 -0.001861 0.028513 0.000000 0.000000 0.000000
# 4 0.000000 0.000000 0.000000 0.066812 0.000000 0.000000
# 5 0.000000 0.000000 0.000000 0.000000 0.039520 0.000000
# 6 0.000000 0.000000 0.000000 0.000000 0.000000 0.220299
#
#
# Mechanical properties :
#
#
# Convention : Reuss Voigt Hill
#
# Bulk Modulus (GPa) = 42.10330 47.81195 44.95762
# Shear Modulus (GPa) = 11.93627 20.79773 16.36700
#
# Velocity S-wave (km/s) = 2.47954 3.27299 2.90349
# Velocity P-wave (km/s) = 5.46662 6.23779 5.86489
#
# Compressibility (1/GPa) = 0.02375111
#
# Stress axis : x y z
#
# Youngs Moduli (GPa) = 60.23626 111.95257 35.07115
#
# Poissons Ratio (x) = 0.23665 0.39185
# Poissons Ratio (y) = 0.12733 0.06527
# Poissons Ratio (z) = 0.67302 0.20835
#
# Static dielectric constant tensor:
#      x y z
#    x 3.535330 0.000000 0.000000 
#    y 0.000000 3.757500 0.000000 
#    z 0.000000 0.000000 3.509900 
# 
# 
# High freq. dielectric constant tensor:
#      x y z
#    x 1.756160 0.000000 0.000000 
#    y 0.000000 1.766250 0.000000 
#    z 0.000000 0.000000 1.752050 
# 
# From -- ./inp_files/4585.got.cif
#   From: 2010.03.12/outbox.cif.g09.slc.cpg/sg55_3_cif.got.tgz:4585.got - 2010.04.16 15:19:21.
