data_PCOD8227401
_publ_section_title
;
Structure prediction by ZEFSAII (Michael W. Deem and Ramdas Pophale) SiO2 
 PCOD8227401
Probable space group: P B A M
;
_chemical_formula_sum "Si O2"
_cell_formula_units_Z 64
_cell_length_a 9.812120
_cell_length_b 18.290429
_cell_length_c 18.569335
_cell_angle_alpha 90.000000
_cell_angle_beta 90.000000
_cell_angle_gamma 90.000000
_cell_volume 3332.599263
_symmetry_space_group_name_H-M "P B A M"
_symmetry_group_IT_number 55
_symmetry_cell_setting 'orthorhombic'
loop_
_space_group_symop_operation_xyz
x,y,z
-x,-y,z
1/2+x,1/2-y,-z
1/2-x,1/2+y,-z
-x,-y,-z
x,y,-z
1/2-x,1/2+y,z
1/2+x,1/2-y,z
loop_
_atom_site_type_symbol
_atom_site_label
_atom_site_fract_x
_atom_site_fract_y
_atom_site_fract_z
Si Si1 0.914559 0.566642 0.806415
Si Si2 0.262305 0.164749 0.414616
Si Si3 0.401001 0.432725 0.792499
Si Si4 0.612726 0.192889 0.081144
Si Si5 0.742107 0.666707 0.581210
Si Si6 0.001235 0.087370 0.639886
Si Si7 0.516819 0.084134 0.648095
Si Si8 0.580829 0.677967 0.081271
O O1 0.758063 0.544391 0.789073
O O2 0.924711 0.628955 0.865118
O O3 0.000000 0.500000 0.839977
O O4 0.994114 0.590997 0.734228
O O5 0.241837 0.155275 0.500000
O O6 0.255565 0.249632 0.390912
O O7 0.153408 0.117214 0.370324
O O8 0.408721 0.134702 0.391962
O O9 0.500000 0.500000 0.799758
O O10 0.443615 0.391458 0.719019
O O11 0.431523 0.387422 0.863522
O O12 0.529527 0.263262 0.105169
O O13 0.770742 0.214621 0.086353
O O14 0.573615 0.168554 0.000000
O O15 0.795855 0.665653 0.500000
O O16 0.591213 0.631888 0.583423
O O17 0.834964 0.613995 0.628505
O O18 0.000000 0.000000 0.626422
O O19 0.500000 0.000000 0.623139
O O20 0.553539 0.649009 0.000000
#
# Coordination Sequence:
#
# PCOD8227401 Si02
#       8
#     8   8   8   8   8   8   8   8
#     4  10  22  39  59  86 118 154 194 242 292 345
#     4  11  25  41  61  89 118 153 198 247 303 358
#     4  10  22  39  59  86 118 154 194 242 292 345
#     4   9  19  37  59  87 122 157 197 241 286 342
#     4  11  23  41  61  85 120 153 192 245 301 356
#     4  11  23  40  61  87 118 156 198 247 294 357
#     4  11  23  40  61  87 118 156 198 247 294 357
#     4   9  19  37  59  87 122 157 197 241 286 342
#
# _framework density 19.204228000000001
#
# number of rings (size 3 to 8) (size 9 to 14) (size 15 to 20)
#    0.000    1.750    1.250    2.250    5.250    8.500 
#    0.000    0.000    0.000    0.000    0.000    0.000 
#    0.000    0.000    0.000    0.000    0.000    0.000 
#
# Total GULP energy -793645.745811 kJ/mol
# GULP energy per Si atom -12400.714778 kJ/mol
# Density = 1.916052 g / cm^3
# Si number density = 19.204228 Si / 1000 Ang^3
#
#
#
# Elastic Constant Matrix: (Units=GPa)
#
#
# Indices 1 2 3 4 5 6 
#
# 1 74.2496 30.8944 32.6204 0.0000 0.0000 0.0000
# 2 30.8944 98.0523 38.8899 0.0000 0.0000 0.0000
# 3 32.6204 38.8899 71.9189 0.0000 0.0000 0.0000
# 4 0.0000 0.0000 0.0000 5.9829 0.0000 0.0000
# 5 0.0000 0.0000 0.0000 0.0000 30.1870 0.0000
# 6 0.0000 0.0000 0.0000 0.0000 0.0000 39.5809
#
#
#
# Elastic Compliance Matrix: (Units=1/GPa)
#
#
# Indices 1 2 3 4 5 6 
#
# 1 0.017491 -0.003010 -0.006306 0.000000 0.000000 0.000000
# 2 -0.003010 0.013501 -0.005935 0.000000 0.000000 0.000000
# 3 -0.006306 -0.005935 0.019974 0.000000 0.000000 0.000000
# 4 0.000000 0.000000 0.000000 0.167143 0.000000 0.000000
# 5 0.000000 0.000000 0.000000 0.000000 0.033127 0.000000
# 6 0.000000 0.000000 0.000000 0.000000 0.000000 0.025265
#
#
# Mechanical properties :
#
#
# Convention : Reuss Voigt Hill
#
# Bulk Modulus (GPa) = 48.86658 49.89223 49.37940
# Shear Modulus (GPa) = 15.93246 24.60456 20.26851
#
# Velocity S-wave (km/s) = 2.88346 3.58328 3.25225
# Velocity P-wave (km/s) = 6.04870 6.56933 6.31438
#
# Compressibility (1/GPa) = 0.02046389
#
# Stress axis : x y z
#
# Youngs Moduli (GPa) = 57.17280 74.06754 50.06454
#
# Poissons Ratio (x) = 0.22295 0.31569
# Poissons Ratio (y) = 0.17209 0.29716
# Poissons Ratio (z) = 0.36051 0.43962
#
# Static dielectric constant tensor:
#      x y z
#    x 3.612140 0.000000 0.000000 
#    y 0.000000 3.454980 0.000000 
#    z 0.000000 0.000000 3.730100 
# 
# 
# High freq. dielectric constant tensor:
#      x y z
#    x 1.761150 0.000000 0.000000 
#    y 0.000000 1.741530 0.000000 
#    z 0.000000 0.000000 1.753840 
# 
# From -- ./inp_files/21108.got.cif
#   From: 2010.03.12/outbox.cif.g09.slc.cpg/sg55_11_cif.got.tgz:21108.got - 2010.04.16 15:19:21.
