data_PCOD8227947
_publ_section_title
;
Structure prediction by ZEFSAII (Michael W. Deem and Ramdas Pophale) SiO2 
 PCOD8227947
Probable space group: P C C N
;
_chemical_formula_sum "Si O2"
_cell_formula_units_Z 60
_cell_length_a 14.528790
_cell_length_b 8.996532
_cell_length_c 23.793696
_cell_angle_alpha 90.000000
_cell_angle_beta 90.000000
_cell_angle_gamma 90.000000
_cell_volume 3110.043647
_symmetry_space_group_name_H-M "P C C N"
_symmetry_group_IT_number 56
_symmetry_cell_setting 'orthorhombic'
loop_
_space_group_symop_operation_xyz
x,y,z
1/2-x,1/2-y,z
1/2+x,-y,1/2-z
-x,1/2+y,1/2-z
-x,-y,-z
1/2+x,1/2+y,-z
1/2-x,y,1/2+z
x,1/2-y,1/2+z
loop_
_atom_site_type_symbol
_atom_site_label
_atom_site_fract_x
_atom_site_fract_y
_atom_site_fract_z
Si Si1 0.901488 0.008439 0.787148
Si Si2 0.449353 0.758912 0.905224
Si Si3 0.855209 0.241359 0.982662
Si Si4 0.403305 0.474613 0.091696
Si Si5 0.250000 0.250000 0.078864
Si Si6 0.110175 0.020897 0.584330
Si Si7 0.206530 0.909176 0.696906
Si Si8 0.559647 0.210879 0.720236
O O1 0.920283 0.066840 0.851073
O O2 0.955820 0.854298 0.777673
O O3 0.791119 0.992348 0.777838
O O4 0.947507 0.126828 0.746255
O O5 0.509370 0.620417 0.926118
O O6 0.510585 0.908308 0.904277
O O7 0.406282 0.727910 0.844088
O O8 0.368336 0.767080 0.950965
O O9 0.750000 0.250000 0.966473
O O10 0.909125 0.371907 0.950270
O O11 0.886882 0.080457 0.961187
O O12 0.319161 0.363681 0.110583
O O13 0.322273 0.135197 0.048421
O O14 0.159058 0.988145 0.643978
O O15 0.250000 0.750000 0.678551
O O16 0.132541 0.890902 0.746699
#
# Coordination Sequence:
#
# PCOD8227947 Si02
#       8
#     8   8   8   8   4   8   8   8
#     4  10  19  36  57  83 111 144 183 236 275 321
#     4  10  24  37  54  81 121 154 176 223 281 345
#     4  12  21  36  59  85 111 147 190 227 277 334
#     4  10  20  37  58  84 111 139 187 235 286 307
#     4  10  18  32  56  88 106 124 172 252 278 304
#     4  11  20  36  58  89 108 136 194 240 278 310
#     4  10  19  34  60  82 109 143 187 235 281 320
#     4  10  21  36  53  85 114 150 183 220 278 340
#
# _framework density 19.292332999999999
#
# number of rings (size 3 to 8) (size 9 to 14) (size 15 to 20)
#    0.000    1.600    2.667    3.600    0.000    1.600 
#    0.000    0.000    0.000    0.000    0.000    0.000 
#    0.000    0.000    0.000    0.000    0.000    0.000 
#
# Total GULP energy -743289.834116 kJ/mol
# GULP energy per Si atom -12388.163902 kJ/mol
# Density = 1.924842 g / cm^3
# Si number density = 19.292333 Si / 1000 Ang^3
#
#
#
# Elastic Constant Matrix: (Units=GPa)
#
#
# Indices 1 2 3 4 5 6 
#
# 1 48.8322 17.3176 27.4989 0.0000 0.0000 0.0000
# 2 17.3176 78.0121 43.8157 0.0000 0.0000 0.0000
# 3 27.4989 43.8157 106.9478 0.0000 0.0000 0.0000
# 4 0.0000 0.0000 0.0000 22.7395 0.0000 0.0000
# 5 0.0000 0.0000 0.0000 0.0000 30.1127 0.0000
# 6 0.0000 0.0000 0.0000 0.0000 0.0000 31.9635
#
#
#
# Elastic Compliance Matrix: (Units=1/GPa)
#
#
# Indices 1 2 3 4 5 6 
#
# 1 0.024300 -0.002448 -0.005245 0.000000 0.000000 0.000000
# 2 -0.002448 0.016896 -0.006293 0.000000 0.000000 0.000000
# 3 -0.005245 -0.006293 0.013277 0.000000 0.000000 0.000000
# 4 0.000000 0.000000 0.000000 0.043976 0.000000 0.000000
# 5 0.000000 0.000000 0.000000 0.000000 0.033209 0.000000
# 6 0.000000 0.000000 0.000000 0.000000 0.000000 0.031286
#
#
# Mechanical properties :
#
#
# Convention : Reuss Voigt Hill
#
# Bulk Modulus (GPa) = 37.73412 45.67294 41.70353
# Shear Modulus (GPa) = 25.03121 26.64046 25.83584
#
# Velocity S-wave (km/s) = 3.60595 3.72006 3.66345
# Velocity P-wave (km/s) = 6.07772 6.49440 6.28952
#
# Compressibility (1/GPa) = 0.02650122
#
# Stress axis : x y z
#
# Youngs Moduli (GPa) = 41.15177 59.18434 75.31764
#
# Poissons Ratio (x) = 0.14491 0.39505
# Poissons Ratio (y) = 0.10075 0.47396
# Poissons Ratio (z) = 0.21585 0.37243
#
# Static dielectric constant tensor:
#      x y z
#    x 3.598510 0.000000 0.000000 
#    y 0.000000 3.716290 0.000000 
#    z 0.000000 0.000000 3.291190 
# 
# 
# High freq. dielectric constant tensor:
#      x y z
#    x 1.748150 0.000000 0.000000 
#    y 0.000000 1.755540 0.000000 
#    z 0.000000 0.000000 1.727810 
# 
# From -- ./inp_files/21134.got.cif
#   From: 2010.03.12/outbox.cif.g09.slc.cpg/sg56_11_cif.got.tgz:21134.got - 2010.04.16 15:33:40.
