data_PCOD8227159
_publ_section_title
;
Structure prediction by ZEFSAII (Michael W. Deem and Ramdas Pophale) SiO2 
 PCOD8227159
Probable space group: P B A M
;
_chemical_formula_sum "Si O2"
_cell_formula_units_Z 64
_cell_length_a 9.134646
_cell_length_b 15.445589
_cell_length_c 21.738037
_cell_angle_alpha 90.000000
_cell_angle_beta 90.000000
_cell_angle_gamma 90.000000
_cell_volume 3067.019375
_symmetry_space_group_name_H-M "P B A M"
_symmetry_group_IT_number 55
_symmetry_cell_setting 'orthorhombic'
loop_
_space_group_symop_operation_xyz
x,y,z
-x,-y,z
1/2+x,1/2-y,-z
1/2-x,1/2+y,-z
-x,-y,-z
x,y,-z
1/2-x,1/2+y,z
1/2+x,1/2-y,z
loop_
_atom_site_type_symbol
_atom_site_label
_atom_site_fract_x
_atom_site_fract_y
_atom_site_fract_z
Si Si1 0.077892 0.589121 0.428611
Si Si2 0.668655 0.656451 0.069331
Si Si3 0.164714 0.599274 0.180930
Si Si4 0.328351 0.662268 0.069459
Si Si5 0.918736 0.914216 0.428158
Si Si6 0.036091 0.250060 0.352411
Si Si7 0.327731 0.906470 0.818777
Si Si8 0.287119 0.255771 0.734713
O O1 0.053633 0.612097 0.500000
O O2 0.004989 0.663491 0.388430
O O3 0.000000 0.500000 0.410792
O O4 0.247943 0.579024 0.412491
O O5 0.499113 0.670433 0.086086
O O6 0.753563 0.745529 0.077967
O O7 0.742459 0.589658 0.116269
O O8 0.686030 0.620469 0.000000
O O9 0.248193 0.597200 0.115693
O O10 0.179442 0.503170 0.209748
O O11 0.240695 0.669154 0.225560
O O12 0.994777 0.622973 0.170560
O O13 0.307413 0.627466 0.000000
O O14 0.947023 0.901676 0.500000
O O15 0.992177 0.832295 0.395389
O O16 0.000000 0.000000 0.403897
O O17 0.203894 0.253979 0.330819
O O18 0.954871 0.241569 0.286795
O O19 0.247781 0.841253 0.773012
#
# Coordination Sequence:
#
# PCOD8227159 Si02
#       8
#     8   8   8   8   8   8   8   8
#     4  10  23  43  69 101 135 172 213 263 323 380
#     4  10  21  38  64  95 126 163 208 262 324 385
#     4  11  25  44  65  92 128 167 215 265 326 384
#     4  10  21  38  64  95 127 163 207 263 323 386
#     4  10  23  43  68 102 137 169 213 266 320 379
#     4  12  25  44  68  94 130 175 218 266 313 383
#     4  11  25  44  66  91 126 171 212 268 324 383
#     4  12  26  44  64  92 128 172 222 265 315 373
#
# _framework density 20.867165
#
# number of rings (size 3 to 8) (size 9 to 14) (size 15 to 20)
#    0.000    1.250    3.750    1.125    3.500    4.500 
#    0.000    2.500    0.000    0.000    0.000    0.000 
#    0.000    0.000    0.000    0.000    0.000    0.000 
#
# Total GULP energy -793782.160004 kJ/mol
# GULP energy per Si atom -12402.846250 kJ/mol
# Density = 2.081967 g / cm^3
# Si number density = 20.867165 Si / 1000 Ang^3
#
#
#
# Elastic Constant Matrix: (Units=GPa)
#
#
# Indices 1 2 3 4 5 6 
#
# 1 89.3128 46.5312 42.8145 0.0000 0.0000 0.0000
# 2 46.5312 142.3973 63.8391 0.0000 0.0000 0.0000
# 3 42.8145 63.8391 92.4595 0.0000 0.0000 0.0000
# 4 0.0000 0.0000 0.0000 13.6627 0.0000 0.0000
# 5 0.0000 0.0000 0.0000 0.0000 41.6416 0.0000
# 6 0.0000 0.0000 0.0000 0.0000 0.0000 32.3855
#
#
#
# Elastic Compliance Matrix: (Units=1/GPa)
#
#
# Indices 1 2 3 4 5 6 
#
# 1 0.015024 -0.002593 -0.005167 0.000000 0.000000 0.000000
# 2 -0.002593 0.010619 -0.006131 0.000000 0.000000 0.000000
# 3 -0.005167 -0.006131 0.017441 0.000000 0.000000 0.000000
# 4 0.000000 0.000000 0.000000 0.073192 0.000000 0.000000
# 5 0.000000 0.000000 0.000000 0.000000 0.024014 0.000000
# 6 0.000000 0.000000 0.000000 0.000000 0.000000 0.030878
#
#
# Mechanical properties :
#
#
# Convention : Reuss Voigt Hill
#
# Bulk Modulus (GPa) = 65.34851 70.05992 67.70422
# Shear Modulus (GPa) = 24.50369 28.93695 26.72032
#
# Velocity S-wave (km/s) = 3.43048 3.72791 3.58228
# Velocity P-wave (km/s) = 6.86115 7.22336 7.04458
#
# Compressibility (1/GPa) = 0.01530257
#
# Stress axis : x y z
#
# Youngs Moduli (GPa) = 66.55804 94.17499 57.33567
#
# Poissons Ratio (x) = 0.24421 0.29624
# Poissons Ratio (y) = 0.17260 0.35151
# Poissons Ratio (z) = 0.34389 0.57737
#
# Static dielectric constant tensor:
#      x y z
#    x 3.902580 0.000000 0.000000 
#    y 0.000000 3.657690 0.000000 
#    z 0.000000 0.000000 3.782730 
# 
# 
# High freq. dielectric constant tensor:
#      x y z
#    x 1.828970 0.000000 0.000000 
#    y 0.000000 1.816580 0.000000 
#    z 0.000000 0.000000 1.818480 
# 
# From -- ./inp_files/23483.got.cif
#   From: 2010.03.12/outbox.cif.g09.slc.cpg/sg55_12_cif.got.tgz:23483.got - 2010.04.16 15:19:21.
