data_PCOD8227114
_publ_section_title
;
Structure prediction by ZEFSAII (Michael W. Deem and Ramdas Pophale) SiO2 
 PCOD8227114
Probable space group: P B A M
;
_chemical_formula_sum "Si O2"
_cell_formula_units_Z 36
_cell_length_a 9.075170
_cell_length_b 19.590203
_cell_length_c 9.487986
_cell_angle_alpha 90.000000
_cell_angle_beta 90.000000
_cell_angle_gamma 90.000000
_cell_volume 1686.816112
_symmetry_space_group_name_H-M "P B A M"
_symmetry_group_IT_number 55
_symmetry_cell_setting 'orthorhombic'
loop_
_space_group_symop_operation_xyz
x,y,z
-x,-y,z
1/2+x,1/2-y,-z
1/2-x,1/2+y,-z
-x,-y,-z
x,y,-z
1/2-x,1/2+y,z
1/2+x,1/2-y,z
loop_
_atom_site_type_symbol
_atom_site_label
_atom_site_fract_x
_atom_site_fract_y
_atom_site_fract_z
Si Si1 0.482022 0.644241 0.662563
Si Si2 0.225163 0.606682 0.844981
Si Si3 0.000000 0.500000 0.252914
Si Si4 0.307384 0.881007 0.345284
Si Si5 0.011241 0.282426 0.836491
O O1 0.443786 0.659743 0.500000
O O2 0.352174 0.597929 0.728376
O O3 0.634614 0.602853 0.678069
O O4 0.496661 0.713806 0.748620
O O5 0.144160 0.678932 0.818065
O O6 0.107503 0.545550 0.842599
O O7 0.297530 0.606716 0.000000
O O8 0.101849 0.451367 0.347446
O O9 0.329453 0.847075 0.500000
O O10 0.358698 0.829698 0.223922
O O11 0.046750 0.267321 0.000000
#
# Coordination Sequence:
#
# PCOD8227114 Si02
#       5
#     8   8   4   8   8
#     4  11  23  37  57  89 122 151 190 238 290 347
#     4  10  22  40  62  87 117 154 195 240 289 343
#     4  10  22  42  64  84 110 152 202 246 288 342
#     4  10  22  39  61  87 117 155 195 239 289 344
#     4  10  21  38  61  88 118 153 193 236 287 346
#
# _framework density 21.341982000000002
#
# number of rings (size 3 to 8) (size 9 to 14) (size 15 to 20)
#    0.000    1.778    0.000    3.333    0.000   12.444 
#    0.000    3.333    0.000    0.000    0.000    0.000 
#    0.000    0.000    0.000    0.000    0.000    0.000 
#
# Total GULP energy -446390.385543 kJ/mol
# GULP energy per Si atom -12399.732932 kJ/mol
# Density = 2.129341 g / cm^3
# Si number density = 21.341982 Si / 1000 Ang^3
#
#
#
# Elastic Constant Matrix: (Units=GPa)
#
#
# Indices 1 2 3 4 5 6 
#
# 1 140.1360 48.3902 82.1017 0.0000 0.0000 0.0000
# 2 48.3902 91.0434 39.0623 0.0000 0.0000 0.0000
# 3 82.1017 39.0623 168.7255 0.0000 0.0000 0.0000
# 4 0.0000 0.0000 0.0000 20.2065 0.0000 0.0000
# 5 0.0000 0.0000 0.0000 0.0000 35.8313 0.0000
# 6 0.0000 0.0000 0.0000 0.0000 0.0000 18.4549
#
#
#
# Elastic Compliance Matrix: (Units=1/GPa)
#
#
# Indices 1 2 3 4 5 6 
#
# 1 0.011154 -0.003997 -0.004502 0.000000 0.000000 0.000000
# 2 -0.003997 0.013627 -0.001210 0.000000 0.000000 0.000000
# 3 -0.004502 -0.001210 0.008398 0.000000 0.000000 0.000000
# 4 0.000000 0.000000 0.000000 0.049489 0.000000 0.000000
# 5 0.000000 0.000000 0.000000 0.000000 0.027909 0.000000
# 6 0.000000 0.000000 0.000000 0.000000 0.000000 0.054186
#
#
# Mechanical properties :
#
#
# Convention : Reuss Voigt Hill
#
# Bulk Modulus (GPa) = 72.66996 82.11258 77.39127
# Shear Modulus (GPa) = 26.48773 30.25527 28.37150
#
# Velocity S-wave (km/s) = 3.52676 3.76924 3.65001
# Velocity P-wave (km/s) = 7.12097 7.58295 7.35559
#
# Compressibility (1/GPa) = 0.01376084
#
# Stress axis : x y z
#
# Youngs Moduli (GPa) = 89.65692 73.38258 119.08083
#
# Poissons Ratio (x) = 0.29328 0.53611
# Poissons Ratio (y) = 0.35832 0.14411
# Poissons Ratio (z) = 0.40364 0.08880
#
# Static dielectric constant tensor:
#      x y z
#    x 4.013310 0.000000 0.000000 
#    y 0.000000 3.716830 0.000000 
#    z 0.000000 0.000000 3.936160 
# 
# 
# High freq. dielectric constant tensor:
#      x y z
#    x 1.844670 0.000000 0.000000 
#    y 0.000000 1.822270 0.000000 
#    z 0.000000 0.000000 1.845770 
# 
# From -- ./inp_files/2132.got.cif
#   From: 2010.03.12/outbox.cif.g09.slc.cpg/sg55_2_cif.got.tgz:2132.got - 2010.04.16 15:19:21.
