data_PCOD8227148
_publ_section_title
;
Structure prediction by ZEFSAII (Michael W. Deem and Ramdas Pophale) SiO2 
 PCOD8227148
Probable space group: P B A M
;
_chemical_formula_sum "Si O2"
_cell_formula_units_Z 48
_cell_length_a 20.099867
_cell_length_b 13.928289
_cell_length_c 8.562460
_cell_angle_alpha 90.000000
_cell_angle_beta 90.000000
_cell_angle_gamma 90.000000
_cell_volume 2397.118529
_symmetry_space_group_name_H-M "P B A M"
_symmetry_group_IT_number 55
_symmetry_cell_setting 'orthorhombic'
loop_
_space_group_symop_operation_xyz
x,y,z
-x,-y,z
1/2+x,1/2-y,-z
1/2-x,1/2+y,-z
-x,-y,-z
x,y,-z
1/2-x,1/2+y,z
1/2+x,1/2-y,z
loop_
_atom_site_type_symbol
_atom_site_label
_atom_site_fract_x
_atom_site_fract_y
_atom_site_fract_z
Si Si1 0.063737 0.441724 0.817871
Si Si2 0.816557 0.057632 0.321872
Si Si3 0.698623 0.952735 0.176744
Si Si4 0.114435 0.249547 0.682129
Si Si5 0.565722 0.444825 0.818204
Si Si6 0.260605 0.259416 0.821897
O O1 0.125798 0.510115 0.782428
O O2 0.070309 0.341653 0.726471
O O3 0.000000 0.500000 0.755755
O O4 0.056490 0.417235 0.000000
O O5 0.839970 0.047348 0.500000
O O6 0.748649 0.999701 0.298558
O O7 0.872551 0.015220 0.209649
O O8 0.802485 0.167969 0.283244
O O9 0.700034 0.839148 0.197538
O O10 0.718961 0.981656 0.000000
O O11 0.130370 0.250188 0.500000
O O12 0.073305 0.154111 0.724056
O O13 0.184068 0.250268 0.772688
O O14 0.500000 0.500000 0.760062
O O15 0.561381 0.418996 0.000000
O O16 0.260597 0.295630 0.000000
#
# Coordination Sequence:
#
# PCOD8227148 Si02
#       6
#     8   8   8   8   8   8
#     4  10  22  41  65  93 127 169 215 259 310 377
#     4  12  24  38  62  95 129 163 206 263 322 373
#     4  10  21  38  63  90 121 165 214 262 305 367
#     4  12  24  39  63  95 129 166 207 260 328 380
#     4  11  25  45  68  92 124 170 218 261 312 383
#     4  11  22  38  63  92 126 169 220 263 308 375
#
# _framework density 20.024041
#
# number of rings (size 3 to 8) (size 9 to 14) (size 15 to 20)
#    0.000    1.000    3.333    4.000    0.000    3.667 
#    0.000    3.333    0.000    0.000    0.000    0.000 
#    0.000    0.000    0.000    0.000    0.000    0.000 
#
# Total GULP energy -595488.952684 kJ/mol
# GULP energy per Si atom -12406.019848 kJ/mol
# Density = 1.997847 g / cm^3
# Si number density = 20.024041 Si / 1000 Ang^3
#
#
#
# Elastic Constant Matrix: (Units=GPa)
#
#
# Indices 1 2 3 4 5 6 
#
# 1 111.9447 60.4040 17.3752 0.0000 0.0000 0.0000
# 2 60.4040 135.4230 22.3201 0.0000 0.0000 0.0000
# 3 17.3752 22.3201 65.9370 0.0000 0.0000 0.0000
# 4 0.0000 0.0000 0.0000 24.9495 0.0000 0.0000
# 5 0.0000 0.0000 0.0000 0.0000 23.8619 0.0000
# 6 0.0000 0.0000 0.0000 0.0000 0.0000 32.3788
#
#
#
# Elastic Compliance Matrix: (Units=1/GPa)
#
#
# Indices 1 2 3 4 5 6 
#
# 1 0.011888 -0.005069 -0.001417 0.000000 0.000000 0.000000
# 2 -0.005069 0.009982 -0.002043 0.000000 0.000000 0.000000
# 3 -0.001417 -0.002043 0.016231 0.000000 0.000000 0.000000
# 4 0.000000 0.000000 0.000000 0.040081 0.000000 0.000000
# 5 0.000000 0.000000 0.000000 0.000000 0.041908 0.000000
# 6 0.000000 0.000000 0.000000 0.000000 0.000000 0.030884
#
#
# Mechanical properties :
#
#
# Convention : Reuss Voigt Hill
#
# Bulk Modulus (GPa) = 47.52166 57.05594 52.28880
# Shear Modulus (GPa) = 28.56382 30.45174 29.50778
#
# Velocity S-wave (km/s) = 3.78097 3.90392 3.84294
# Velocity P-wave (km/s) = 6.54559 6.99116 6.77204
#
# Compressibility (1/GPa) = 0.02104303
#
# Stress axis : x y z
#
# Youngs Moduli (GPa) = 84.11794 100.18010 61.61058
#
# Poissons Ratio (x) = 0.50782 0.08729
# Poissons Ratio (y) = 0.42640 0.12588
# Poissons Ratio (z) = 0.11917 0.20469
#
# Static dielectric constant tensor:
#      x y z
#    x 5.071500 0.000000 0.000000 
#    y 0.000000 3.833640 0.000000 
#    z 0.000000 0.000000 3.603100 
# 
# 
# High freq. dielectric constant tensor:
#      x y z
#    x 1.775680 0.000000 0.000000 
#    y 0.000000 1.798580 0.000000 
#    z 0.000000 0.000000 1.780890 
# 
# From -- ./inp_files/5816.got.cif
#   From: 2010.03.12/outbox.cif.g09.slc.cpg/sg55_3_cif.got.tgz:5816.got - 2010.04.16 15:19:21.
