data_PCOD8227502
_publ_section_title
;
Structure prediction by ZEFSAII (Michael W. Deem and Ramdas Pophale) SiO2 
 PCOD8227502
Probable space group: P B A M
;
_chemical_formula_sum "Si O2"
_cell_formula_units_Z 48
_cell_length_a 25.302399
_cell_length_b 8.879262
_cell_length_c 9.470660
_cell_angle_alpha 90.000000
_cell_angle_beta 90.000000
_cell_angle_gamma 90.000000
_cell_volume 2127.741266
_symmetry_space_group_name_H-M "P B A M"
_symmetry_group_IT_number 55
_symmetry_cell_setting 'orthorhombic'
loop_
_space_group_symop_operation_xyz
x,y,z
-x,-y,z
1/2+x,1/2-y,-z
1/2-x,1/2+y,-z
-x,-y,-z
x,y,-z
1/2-x,1/2+y,z
1/2+x,1/2-y,z
loop_
_atom_site_type_symbol
_atom_site_label
_atom_site_fract_x
_atom_site_fract_y
_atom_site_fract_z
Si Si1 0.735990 0.656507 0.164148
Si Si2 0.300360 0.058240 0.340685
Si Si3 0.942518 0.553479 0.000000
Si Si4 0.446109 0.595312 0.000000
Si Si5 0.874095 0.042376 0.221632
Si Si6 0.016296 0.746854 0.500000
Si Si7 0.918182 0.947645 0.500000
Si Si8 0.412229 0.129024 0.732845
O O1 0.720655 0.807095 0.244481
O O2 0.785110 0.590338 0.252326
O O3 0.686514 0.540387 0.170150
O O4 0.751365 0.686849 0.000000
O O5 0.276047 0.057854 0.500000
O O6 0.363456 0.070518 0.361373
O O7 0.915379 0.491057 0.141215
O O8 0.000000 0.500000 0.000000
O O9 0.953502 0.728810 0.000000
O O10 0.500000 0.500000 0.000000
O O11 0.411861 0.563673 0.135330
O O12 0.897764 0.208809 0.204656
O O13 0.877223 0.962860 0.372748
O O14 0.034310 0.648726 0.362485
O O15 0.953522 0.791783 0.500000
O O16 0.044932 0.906432 0.500000
#
# Coordination Sequence:
#
# PCOD8227502 Si02
#       8
#     8   8   4   4   8   4   4   8
#     4  11  24  42  68 100 139 182 232 290 354 424
#     4  11  24  43  72 101 138 188 234 287 354 426
#     4  12  28  42  65  98 137 178 221 276 345 416
#     4  12  26  44  67  94 129 176 225 282 337 408
#     4  10  22  41  67  98 129 170 230 277 346 411
#     4   9  18  38  65  97 131 171 226 275 343 413
#     4   9  20  32  66 100 125 172 222 283 333 409
#     4  10  22  43  69  97 135 174 226 284 349 419
#
# _framework density 22.559132000000002
#
# number of rings (size 3 to 8) (size 9 to 14) (size 15 to 20)
#    0.000    1.500    1.667    2.500   16.333    1.333 
#    0.000    1.250    0.000    0.000    0.000    0.000 
#    0.000    0.000    0.000    0.000    0.000    0.000 
#
# Total GULP energy -594791.359867 kJ/mol
# GULP energy per Si atom -12391.486664 kJ/mol
# Density = 2.250779 g / cm^3
# Si number density = 22.559132 Si / 1000 Ang^3
#
#
#
# Elastic Constant Matrix: (Units=GPa)
#
#
# Indices 1 2 3 4 5 6 
#
# 1 40.0602 25.0795 15.5344 0.0000 0.0000 0.0000
# 2 25.0795 87.7503 47.8387 0.0000 0.0000 0.0000
# 3 15.5344 47.8387 177.7813 0.0000 0.0000 0.0000
# 4 0.0000 0.0000 0.0000 7.6824 0.0000 0.0000
# 5 0.0000 0.0000 0.0000 0.0000 34.1652 0.0000
# 6 0.0000 0.0000 0.0000 0.0000 0.0000 31.8844
#
#
#
# Elastic Compliance Matrix: (Units=1/GPa)
#
#
# Indices 1 2 3 4 5 6 
#
# 1 0.030423 -0.008492 -0.000373 0.000000 0.000000 0.000000
# 2 -0.008492 0.015725 -0.003489 0.000000 0.000000 0.000000
# 3 -0.000373 -0.003489 0.006596 0.000000 0.000000 0.000000
# 4 0.000000 0.000000 0.000000 0.130168 0.000000 0.000000
# 5 0.000000 0.000000 0.000000 0.000000 0.029270 0.000000
# 6 0.000000 0.000000 0.000000 0.000000 0.000000 0.031363
#
#
# Mechanical properties :
#
#
# Convention : Reuss Voigt Hill
#
# Bulk Modulus (GPa) = 35.66823 53.61079 44.63951
# Shear Modulus (GPa) = 18.01154 29.22236 23.61695
#
# Velocity S-wave (km/s) = 2.82869 3.60303 3.23908
# Velocity P-wave (km/s) = 5.14917 6.41289 5.81546
#
# Compressibility (1/GPa) = 0.02803616
#
# Stress axis : x y z
#
# Youngs Moduli (GPa) = 32.86950 63.59193 151.59576
#
# Poissons Ratio (x) = 0.54000 0.05660
# Poissons Ratio (y) = 0.27911 0.52899
# Poissons Ratio (z) = 0.01227 0.22190
#
# Static dielectric constant tensor:
#      x y z
#    x 4.201410 0.000000 0.000000 
#    y 0.000000 3.906390 0.000000 
#    z 0.000000 0.000000 4.041100 
# 
# 
# High freq. dielectric constant tensor:
#      x y z
#    x 1.882030 0.000000 0.000000 
#    y 0.000000 1.879330 0.000000 
#    z 0.000000 0.000000 1.904310 
# 
# From -- ./inp_files/10594.got.cif
#   From: 2010.03.12/outbox.cif.g09.slc.cpg/sg55_6_cif.got.tgz:10594.got - 2010.04.16 15:19:21.
