data_PCOD8227327
_publ_section_title
;
Structure prediction by ZEFSAII (Michael W. Deem and Ramdas Pophale) SiO2 
 PCOD8227327
Probable space group: P B A M
;
_chemical_formula_sum "Si O2"
_cell_formula_units_Z 40
_cell_length_a 11.163785
_cell_length_b 13.211455
_cell_length_c 12.951359
_cell_angle_alpha 90.000000
_cell_angle_beta 90.000000
_cell_angle_gamma 90.000000
_cell_volume 1910.193908
_symmetry_space_group_name_H-M "P B A M"
_symmetry_group_IT_number 55
_symmetry_cell_setting 'orthorhombic'
loop_
_space_group_symop_operation_xyz
x,y,z
-x,-y,z
1/2+x,1/2-y,-z
1/2-x,1/2+y,-z
-x,-y,-z
x,y,-z
1/2-x,1/2+y,z
1/2+x,1/2-y,z
loop_
_atom_site_type_symbol
_atom_site_label
_atom_site_fract_x
_atom_site_fract_y
_atom_site_fract_z
Si Si1 0.736832 0.876049 0.253808
Si Si2 0.958484 0.312327 0.882821
Si Si3 0.692375 0.690009 0.619020
Si Si4 0.005439 0.886143 0.776919
Si Si5 0.895596 0.570397 0.291330
O O1 0.678183 0.842598 0.144587
O O2 0.676502 0.806214 0.343287
O O3 0.875688 0.853539 0.262715
O O4 0.712483 0.994885 0.263810
O O5 0.964008 0.191087 0.869030
O O6 0.050288 0.373638 0.809061
O O7 0.988442 0.341652 0.000000
O O8 0.657638 0.682856 0.500000
O O9 0.598350 0.621460 0.682244
O O10 0.830620 0.651957 0.634811
O O11 0.000000 0.000000 0.821252
O O12 0.000000 0.500000 0.343419
#
# Coordination Sequence:
#
# PCOD8227327 Si02
#       5
#     8   8   8   8   8
#     4  10  22  42  62  92 129 164 210 266 314 372
#     4  10  23  43  68  93 124 171 216 259 317 380
#     4  11  24  41  64  94 130 172 213 260 317 377
#     4  11  22  42  65  93 136 166 205 266 319 377
#     4  10  21  42  66  92 127 167 217 266 306 376
#
# _framework density 20.940282
#
# number of rings (size 3 to 8) (size 9 to 14) (size 15 to 20)
#    0.000    1.600    4.000    0.000    0.000    7.200 
#    0.000    0.000    0.000    0.000    0.000    0.000 
#    0.000    0.000    0.000    0.000    0.000    0.000 
#
# Total GULP energy -495656.731936 kJ/mol
# GULP energy per Si atom -12391.418298 kJ/mol
# Density = 2.089262 g / cm^3
# Si number density = 20.940282 Si / 1000 Ang^3
#
#
#
# Elastic Constant Matrix: (Units=GPa)
#
#
# Indices 1 2 3 4 5 6 
#
# 1 103.7812 16.3157 33.4640 0.0000 0.0000 0.0000
# 2 16.3157 125.9077 29.4112 0.0000 0.0000 0.0000
# 3 33.4640 29.4112 92.5195 0.0000 0.0000 0.0000
# 4 0.0000 0.0000 0.0000 11.4320 0.0000 0.0000
# 5 0.0000 0.0000 0.0000 0.0000 22.6494 0.0000
# 6 0.0000 0.0000 0.0000 0.0000 0.0000 26.8300
#
#
#
# Elastic Compliance Matrix: (Units=1/GPa)
#
#
# Indices 1 2 3 4 5 6 
#
# 1 0.010941 -0.000533 -0.003788 0.000000 0.000000 0.000000
# 2 -0.000533 0.008605 -0.002543 0.000000 0.000000 0.000000
# 3 -0.003788 -0.002543 0.012987 0.000000 0.000000 0.000000
# 4 0.000000 0.000000 0.000000 0.087474 0.000000 0.000000
# 5 0.000000 0.000000 0.000000 0.000000 0.044151 0.000000
# 6 0.000000 0.000000 0.000000 0.000000 0.000000 0.037272
#
#
# Mechanical properties :
#
#
# Convention : Reuss Voigt Hill
#
# Bulk Modulus (GPa) = 53.17475 53.39890 53.28683
# Shear Modulus (GPa) = 22.58092 28.38345 25.48218
#
# Velocity S-wave (km/s) = 3.28738 3.68563 3.49219
# Velocity P-wave (km/s) = 6.31331 6.60816 6.46242
#
# Compressibility (1/GPa) = 0.01880592
#
# Stress axis : x y z
#
# Youngs Moduli (GPa) = 91.40081 116.20649 77.00057
#
# Poissons Ratio (x) = 0.06193 0.29167
# Poissons Ratio (y) = 0.04871 0.19580
# Poissons Ratio (z) = 0.34621 0.29549
#
# Static dielectric constant tensor:
#      x y z
#    x 4.004770 0.000000 0.000000 
#    y 0.000000 4.148780 0.000000 
#    z 0.000000 0.000000 3.225700 
# 
# 
# High freq. dielectric constant tensor:
#      x y z
#    x 1.834430 0.000000 0.000000 
#    y 0.000000 1.845870 0.000000 
#    z 0.000000 0.000000 1.766000 
# 
# From -- ./inp_files/13011.got.cif
#   From: 2010.03.12/outbox.cif.g09.slc.cpg/sg55_7_cif.got.tgz:13011.got - 2010.04.16 15:19:21.
