data_PCOD8227123
_publ_section_title
;
Structure prediction by ZEFSAII (Michael W. Deem and Ramdas Pophale) SiO2 
 PCOD8227123
Probable space group: P B A M
;
_chemical_formula_sum "Si O2"
_cell_formula_units_Z 64
_cell_length_a 12.437412
_cell_length_b 18.174678
_cell_length_c 13.815195
_cell_angle_alpha 90.000000
_cell_angle_beta 90.000000
_cell_angle_gamma 90.000000
_cell_volume 3122.868992
_symmetry_space_group_name_H-M "P B A M"
_symmetry_group_IT_number 55
_symmetry_cell_setting 'orthorhombic'
loop_
_space_group_symop_operation_xyz
x,y,z
-x,-y,z
1/2+x,1/2-y,-z
1/2-x,1/2+y,-z
-x,-y,-z
x,y,-z
1/2-x,1/2+y,z
1/2+x,1/2-y,z
loop_
_atom_site_type_symbol
_atom_site_label
_atom_site_fract_x
_atom_site_fract_y
_atom_site_fract_z
Si Si1 0.079616 0.439224 0.793765
Si Si2 0.691599 0.187130 0.112515
Si Si3 0.596174 0.636734 0.215965
Si Si4 0.804854 0.988007 0.769749
Si Si5 0.383428 0.648902 0.889763
Si Si6 0.734213 0.385142 0.388406
Si Si7 0.472912 0.702686 0.389233
Si Si8 0.979172 0.368659 0.388946
O O1 0.088414 0.362850 0.854565
O O2 0.195636 0.474692 0.802163
O O3 0.000000 0.500000 0.841021
O O4 0.040096 0.423975 0.683555
O O5 0.791934 0.170153 0.181346
O O6 0.669351 0.272475 0.129807
O O7 0.716798 0.170452 0.000000
O O8 0.600597 0.547774 0.221659
O O9 0.507620 0.657248 0.137385
O O10 0.564818 0.667684 0.321642
O O11 0.823842 0.914431 0.830845
O O12 0.794766 0.963123 0.658966
O O13 0.374301 0.625009 0.000000
O O14 0.727047 0.400706 0.500000
O O15 0.645532 0.324684 0.356893
O O16 0.854028 0.359819 0.358547
O O17 0.500922 0.681007 0.500000
O O18 0.466329 0.789772 0.377124
O O19 0.990756 0.397367 0.500000
#
# Coordination Sequence:
#
# PCOD8227123 Si02
#       8
#     8   8   8   8   8   8   8   8
#     4  11  23  40  65  95 129 165 210 264 324 382
#     4  10  25  45  65  94 124 164 217 270 322 382
#     4  11  23  40  67  91 129 167 207 266 320 385
#     4  11  24  38  59  96 125 163 212 260 320 373
#     4  11  24  43  67  91 122 168 219 265 324 387
#     4  10  21  38  61  89 128 168 211 260 307 373
#     4  10  22  38  63  98 131 169 213 261 319 377
#     4  10  22  40  65  94 131 175 217 260 314 383
#
# _framework density 20.493974999999999
#
# number of rings (size 3 to 8) (size 9 to 14) (size 15 to 20)
#    0.000    1.500    2.500    1.500    1.750    6.500 
#    0.000    5.625    0.000    0.000    0.000    0.000 
#    0.000    0.000    0.000    0.000    0.000    0.000 
#
# Total GULP energy -793524.867227 kJ/mol
# GULP energy per Si atom -12398.826050 kJ/mol
# Density = 2.044733 g / cm^3
# Si number density = 20.493975 Si / 1000 Ang^3
#
#
#
# Elastic Constant Matrix: (Units=GPa)
#
#
# Indices 1 2 3 4 5 6 
#
# 1 77.2666 21.2468 25.3429 0.0000 0.0000 0.0000
# 2 21.2468 86.3118 31.4064 0.0000 0.0000 0.0000
# 3 25.3429 31.4064 54.3666 0.0000 0.0000 0.0000
# 4 0.0000 0.0000 0.0000 24.8658 0.0000 0.0000
# 5 0.0000 0.0000 0.0000 0.0000 32.0832 0.0000
# 6 0.0000 0.0000 0.0000 0.0000 0.0000 27.4664
#
#
#
# Elastic Compliance Matrix: (Units=1/GPa)
#
#
# Indices 1 2 3 4 5 6 
#
# 1 0.015429 -0.001495 -0.006328 0.000000 0.000000 0.000000
# 2 -0.001495 0.014814 -0.007861 0.000000 0.000000 0.000000
# 3 -0.006328 -0.007861 0.025885 0.000000 0.000000 0.000000
# 4 0.000000 0.000000 0.000000 0.040216 0.000000 0.000000
# 5 0.000000 0.000000 0.000000 0.000000 0.031169 0.000000
# 6 0.000000 0.000000 0.000000 0.000000 0.000000 0.036408
#
#
# Mechanical properties :
#
#
# Convention : Reuss Voigt Hill
#
# Bulk Modulus (GPa) = 40.38962 41.54859 40.96911
# Shear Modulus (GPa) = 24.56481 26.21303 25.38892
#
# Velocity S-wave (km/s) = 3.46589 3.58027 3.52355
# Velocity P-wave (km/s) = 5.98058 6.11627 6.04880
#
# Compressibility (1/GPa) = 0.02475883
#
# Stress axis : x y z
#
# Youngs Moduli (GPa) = 64.81269 67.50215 38.63285
#
# Poissons Ratio (x) = 0.10094 0.24449
# Poissons Ratio (y) = 0.09692 0.30369
# Poissons Ratio (z) = 0.41016 0.53063
#
# Static dielectric constant tensor:
#      x y z
#    x 3.796350 0.000000 0.000000 
#    y 0.000000 3.955280 0.000000 
#    z 0.000000 0.000000 3.832120 
# 
# 
# High freq. dielectric constant tensor:
#      x y z
#    x 1.802450 0.000000 0.000000 
#    y 0.000000 1.812400 0.000000 
#    z 0.000000 0.000000 1.803420 
# 
# From -- ./inp_files/18552.got.cif
#   From: 2010.03.12/outbox.cif.g09.slc.cpg/sg55_10_cif.got.tgz:18552.got - 2010.04.16 15:19:21.
