data_PCOD8227806
_publ_section_title
;
Structure prediction by ZEFSAII (Michael W. Deem and Ramdas Pophale) SiO2 
 PCOD8227806
Probable space group: P B A M
;
_chemical_formula_sum "Si O2"
_cell_formula_units_Z 40
_cell_length_a 17.624808
_cell_length_b 9.697713
_cell_length_c 11.004647
_cell_angle_alpha 90.000000
_cell_angle_beta 90.000000
_cell_angle_gamma 90.000000
_cell_volume 1880.917893
_symmetry_space_group_name_H-M "P B A M"
_symmetry_group_IT_number 55
_symmetry_cell_setting 'orthorhombic'
loop_
_space_group_symop_operation_xyz
x,y,z
-x,-y,z
1/2+x,1/2-y,-z
1/2-x,1/2+y,-z
-x,-y,-z
x,y,-z
1/2-x,1/2+y,z
1/2+x,1/2-y,z
loop_
_atom_site_type_symbol
_atom_site_label
_atom_site_fract_x
_atom_site_fract_y
_atom_site_fract_z
Si Si1 0.204178 0.284813 0.500000
Si Si2 0.326430 0.705483 0.761081
Si Si3 0.720149 0.015960 0.860411
Si Si4 0.510195 0.344070 0.858014
Si Si5 0.343230 0.090616 0.500000
Si Si6 0.927828 0.402828 0.248954
O O1 0.158824 0.231946 0.381621
O O2 0.289210 0.224205 0.500000
O O3 0.207247 0.451221 0.500000
O O4 0.274725 0.826154 0.817824
O O5 0.280819 0.564211 0.777851
O O6 0.405269 0.705631 0.830912
O O7 0.635896 0.957283 0.842944
O O8 0.744719 0.003119 0.000000
O O9 0.500000 0.500000 0.812763
O O10 0.449454 0.252794 0.785770
O O11 0.493467 0.329167 0.000000
O O12 0.397858 0.094355 0.614817
O O13 0.000000 0.500000 0.234447
#
# Coordination Sequence:
#
# PCOD8227806 Si02
#       6
#     4   8   8   8   4   8
#     4  12  22  46  69 101 140 177 234 289 339 413
#     4  12  25  45  69 101 135 184 231 287 347 410
#     4  12  25  42  69 102 138 180 232 286 346 417
#     4  11  26  46  68  99 142 182 230 291 352 417
#     4  12  25  44  71 103 140 183 233 289 345 420
#     4  12  24  44  70 102 137 184 234 281 352 415
#
# _framework density 21.266213
#
# number of rings (size 3 to 8) (size 9 to 14) (size 15 to 20)
#    0.000    0.200    6.000    2.700    2.800    3.200 
#    0.000    1.000    0.000    0.000    0.000    0.000 
#    0.000    0.000    0.000    0.000    0.000    0.000 
#
# Total GULP energy -496321.569739 kJ/mol
# GULP energy per Si atom -12408.039243 kJ/mol
# Density = 2.121781 g / cm^3
# Si number density = 21.266213 Si / 1000 Ang^3
#
#
#
# Elastic Constant Matrix: (Units=GPa)
#
#
# Indices 1 2 3 4 5 6 
#
# 1 40.4072 1.0069 9.4682 0.0000 0.0000 0.0000
# 2 1.0069 102.3159 48.3767 0.0000 0.0000 0.0000
# 3 9.4682 48.3767 121.1264 0.0000 0.0000 0.0000
# 4 0.0000 0.0000 0.0000 28.7354 0.0000 0.0000
# 5 0.0000 0.0000 0.0000 0.0000 38.2879 0.0000
# 6 0.0000 0.0000 0.0000 0.0000 0.0000 43.7978
#
#
#
# Elastic Compliance Matrix: (Units=1/GPa)
#
#
# Indices 1 2 3 4 5 6 
#
# 1 0.025269 0.000845 -0.002313 0.000000 0.000000 0.000000
# 2 0.000845 0.012077 -0.004890 0.000000 0.000000 0.000000
# 3 -0.002313 -0.004890 0.010389 0.000000 0.000000 0.000000
# 4 0.000000 0.000000 0.000000 0.034800 0.000000 0.000000
# 5 0.000000 0.000000 0.000000 0.000000 0.026118 0.000000
# 6 0.000000 0.000000 0.000000 0.000000 0.000000 0.022832
#
#
# Mechanical properties :
#
#
# Convention : Reuss Voigt Hill
#
# Bulk Modulus (GPa) = 28.55451 42.39481 35.47466
# Shear Modulus (GPa) = 32.07710 35.83071 33.95391
#
# Velocity S-wave (km/s) = 3.88797 4.10916 4.00010
# Velocity P-wave (km/s) = 5.79754 6.51860 6.16862
#
# Compressibility (1/GPa) = 0.03502074
#
# Stress axis : x y z
#
# Youngs Moduli (GPa) = 39.57434 82.80060 96.25142
#
# Poissons Ratio (x) = -0.06995 0.22259
# Poissons Ratio (y) = -0.03343 0.47063
# Poissons Ratio (z) = 0.09152 0.40486
#
# Static dielectric constant tensor:
#      x y z
#    x 3.776680 0.000000 0.000000 
#    y 0.000000 4.117970 0.000000 
#    z 0.000000 0.000000 3.997070 
# 
# 
# High freq. dielectric constant tensor:
#      x y z
#    x 1.829300 0.000000 0.000000 
#    y 0.000000 1.850170 0.000000 
#    z 0.000000 0.000000 1.846530 
# 
# From -- ./inp_files/11904.got.cif
#   From: 2010.03.12/outbox.cif.g09.slc.cpg/sg55_6_cif.got.tgz:11904.got - 2010.04.16 15:19:21.
