data_PCOD8227724
_publ_section_title
;
Structure prediction by ZEFSAII (Michael W. Deem and Ramdas Pophale) SiO2 
 PCOD8227724
Probable space group: P B A M
;
_chemical_formula_sum "Si O2"
_cell_formula_units_Z 48
_cell_length_a 13.991718
_cell_length_b 9.264167
_cell_length_c 15.750413
_cell_angle_alpha 90.000000
_cell_angle_beta 90.000000
_cell_angle_gamma 90.000000
_cell_volume 2041.593925
_symmetry_space_group_name_H-M "P B A M"
_symmetry_group_IT_number 55
_symmetry_cell_setting 'orthorhombic'
loop_
_space_group_symop_operation_xyz
x,y,z
-x,-y,z
1/2+x,1/2-y,-z
1/2-x,1/2+y,-z
-x,-y,-z
x,y,-z
1/2-x,1/2+y,z
1/2+x,1/2-y,z
loop_
_atom_site_type_symbol
_atom_site_label
_atom_site_fract_x
_atom_site_fract_y
_atom_site_fract_z
Si Si1 0.509345 0.668548 0.830444
Si Si2 0.759430 0.430424 0.712684
Si Si3 0.197465 0.303163 0.824809
Si Si4 0.556661 0.790101 0.000000
Si Si5 0.545616 0.850070 0.320873
Si Si6 0.655839 0.082136 0.000000
Si Si7 0.077789 0.122968 0.404990
O O1 0.500000 0.500000 0.812365
O O2 0.412507 0.758292 0.827249
O O3 0.567950 0.689362 0.917453
O O4 0.569038 0.738533 0.754863
O O5 0.779730 0.590715 0.746169
O O6 0.757257 0.339076 0.800863
O O7 0.845879 0.385032 0.648511
O O8 0.660767 0.409574 0.662205
O O9 0.218944 0.369219 0.918183
O O10 0.449708 0.852139 0.000000
O O11 0.640298 0.909551 0.000000
O O12 0.475961 0.776021 0.389622
O O13 0.500000 0.000000 0.288480
O O14 0.120589 0.126242 0.500000
O O15 0.000000 0.000000 0.394610
#
# Coordination Sequence:
#
# PCOD8227724 Si02
#       7
#     8   8   8   4   8   4   8
#     4  11  22  40  66 103 143 188 247 299 365 433
#     4  12  24  44  72 104 141 190 246 295 366 439
#     4  11  24  41  68 101 140 195 238 298 358 428
#     4   9  19  34  66  95 138 192 239 302 348 422
#     4  12  24  44  73 105 140 186 240 298 363 440
#     4   9  20  40  60  99 144 184 247 293 356 412
#     4  11  26  48  74 105 144 189 235 300 374 441
#
# _framework density 23.511043999999998
#
# number of rings (size 3 to 8) (size 9 to 14) (size 15 to 20)
#    0.000    1.000    3.333    2.750    4.667    1.667 
#    0.000    5.000    0.000    0.000    0.000    0.583 
#    0.000    0.000    0.000    0.000    0.000    0.000 
#
# Total GULP energy -594799.264674 kJ/mol
# GULP energy per Si atom -12391.651347 kJ/mol
# Density = 2.345753 g / cm^3
# Si number density = 23.511044 Si / 1000 Ang^3
#
#
#
# Elastic Constant Matrix: (Units=GPa)
#
#
# Indices 1 2 3 4 5 6 
#
# 1 84.5961 19.2477 31.9857 0.0000 0.0000 0.0000
# 2 19.2477 138.1643 50.8448 0.0000 0.0000 0.0000
# 3 31.9857 50.8448 128.5008 0.0000 0.0000 0.0000
# 4 0.0000 0.0000 0.0000 20.1254 0.0000 0.0000
# 5 0.0000 0.0000 0.0000 0.0000 9.3532 0.0000
# 6 0.0000 0.0000 0.0000 0.0000 0.0000 27.3595
#
#
#
# Elastic Compliance Matrix: (Units=1/GPa)
#
#
# Indices 1 2 3 4 5 6 
#
# 1 0.013112 -0.000732 -0.002974 0.000000 0.000000 0.000000
# 2 -0.000732 0.008512 -0.003186 0.000000 0.000000 0.000000
# 3 -0.002974 -0.003186 0.009783 0.000000 0.000000 0.000000
# 4 0.000000 0.000000 0.000000 0.049688 0.000000 0.000000
# 5 0.000000 0.000000 0.000000 0.000000 0.106916 0.000000
# 6 0.000000 0.000000 0.000000 0.000000 0.000000 0.036550
#
#
# Mechanical properties :
#
#
# Convention : Reuss Voigt Hill
#
# Bulk Modulus (GPa) = 56.74430 61.71308 59.22869
# Shear Modulus (GPa) = 20.47334 27.97981 24.22657
#
# Velocity S-wave (km/s) = 2.95413 3.45348 3.21352
# Velocity P-wave (km/s) = 5.98526 6.49674 6.24624
#
# Compressibility (1/GPa) = 0.01762291
#
# Stress axis : x y z
#
# Youngs Moduli (GPa) = 76.26634 117.47918 102.21925
#
# Poissons Ratio (x) = 0.08601 0.30401
# Poissons Ratio (y) = 0.05584 0.32565
# Poissons Ratio (z) = 0.22682 0.37427
#
# Static dielectric constant tensor:
#      x y z
#    x 4.323000 0.000000 0.000000 
#    y 0.000000 4.317990 0.000000 
#    z 0.000000 0.000000 4.315570 
# 
# 
# High freq. dielectric constant tensor:
#      x y z
#    x 1.935700 0.000000 0.000000 
#    y 0.000000 1.942650 0.000000 
#    z 0.000000 0.000000 1.910210 
# 
# From -- ./inp_files/21523.got.cif
#   From: 2010.03.12/outbox.cif.g09.slc.cpg/sg55_11_cif.got.tgz:21523.got - 2010.04.16 15:19:21.
