data_PCOD8227708
_publ_section_title
;
Structure prediction by ZEFSAII (Michael W. Deem and Ramdas Pophale) SiO2 
 PCOD8227708
Probable space group: P B A M
;
_chemical_formula_sum "Si O2"
_cell_formula_units_Z 48
_cell_length_a 15.003774
_cell_length_b 18.851058
_cell_length_c 8.384156
_cell_angle_alpha 90.000000
_cell_angle_beta 90.000000
_cell_angle_gamma 90.000000
_cell_volume 2371.349647
_symmetry_space_group_name_H-M "P B A M"
_symmetry_group_IT_number 55
_symmetry_cell_setting 'orthorhombic'
loop_
_space_group_symop_operation_xyz
x,y,z
-x,-y,z
1/2+x,1/2-y,-z
1/2-x,1/2+y,-z
-x,-y,-z
x,y,-z
1/2-x,1/2+y,z
1/2+x,1/2-y,z
loop_
_atom_site_type_symbol
_atom_site_label
_atom_site_fract_x
_atom_site_fract_y
_atom_site_fract_z
Si Si1 0.906116 0.582671 0.186629
Si Si2 0.902768 0.430308 0.315187
Si Si3 0.243321 0.322688 0.688019
Si Si4 0.246264 0.667870 0.183269
Si Si5 0.093373 0.086640 0.688990
Si Si6 0.605543 0.572233 0.311461
O O1 0.872430 0.508356 0.259756
O O2 0.853690 0.646735 0.270438
O O3 0.010849 0.594545 0.216889
O O4 0.886575 0.583170 0.000000
O O5 0.928522 0.432871 0.500000
O O6 0.822684 0.375925 0.290282
O O7 0.251468 0.309963 0.500000
O O8 0.261537 0.250223 0.778667
O O9 0.317433 0.377198 0.755571
O O10 0.346506 0.643728 0.221333
O O11 0.223178 0.654249 0.000000
O O12 0.106273 0.094831 0.500000
O O13 0.991308 0.101392 0.740723
O O14 0.120832 0.008003 0.749026
O O15 0.609037 0.569996 0.500000
#
# Coordination Sequence:
#
# PCOD8227708 Si02
#       6
#     8   8   8   8   8   8
#     4  11  22  39  62  91 121 150 187 243 301 348
#     4  11  22  40  64  88 113 153 201 242 286 351
#     4  11  22  38  58  84 117 159 201 236 281 350
#     4  12  25  39  54  82 120 157 194 243 297 341
#     4   9  17  36  62  87 111 142 184 235 288 347
#     4   8  17  34  61  88 110 139 185 235 280 333
#
# _framework density 20.241637000000001
#
# number of rings (size 3 to 8) (size 9 to 14) (size 15 to 20)
#    0.000    1.667    0.000    8.000    0.000    2.667 
#    0.000    9.167    0.000    0.000    0.000    0.000 
#    0.000    0.000    0.000    0.000    0.000    0.000 
#
# Total GULP energy -595391.747132 kJ/mol
# GULP energy per Si atom -12403.994732 kJ/mol
# Density = 2.019557 g / cm^3
# Si number density = 20.241637 Si / 1000 Ang^3
#
#
#
# Elastic Constant Matrix: (Units=GPa)
#
#
# Indices 1 2 3 4 5 6 
#
# 1 74.7254 29.7664 16.9356 0.0000 0.0000 0.0000
# 2 29.7664 75.5670 22.7323 0.0000 0.0000 0.0000
# 3 16.9356 22.7323 68.6094 0.0000 0.0000 0.0000
# 4 0.0000 0.0000 0.0000 27.2720 0.0000 0.0000
# 5 0.0000 0.0000 0.0000 0.0000 21.8374 0.0000
# 6 0.0000 0.0000 0.0000 0.0000 0.0000 21.4840
#
#
#
# Elastic Compliance Matrix: (Units=1/GPa)
#
#
# Indices 1 2 3 4 5 6 
#
# 1 0.016137 -0.005729 -0.002085 0.000000 0.000000 0.000000
# 2 -0.005729 0.016732 -0.004130 0.000000 0.000000 0.000000
# 3 -0.002085 -0.004130 0.016458 0.000000 0.000000 0.000000
# 4 0.000000 0.000000 0.000000 0.036668 0.000000 0.000000
# 5 0.000000 0.000000 0.000000 0.000000 0.045793 0.000000
# 6 0.000000 0.000000 0.000000 0.000000 0.000000 0.046546
#
#
# Mechanical properties :
#
#
# Convention : Reuss Voigt Hill
#
# Bulk Modulus (GPa) = 39.30863 39.75225 39.53044
# Shear Modulus (GPa) = 23.73013 24.08318 23.90666
#
# Velocity S-wave (km/s) = 3.42766 3.45307 3.44039
# Velocity P-wave (km/s) = 5.92680 5.96487 5.94587
#
# Compressibility (1/GPa) = 0.02543970
#
# Stress axis : x y z
#
# Youngs Moduli (GPa) = 61.96902 59.76423 60.75988
#
# Poissons Ratio (x) = 0.34241 0.12668
# Poissons Ratio (y) = 0.35504 0.25092
# Poissons Ratio (z) = 0.12921 0.24681
#
# Static dielectric constant tensor:
#      x y z
#    x 3.822140 0.000000 0.000000 
#    y 0.000000 3.728340 0.000000 
#    z 0.000000 0.000000 3.488550 
# 
# 
# High freq. dielectric constant tensor:
#      x y z
#    x 1.800400 0.000000 0.000000 
#    y 0.000000 1.786260 0.000000 
#    z 0.000000 0.000000 1.781490 
# 
# From -- ./inp_files/5636.got.cif
#   From: 2010.03.12/outbox.cif.g09.slc.cpg/sg55_3_cif.got.tgz:5636.got - 2010.04.16 15:19:21.
