data_PCOD8227595
_publ_section_title
;
Structure prediction by ZEFSAII (Michael W. Deem and Ramdas Pophale) SiO2 
 PCOD8227595
Probable space group: P B A M
;
_chemical_formula_sum "Si O2"
_cell_formula_units_Z 56
_cell_length_a 20.936728
_cell_length_b 14.707230
_cell_length_c 8.399656
_cell_angle_alpha 90.000000
_cell_angle_beta 90.000000
_cell_angle_gamma 90.000000
_cell_volume 2586.432778
_symmetry_space_group_name_H-M "P B A M"
_symmetry_group_IT_number 55
_symmetry_cell_setting 'orthorhombic'
loop_
_space_group_symop_operation_xyz
x,y,z
-x,-y,z
1/2+x,1/2-y,-z
1/2-x,1/2+y,-z
-x,-y,-z
x,y,-z
1/2-x,1/2+y,z
1/2+x,1/2-y,z
loop_
_atom_site_type_symbol
_atom_site_label
_atom_site_fract_x
_atom_site_fract_y
_atom_site_fract_z
Si Si1 0.949127 0.578939 0.680975
Si Si2 0.236535 0.819002 0.184478
Si Si3 0.258582 0.518384 0.316321
Si Si4 0.476303 0.733275 0.182878
Si Si5 0.339337 0.667796 0.189114
Si Si6 0.368085 0.065045 0.816377
Si Si7 0.892923 0.250119 0.317627
O O1 0.941851 0.614257 0.500000
O O2 0.967884 0.659220 0.797813
O O3 0.883737 0.534687 0.745560
O O4 0.000000 0.500000 0.698271
O O5 0.290983 0.748590 0.245656
O O6 0.165485 0.779126 0.206001
O O7 0.238533 0.911679 0.283167
O O8 0.247797 0.841313 0.000000
O O9 0.241469 0.533231 0.500000
O O10 0.323646 0.571184 0.271613
O O11 0.207801 0.572022 0.206203
O O12 0.411516 0.687427 0.248222
O O13 0.540123 0.699680 0.275746
O O14 0.487110 0.709048 0.000000
O O15 0.336372 0.658708 0.000000
O O16 0.404137 0.142505 0.713940
O O17 0.387455 0.075354 0.000000
O O18 0.875496 0.230636 0.500000
#
# Coordination Sequence:
#
# PCOD8227595 Si02
#       7
#     8   8   8   8   8   8   8
#     4  11  22  35  55  87 125 162 204 257 318 381
#     4  11  23  43  70  97 129 171 218 268 322 386
#     4  12  25  41  66  97 130 166 211 269 327 381
#     4  11  23  40  63  92 127 171 215 263 324 389
#     4  10  23  43  67  95 128 168 217 266 320 386
#     4  12  23  38  61  88 123 167 212 258 315 384
#     4  12  24  40  62  93 129 167 212 263 319 380
#
# _framework density 21.651441999999999
#
# number of rings (size 3 to 8) (size 9 to 14) (size 15 to 20)
#    0.000    0.714    2.857    6.000    0.000    3.429 
#    0.000    0.714    0.000    4.286    0.000    0.000 
#    0.000    0.000    0.000    0.000    0.000    0.000 
#
# Total GULP energy -694512.476005 kJ/mol
# GULP energy per Si atom -12402.008500 kJ/mol
# Density = 2.160216 g / cm^3
# Si number density = 21.651442 Si / 1000 Ang^3
#
#
#
# Elastic Constant Matrix: (Units=GPa)
#
#
# Indices 1 2 3 4 5 6 
#
# 1 102.5233 4.9928 5.3544 0.0000 0.0000 0.0000
# 2 4.9928 55.0304 6.5465 0.0000 0.0000 0.0000
# 3 5.3544 6.5465 64.2544 0.0000 0.0000 0.0000
# 4 0.0000 0.0000 0.0000 28.8518 0.0000 0.0000
# 5 0.0000 0.0000 0.0000 0.0000 27.0461 0.0000
# 6 0.0000 0.0000 0.0000 0.0000 0.0000 24.4997
#
#
#
# Elastic Compliance Matrix: (Units=1/GPa)
#
#
# Indices 1 2 3 4 5 6 
#
# 1 0.009832 -0.000804 -0.000737 0.000000 0.000000 0.000000
# 2 -0.000804 0.018461 -0.001814 0.000000 0.000000 0.000000
# 3 -0.000737 -0.001814 0.015809 0.000000 0.000000 0.000000
# 4 0.000000 0.000000 0.000000 0.034660 0.000000 0.000000
# 5 0.000000 0.000000 0.000000 0.000000 0.036974 0.000000
# 6 0.000000 0.000000 0.000000 0.000000 0.000000 0.040817
#
#
# Mechanical properties :
#
#
# Convention : Reuss Voigt Hill
#
# Bulk Modulus (GPa) = 26.74471 28.39952 27.57211
# Shear Modulus (GPa) = 28.45329 29.74045 29.09687
#
# Velocity S-wave (km/s) = 3.62906 3.71023 3.66987
# Velocity P-wave (km/s) = 5.47168 5.61245 5.54251
#
# Compressibility (1/GPa) = 0.03739057
#
# Stress axis : x y z
#
# Youngs Moduli (GPa) = 101.71325 54.16966 63.25361
#
# Poissons Ratio (x) = 0.04357 0.04664
# Poissons Ratio (y) = 0.08181 0.11473
# Poissons Ratio (z) = 0.07500 0.09825
#
# Static dielectric constant tensor:
#      x y z
#    x 4.200680 0.000000 0.000000 
#    y 0.000000 3.749840 0.000000 
#    z 0.000000 0.000000 3.710680 
# 
# 
# High freq. dielectric constant tensor:
#      x y z
#    x 1.864460 0.000000 0.000000 
#    y 0.000000 1.827360 0.000000 
#    z 0.000000 0.000000 1.848290 
# 
# From -- ./inp_files/8695.got.cif
#   From: 2010.03.12/outbox.cif.g09.slc.cpg/sg55_5_cif.got.tgz:8695.got - 2010.04.16 15:19:21.
