data_PCOD8227405
_publ_section_title
;
Structure prediction by ZEFSAII (Michael W. Deem and Ramdas Pophale) SiO2 
 PCOD8227405
Probable space group: P B A M
;
_chemical_formula_sum "Si O2"
_cell_formula_units_Z 32
_cell_length_a 4.946338
_cell_length_b 11.624387
_cell_length_c 23.967946
_cell_angle_alpha 90.000000
_cell_angle_beta 90.000000
_cell_angle_gamma 90.000000
_cell_volume 1378.112486
_symmetry_space_group_name_H-M "P B A M"
_symmetry_group_IT_number 55
_symmetry_cell_setting 'orthorhombic'
loop_
_space_group_symop_operation_xyz
x,y,z
-x,-y,z
1/2+x,1/2-y,-z
1/2-x,1/2+y,-z
-x,-y,-z
x,y,-z
1/2-x,1/2+y,z
1/2+x,1/2-y,z
loop_
_atom_site_type_symbol
_atom_site_label
_atom_site_fract_x
_atom_site_fract_y
_atom_site_fract_z
Si Si1 0.052711 0.823350 0.938836
Si Si2 0.388210 0.828772 0.680312
Si Si3 0.780962 0.333513 0.500000
Si Si4 0.500000 0.500000 0.847722
Si Si5 0.500000 0.000000 0.410200
Si Si6 0.500000 0.000000 0.225158
O O1 0.239824 0.711164 0.933566
O O2 0.130114 0.904776 0.887843
O O3 0.103156 0.881243 0.000000
O O4 0.688129 0.777843 0.676311
O O5 0.324102 0.916265 0.629450
O O6 0.371274 0.897283 0.738311
O O7 0.490263 0.273020 0.500000
O O8 0.807208 0.417564 0.446851
O O9 0.749021 0.452202 0.810954
#
# Coordination Sequence:
#
# PCOD8227405 Si02
#       6
#     8   8   4   4   4   4
#     4  10  22  39  60  87 118 154 195 240 296 360
#     4  11  24  43  64  87 122 162 202 252 302 349
#     4  11  24  41  64  96 132 163 198 251 304 350
#     4  12  23  40  62  88 120 155 196 248 300 354
#     4  10  24  41  66  96 123 162 212 244 294 368
#     4  11  26  39  59  91 117 154 205 246 298 364
#
# _framework density 23.220165000000001
#
# number of rings (size 3 to 8) (size 9 to 14) (size 15 to 20)
#    0.000    1.250    0.000    4.875    0.000   13.000 
#    0.000    5.000    0.000    0.000    0.000    0.000 
#    0.000    0.000    0.000    0.000    0.000    0.000 
#
# Total GULP energy -396801.109947 kJ/mol
# GULP energy per Si atom -12400.034686 kJ/mol
# Density = 2.316732 g / cm^3
# Si number density = 23.220165 Si / 1000 Ang^3
#
#
#
# Elastic Constant Matrix: (Units=GPa)
#
#
# Indices 1 2 3 4 5 6 
#
# 1 82.1855 11.4308 30.1075 0.0000 0.0000 0.0000
# 2 11.4308 98.2111 53.1014 0.0000 0.0000 0.0000
# 3 30.1075 53.1014 156.5295 0.0000 0.0000 0.0000
# 4 0.0000 0.0000 0.0000 34.7427 0.0000 0.0000
# 5 0.0000 0.0000 0.0000 0.0000 13.4583 0.0000
# 6 0.0000 0.0000 0.0000 0.0000 0.0000 27.8381
#
#
#
# Elastic Compliance Matrix: (Units=1/GPa)
#
#
# Indices 1 2 3 4 5 6 
#
# 1 0.013093 -0.000199 -0.002451 0.000000 0.000000 0.000000
# 2 -0.000199 0.012472 -0.004193 0.000000 0.000000 0.000000
# 3 -0.002451 -0.004193 0.008282 0.000000 0.000000 0.000000
# 4 0.000000 0.000000 0.000000 0.028783 0.000000 0.000000
# 5 0.000000 0.000000 0.000000 0.000000 0.074304 0.000000
# 6 0.000000 0.000000 0.000000 0.000000 0.000000 0.035922
#
#
# Mechanical properties :
#
#
# Convention : Reuss Voigt Hill
#
# Bulk Modulus (GPa) = 49.59661 58.46728 54.03195
# Shear Modulus (GPa) = 25.87154 31.36023 28.61588
#
# Velocity S-wave (km/s) = 3.34156 3.67898 3.51432
# Velocity P-wave (km/s) = 6.02442 6.57881 6.30771
#
# Compressibility (1/GPa) = 0.02016267
#
# Stress axis : x y z
#
# Youngs Moduli (GPa) = 76.37605 80.17746 120.73771
#
# Poissons Ratio (x) = 0.01593 0.29592
# Poissons Ratio (y) = 0.01518 0.50624
# Poissons Ratio (z) = 0.18720 0.33618
#
# Static dielectric constant tensor:
#      x y z
#    x 3.798180 0.000000 0.000000 
#    y 0.000000 4.049700 0.000000 
#    z 0.000000 0.000000 4.504510 
# 
# 
# High freq. dielectric constant tensor:
#      x y z
#    x 1.908130 0.000000 0.000000 
#    y 0.000000 1.912560 0.000000 
#    z 0.000000 0.000000 1.940690 
# 
# From -- ./inp_files/22233.got.cif
#   From: 2010.03.12/outbox.cif.g09.slc.cpg/sg55_12_cif.got.tgz:22233.got - 2010.04.16 15:19:21.
