data_PCOD8227562
_publ_section_title
;
Structure prediction by ZEFSAII (Michael W. Deem and Ramdas Pophale) SiO2 
 PCOD8227562
Probable space group: P B A M
;
_chemical_formula_sum "Si O2"
_cell_formula_units_Z 40
_cell_length_a 10.536847
_cell_length_b 8.750479
_cell_length_c 17.990185
_cell_angle_alpha 90.000000
_cell_angle_beta 90.000000
_cell_angle_gamma 90.000000
_cell_volume 1658.739284
_symmetry_space_group_name_H-M "P B A M"
_symmetry_group_IT_number 55
_symmetry_cell_setting 'orthorhombic'
loop_
_space_group_symop_operation_xyz
x,y,z
-x,-y,z
1/2+x,1/2-y,-z
1/2-x,1/2+y,-z
-x,-y,-z
x,y,-z
1/2-x,1/2+y,z
1/2+x,1/2-y,z
loop_
_atom_site_type_symbol
_atom_site_label
_atom_site_fract_x
_atom_site_fract_y
_atom_site_fract_z
Si Si1 0.417287 0.183249 0.419277
Si Si2 0.864644 0.561217 0.084790
Si Si3 0.750007 0.577125 0.634024
Si Si4 0.614683 0.399008 0.131424
Si Si5 0.400342 0.688290 0.296754
O O1 0.487364 0.186095 0.500000
O O2 0.299726 0.301795 0.426912
O O3 0.488606 0.242547 0.346641
O O4 0.369019 0.010431 0.403715
O O5 0.747386 0.492637 0.132558
O O6 0.863977 0.744751 0.085391
O O7 0.000000 0.500000 0.116407
O O8 0.846578 0.506031 0.000000
O O9 0.793773 0.679143 0.705097
O O10 0.641836 0.465385 0.662264
O O11 0.500000 0.500000 0.095864
O O12 0.564089 0.351977 0.213069
#
# Coordination Sequence:
#
# PCOD8227562 Si02
#       5
#     8   8   8   8   8
#     4  11  23  40  62  90 127 173 229 292 353 412
#     4  11  26  47  73 106 143 186 234 286 351 429
#     4  10  23  40  61  88 125 169 226 286 344 411
#     4  12  25  44  73 107 146 188 235 292 358 431
#     4  11  24  42  63  92 128 172 223 277 345 417
#
# _framework density 24.114698000000001
#
# number of rings (size 3 to 8) (size 9 to 14) (size 15 to 20)
#    0.000    1.000    0.000    6.000    0.000   16.000 
#    0.000    0.000    0.000    0.000    0.000    0.000 
#    0.000    0.000    0.000    0.000    0.000    0.000 
#
# Total GULP energy -495787.838898 kJ/mol
# GULP energy per Si atom -12394.695972 kJ/mol
# Density = 2.405981 g / cm^3
# Si number density = 24.114698 Si / 1000 Ang^3
#
#
#
# Elastic Constant Matrix: (Units=GPa)
#
#
# Indices 1 2 3 4 5 6 
#
# 1 120.8796 46.3070 21.9033 0.0000 0.0000 0.0000
# 2 46.3070 161.5222 15.2379 0.0000 0.0000 0.0000
# 3 21.9033 15.2379 101.1901 0.0000 0.0000 0.0000
# 4 0.0000 0.0000 0.0000 14.9448 0.0000 0.0000
# 5 0.0000 0.0000 0.0000 0.0000 30.5661 0.0000
# 6 0.0000 0.0000 0.0000 0.0000 0.0000 37.9115
#
#
#
# Elastic Compliance Matrix: (Units=1/GPa)
#
#
# Indices 1 2 3 4 5 6 
#
# 1 0.009567 -0.002584 -0.001682 0.000000 0.000000 0.000000
# 2 -0.002584 0.006978 -0.000491 0.000000 0.000000 0.000000
# 3 -0.001682 -0.000491 0.010320 0.000000 0.000000 0.000000
# 4 0.000000 0.000000 0.000000 0.066913 0.000000 0.000000
# 5 0.000000 0.000000 0.000000 0.000000 0.032716 0.000000
# 6 0.000000 0.000000 0.000000 0.000000 0.000000 0.026377
#
#
# Mechanical properties :
#
#
# Convention : Reuss Voigt Hill
#
# Bulk Modulus (GPa) = 57.63289 61.16539 59.39914
# Shear Modulus (GPa) = 29.73164 36.69406 33.21285
#
# Velocity S-wave (km/s) = 3.51511 3.90506 3.71521
# Velocity P-wave (km/s) = 6.35815 6.76403 6.56423
#
# Compressibility (1/GPa) = 0.01735120
#
# Stress axis : x y z
#
# Youngs Moduli (GPa) = 104.52150 143.30049 96.89521
#
# Poissons Ratio (x) = 0.37032 0.16296
# Poissons Ratio (y) = 0.27011 0.04762
# Poissons Ratio (z) = 0.17578 0.07043
#
# Static dielectric constant tensor:
#      x y z
#    x 4.446150 0.000000 0.000000 
#    y 0.000000 4.858190 0.000000 
#    z 0.000000 0.000000 4.032560 
# 
# 
# High freq. dielectric constant tensor:
#      x y z
#    x 1.962970 0.000000 0.000000 
#    y 0.000000 1.990290 0.000000 
#    z 0.000000 0.000000 1.936880 
# 
# From -- ./inp_files/21177.got.cif
#   From: 2010.03.12/outbox.cif.g09.slc.cpg/sg55_11_cif.got.tgz:21177.got - 2010.04.16 15:19:21.
