data_PCOD8227174
_publ_section_title
;
Structure prediction by ZEFSAII (Michael W. Deem and Ramdas Pophale) SiO2 
 PCOD8227174
Probable space group: P B A M
;
_chemical_formula_sum "Si O2"
_cell_formula_units_Z 40
_cell_length_a 9.353297
_cell_length_b 24.753407
_cell_length_c 8.647864
_cell_angle_alpha 90.000000
_cell_angle_beta 90.000000
_cell_angle_gamma 90.000000
_cell_volume 2002.205079
_symmetry_space_group_name_H-M "P B A M"
_symmetry_group_IT_number 55
_symmetry_cell_setting 'orthorhombic'
loop_
_space_group_symop_operation_xyz
x,y,z
-x,-y,z
1/2+x,1/2-y,-z
1/2-x,1/2+y,-z
-x,-y,-z
x,y,-z
1/2-x,1/2+y,z
1/2+x,1/2-y,z
loop_
_atom_site_type_symbol
_atom_site_label
_atom_site_fract_x
_atom_site_fract_y
_atom_site_fract_z
Si Si1 0.107840 0.782769 0.179291
Si Si2 0.189773 0.199726 0.322896
Si Si3 0.657128 0.422499 0.323764
Si Si4 0.662128 0.605526 0.680129
Si Si5 0.659898 0.013427 0.179839
O O1 0.171961 0.733373 0.276279
O O2 0.182247 0.838864 0.227552
O O3 0.940036 0.783289 0.213183
O O4 0.135004 0.772322 0.000000
O O5 0.145680 0.210838 0.500000
O O6 0.225371 0.136592 0.301048
O O7 0.675738 0.442850 0.500000
O O8 0.489768 0.421834 0.278428
O O9 0.737826 0.462711 0.210049
O O10 0.668002 0.619846 0.500000
O O11 0.789063 0.565439 0.725007
O O12 0.500000 0.000000 0.235632
O O13 0.664167 0.027903 0.000000
#
# Coordination Sequence:
#
# PCOD8227174 Si02
#       5
#     8   8   8   8   8
#     4  11  22  37  59  88 118 149 190 238 287 336
#     4  10  21  39  60  84 116 153 192 233 283 342
#     4   9  20  38  60  83 107 143 190 232 274 334
#     4  10  21  39  61  83 110 147 191 233 279 341
#     4  11  24  38  54  82 117 148 183 231 285 337
#
# _framework density 19.977975000000001
#
# number of rings (size 3 to 8) (size 9 to 14) (size 15 to 20)
#    0.000    1.800    0.000    5.400    0.000   10.400 
#    0.000    4.000    0.000    0.000    0.000    0.000 
#    0.000    0.000    0.000    0.000    0.000    0.000 
#
# Total GULP energy -496237.039620 kJ/mol
# GULP energy per Si atom -12405.925991 kJ/mol
# Density = 1.993250 g / cm^3
# Si number density = 19.977975 Si / 1000 Ang^3
#
#
#
# Elastic Constant Matrix: (Units=GPa)
#
#
# Indices 1 2 3 4 5 6 
#
# 1 33.4517 0.9375 13.4574 0.0000 0.0000 0.0000
# 2 0.9375 42.1926 18.4098 0.0000 0.0000 0.0000
# 3 13.4574 18.4098 66.1295 0.0000 0.0000 0.0000
# 4 0.0000 0.0000 0.0000 35.0425 0.0000 0.0000
# 5 0.0000 0.0000 0.0000 0.0000 32.8877 0.0000
# 6 0.0000 0.0000 0.0000 0.0000 0.0000 38.1385
#
#
#
# Elastic Compliance Matrix: (Units=1/GPa)
#
#
# Indices 1 2 3 4 5 6 
#
# 1 0.032787 0.002484 -0.007364 0.000000 0.000000 0.000000
# 2 0.002484 0.027166 -0.008068 0.000000 0.000000 0.000000
# 3 -0.007364 -0.008068 0.018867 0.000000 0.000000 0.000000
# 4 0.000000 0.000000 0.000000 0.028537 0.000000 0.000000
# 5 0.000000 0.000000 0.000000 0.000000 0.030407 0.000000
# 6 0.000000 0.000000 0.000000 0.000000 0.000000 0.026220
#
#
# Mechanical properties :
#
#
# Convention : Reuss Voigt Hill
#
# Bulk Modulus (GPa) = 18.89502 23.04257 20.96880
# Shear Modulus (GPa) = 24.09413 28.47834 26.28623
#
# Velocity S-wave (km/s) = 3.47657 3.77966 3.63128
# Velocity P-wave (km/s) = 5.05903 5.53234 5.30097
#
# Compressibility (1/GPa) = 0.05292399
#
# Stress axis : x y z
#
# Youngs Moduli (GPa) = 30.50024 36.81054 53.00388
#
# Poissons Ratio (x) = -0.09146 0.39031
# Poissons Ratio (y) = -0.07578 0.42766
# Poissons Ratio (z) = 0.22460 0.29700
#
# Static dielectric constant tensor:
#      x y z
#    x 3.531830 0.000000 0.000000 
#    y 0.000000 3.652480 0.000000 
#    z 0.000000 0.000000 3.570000 
# 
# 
# High freq. dielectric constant tensor:
#      x y z
#    x 1.770090 0.000000 0.000000 
#    y 0.000000 1.786970 0.000000 
#    z 0.000000 0.000000 1.784960 
# 
# From -- ./inp_files/2278.got.cif
#   From: 2010.03.12/outbox.cif.g09.slc.cpg/sg55_2_cif.got.tgz:2278.got - 2010.04.16 15:19:21.
