data_PCOD8227264
_publ_section_title
;
Structure prediction by ZEFSAII (Michael W. Deem and Ramdas Pophale) SiO2 
 PCOD8227264
Probable space group: P B A M
;
_chemical_formula_sum "Si O2"
_cell_formula_units_Z 48
_cell_length_a 7.597424
_cell_length_b 19.751211
_cell_length_c 13.649985
_cell_angle_alpha 90.000000
_cell_angle_beta 90.000000
_cell_angle_gamma 90.000000
_cell_volume 2048.293878
_symmetry_space_group_name_H-M "P B A M"
_symmetry_group_IT_number 55
_symmetry_cell_setting 'orthorhombic'
loop_
_space_group_symop_operation_xyz
x,y,z
-x,-y,z
1/2+x,1/2-y,-z
1/2-x,1/2+y,-z
-x,-y,-z
x,y,-z
1/2-x,1/2+y,z
1/2+x,1/2-y,z
loop_
_atom_site_type_symbol
_atom_site_label
_atom_site_fract_x
_atom_site_fract_y
_atom_site_fract_z
Si Si1 0.399536 0.817437 0.610993
Si Si2 0.718406 0.655277 0.114080
Si Si3 0.303649 0.114869 0.283038
Si Si4 0.563143 0.597757 0.610971
Si Si5 0.812747 0.019107 0.212611
Si Si6 0.103782 0.227400 0.789050
O O1 0.453174 0.798629 0.500000
O O2 0.523404 0.879120 0.649814
O O3 0.196100 0.838579 0.618190
O O4 0.432501 0.752187 0.678252
O O5 0.776325 0.580859 0.152500
O O6 0.548034 0.677193 0.175045
O O7 0.872373 0.708904 0.137690
O O8 0.677551 0.652948 0.000000
O O9 0.283134 0.181371 0.212413
O O10 0.127017 0.117998 0.348451
O O11 0.315196 0.046419 0.217421
O O12 0.548192 0.571811 0.500000
O O13 0.648485 0.537711 0.674378
O O14 0.000000 0.000000 0.161189
#
# Coordination Sequence:
#
# PCOD8227264 Si02
#       6
#     8   8   8   8   8   8
#     4  11  24  40  67 100 140 186 224 271 339 411
#     4  12  25  45  72  98 129 177 230 288 356 411
#     4  11  23  41  67  96 139 177 227 272 345 395
#     4  10  21  40  63  93 136 180 224 271 328 400
#     4  10  21  42  65  94 133 176 218 288 334 398
#     4  12  22  46  65  99 138 170 223 294 339 405
#
# _framework density 23.434138000000001
#
# number of rings (size 3 to 8) (size 9 to 14) (size 15 to 20)
#    0.000    1.000    6.667    1.000    0.000    6.000 
#    0.000    1.667    0.000    1.000    0.000    0.000 
#    0.000    0.000    0.000    0.000    0.000    0.000 
#
# Total GULP energy -595118.274221 kJ/mol
# GULP energy per Si atom -12398.297380 kJ/mol
# Density = 2.338080 g / cm^3
# Si number density = 23.434138 Si / 1000 Ang^3
#
#
#
# Elastic Constant Matrix: (Units=GPa)
#
#
# Indices 1 2 3 4 5 6 
#
# 1 71.5760 17.4127 15.5110 0.0000 0.0000 0.0000
# 2 17.4127 154.2411 56.7889 0.0000 0.0000 0.0000
# 3 15.5110 56.7889 121.9809 0.0000 0.0000 0.0000
# 4 0.0000 0.0000 0.0000 15.7465 0.0000 0.0000
# 5 0.0000 0.0000 0.0000 0.0000 22.8896 0.0000
# 6 0.0000 0.0000 0.0000 0.0000 0.0000 28.7708
#
#
#
# Elastic Compliance Matrix: (Units=1/GPa)
#
#
# Indices 1 2 3 4 5 6 
#
# 1 0.014537 -0.001159 -0.001309 0.000000 0.000000 0.000000
# 2 -0.001159 0.007917 -0.003538 0.000000 0.000000 0.000000
# 3 -0.001309 -0.003538 0.010012 0.000000 0.000000 0.000000
# 4 0.000000 0.000000 0.000000 0.063506 0.000000 0.000000
# 5 0.000000 0.000000 0.000000 0.000000 0.043688 0.000000
# 6 0.000000 0.000000 0.000000 0.000000 0.000000 0.034757
#
#
# Mechanical properties :
#
#
# Convention : Reuss Voigt Hill
#
# Bulk Modulus (GPa) = 48.89330 58.58036 53.73683
# Shear Modulus (GPa) = 25.87353 30.68706 28.28029
#
# Velocity S-wave (km/s) = 3.32640 3.62263 3.47767
# Velocity P-wave (km/s) = 5.97182 6.52304 6.25351
#
# Compressibility (1/GPa) = 0.02045270
#
# Stress axis : x y z
#
# Youngs Moduli (GPa) = 68.79091 126.31042 99.88257
#
# Poissons Ratio (x) = 0.14642 0.13073
# Poissons Ratio (y) = 0.07974 0.35342
# Poissons Ratio (z) = 0.09003 0.44694
#
# Static dielectric constant tensor:
#      x y z
#    x 4.126790 0.000000 0.000000 
#    y 0.000000 4.447190 0.000000 
#    z 0.000000 0.000000 4.004530 
# 
# 
# High freq. dielectric constant tensor:
#      x y z
#    x 1.924290 0.000000 0.000000 
#    y 0.000000 1.944400 0.000000 
#    z 0.000000 0.000000 1.895080 
# 
# From -- ./inp_files/17499.got.cif
#   From: 2010.03.12/outbox.cif.g09.slc.cpg/sg55_9_cif.got.tgz:17499.got - 2010.04.16 15:19:21.
