data_PCOD8227235
_publ_section_title
;
Structure prediction by ZEFSAII (Michael W. Deem and Ramdas Pophale) SiO2 
 PCOD8227235
Probable space group: P B A M
;
_chemical_formula_sum "Si O2"
_cell_formula_units_Z 48
_cell_length_a 23.093824
_cell_length_b 11.731576
_cell_length_c 8.466436
_cell_angle_alpha 90.000000
_cell_angle_beta 90.000000
_cell_angle_gamma 90.000000
_cell_volume 2293.785695
_symmetry_space_group_name_H-M "P B A M"
_symmetry_group_IT_number 55
_symmetry_cell_setting 'orthorhombic'
loop_
_space_group_symop_operation_xyz
x,y,z
-x,-y,z
1/2+x,1/2-y,-z
1/2-x,1/2+y,-z
-x,-y,-z
x,y,-z
1/2-x,1/2+y,z
1/2+x,1/2-y,z
loop_
_atom_site_type_symbol
_atom_site_label
_atom_site_fract_x
_atom_site_fract_y
_atom_site_fract_z
Si Si1 0.624349 0.267493 0.812605
Si Si2 0.227022 0.372449 0.681964
Si Si3 0.335909 0.076006 0.175122
Si Si4 0.347351 0.330509 0.184715
Si Si5 0.052045 0.436983 0.825659
Si Si6 0.066778 0.007369 0.315140
O O1 0.687209 0.233227 0.742611
O O2 0.576976 0.177417 0.742779
O O3 0.603498 0.393365 0.769934
O O4 0.629824 0.252953 0.000000
O O5 0.241112 0.350944 0.500000
O O6 0.197381 0.494917 0.703736
O O7 0.285918 0.387620 0.779602
O O8 0.340487 0.201806 0.247526
O O9 0.400091 0.032074 0.156520
O O10 0.306273 0.077268 0.000000
O O11 0.400421 0.390034 0.276391
O O12 0.361751 0.336142 0.000000
O O13 0.000000 0.500000 0.730008
O O14 0.029062 0.400823 0.000000
O O15 0.067561 0.032559 0.500000
O O16 0.000000 0.000000 0.254655
#
# Coordination Sequence:
#
# PCOD8227235 Si02
#       6
#     8   8   8   8   8   8
#     4  10  21  39  65  92 124 163 211 262 308 369
#     4  11  23  40  64  92 128 165 203 254 322 386
#     4   9  20  38  60  89 121 154 203 257 306 365
#     4  11  24  41  66  93 123 162 213 266 312 373
#     4   8  15  30  57  89 117 146 189 248 302 350
#     4  11  26  45  63  90 132 174 213 259 322 392
#
# _framework density 20.926103000000001
#
# number of rings (size 3 to 8) (size 9 to 14) (size 15 to 20)
#    0.000    2.000    0.000    4.000    4.667    2.667 
#    0.000    0.000    0.000    2.500    0.000    0.000 
#    0.000    0.000    0.000    0.000    0.000    0.000 
#
# Total GULP energy -594965.933149 kJ/mol
# GULP energy per Si atom -12395.123607 kJ/mol
# Density = 2.087847 g / cm^3
# Si number density = 20.926103 Si / 1000 Ang^3
#
#
#
# Elastic Constant Matrix: (Units=GPa)
#
#
# Indices 1 2 3 4 5 6 
#
# 1 92.9549 39.6316 11.5358 0.0000 0.0000 0.0000
# 2 39.6316 106.4540 15.8133 0.0000 0.0000 0.0000
# 3 11.5358 15.8133 48.7548 0.0000 0.0000 0.0000
# 4 0.0000 0.0000 0.0000 26.9097 0.0000 0.0000
# 5 0.0000 0.0000 0.0000 0.0000 24.6866 0.0000
# 6 0.0000 0.0000 0.0000 0.0000 0.0000 18.6750
#
#
#
# Elastic Compliance Matrix: (Units=1/GPa)
#
#
# Indices 1 2 3 4 5 6 
#
# 1 0.012901 -0.004570 -0.001570 0.000000 0.000000 0.000000
# 2 -0.004570 0.011488 -0.002645 0.000000 0.000000 0.000000
# 3 -0.001570 -0.002645 0.021740 0.000000 0.000000 0.000000
# 4 0.000000 0.000000 0.000000 0.037161 0.000000 0.000000
# 5 0.000000 0.000000 0.000000 0.000000 0.040508 0.000000
# 6 0.000000 0.000000 0.000000 0.000000 0.000000 0.053548
#
#
# Mechanical properties :
#
#
# Convention : Reuss Voigt Hill
#
# Bulk Modulus (GPa) = 35.01462 42.45832 38.73647
# Shear Modulus (GPa) = 24.45763 26.13313 25.29538
#
# Velocity S-wave (km/s) = 3.42242 3.53771 3.48055
# Velocity P-wave (km/s) = 5.69088 6.08448 5.89097
#
# Compressibility (1/GPa) = 0.02855950
#
# Stress axis : x y z
#
# Youngs Moduli (GPa) = 77.51293 87.04868 45.99776
#
# Poissons Ratio (x) = 0.39778 0.07223
# Poissons Ratio (y) = 0.35421 0.12165
# Poissons Ratio (z) = 0.12172 0.23022
#
# Static dielectric constant tensor:
#      x y z
#    x 3.902720 0.000000 0.000000 
#    y 0.000000 3.833990 0.000000 
#    z 0.000000 0.000000 3.531330 
# 
# 
# High freq. dielectric constant tensor:
#      x y z
#    x 1.824540 0.000000 0.000000 
#    y 0.000000 1.825440 0.000000 
#    z 0.000000 0.000000 1.795660 
# 
# From -- ./inp_files/9447.got.cif
#   From: 2010.03.12/outbox.cif.g09.slc.cpg/sg55_5_cif.got.tgz:9447.got - 2010.04.16 15:19:21.
