data_PCOD8227288
_publ_section_title
;
Structure prediction by ZEFSAII (Michael W. Deem and Ramdas Pophale) SiO2 
 PCOD8227288
Probable space group: P B A M
;
_chemical_formula_sum "Si O2"
_cell_formula_units_Z 44
_cell_length_a 14.579671
_cell_length_b 13.301574
_cell_length_c 11.268048
_cell_angle_alpha 90.000000
_cell_angle_beta 90.000000
_cell_angle_gamma 90.000000
_cell_volume 2185.241538
_symmetry_space_group_name_H-M "P B A M"
_symmetry_group_IT_number 55
_symmetry_cell_setting 'orthorhombic'
loop_
_space_group_symop_operation_xyz
x,y,z
-x,-y,z
1/2+x,1/2-y,-z
1/2-x,1/2+y,-z
-x,-y,-z
x,y,-z
1/2-x,1/2+y,z
1/2+x,1/2-y,z
loop_
_atom_site_type_symbol
_atom_site_label
_atom_site_fract_x
_atom_site_fract_y
_atom_site_fract_z
Si Si1 0.584599 0.573668 0.500000
Si Si2 0.059780 0.763288 0.694528
Si Si3 0.740719 0.416308 0.500000
Si Si4 0.052107 0.601708 0.500000
Si Si5 0.394960 0.979423 0.138186
Si Si6 0.728918 0.851375 0.753685
Si Si7 0.396133 0.748507 0.864974
O O1 0.500000 0.500000 0.500000
O O2 0.579864 0.639449 0.382690
O O3 0.680289 0.515809 0.500000
O O4 0.029927 0.667932 0.615227
O O5 0.153339 0.736449 0.762737
O O6 0.980495 0.789711 0.786454
O O7 0.846595 0.443017 0.500000
O O8 0.724320 0.353637 0.378186
O O9 0.000000 0.500000 0.500000
O O10 0.370581 0.863712 0.163610
O O11 0.500000 0.000000 0.179823
O O12 0.320953 0.043988 0.212233
O O13 0.385214 0.008205 0.000000
O O14 0.809255 0.823495 0.844323
O O15 0.428249 0.737825 0.000000
#
# Coordination Sequence:
#
# PCOD8227288 Si02
#       7
#     4   8   4   4   8   8   8
#     4  11  23  43  62  85 124 170 202 251 311 376
#     4  10  23  39  62  93 124 159 209 251 314 374
#     4  10  24  38  64  91 121 163 206 244 323 372
#     4   9  21  37  64  96 120 157 198 256 311 359
#     4  10  21  40  66  91 121 167 211 258 317 372
#     4  11  23  41  63  95 127 161 208 267 313 377
#     4  11  24  40  65  93 123 168 212 260 317 373
#
# _framework density 20.135075000000001
#
# number of rings (size 3 to 8) (size 9 to 14) (size 15 to 20)
#    0.000    1.636    1.818    2.182    7.636    1.455 
#    0.000    1.818    0.000    1.636    0.000    0.000 
#    0.000    0.000    0.000    0.000    0.000    0.000 
#
# Total GULP energy -545586.548831 kJ/mol
# GULP energy per Si atom -12399.694292 kJ/mol
# Density = 2.008925 g / cm^3
# Si number density = 20.135075 Si / 1000 Ang^3
#
#
#
# Elastic Constant Matrix: (Units=GPa)
#
#
# Indices 1 2 3 4 5 6 
#
# 1 111.9535 53.0009 52.2349 0.0000 0.0000 0.0000
# 2 53.0009 74.8502 15.5617 0.0000 0.0000 0.0000
# 3 52.2349 15.5617 82.2959 0.0000 0.0000 0.0000
# 4 0.0000 0.0000 0.0000 23.7937 0.0000 0.0000
# 5 0.0000 0.0000 0.0000 0.0000 28.6494 0.0000
# 6 0.0000 0.0000 0.0000 0.0000 0.0000 44.0606
#
#
#
# Elastic Compliance Matrix: (Units=1/GPa)
#
#
# Indices 1 2 3 4 5 6 
#
# 1 0.018890 -0.011329 -0.009848 0.000000 0.000000 0.000000
# 2 -0.011329 0.020701 0.003276 0.000000 0.000000 0.000000
# 3 -0.009848 0.003276 0.017782 0.000000 0.000000 0.000000
# 4 0.000000 0.000000 0.000000 0.042028 0.000000 0.000000
# 5 0.000000 0.000000 0.000000 0.000000 0.034905 0.000000
# 6 0.000000 0.000000 0.000000 0.000000 0.000000 0.022696
#
#
# Mechanical properties :
#
#
# Convention : Reuss Voigt Hill
#
# Bulk Modulus (GPa) = 46.35510 56.74384 51.54947
# Shear Modulus (GPa) = 25.00081 29.18755 27.09418
#
# Velocity S-wave (km/s) = 3.52754 3.81147 3.67225
# Velocity P-wave (km/s) = 6.29789 6.90019 6.60590
#
# Compressibility (1/GPa) = 0.02157260
#
# Stress axis : x y z
#
# Youngs Moduli (GPa) = 52.93736 48.30769 56.23542
#
# Poissons Ratio (x) = 0.54726 0.55380
# Poissons Ratio (y) = 0.59971 -0.18424
# Poissons Ratio (z) = 0.52132 -0.15826
#
# Static dielectric constant tensor:
#      x y z
#    x 3.662490 0.000000 0.000000 
#    y 0.000000 3.398010 0.000000 
#    z 0.000000 0.000000 3.928950 
# 
# 
# High freq. dielectric constant tensor:
#      x y z
#    x 1.785980 0.000000 0.000000 
#    y 0.000000 1.776180 0.000000 
#    z 0.000000 0.000000 1.796190 
# 
# From -- ./inp_files/14080.got.cif
#   From: 2010.03.12/outbox.cif.g09.slc.cpg/sg55_8_cif.got.tgz:14080.got - 2010.04.16 15:19:21.
