data_PCOD8227291
_publ_section_title
;
Structure prediction by ZEFSAII (Michael W. Deem and Ramdas Pophale) SiO2 
 PCOD8227291
Probable space group: P B A M
;
_chemical_formula_sum "Si O2"
_cell_formula_units_Z 40
_cell_length_a 10.526670
_cell_length_b 18.861754
_cell_length_c 8.556377
_cell_angle_alpha 90.000000
_cell_angle_beta 90.000000
_cell_angle_gamma 90.000000
_cell_volume 1698.881145
_symmetry_space_group_name_H-M "P B A M"
_symmetry_group_IT_number 55
_symmetry_cell_setting 'orthorhombic'
loop_
_space_group_symop_operation_xyz
x,y,z
-x,-y,z
1/2+x,1/2-y,-z
1/2-x,1/2+y,-z
-x,-y,-z
x,y,-z
1/2-x,1/2+y,z
1/2+x,1/2-y,z
loop_
_atom_site_type_symbol
_atom_site_label
_atom_site_fract_x
_atom_site_fract_y
_atom_site_fract_z
Si Si1 0.271195 0.926045 0.684290
Si Si2 0.643960 0.784382 0.318930
Si Si3 0.383894 0.792042 0.816896
Si Si4 0.764562 0.419340 0.819778
Si Si5 0.492157 0.583917 0.328656
O O1 0.285647 0.938215 0.500000
O O2 0.374848 0.871610 0.748291
O O3 0.132771 0.890763 0.723632
O O4 0.290563 0.000386 0.770070
O O5 0.663846 0.766659 0.500000
O O6 0.757444 0.751079 0.219730
O O7 0.506505 0.754617 0.263771
O O8 0.645882 0.868681 0.283779
O O9 0.406905 0.795656 0.000000
O O10 0.617119 0.395728 0.794130
O O11 0.798687 0.409314 0.000000
O O12 0.500000 0.500000 0.343460
O O13 0.456741 0.615426 0.500000
#
# Coordination Sequence:
#
# PCOD8227291 Si02
#       5
#     8   8   8   8   8
#     4  10  21  40  66  98 136 180 229 277 338 412
#     4  12  27  49  73  99 136 185 232 277 342 419
#     4  12  27  48  72 103 139 177 228 289 346 402
#     4  11  22  38  64 100 138 176 226 286 343 396
#     4   8  16  32  56  89 130 173 219 266 324 396
#
# _framework density 23.544906999999998
#
# number of rings (size 3 to 8) (size 9 to 14) (size 15 to 20)
#    0.000    1.400    0.000    7.200    2.800    5.200 
#    0.000    4.000    0.000    0.000    0.000    0.000 
#    0.000    0.000    0.000    0.000    0.000    0.000 
#
# Total GULP energy -496093.440020 kJ/mol
# GULP energy per Si atom -12402.336000 kJ/mol
# Density = 2.349132 g / cm^3
# Si number density = 23.544907 Si / 1000 Ang^3
#
#
#
# Elastic Constant Matrix: (Units=GPa)
#
#
# Indices 1 2 3 4 5 6 
#
# 1 113.0357 19.7309 17.9159 0.0000 0.0000 0.0000
# 2 19.7309 37.7504 5.5746 0.0000 0.0000 0.0000
# 3 17.9159 5.5746 108.1479 0.0000 0.0000 0.0000
# 4 0.0000 0.0000 0.0000 36.9883 0.0000 0.0000
# 5 0.0000 0.0000 0.0000 0.0000 31.8977 0.0000
# 6 0.0000 0.0000 0.0000 0.0000 0.0000 40.9498
#
#
#
# Elastic Compliance Matrix: (Units=1/GPa)
#
#
# Indices 1 2 3 4 5 6 
#
# 1 0.009938 -0.004989 -0.001389 0.000000 0.000000 0.000000
# 2 -0.004989 0.029198 -0.000679 0.000000 0.000000 0.000000
# 3 -0.001389 -0.000679 0.009512 0.000000 0.000000 0.000000
# 4 0.000000 0.000000 0.000000 0.027036 0.000000 0.000000
# 5 0.000000 0.000000 0.000000 0.000000 0.031350 0.000000
# 6 0.000000 0.000000 0.000000 0.000000 0.000000 0.024420
#
#
# Mechanical properties :
#
#
# Convention : Reuss Voigt Hill
#
# Bulk Modulus (GPa) = 28.95724 38.37521 33.66622
# Shear Modulus (GPa) = 31.83137 36.34799 34.08968
#
# Velocity S-wave (km/s) = 3.68087 3.93335 3.80920
# Velocity P-wave (km/s) = 5.51275 6.07967 5.80314
#
# Compressibility (1/GPa) = 0.03453368
#
# Stress axis : x y z
#
# Youngs Moduli (GPa) = 100.62593 34.24936 105.13375
#
# Poissons Ratio (x) = 0.17087 0.14605
# Poissons Ratio (y) = 0.50203 0.07134
# Poissons Ratio (z) = 0.13978 0.02324
#
# Static dielectric constant tensor:
#      x y z
#    x 4.675830 0.000000 0.000000 
#    y 0.000000 4.241300 0.000000 
#    z 0.000000 0.000000 4.002600 
# 
# 
# High freq. dielectric constant tensor:
#      x y z
#    x 1.936010 0.000000 0.000000 
#    y 0.000000 1.938530 0.000000 
#    z 0.000000 0.000000 1.925090 
# 
# From -- ./inp_files/3627.got.cif
#   From: 2010.03.12/outbox.cif.g09.slc.cpg/sg55_2_cif.got.tgz:3627.got - 2010.04.16 15:19:21.
