data_PCOD8227746
_publ_section_title
;
Structure prediction by ZEFSAII (Michael W. Deem and Ramdas Pophale) SiO2 
 PCOD8227746
Probable space group: P B A M
;
_chemical_formula_sum "Si O2"
_cell_formula_units_Z 48
_cell_length_a 8.540831
_cell_length_b 10.646649
_cell_length_c 22.634809
_cell_angle_alpha 90.000000
_cell_angle_beta 90.000000
_cell_angle_gamma 90.000000
_cell_volume 2058.211019
_symmetry_space_group_name_H-M "P B A M"
_symmetry_group_IT_number 55
_symmetry_cell_setting 'orthorhombic'
loop_
_space_group_symop_operation_xyz
x,y,z
-x,-y,z
1/2+x,1/2-y,-z
1/2-x,1/2+y,-z
-x,-y,-z
x,y,-z
1/2-x,1/2+y,z
1/2+x,1/2-y,z
loop_
_atom_site_type_symbol
_atom_site_label
_atom_site_fract_x
_atom_site_fract_y
_atom_site_fract_z
Si Si1 0.328408 0.884722 0.431597
Si Si2 0.186408 0.944984 0.838479
Si Si3 0.142297 0.593058 0.064943
Si Si4 0.026896 0.261230 0.157544
Si Si5 0.334460 0.145094 0.614544
Si Si6 0.137797 0.588564 0.741952
O O1 0.375035 0.887087 0.500000
O O2 0.210898 0.771784 0.419011
O O3 0.479794 0.863307 0.391821
O O4 0.253618 0.020407 0.413867
O O5 0.298368 0.817340 0.843937
O O6 0.003379 0.891923 0.837253
O O7 0.220451 0.033997 0.894826
O O8 0.228569 0.012714 0.777173
O O9 0.067093 0.712356 0.097085
O O10 0.000000 0.500000 0.057848
O O11 0.209669 0.629565 0.000000
O O12 0.936883 0.311969 0.214252
O O13 0.288151 0.154364 0.684107
O O14 0.000000 0.500000 0.718426
#
# Coordination Sequence:
#
# PCOD8227746 Si02
#       6
#     8   8   8   8   8   8
#     4  11  23  42  64  92 122 159 199 246 299 356
#     4   9  18  32  52  76 104 141 178 236 281 337
#     4   8  15  30  48  70 100 142 185 218 271 346
#     4   9  18  30  53  73 104 138 180 230 281 330
#     4  11  23  39  66  89 122 162 201 246 299 359
#     4   9  18  35  54  78 108 144 189 228 282 348
#
# _framework density 23.321224999999998
#
# number of rings (size 3 to 8) (size 9 to 14) (size 15 to 20)
#    0.000    2.500    1.667    4.000    2.333    1.333 
#    0.000    5.000    3.667    1.000    0.000    0.000 
#    0.000    0.000    0.000    0.000    0.000    0.000 
#
# Total GULP energy -594760.172859 kJ/mol
# GULP energy per Si atom -12390.836935 kJ/mol
# Density = 2.326815 g / cm^3
# Si number density = 23.321225 Si / 1000 Ang^3
#
#
#
# Elastic Constant Matrix: (Units=GPa)
#
#
# Indices 1 2 3 4 5 6 
#
# 1 56.2538 -11.4126 22.2372 0.0000 0.0000 0.0000
# 2 -11.4126 50.6428 1.6422 0.0000 0.0000 0.0000
# 3 22.2372 1.6422 157.3775 0.0000 0.0000 0.0000
# 4 0.0000 0.0000 0.0000 24.8017 0.0000 0.0000
# 5 0.0000 0.0000 0.0000 0.0000 19.6806 0.0000
# 6 0.0000 0.0000 0.0000 0.0000 0.0000 31.6037
#
#
#
# Elastic Compliance Matrix: (Units=1/GPa)
#
#
# Indices 1 2 3 4 5 6 
#
# 1 0.019828 0.004561 -0.002849 0.000000 0.000000 0.000000
# 2 0.004561 0.020802 -0.000861 0.000000 0.000000 0.000000
# 3 -0.002849 -0.000861 0.006766 0.000000 0.000000 0.000000
# 4 0.000000 0.000000 0.000000 0.040320 0.000000 0.000000
# 5 0.000000 0.000000 0.000000 0.000000 0.050811 0.000000
# 6 0.000000 0.000000 0.000000 0.000000 0.000000 0.031642
#
#
# Mechanical properties :
#
#
# Convention : Reuss Voigt Hill
#
# Bulk Modulus (GPa) = 20.36835 32.13418 26.25126
# Shear Modulus (GPa) = 27.05129 32.00437 29.52783
#
# Velocity S-wave (km/s) = 3.40949 3.70851 3.56214
# Velocity P-wave (km/s) = 4.92466 5.66977 5.31030
#
# Compressibility (1/GPa) = 0.04909579
#
# Stress axis : x y z
#
# Youngs Moduli (GPa) = 50.43329 48.07261 147.80362
#
# Poissons Ratio (x) = -0.21925 0.42113
# Poissons Ratio (y) = -0.23001 0.12733
# Poissons Ratio (z) = 0.14370 0.04141
#
# Static dielectric constant tensor:
#      x y z
#    x 4.194460 0.000000 0.000000 
#    y 0.000000 4.628760 0.000000 
#    z 0.000000 0.000000 4.598320 
# 
# 
# High freq. dielectric constant tensor:
#      x y z
#    x 1.905490 0.000000 0.000000 
#    y 0.000000 1.940390 0.000000 
#    z 0.000000 0.000000 1.927120 
# 
# From -- ./inp_files/23438.got.cif
#   From: 2010.03.12/outbox.cif.g09.slc.cpg/sg55_12_cif.got.tgz:23438.got - 2010.04.16 15:19:21.
