data_PCOD8227897
_publ_section_title
;
Structure prediction by ZEFSAII (Michael W. Deem and Ramdas Pophale) SiO2 
 PCOD8227897
Probable space group: P C C N
;
_chemical_formula_sum "Si O2"
_cell_formula_units_Z 56
_cell_length_a 20.978950
_cell_length_b 8.872614
_cell_length_c 15.223235
_cell_angle_alpha 90.000000
_cell_angle_beta 90.000000
_cell_angle_gamma 90.000000
_cell_volume 2833.624427
_symmetry_space_group_name_H-M "P C C N"
_symmetry_group_IT_number 56
_symmetry_cell_setting 'orthorhombic'
loop_
_space_group_symop_operation_xyz
x,y,z
1/2-x,1/2-y,z
1/2+x,-y,1/2-z
-x,1/2+y,1/2-z
-x,-y,-z
1/2+x,1/2+y,-z
1/2-x,y,1/2+z
x,1/2-y,1/2+z
loop_
_atom_site_type_symbol
_atom_site_label
_atom_site_fract_x
_atom_site_fract_y
_atom_site_fract_z
Si Si1 0.136015 0.026915 0.498171
Si Si2 0.678590 0.763088 0.625205
Si Si3 0.908280 0.341232 0.160199
Si Si4 0.944361 0.646359 0.850552
Si Si5 0.364201 0.978172 0.277703
Si Si6 0.636459 0.914272 0.289577
Si Si7 0.238666 0.070193 0.634444
O O1 0.132125 0.179942 0.442087
O O2 0.079168 0.042492 0.568432
O O3 0.205514 0.012852 0.544453
O O4 0.125935 0.887994 0.431111
O O5 0.750000 0.750000 0.588966
O O6 0.653920 0.934765 0.632269
O O7 0.676026 0.688136 0.721482
O O8 0.905063 0.464892 0.237055
O O9 0.982006 0.315116 0.139701
O O10 0.873798 0.194530 0.197781
O O11 0.929131 0.549754 0.762770
O O12 0.907865 0.806640 0.848757
O O13 0.305899 0.005462 0.211374
O O14 0.689786 0.996630 0.351381
O O15 0.250000 0.250000 0.633131
#
# Coordination Sequence:
#
# PCOD8227897 Si02
#       7
#     8   8   8   8   8   8   8
#     4  10  22  34  62  86 119 161 196 256 296 362
#     4  10  17  34  58  85 107 153 204 241 292 364
#     4  11  23  37  56  95 127 156 194 251 320 347
#     4  10  20  40  62  83 118 170 212 237 284 374
#     4  10  20  36  63  86 120 157 199 261 295 354
#     4  10  19  35  62  85 110 157 211 251 281 355
#     4  11  17  39  65  86 110 156 215 245 296 357
#
# _framework density 19.762675000000002
#
# number of rings (size 3 to 8) (size 9 to 14) (size 15 to 20)
#    0.000    1.714    5.714    1.714    0.000    0.571 
#    0.000    3.571    9.429    0.000    0.000    0.000 
#    0.000    0.000    0.000    0.000    0.000    0.000 
#
# Total GULP energy -694004.422225 kJ/mol
# GULP energy per Si atom -12392.936111 kJ/mol
# Density = 1.971769 g / cm^3
# Si number density = 19.762675 Si / 1000 Ang^3
#
#
#
# Elastic Constant Matrix: (Units=GPa)
#
#
# Indices 1 2 3 4 5 6 
#
# 1 118.5091 39.0426 45.6664 0.0000 0.0000 0.0000
# 2 39.0426 103.9405 40.3725 0.0000 0.0000 0.0000
# 3 45.6664 40.3725 86.1169 0.0000 0.0000 0.0000
# 4 0.0000 0.0000 0.0000 23.0666 0.0000 0.0000
# 5 0.0000 0.0000 0.0000 0.0000 25.2392 0.0000
# 6 0.0000 0.0000 0.0000 0.0000 0.0000 24.6625
#
#
#
# Elastic Compliance Matrix: (Units=1/GPa)
#
#
# Indices 1 2 3 4 5 6 
#
# 1 0.011033 -0.002289 -0.004778 0.000000 0.000000 0.000000
# 2 -0.002289 0.012238 -0.004524 0.000000 0.000000 0.000000
# 3 -0.004778 -0.004524 0.016266 0.000000 0.000000 0.000000
# 4 0.000000 0.000000 0.000000 0.043353 0.000000 0.000000
# 5 0.000000 0.000000 0.000000 0.000000 0.039621 0.000000
# 6 0.000000 0.000000 0.000000 0.000000 0.000000 0.040547
#
#
# Mechanical properties :
#
#
# Convention : Reuss Voigt Hill
#
# Bulk Modulus (GPa) = 61.13450 62.08105 61.60778
# Shear Modulus (GPa) = 26.08371 26.82599 26.45485
#
# Velocity S-wave (km/s) = 3.63691 3.68830 3.66269
# Velocity P-wave (km/s) = 6.97407 7.04411 7.00918
#
# Compressibility (1/GPa) = 0.01635737
#
# Stress axis : x y z
#
# Youngs Moduli (GPa) = 90.63541 81.71574 61.47644
#
# Poissons Ratio (x) = 0.18701 0.29372
# Poissons Ratio (y) = 0.20742 0.27809
# Poissons Ratio (z) = 0.43304 0.36964
#
# Static dielectric constant tensor:
#      x y z
#    x 3.615690 0.000000 0.000000 
#    y 0.000000 3.422240 0.000000 
#    z 0.000000 0.000000 3.678170 
# 
# 
# High freq. dielectric constant tensor:
#      x y z
#    x 1.767890 0.000000 0.000000 
#    y 0.000000 1.745220 0.000000 
#    z 0.000000 0.000000 1.767640 
# 
# From -- ./inp_files/13064.got.cif
#   From: 2010.03.12/outbox.cif.g09.slc.cpg/sg56_7_cif.got.tgz:13064.got - 2010.04.16 15:33:40.
