data_PCOD8227660
_publ_section_title
;
Structure prediction by ZEFSAII (Michael W. Deem and Ramdas Pophale) SiO2 
 PCOD8227660
Probable space group: P B A M
;
_chemical_formula_sum "Si O2"
_cell_formula_units_Z 40
_cell_length_a 13.347326
_cell_length_b 18.811331
_cell_length_c 8.985042
_cell_angle_alpha 90.000000
_cell_angle_beta 90.000000
_cell_angle_gamma 90.000000
_cell_volume 2255.973037
_symmetry_space_group_name_H-M "P B A M"
_symmetry_group_IT_number 55
_symmetry_cell_setting 'orthorhombic'
loop_
_space_group_symop_operation_xyz
x,y,z
-x,-y,z
1/2+x,1/2-y,-z
1/2-x,1/2+y,-z
-x,-y,-z
x,y,-z
1/2-x,1/2+y,z
1/2+x,1/2-y,z
loop_
_atom_site_type_symbol
_atom_site_label
_atom_site_fract_x
_atom_site_fract_y
_atom_site_fract_z
Si Si1 0.106930 0.781783 0.175348
Si Si2 0.904252 0.783254 0.670124
Si Si3 0.284152 0.856858 0.674070
Si Si4 0.887541 0.500855 0.323308
Si Si5 0.301964 0.148195 0.326601
O O1 0.182009 0.840772 0.239488
O O2 0.130557 0.703798 0.237826
O O3 0.994847 0.803277 0.221803
O O4 0.116701 0.780733 0.000000
O O5 0.940762 0.788915 0.500000
O O6 0.865883 0.703972 0.704937
O O7 0.815415 0.839123 0.702762
O O8 0.258016 0.860611 0.500000
O O9 0.328484 0.930485 0.737245
O O10 0.892387 0.505520 0.500000
O O11 0.829125 0.430518 0.270677
O O12 0.000000 0.500000 0.257540
O O13 0.327927 0.158917 0.500000
#
# Coordination Sequence:
#
# PCOD8227660 Si02
#       5
#     8   8   8   8   8
#     4  11  21  32  49  72 100 134 168 203 243 288
#     4   9  17  31  51  72  96 129 167 204 241 286
#     4   9  18  33  54  77 100 127 162 205 248 293
#     4   9  16  29  53  81 102 121 153 202 255 298
#     4   9  18  33  53  76 100 127 163 205 247 294
#
# _framework density 17.730708
#
# number of rings (size 3 to 8) (size 9 to 14) (size 15 to 20)
#    0.000    2.600    0.000    4.200    0.000    6.400 
#    0.000    2.000    0.000    8.400    0.000    0.000 
#    0.000    0.000    0.000    0.000    0.000    0.000 
#
# Total GULP energy -496058.668737 kJ/mol
# GULP energy per Si atom -12401.466718 kJ/mol
# Density = 1.769035 g / cm^3
# Si number density = 17.730708 Si / 1000 Ang^3
#
#
#
# Elastic Constant Matrix: (Units=GPa)
#
#
# Indices 1 2 3 4 5 6 
#
# 1 138.7232 79.2908 53.2029 0.0000 0.0000 0.0000
# 2 79.2908 151.5428 33.5908 0.0000 0.0000 0.0000
# 3 53.2029 33.5908 67.5336 0.0000 0.0000 0.0000
# 4 0.0000 0.0000 0.0000 8.9623 0.0000 0.0000
# 5 0.0000 0.0000 0.0000 0.0000 7.1479 0.0000
# 6 0.0000 0.0000 0.0000 0.0000 0.0000 22.4198
#
#
#
# Elastic Compliance Matrix: (Units=1/GPa)
#
#
# Indices 1 2 3 4 5 6 
#
# 1 0.013139 -0.005148 -0.007790 0.000000 0.000000 0.000000
# 2 -0.005148 0.009433 -0.000637 0.000000 0.000000 0.000000
# 3 -0.007790 -0.000637 0.021261 0.000000 0.000000 0.000000
# 4 0.000000 0.000000 0.000000 0.111578 0.000000 0.000000
# 5 0.000000 0.000000 0.000000 0.000000 0.139902 0.000000
# 6 0.000000 0.000000 0.000000 0.000000 0.000000 0.044603
#
#
# Mechanical properties :
#
#
# Convention : Reuss Voigt Hill
#
# Bulk Modulus (GPa) = 59.93761 76.66318 68.30040
# Shear Modulus (GPa) = 13.41824 20.48700 16.95262
#
# Velocity S-wave (km/s) = 2.75395 3.40288 3.09547
# Velocity P-wave (km/s) = 6.63250 7.66622 7.16802
#
# Compressibility (1/GPa) = 0.01668401
#
# Stress axis : x y z
#
# Youngs Moduli (GPa) = 76.11202 106.00735 47.03397
#
# Poissons Ratio (x) = 0.54569 0.36640
# Poissons Ratio (y) = 0.39180 0.02995
# Poissons Ratio (z) = 0.59292 0.06750
#
# Static dielectric constant tensor:
#      x y z
#    x 3.320810 0.000000 0.000000 
#    y 0.000000 3.395230 0.000000 
#    z 0.000000 0.000000 2.960850 
# 
# 
# High freq. dielectric constant tensor:
#      x y z
#    x 1.693150 0.000000 0.000000 
#    y 0.000000 1.678790 0.000000 
#    z 0.000000 0.000000 1.653740 
# 
# From -- ./inp_files/3624.got.cif
#   From: 2010.03.12/outbox.cif.g09.slc.cpg/sg55_2_cif.got.tgz:3624.got - 2010.04.16 15:19:21.
