data_PCOD8227792
_publ_section_title
;
Structure prediction by ZEFSAII (Michael W. Deem and Ramdas Pophale) SiO2 
 PCOD8227792
Probable space group: P B A M
;
_chemical_formula_sum "Si O2"
_cell_formula_units_Z 48
_cell_length_a 9.795791
_cell_length_b 15.448054
_cell_length_c 15.353412
_cell_angle_alpha 90.000000
_cell_angle_beta 90.000000
_cell_angle_gamma 90.000000
_cell_volume 2323.369017
_symmetry_space_group_name_H-M "P B A M"
_symmetry_group_IT_number 55
_symmetry_cell_setting 'orthorhombic'
loop_
_space_group_symop_operation_xyz
x,y,z
-x,-y,z
1/2+x,1/2-y,-z
1/2-x,1/2+y,-z
-x,-y,-z
x,y,-z
1/2-x,1/2+y,z
1/2+x,1/2-y,z
loop_
_atom_site_type_symbol
_atom_site_label
_atom_site_fract_x
_atom_site_fract_y
_atom_site_fract_z
Si Si1 0.764098 0.652201 0.273750
Si Si2 0.917665 0.339060 0.000000
Si Si3 0.595036 0.332103 0.000000
Si Si4 0.999986 0.899369 0.184266
Si Si5 0.261859 0.656056 0.701982
Si Si6 0.661078 0.000859 0.399802
Si Si7 0.024037 0.598006 0.182663
O O1 0.651379 0.637955 0.198822
O O2 0.742774 0.743212 0.324591
O O3 0.764379 0.575014 0.343932
O O4 0.904587 0.658214 0.220080
O O5 0.757383 0.314925 0.000000
O O6 0.963450 0.398040 0.079812
O O7 0.009158 0.254526 0.000000
O O8 0.553756 0.383903 0.086778
O O9 0.913263 0.856096 0.261548
O O10 0.000000 0.000000 0.201804
O O11 0.225747 0.593323 0.621163
O O12 0.166095 0.632303 0.782234
O O13 0.689697 0.021850 0.500000
O O14 0.500000 0.000000 0.379495
O O15 0.000000 0.500000 0.213490
#
# Coordination Sequence:
#
# PCOD8227792 Si02
#       7
#     8   4   4   8   8   8   8
#     4  12  24  42  73  99 134 177 224 272 340 401
#     4  12  27  42  64 100 136 179 234 283 327 388
#     4  12  27  44  62 100 138 179 234 277 331 392
#     4  12  25  43  67  97 137 181 220 279 339 387
#     4  12  22  44  69 100 132 177 220 276 333 402
#     4  11  24  46  73 100 134 175 223 278 336 414
#     4  12  23  45  68  94 133 184 232 272 324 400
#
# _framework density 20.659655000000001
#
# number of rings (size 3 to 8) (size 9 to 14) (size 15 to 20)
#    0.000    0.167    6.667    3.500    2.333    0.667 
#    0.000    1.667    0.000    0.000    0.000    0.000 
#    0.000    0.000    0.000    0.000    0.000    0.000 
#
# Total GULP energy -595318.596080 kJ/mol
# GULP energy per Si atom -12402.470752 kJ/mol
# Density = 2.061263 g / cm^3
# Si number density = 20.659655 Si / 1000 Ang^3
#
#
#
# Elastic Constant Matrix: (Units=GPa)
#
#
# Indices 1 2 3 4 5 6 
#
# 1 73.8202 34.8333 34.5356 0.0000 0.0000 0.0000
# 2 34.8333 147.0147 26.1243 0.0000 0.0000 0.0000
# 3 34.5356 26.1243 109.2916 0.0000 0.0000 0.0000
# 4 0.0000 0.0000 0.0000 15.6447 0.0000 0.0000
# 5 0.0000 0.0000 0.0000 0.0000 53.5853 0.0000
# 6 0.0000 0.0000 0.0000 0.0000 0.0000 23.3468
#
#
#
# Elastic Compliance Matrix: (Units=1/GPa)
#
#
# Indices 1 2 3 4 5 6 
#
# 1 0.017274 -0.003262 -0.004679 0.000000 0.000000 0.000000
# 2 -0.003262 0.007720 -0.000815 0.000000 0.000000 0.000000
# 3 -0.004679 -0.000815 0.010823 0.000000 0.000000 0.000000
# 4 0.000000 0.000000 0.000000 0.063919 0.000000 0.000000
# 5 0.000000 0.000000 0.000000 0.000000 0.018662 0.000000
# 6 0.000000 0.000000 0.000000 0.000000 0.000000 0.042832
#
#
# Mechanical properties :
#
#
# Convention : Reuss Voigt Hill
#
# Bulk Modulus (GPa) = 54.62447 57.90144 56.26295
# Shear Modulus (GPa) = 27.04993 34.15758 30.60375
#
# Velocity S-wave (km/s) = 3.62237 4.07055 3.85298
# Velocity P-wave (km/s) = 6.63272 7.08376 6.86195
#
# Compressibility (1/GPa) = 0.01830681
#
# Stress axis : x y z
#
# Youngs Moduli (GPa) = 57.88898 129.54089 92.39495
#
# Poissons Ratio (x) = 0.42250 0.43232
# Poissons Ratio (y) = 0.18881 0.07527
# Poissons Ratio (z) = 0.27086 0.10552
#
# Static dielectric constant tensor:
#      x y z
#    x 4.030430 0.000000 0.000000 
#    y 0.000000 3.989090 0.000000 
#    z 0.000000 0.000000 4.156820 
# 
# 
# High freq. dielectric constant tensor:
#      x y z
#    x 1.819690 0.000000 0.000000 
#    y 0.000000 1.820240 0.000000 
#    z 0.000000 0.000000 1.797980 
# 
# From -- ./inp_files/20847.got.cif
#   From: 2010.03.12/outbox.cif.g09.slc.cpg/sg55_11_cif.got.tgz:20847.got - 2010.04.16 15:19:21.
