data_PCOD8227863
_publ_section_title
;
Structure prediction by ZEFSAII (Michael W. Deem and Ramdas Pophale) SiO2 
 PCOD8227863
Probable space group: P C C N
;
_chemical_formula_sum "Si O2"
_cell_formula_units_Z 48
_cell_length_a 25.684949
_cell_length_b 17.201956
_cell_length_c 5.101009
_cell_angle_alpha 90.000000
_cell_angle_beta 90.000000
_cell_angle_gamma 90.000000
_cell_volume 2253.785757
_symmetry_space_group_name_H-M "P C C N"
_symmetry_group_IT_number 56
_symmetry_cell_setting 'orthorhombic'
loop_
_space_group_symop_operation_xyz
x,y,z
1/2-x,1/2-y,z
1/2+x,-y,1/2-z
-x,1/2+y,1/2-z
-x,-y,-z
1/2+x,1/2+y,-z
1/2-x,y,1/2+z
x,1/2-y,1/2+z
loop_
_atom_site_type_symbol
_atom_site_label
_atom_site_fract_x
_atom_site_fract_y
_atom_site_fract_z
Si Si1 0.583026 0.795600 0.242702
Si Si2 0.943053 0.472056 0.912728
Si Si3 0.783745 0.039127 0.940406
Si Si4 0.609941 0.964169 0.409064
Si Si5 0.540061 0.297259 0.270905
Si Si6 0.692577 0.215735 0.420986
O O1 0.601442 0.732424 0.457150
O O2 0.609316 0.876451 0.311228
O O3 0.521592 0.806827 0.237834
O O4 0.926591 0.524817 0.664174
O O5 0.937613 0.382901 0.823251
O O6 0.906192 0.481153 0.165568
O O7 0.000000 0.500000 0.000000
O O8 0.760962 0.024757 0.652807
O O9 0.806571 0.125123 0.974838
O O10 0.830974 0.981090 0.991683
O O11 0.558870 0.236120 0.491871
O O12 0.750000 0.250000 0.358980
O O13 0.662396 0.260883 0.654304
#
# Coordination Sequence:
#
# PCOD8227863 Si02
#       6
#     8   8   8   8   8   8
#     4  10  21  38  64  93 120 162 214 262 297 397
#     4  12  24  42  65  93 138 169 204 274 320 375
#     4  12  23  41  64  89 125 164 208 271 309 370
#     4  12  26  41  65 102 123 167 222 256 334 388
#     4  10  21  37  62  87 127 176 212 244 317 379
#     4  10  16  32  59  84 108 155 217 241 296 361
#
# _framework density 21.297498000000001
#
# number of rings (size 3 to 8) (size 9 to 14) (size 15 to 20)
#    0.000    1.000    5.000    3.500    4.667    0.000 
#    0.000    5.000    0.000    3.000    0.000    0.000 
#    0.000    0.000    0.000    0.000    0.000    0.000 
#
# Total GULP energy -595276.379018 kJ/mol
# GULP energy per Si atom -12401.591230 kJ/mol
# Density = 2.124902 g / cm^3
# Si number density = 21.297498 Si / 1000 Ang^3
#
#
#
# Elastic Constant Matrix: (Units=GPa)
#
#
# Indices 1 2 3 4 5 6 
#
# 1 51.4975 32.6140 30.3766 0.0000 0.0000 0.0000
# 2 32.6140 106.7042 20.3441 0.0000 0.0000 0.0000
# 3 30.3766 20.3441 118.3290 0.0000 0.0000 0.0000
# 4 0.0000 0.0000 0.0000 35.6168 0.0000 0.0000
# 5 0.0000 0.0000 0.0000 0.0000 20.0242 0.0000
# 6 0.0000 0.0000 0.0000 0.0000 0.0000 25.0853
#
#
#
# Elastic Compliance Matrix: (Units=1/GPa)
#
#
# Indices 1 2 3 4 5 6 
#
# 1 0.027450 -0.007285 -0.005794 0.000000 0.000000 0.000000
# 2 -0.007285 0.011623 -0.000128 0.000000 0.000000 0.000000
# 3 -0.005794 -0.000128 0.009960 0.000000 0.000000 0.000000
# 4 0.000000 0.000000 0.000000 0.028077 0.000000 0.000000
# 5 0.000000 0.000000 0.000000 0.000000 0.049940 0.000000
# 6 0.000000 0.000000 0.000000 0.000000 0.000000 0.039864
#
#
# Mechanical properties :
#
#
# Convention : Reuss Voigt Hill
#
# Bulk Modulus (GPa) = 44.21223 49.24445 46.72834
# Shear Modulus (GPa) = 24.89190 29.02498 26.95844
#
# Velocity S-wave (km/s) = 3.42244 3.69566 3.56167
# Velocity P-wave (km/s) = 6.03505 6.43296 6.23718
#
# Compressibility (1/GPa) = 0.02261817
#
# Stress axis : x y z
#
# Youngs Moduli (GPa) = 36.42967 86.03724 100.39662
#
# Poissons Ratio (x) = 0.62681 0.58172
# Poissons Ratio (y) = 0.26540 0.01286
# Poissons Ratio (z) = 0.21108 0.01102
#
# Static dielectric constant tensor:
#      x y z
#    x 3.575450 0.000000 0.000000 
#    y 0.000000 3.744880 0.000000 
#    z 0.000000 0.000000 4.544270 
# 
# 
# High freq. dielectric constant tensor:
#      x y z
#    x 1.805240 0.000000 0.000000 
#    y 0.000000 1.828450 0.000000 
#    z 0.000000 0.000000 1.867840 
# 
# From -- ./inp_files/1204.got.cif
#   From: 2010.03.12/outbox.cif.g09.slc.cpg/sg56_1_cif.got.tgz:1204.got - 2010.04.16 15:33:40.
