data_PCOD8227624
_publ_section_title
;
Structure prediction by ZEFSAII (Michael W. Deem and Ramdas Pophale) SiO2 
 PCOD8227624
Probable space group: P B A M
;
_chemical_formula_sum "Si O2"
_cell_formula_units_Z 48
_cell_length_a 9.780773
_cell_length_b 16.063926
_cell_length_c 14.033054
_cell_angle_alpha 90.000000
_cell_angle_beta 90.000000
_cell_angle_gamma 90.000000
_cell_volume 2204.839957
_symmetry_space_group_name_H-M "P B A M"
_symmetry_group_IT_number 55
_symmetry_cell_setting 'orthorhombic'
loop_
_space_group_symop_operation_xyz
x,y,z
-x,-y,z
1/2+x,1/2-y,-z
1/2-x,1/2+y,-z
-x,-y,-z
x,y,-z
1/2-x,1/2+y,z
1/2+x,1/2-y,z
loop_
_atom_site_type_symbol
_atom_site_label
_atom_site_fract_x
_atom_site_fract_y
_atom_site_fract_z
Si Si1 0.652449 0.499380 0.892306
Si Si2 0.614816 0.942693 0.228073
Si Si3 0.498026 0.362367 0.608677
Si Si4 0.009317 0.265225 0.777475
Si Si5 0.220764 0.996216 0.393065
Si Si6 0.273750 0.312507 0.108802
O O1 0.500000 0.500000 0.846303
O O2 0.748380 0.434511 0.836191
O O3 0.725141 0.588070 0.885517
O O4 0.640217 0.466635 0.000000
O O5 0.559613 0.851934 0.250218
O O6 0.649867 0.991766 0.325312
O O7 0.500000 0.000000 0.176216
O O8 0.484809 0.328943 0.500000
O O9 0.519518 0.285941 0.679723
O O10 0.626229 0.423076 0.615906
O O11 0.361608 0.413242 0.637788
O O12 0.920955 0.219614 0.857893
O O13 0.158861 0.276911 0.821399
O O14 0.274984 0.985676 0.500000
O O15 0.247631 0.283691 0.000000
#
# Coordination Sequence:
#
# PCOD8227624 Si02
#       6
#     8   8   8   8   8   8
#     4  10  24  45  69  94 123 173 230 272 323 394
#     4  12  25  41  64  96 136 172 214 270 329 389
#     4   9  20  41  71  99 125 168 224 276 325 391
#     4  12  25  42  65  98 136 173 219 271 333 397
#     4   9  20  41  68  96 128 169 219 270 326 394
#     4  11  25  44  65  96 133 171 219 275 331 392
#
# _framework density 21.770287
#
# number of rings (size 3 to 8) (size 9 to 14) (size 15 to 20)
#    0.000    1.500    1.667    3.500    7.000    2.667 
#    0.000    0.833    0.000    0.000    0.000    0.000 
#    0.000    0.000    0.000    0.000    0.000    0.000 
#
# Total GULP energy -595350.341335 kJ/mol
# GULP energy per Si atom -12403.132111 kJ/mol
# Density = 2.172074 g / cm^3
# Si number density = 21.770287 Si / 1000 Ang^3
#
#
#
# Elastic Constant Matrix: (Units=GPa)
#
#
# Indices 1 2 3 4 5 6 
#
# 1 97.5380 18.4370 40.2429 0.0000 0.0000 0.0000
# 2 18.4370 85.0692 42.8809 0.0000 0.0000 0.0000
# 3 40.2429 42.8809 117.1428 0.0000 0.0000 0.0000
# 4 0.0000 0.0000 0.0000 22.4714 0.0000 0.0000
# 5 0.0000 0.0000 0.0000 0.0000 28.4676 0.0000
# 6 0.0000 0.0000 0.0000 0.0000 0.0000 32.1094
#
#
#
# Elastic Compliance Matrix: (Units=1/GPa)
#
#
# Indices 1 2 3 4 5 6 
#
# 1 0.011974 -0.000640 -0.003879 0.000000 0.000000 0.000000
# 2 -0.000640 0.014449 -0.005069 0.000000 0.000000 0.000000
# 3 -0.003879 -0.005069 0.011725 0.000000 0.000000 0.000000
# 4 0.000000 0.000000 0.000000 0.044501 0.000000 0.000000
# 5 0.000000 0.000000 0.000000 0.000000 0.035128 0.000000
# 6 0.000000 0.000000 0.000000 0.000000 0.000000 0.031144
#
#
# Mechanical properties :
#
#
# Convention : Reuss Voigt Hill
#
# Bulk Modulus (GPa) = 52.71160 55.87462 54.29311
# Shear Modulus (GPa) = 28.66631 29.82228 29.24430
#
# Velocity S-wave (km/s) = 3.63266 3.70518 3.66910
# Velocity P-wave (km/s) = 6.46994 6.63519 6.55309
#
# Compressibility (1/GPa) = 0.01897116
#
# Stress axis : x y z
#
# Youngs Moduli (GPa) = 83.51510 69.20830 85.28793
#
# Poissons Ratio (x) = 0.04427 0.33086
# Poissons Ratio (y) = 0.05342 0.43236
# Poissons Ratio (z) = 0.32398 0.35085
#
# Static dielectric constant tensor:
#      x y z
#    x 4.020560 0.000000 0.000000 
#    y 0.000000 3.809690 0.000000 
#    z 0.000000 0.000000 4.045130 
# 
# 
# High freq. dielectric constant tensor:
#      x y z
#    x 1.860210 0.000000 0.000000 
#    y 0.000000 1.849140 0.000000 
#    z 0.000000 0.000000 1.861110 
# 
# From -- ./inp_files/17369.got.cif
#   From: 2010.03.12/outbox.cif.g09.slc.cpg/sg55_9_cif.got.tgz:17369.got - 2010.04.16 15:19:21.
