data_PCOD8227799
_publ_section_title
;
Structure prediction by ZEFSAII (Michael W. Deem and Ramdas Pophale) SiO2 
 PCOD8227799
Probable space group: P B A M
;
_chemical_formula_sum "Si O2"
_cell_formula_units_Z 48
_cell_length_a 8.965632
_cell_length_b 14.691986
_cell_length_c 17.274213
_cell_angle_alpha 90.000000
_cell_angle_beta 90.000000
_cell_angle_gamma 90.000000
_cell_volume 2275.410120
_symmetry_space_group_name_H-M "P B A M"
_symmetry_group_IT_number 55
_symmetry_cell_setting 'orthorhombic'
loop_
_space_group_symop_operation_xyz
x,y,z
-x,-y,z
1/2+x,1/2-y,-z
1/2-x,1/2+y,-z
-x,-y,-z
x,y,-z
1/2-x,1/2+y,z
1/2+x,1/2-y,z
loop_
_atom_site_type_symbol
_atom_site_label
_atom_site_fract_x
_atom_site_fract_y
_atom_site_fract_z
Si Si1 0.324562 0.594520 0.848299
Si Si2 0.339083 0.391568 0.846013
Si Si3 0.181195 0.339371 0.000000
Si Si4 0.826856 0.355481 0.000000
Si Si5 0.225813 0.242681 0.268674
Si Si6 0.974469 0.253298 0.620798
Si Si7 0.924857 0.599768 0.500000
Si Si8 0.429856 0.399418 0.500000
O O1 0.335672 0.493890 0.813746
O O2 0.489663 0.635815 0.865642
O O3 0.224059 0.589255 0.924865
O O4 0.241868 0.656471 0.785457
O O5 0.269016 0.332516 0.777956
O O6 0.242114 0.387666 0.923589
O O7 0.237514 0.237478 0.000000
O O8 0.003112 0.342012 0.000000
O O9 0.304536 0.232942 0.352423
O O10 0.054442 0.245864 0.295512
O O11 0.024584 0.342831 0.574644
O O12 0.986343 0.158773 0.573667
O O13 0.747561 0.589004 0.500000
O O14 0.000000 0.500000 0.500000
O O15 0.500000 0.500000 0.500000
#
# Coordination Sequence:
#
# PCOD8227799 Si02
#       8
#     8   8   4   4   8   8   4   4
#     4  11  25  44  68  96 133 180 225 279 339 395
#     4  11  25  44  67  98 133 176 229 278 338 399
#     4  12  25  42  67  94 132 176 233 281 332 397
#     4  12  25  42  67  94 130 180 229 281 336 391
#     4  12  24  44  68 100 136 180 217 277 336 396
#     4  11  26  46  70  99 143 174 221 273 331 401
#     4  11  26  46  73 107 135 177 225 271 328 396
#     4  11  26  46  75 103 135 181 225 267 330 400
#
# _framework density 21.095098
#
# number of rings (size 3 to 8) (size 9 to 14) (size 15 to 20)
#    0.000    0.667    5.000    2.000    4.667    5.333 
#    0.000    0.000    0.000    0.000    0.000    0.000 
#    0.000    0.000    0.000    0.000    0.000    0.000 
#
# Total GULP energy -595244.518528 kJ/mol
# GULP energy per Si atom -12400.927469 kJ/mol
# Density = 2.104708 g / cm^3
# Si number density = 21.095098 Si / 1000 Ang^3
#
#
#
# Elastic Constant Matrix: (Units=GPa)
#
#
# Indices 1 2 3 4 5 6 
#
# 1 110.4753 49.2523 44.2058 0.0000 0.0000 0.0000
# 2 49.2523 154.8231 57.9301 0.0000 0.0000 0.0000
# 3 44.2058 57.9301 126.0790 0.0000 0.0000 0.0000
# 4 0.0000 0.0000 0.0000 -9.3677 0.0000 0.0000
# 5 0.0000 0.0000 0.0000 0.0000 42.2713 0.0000
# 6 0.0000 0.0000 0.0000 0.0000 0.0000 32.5485
#
#
#
# Elastic Compliance Matrix: (Units=1/GPa)
#
#
# Indices 1 2 3 4 5 6 
#
# 1 0.011307 -0.002552 -0.002792 0.000000 0.000000 0.000000
# 2 -0.002552 0.008376 -0.002954 0.000000 0.000000 0.000000
# 3 -0.002792 -0.002954 0.010267 0.000000 0.000000 0.000000
# 4 0.000000 0.000000 0.000000 -0.106750 0.000000 0.000000
# 5 0.000000 0.000000 0.000000 0.000000 0.023657 0.000000
# 6 0.000000 0.000000 0.000000 0.000000 0.000000 0.030723
#
#
# Mechanical properties :
#
#
# Convention : Reuss Voigt Hill
#
# Bulk Modulus (GPa) = 74.87847 77.12820 76.00333
# Shear Modulus (GPa) = -3642.43845 29.08969 -1806.67438
#
# Velocity S-wave (km/s) = -41.59836 3.71749 -29.29679
# Velocity P-wave (km/s) = 47.66192 7.42077 33.29107
#
# Compressibility (1/GPa) = 0.01335497
#
# Stress axis : x y z
#
# Youngs Moduli (GPa) = 88.44282 119.38689 97.39480
#
# Poissons Ratio (x) = 0.30472 0.27189
# Poissons Ratio (y) = 0.22574 0.28768
# Poissons Ratio (z) = 0.24690 0.35263
#
# Static dielectric constant tensor:
#      x y z
#    x 3.970400 0.000000 0.000000 
#    y 0.000000 3.786150 0.000000 
#    z 0.000000 0.000000 3.824330 
# 
# 
# High freq. dielectric constant tensor:
#      x y z
#    x 1.842160 0.000000 0.000000 
#    y 0.000000 1.831240 0.000000 
#    z 0.000000 0.000000 1.830280 
# 
# From -- ./inp_files/20870.got.cif
#   From: 2010.03.12/outbox.cif.g09.slc.cpg/sg55_11_cif.got.tgz:20870.got - 2010.04.16 15:19:21.
