data_PCOD8227676
_publ_section_title
;
Structure prediction by ZEFSAII (Michael W. Deem and Ramdas Pophale) SiO2 
 PCOD8227676
Probable space group: P B A M
;
_chemical_formula_sum "Si O2"
_cell_formula_units_Z 56
_cell_length_a 25.006492
_cell_length_b 14.189877
_cell_length_c 8.495215
_cell_angle_alpha 90.000000
_cell_angle_beta 90.000000
_cell_angle_gamma 90.000000
_cell_volume 3014.433983
_symmetry_space_group_name_H-M "P B A M"
_symmetry_group_IT_number 55
_symmetry_cell_setting 'orthorhombic'
loop_
_space_group_symop_operation_xyz
x,y,z
-x,-y,z
1/2+x,1/2-y,-z
1/2-x,1/2+y,-z
-x,-y,-z
x,y,-z
1/2-x,1/2+y,z
1/2+x,1/2-y,z
loop_
_atom_site_type_symbol
_atom_site_label
_atom_site_fract_x
_atom_site_fract_y
_atom_site_fract_z
Si Si1 0.317684 0.828973 0.184354
Si Si2 0.005133 0.891587 0.184921
Si Si3 0.290441 0.221939 0.816266
Si Si4 0.168530 0.027863 0.322535
Si Si5 0.215500 0.518557 0.685276
Si Si6 0.899774 0.805712 0.313518
Si Si7 0.113742 0.835395 0.678366
O O1 0.263083 0.776515 0.245850
O O2 0.371743 0.792341 0.268832
O O3 0.318732 0.939762 0.225188
O O4 0.323314 0.814150 0.000000
O O5 0.053839 0.831277 0.257132
O O6 0.955342 0.825298 0.227580
O O7 0.013371 0.897026 0.000000
O O8 0.000000 0.000000 0.250906
O O9 0.301200 0.124807 0.724750
O O10 0.343650 0.282101 0.786215
O O11 0.284836 0.201408 0.000000
O O12 0.182872 0.056923 0.500000
O O13 0.224852 0.002726 0.243418
O O14 0.141291 0.117348 0.241643
O O15 0.126648 0.944975 0.314256
O O16 0.210170 0.499641 0.500000
O O17 0.908950 0.814608 0.500000
O O18 0.116707 0.796289 0.500000
#
# Coordination Sequence:
#
# PCOD8227676 Si02
#       7
#     8   8   8   8   8   8   8
#     4  11  23  37  55  84 119 154 189 235 293 346
#     4  11  23  37  55  84 119 154 189 235 293 346
#     4  11  23  37  55  84 119 154 189 235 293 346
#     4   9  18  30  52  83 115 147 187 236 277 324
#     4  11  21  37  58  83 114 154 197 237 282 339
#     4  11  21  37  58  83 114 154 197 237 282 339
#     4  11  21  37  58  83 114 154 197 237 282 339
#
# _framework density 18.577286000000001
#
# number of rings (size 3 to 8) (size 9 to 14) (size 15 to 20)
#    0.000    1.286    4.286    2.571    0.000    1.714 
#    0.000    0.000    0.000    0.857    0.000    6.000 
#    0.000    0.000    0.000    0.000    0.000    0.000 
#
# Total GULP energy -694222.607695 kJ/mol
# GULP energy per Si atom -12396.832280 kJ/mol
# Density = 1.853500 g / cm^3
# Si number density = 18.577286 Si / 1000 Ang^3
#
#
#
# Elastic Constant Matrix: (Units=GPa)
#
#
# Indices 1 2 3 4 5 6 
#
# 1 92.5453 18.1618 10.4771 0.0000 0.0000 0.0000
# 2 18.1618 63.3844 12.3133 0.0000 0.0000 0.0000
# 3 10.4771 12.3133 50.5972 0.0000 0.0000 0.0000
# 4 0.0000 0.0000 0.0000 28.1711 0.0000 0.0000
# 5 0.0000 0.0000 0.0000 0.0000 27.5153 0.0000
# 6 0.0000 0.0000 0.0000 0.0000 0.0000 30.9012
#
#
#
# Elastic Compliance Matrix: (Units=1/GPa)
#
#
# Indices 1 2 3 4 5 6 
#
# 1 0.011582 -0.002994 -0.001670 0.000000 0.000000 0.000000
# 2 -0.002994 0.017334 -0.003598 0.000000 0.000000 0.000000
# 3 -0.001670 -0.003598 0.020985 0.000000 0.000000 0.000000
# 4 0.000000 0.000000 0.000000 0.035497 0.000000 0.000000
# 5 0.000000 0.000000 0.000000 0.000000 0.036343 0.000000
# 6 0.000000 0.000000 0.000000 0.000000 0.000000 0.032361
#
#
# Mechanical properties :
#
#
# Convention : Reuss Voigt Hill
#
# Bulk Modulus (GPa) = 29.96097 32.04794 31.00445
# Shear Modulus (GPa) = 27.50983 28.35585 27.93284
#
# Velocity S-wave (km/s) = 3.85233 3.91112 3.88184
# Velocity P-wave (km/s) = 5.99583 6.13876 6.06772
#
# Compressibility (1/GPa) = 0.03337675
#
# Stress axis : x y z
#
# Youngs Moduli (GPa) = 86.33964 57.69094 47.65233
#
# Poissons Ratio (x) = 0.17275 0.07956
# Poissons Ratio (y) = 0.25853 0.17147
# Poissons Ratio (z) = 0.14415 0.20759
#
# Static dielectric constant tensor:
#      x y z
#    x 3.398330 0.000000 0.000000 
#    y 0.000000 3.272150 0.000000 
#    z 0.000000 0.000000 3.317270 
# 
# 
# High freq. dielectric constant tensor:
#      x y z
#    x 1.713570 0.000000 0.000000 
#    y 0.000000 1.707710 0.000000 
#    z 0.000000 0.000000 1.719340 
# 
# From -- ./inp_files/8719.got.cif
#   From: 2010.03.12/outbox.cif.g09.slc.cpg/sg55_5_cif.got.tgz:8719.got - 2010.04.16 15:19:21.
