data_PCOD8227876
_publ_section_title
;
Structure prediction by ZEFSAII (Michael W. Deem and Ramdas Pophale) SiO2 
 PCOD8227876
Probable space group: P C C N
;
_chemical_formula_sum "Si O2"
_cell_formula_units_Z 48
_cell_length_a 15.979790
_cell_length_b 22.696059
_cell_length_c 8.082992
_cell_angle_alpha 90.000000
_cell_angle_beta 90.000000
_cell_angle_gamma 90.000000
_cell_volume 2931.525447
_symmetry_space_group_name_H-M "P C C N"
_symmetry_group_IT_number 56
_symmetry_cell_setting 'orthorhombic'
loop_
_space_group_symop_operation_xyz
x,y,z
1/2-x,1/2-y,z
1/2+x,-y,1/2-z
-x,1/2+y,1/2-z
-x,-y,-z
1/2+x,1/2+y,-z
1/2-x,y,1/2+z
x,1/2-y,1/2+z
loop_
_atom_site_type_symbol
_atom_site_label
_atom_site_fract_x
_atom_site_fract_y
_atom_site_fract_z
Si Si1 0.669915 0.315173 0.464843
Si Si2 0.545468 0.081820 0.454233
Si Si3 0.154734 0.931845 0.343565
Si Si4 0.143350 0.808071 0.921495
Si Si5 0.374181 0.468757 0.931203
Si Si6 0.776154 0.001472 0.363646
O O1 0.640219 0.369517 0.572784
O O2 0.619219 0.259862 0.543792
O O3 0.769687 0.313527 0.481121
O O4 0.648563 0.321279 0.272256
O O5 0.573808 0.059859 0.271749
O O6 0.577123 0.147127 0.497453
O O7 0.444432 0.081051 0.461368
O O8 0.583472 0.033804 0.580740
O O9 0.239929 0.939612 0.231594
O O10 0.162595 0.980786 0.486754
O O11 0.328562 0.458951 0.755856
O O12 0.304811 0.464801 0.075309
#
# Coordination Sequence:
#
# PCOD8227876 Si02
#       6
#     8   8   8   8   8   8
#     4  11  19  29  44  63  90 128 155 177 216 270
#     4  10  19  30  43  66  95 122 151 193 229 260
#     4  10  17  27  44  64  91 119 152 185 224 265
#     4  11  20  29  43  63  92 122 158 186 213 261
#     4   9  18  31  47  64  90 122 155 190 230 268
#     4   9  17  30  47  65  88 124 159 188 222 272
#
# _framework density 16.373729000000001
#
# number of rings (size 3 to 8) (size 9 to 14) (size 15 to 20)
#    0.000    2.000    0.000    9.000    0.000    0.667 
#    0.000    3.333    0.000    0.000    0.000    0.000 
#    0.000   16.000    0.000    0.000    0.000    0.000 
#
# Total GULP energy -594849.572473 kJ/mol
# GULP energy per Si atom -12392.699427 kJ/mol
# Density = 1.633646 g / cm^3
# Si number density = 16.373729 Si / 1000 Ang^3
#
#
#
# Elastic Constant Matrix: (Units=GPa)
#
#
# Indices 1 2 3 4 5 6 
#
# 1 93.0591 42.7361 45.9855 0.0000 0.0000 0.0000
# 2 42.7361 62.1603 23.4482 0.0000 0.0000 0.0000
# 3 45.9855 23.4482 110.7194 0.0000 0.0000 0.0000
# 4 0.0000 0.0000 0.0000 16.6365 0.0000 0.0000
# 5 0.0000 0.0000 0.0000 0.0000 16.2729 0.0000
# 6 0.0000 0.0000 0.0000 0.0000 0.0000 25.7665
#
#
#
# Elastic Compliance Matrix: (Units=1/GPa)
#
#
# Indices 1 2 3 4 5 6 
#
# 1 0.018207 -0.010504 -0.005338 0.000000 0.000000 0.000000
# 2 -0.010504 0.023545 -0.000623 0.000000 0.000000 0.000000
# 3 -0.005338 -0.000623 0.011381 0.000000 0.000000 0.000000
# 4 0.000000 0.000000 0.000000 0.060109 0.000000 0.000000
# 5 0.000000 0.000000 0.000000 0.000000 0.061452 0.000000
# 6 0.000000 0.000000 0.000000 0.000000 0.000000 0.038810
#
#
# Mechanical properties :
#
#
# Convention : Reuss Voigt Hill
#
# Bulk Modulus (GPa) = 49.50023 54.47538 51.98780
# Shear Modulus (GPa) = 19.74970 21.98644 20.86807
#
# Velocity S-wave (km/s) = 3.47678 3.66838 3.57387
# Velocity P-wave (km/s) = 6.81282 7.16135 6.98926
#
# Compressibility (1/GPa) = 0.02020193
#
# Stress axis : x y z
#
# Youngs Moduli (GPa) = 54.92268 42.47264 87.86787
#
# Poissons Ratio (x) = 0.44615 0.46900
# Poissons Ratio (y) = 0.57693 0.05478
# Poissons Ratio (z) = 0.29315 0.02648
#
# Static dielectric constant tensor:
#      x y z
#    x 2.871270 0.000000 0.000000 
#    y 0.000000 3.036490 0.000000 
#    z 0.000000 0.000000 3.326450 
# 
# 
# High freq. dielectric constant tensor:
#      x y z
#    x 1.592010 0.000000 0.000000 
#    y 0.000000 1.592770 0.000000 
#    z 0.000000 0.000000 1.652210 
# 
# From -- ./inp_files/3634.got.cif
#   From: 2010.03.12/outbox.cif.g09.slc.cpg/sg56_2_cif.got.tgz:3634.got - 2010.04.16 15:33:40.
