data_PCOD8227275
_publ_section_title
;
Structure prediction by ZEFSAII (Michael W. Deem and Ramdas Pophale) SiO2 
 PCOD8227275
Probable space group: P B A M
;
_chemical_formula_sum "Si O2"
_cell_formula_units_Z 48
_cell_length_a 18.477624
_cell_length_b 13.867181
_cell_length_c 8.943252
_cell_angle_alpha 90.000000
_cell_angle_beta 90.000000
_cell_angle_gamma 90.000000
_cell_volume 2291.552323
_symmetry_space_group_name_H-M "P B A M"
_symmetry_group_IT_number 55
_symmetry_cell_setting 'orthorhombic'
loop_
_space_group_symop_operation_xyz
x,y,z
-x,-y,z
1/2+x,1/2-y,-z
1/2-x,1/2+y,-z
-x,-y,-z
x,y,-z
1/2-x,1/2+y,z
1/2+x,1/2-y,z
loop_
_atom_site_type_symbol
_atom_site_label
_atom_site_fract_x
_atom_site_fract_y
_atom_site_fract_z
Si Si1 0.038813 0.353519 0.323526
Si Si2 0.855454 0.130801 0.676805
Si Si3 0.848088 0.933938 0.827917
Si Si4 0.768941 0.320095 0.322916
Si Si5 0.106327 0.545050 0.675735
Si Si6 0.507501 0.334738 0.828528
O O1 0.038041 0.329569 0.500000
O O2 0.102099 0.431190 0.284970
O O3 0.052063 0.258278 0.227821
O O4 0.963504 0.398144 0.264908
O O5 0.856578 0.120372 0.500000
O O6 0.802082 0.217282 0.726404
O O7 0.937073 0.150442 0.728719
O O8 0.824882 0.032554 0.746728
O O9 0.807636 0.841875 0.754657
O O10 0.935023 0.921895 0.811639
O O11 0.825702 0.940826 0.000000
O O12 0.758206 0.323035 0.500000
O O13 0.821540 0.405295 0.261815
O O14 0.104537 0.558532 0.500000
O O15 0.483153 0.323222 0.000000
#
# Coordination Sequence:
#
# PCOD8227275 Si02
#       6
#     8   8   8   8   8   8
#     4   9  16  31  58  87 116 152 194 244 298 351
#     4  11  23  42  69  93 116 154 207 259 305 357
#     4  11  26  43  59  87 127 165 201 245 304 369
#     4  10  21  40  64  91 120 155 204 255 304 361
#     4   8  15  31  56  86 118 150 192 246 299 349
#     4  11  23  39  59  87 125 163 202 250 302 363
#
# _framework density 20.946498999999999
#
# number of rings (size 3 to 8) (size 9 to 14) (size 15 to 20)
#    0.000    2.000    1.667    3.000    0.000    7.333 
#    0.000    7.500    0.000    0.000    0.000    0.000 
#    0.000    0.000    0.000    0.000    0.000    0.000 
#
# Total GULP energy -595086.802067 kJ/mol
# GULP energy per Si atom -12397.641710 kJ/mol
# Density = 2.089882 g / cm^3
# Si number density = 20.946499 Si / 1000 Ang^3
#
#
#
# Elastic Constant Matrix: (Units=GPa)
#
#
# Indices 1 2 3 4 5 6 
#
# 1 85.5650 35.6694 34.3367 0.0000 0.0000 0.0000
# 2 35.6694 112.5405 45.6908 0.0000 0.0000 0.0000
# 3 34.3367 45.6908 73.8553 0.0000 0.0000 0.0000
# 4 0.0000 0.0000 0.0000 6.8568 0.0000 0.0000
# 5 0.0000 0.0000 0.0000 0.0000 24.9197 0.0000
# 6 0.0000 0.0000 0.0000 0.0000 0.0000 31.4260
#
#
#
# Elastic Compliance Matrix: (Units=1/GPa)
#
#
# Indices 1 2 3 4 5 6 
#
# 1 0.014896 -0.002550 -0.005348 0.000000 0.000000 0.000000
# 2 -0.002550 0.012303 -0.006425 0.000000 0.000000 0.000000
# 3 -0.005348 -0.006425 0.020001 0.000000 0.000000 0.000000
# 4 0.000000 0.000000 0.000000 0.145840 0.000000 0.000000
# 5 0.000000 0.000000 0.000000 0.000000 0.040129 0.000000
# 6 0.000000 0.000000 0.000000 0.000000 0.000000 0.031821
#
#
# Mechanical properties :
#
#
# Convention : Reuss Voigt Hill
#
# Bulk Modulus (GPa) = 53.89860 55.92828 54.91344
# Shear Modulus (GPa) = 16.67661 23.05811 19.86736
#
# Velocity S-wave (km/s) = 2.82468 3.32144 3.08308
# Velocity P-wave (km/s) = 6.03538 6.43955 6.24074
#
# Compressibility (1/GPa) = 0.01855336
#
# Stress axis : x y z
#
# Youngs Moduli (GPa) = 67.13148 81.28337 49.99631
#
# Poissons Ratio (x) = 0.20728 0.26737
# Poissons Ratio (y) = 0.17119 0.32125
# Poissons Ratio (z) = 0.35901 0.52229
#
# Static dielectric constant tensor:
#      x y z
#    x 3.821930 0.000000 0.000000 
#    y 0.000000 4.054580 0.000000 
#    z 0.000000 0.000000 3.475000 
# 
# 
# High freq. dielectric constant tensor:
#      x y z
#    x 1.814310 0.000000 0.000000 
#    y 0.000000 1.832410 0.000000 
#    z 0.000000 0.000000 1.794870 
# 
# From -- ./inp_files/7430.got.cif
#   From: 2010.03.12/outbox.cif.g09.slc.cpg/sg55_4_cif.got.tgz:7430.got - 2010.04.16 15:19:21.
