data_PCOD8227424
_publ_section_title
;
Structure prediction by ZEFSAII (Michael W. Deem and Ramdas Pophale) SiO2 
 PCOD8227424
Probable space group: P B A M
;
_chemical_formula_sum "Si O2"
_cell_formula_units_Z 64
_cell_length_a 18.477151
_cell_length_b 12.449871
_cell_length_c 13.939762
_cell_angle_alpha 90.000000
_cell_angle_beta 90.000000
_cell_angle_gamma 90.000000
_cell_volume 3206.677012
_symmetry_space_group_name_H-M "P B A M"
_symmetry_group_IT_number 55
_symmetry_cell_setting 'orthorhombic'
loop_
_space_group_symop_operation_xyz
x,y,z
-x,-y,z
1/2+x,1/2-y,-z
1/2-x,1/2+y,-z
-x,-y,-z
x,y,-z
1/2-x,1/2+y,z
1/2+x,1/2-y,z
loop_
_atom_site_type_symbol
_atom_site_label
_atom_site_fract_x
_atom_site_fract_y
_atom_site_fract_z
Si Si1 0.952326 0.790924 0.706358
Si Si2 0.793075 0.964665 0.893347
Si Si3 0.394084 0.308872 0.389058
Si Si4 0.867713 0.525309 0.106379
Si Si5 0.340895 0.523527 0.692722
Si Si6 0.386434 0.733253 0.897604
Si Si7 0.925166 0.546229 0.692282
Si Si8 0.193457 0.599573 0.611081
O O1 0.903323 0.889451 0.669110
O O2 0.949614 0.791887 0.821884
O O3 0.922103 0.674366 0.674652
O O4 0.033701 0.809152 0.673819
O O5 0.707325 0.964274 0.877042
O O6 0.836580 0.019041 0.804050
O O7 0.816363 0.841026 0.887192
O O8 0.812394 0.013285 0.000000
O O9 0.415721 0.296028 0.500000
O O10 0.352306 0.420583 0.374169
O O11 0.343262 0.211135 0.355710
O O12 0.850280 0.650892 0.111698
O O13 0.920456 0.503186 0.196571
O O14 0.900620 0.495116 0.000000
O O15 0.265930 0.582858 0.670962
O O16 0.425448 0.717641 0.000000
O O17 0.860226 0.499381 0.629793
O O18 0.000000 0.500000 0.650952
O O19 0.214044 0.603483 0.500000
#
# Coordination Sequence:
#
# PCOD8227424 Si02
#       8
#     8   8   8   8   8   8   8   8
#     4  10  22  39  64  91 118 162 200 244 310 364
#     4   9  17  32  55  84 117 155 194 236 292 356
#     4  11  25  44  63  88 122 157 204 257 305 366
#     4   9  17  31  53  83 117 154 196 242 295 353
#     4  11  23  40  65  91 124 157 201 252 307 361
#     4   8  16  31  54  84 118 154 196 242 293 358
#     4  11  21  39  61  85 120 160 200 250 303 361
#     4  11  25  42  61  88 118 157 204 255 304 358
#
# _framework density 19.958356999999999
#
# number of rings (size 3 to 8) (size 9 to 14) (size 15 to 20)
#    0.000    2.000    2.500    0.750    1.750    3.500 
#    0.000    0.625    0.000    3.750    0.000    0.000 
#    0.000    0.000    0.000    0.000    0.000    0.000 
#
# Total GULP energy -793132.614261 kJ/mol
# GULP energy per Si atom -12392.697098 kJ/mol
# Density = 1.991293 g / cm^3
# Si number density = 19.958357 Si / 1000 Ang^3
#
#
#
# Elastic Constant Matrix: (Units=GPa)
#
#
# Indices 1 2 3 4 5 6 
#
# 1 108.6647 44.4804 41.9437 0.0000 0.0000 0.0000
# 2 44.4804 92.9936 29.1416 0.0000 0.0000 0.0000
# 3 41.9437 29.1416 72.8362 0.0000 0.0000 0.0000
# 4 0.0000 0.0000 0.0000 25.6664 0.0000 0.0000
# 5 0.0000 0.0000 0.0000 0.0000 24.4268 0.0000
# 6 0.0000 0.0000 0.0000 0.0000 0.0000 31.9984
#
#
#
# Elastic Compliance Matrix: (Units=1/GPa)
#
#
# Indices 1 2 3 4 5 6 
#
# 1 0.013320 -0.004536 -0.005855 0.000000 0.000000 0.000000
# 2 -0.004536 0.013840 -0.002925 0.000000 0.000000 0.000000
# 3 -0.005855 -0.002925 0.018272 0.000000 0.000000 0.000000
# 4 0.000000 0.000000 0.000000 0.038961 0.000000 0.000000
# 5 0.000000 0.000000 0.000000 0.000000 0.040939 0.000000
# 6 0.000000 0.000000 0.000000 0.000000 0.000000 0.031252
#
#
# Mechanical properties :
#
#
# Convention : Reuss Voigt Hill
#
# Bulk Modulus (GPa) = 53.19748 56.18066 54.68907
# Shear Modulus (GPa) = 26.38780 27.01358 26.70069
#
# Velocity S-wave (km/s) = 3.64007 3.68298 3.66159
# Velocity P-wave (km/s) = 6.66175 6.80411 6.73331
#
# Compressibility (1/GPa) = 0.01879788
#
# Stress axis : x y z
#
# Youngs Moduli (GPa) = 75.07787 72.25570 54.72962
#
# Poissons Ratio (x) = 0.32775 0.32046
# Poissons Ratio (y) = 0.34056 0.16009
# Poissons Ratio (z) = 0.43961 0.21136
#
# Static dielectric constant tensor:
#      x y z
#    x 3.354020 0.000000 0.000000 
#    y 0.000000 3.645660 0.000000 
#    z 0.000000 0.000000 3.973370 
# 
# 
# High freq. dielectric constant tensor:
#      x y z
#    x 1.761020 0.000000 0.000000 
#    y 0.000000 1.773910 0.000000 
#    z 0.000000 0.000000 1.792120 
# 
# From -- ./inp_files/19488.got.cif
#   From: 2010.03.12/outbox.cif.g09.slc.cpg/sg55_10_cif.got.tgz:19488.got - 2010.04.16 15:19:21.
