data_PCOD8227859
_publ_section_title
;
Structure prediction by ZEFSAII (Michael W. Deem and Ramdas Pophale) SiO2 
 PCOD8227859
Probable space group: P C C N
;
_chemical_formula_sum "Si O2"
_cell_formula_units_Z 64
_cell_length_a 11.611624
_cell_length_b 17.108948
_cell_length_c 18.519708
_cell_angle_alpha 90.000000
_cell_angle_beta 90.000000
_cell_angle_gamma 90.000000
_cell_volume 3679.174661
_symmetry_space_group_name_H-M "P C C N"
_symmetry_group_IT_number 56
_symmetry_cell_setting 'orthorhombic'
loop_
_space_group_symop_operation_xyz
x,y,z
1/2-x,1/2-y,z
1/2+x,-y,1/2-z
-x,1/2+y,1/2-z
-x,-y,-z
1/2+x,1/2+y,-z
1/2-x,y,1/2+z
x,1/2-y,1/2+z
loop_
_atom_site_type_symbol
_atom_site_label
_atom_site_fract_x
_atom_site_fract_y
_atom_site_fract_z
Si Si1 0.145635 0.402640 0.746442
Si Si2 0.978300 0.086833 0.581903
Si Si3 0.357867 0.291385 0.375895
Si Si4 0.500972 0.801781 0.724654
Si Si5 0.895457 0.144090 0.270514
Si Si6 0.181226 0.325321 0.150029
Si Si7 0.466659 0.592878 0.577604
Si Si8 0.840369 0.419510 0.219412
O O1 0.184870 0.337399 0.804310
O O2 0.221477 0.388360 0.674662
O O3 0.171018 0.488385 0.775617
O O4 0.008128 0.396582 0.735204
O O5 0.097410 0.136004 0.590145
O O6 0.917578 0.100579 0.503836
O O7 0.884571 0.110495 0.641526
O O8 0.006757 0.996423 0.594847
O O9 0.250000 0.250000 0.415194
O O10 0.446205 0.221798 0.353086
O O11 0.416767 0.355251 0.426904
O O12 0.404805 0.736469 0.743559
O O13 0.603599 0.799926 0.782394
O O14 0.432836 0.884530 0.722494
O O15 0.887147 0.125345 0.357280
O O16 0.785671 0.114031 0.229261
O O17 0.250000 0.250000 0.118628
#
# Coordination Sequence:
#
# PCOD8227859 Si02
#       8
#     8   8   8   8   8   8   8   8
#     4  10  18  29  48  82 100 131 165 226 264 303
#     4  10  20  32  52  78 107 140 175 215 269 316
#     4  10  16  30  53  73 103 139 170 216 265 315
#     4   9  18  30  48  75 104 133 163 220 263 300
#     4  10  19  33  51  74 105 135 174 216 258 310
#     4  11  17  31  53  77 106 131 169 225 270 305
#     4   9  19  36  48  76 109 141 175 214 263 322
#     4  11  20  30  52  80 105 133 180 217 260 310
#
# _framework density 17.395206000000002
#
# number of rings (size 3 to 8) (size 9 to 14) (size 15 to 20)
#    0.000    2.250    6.250    1.125    1.750    0.500 
#    0.000    0.000    0.000   12.000    0.000    2.625 
#    0.000    0.000    0.000    0.000    0.000    0.000 
#
# Total GULP energy -792861.995747 kJ/mol
# GULP energy per Si atom -12388.468684 kJ/mol
# Density = 1.735561 g / cm^3
# Si number density = 17.395206 Si / 1000 Ang^3
#
#
#
# Elastic Constant Matrix: (Units=GPa)
#
#
# Indices 1 2 3 4 5 6 
#
# 1 89.6192 39.0328 37.4674 0.0000 0.0000 0.0000
# 2 39.0328 74.0626 20.0919 0.0000 0.0000 0.0000
# 3 37.4674 20.0919 67.2049 0.0000 0.0000 0.0000
# 4 0.0000 0.0000 0.0000 4.0296 0.0000 0.0000
# 5 0.0000 0.0000 0.0000 0.0000 16.2537 0.0000
# 6 0.0000 0.0000 0.0000 0.0000 0.0000 24.7564
#
#
#
# Elastic Compliance Matrix: (Units=1/GPa)
#
#
# Indices 1 2 3 4 5 6 
#
# 1 0.017437 -0.007131 -0.007589 0.000000 0.000000 0.000000
# 2 -0.007131 0.017610 -0.001289 0.000000 0.000000 0.000000
# 3 -0.007589 -0.001289 0.019496 0.000000 0.000000 0.000000
# 4 0.000000 0.000000 0.000000 0.248162 0.000000 0.000000
# 5 0.000000 0.000000 0.000000 0.000000 0.061524 0.000000
# 6 0.000000 0.000000 0.000000 0.000000 0.000000 0.040394
#
#
# Mechanical properties :
#
#
# Convention : Reuss Voigt Hill
#
# Bulk Modulus (GPa) = 44.39626 47.11900 45.75763
# Shear Modulus (GPa) = 11.25743 17.96093 14.60918
#
# Velocity S-wave (km/s) = 2.54669 3.21677 2.90114
# Velocity P-wave (km/s) = 5.85022 6.39867 6.13058
#
# Compressibility (1/GPa) = 0.02252442
#
# Stress axis : x y z
#
# Youngs Moduli (GPa) = 57.34915 56.78595 51.29130
#
# Poissons Ratio (x) = 0.40493 0.38927
# Poissons Ratio (y) = 0.40895 0.06613
# Poissons Ratio (z) = 0.43525 0.07321
#
# Static dielectric constant tensor:
#      x y z
#    x 3.209800 0.000000 0.000000 
#    y 0.000000 3.429720 0.000000 
#    z 0.000000 0.000000 2.974570 
# 
# 
# High freq. dielectric constant tensor:
#      x y z
#    x 1.663940 0.000000 0.000000 
#    y 0.000000 1.684680 0.000000 
#    z 0.000000 0.000000 1.632470 
# 
# From -- ./inp_files/18870.got.cif
#   From: 2010.03.12/outbox.cif.g09.slc.cpg/sg56_10_cif.got.tgz:18870.got - 2010.04.16 15:33:40.
