data_PCOD8227122
_publ_section_title
;
Structure prediction by ZEFSAII (Michael W. Deem and Ramdas Pophale) SiO2 
 PCOD8227122
Probable space group: P B A M
;
_chemical_formula_sum "Si O2"
_cell_formula_units_Z 48
_cell_length_a 20.877998
_cell_length_b 14.903269
_cell_length_c 7.676559
_cell_angle_alpha 90.000000
_cell_angle_beta 90.000000
_cell_angle_gamma 90.000000
_cell_volume 2388.564560
_symmetry_space_group_name_H-M "P B A M"
_symmetry_group_IT_number 55
_symmetry_cell_setting 'orthorhombic'
loop_
_space_group_symop_operation_xyz
x,y,z
-x,-y,z
1/2+x,1/2-y,-z
1/2-x,1/2+y,-z
-x,-y,-z
x,y,-z
1/2-x,1/2+y,z
1/2+x,1/2-y,z
loop_
_atom_site_type_symbol
_atom_site_label
_atom_site_fract_x
_atom_site_fract_y
_atom_site_fract_z
Si Si1 0.605247 0.030018 0.500000
Si Si2 0.152963 0.206991 0.796437
Si Si3 0.805091 0.599691 0.795333
Si Si4 0.178910 0.009288 0.794614
Si Si5 0.952059 0.074807 0.301733
Si Si6 0.989524 0.752781 0.805298
Si Si7 0.526137 0.868113 0.500000
O O1 0.639800 0.057107 0.321582
O O2 0.536419 0.072822 0.500000
O O3 0.592635 0.923478 0.500000
O O4 0.198288 0.292906 0.751798
O O5 0.181984 0.112803 0.722312
O O6 0.080968 0.224514 0.725391
O O7 0.146820 0.194102 0.000000
O O8 0.740802 0.548152 0.740085
O O9 0.821136 0.585436 0.000000
O O10 0.120326 0.958173 0.708148
O O11 0.170138 0.008952 0.000000
O O12 0.968726 0.100566 0.500000
O O13 0.965783 0.159850 0.181099
O O14 0.000000 0.000000 0.230371
O O15 0.027014 0.687309 0.677904
O O16 0.983571 0.711079 0.000000
#
# Coordination Sequence:
#
# PCOD8227122 Si02
#       7
#     4   8   8   8   8   8   4
#     4  11  24  42  66  88 123 160 203 267 311 355
#     4   9  18  36  62  87 116 162 211 252 304 372
#     4  10  22  42  64  90 124 165 214 255 310 380
#     4  10  21  38  61  89 124 164 210 262 313 372
#     4  11  22  35  57  92 131 160 203 263 318 373
#     4  11  21  38  63  88 124 166 206 256 314 372
#     4  11  24  42  61  94 122 154 214 258 308 374
#
# _framework density 20.095752000000001
#
# number of rings (size 3 to 8) (size 9 to 14) (size 15 to 20)
#    0.000    1.667    4.167    0.500    1.167    1.333 
#    4.500    1.667    0.000    0.000    0.000    0.000 
#    0.000    0.000    0.000    0.000    0.000    0.000 
#
# Total GULP energy -594988.167868 kJ/mol
# GULP energy per Si atom -12395.586831 kJ/mol
# Density = 2.005001 g / cm^3
# Si number density = 20.095752 Si / 1000 Ang^3
#
#
#
# Elastic Constant Matrix: (Units=GPa)
#
#
# Indices 1 2 3 4 5 6 
#
# 1 94.3638 66.0512 22.2018 0.0000 0.0000 0.0000
# 2 66.0512 146.3194 30.8313 0.0000 0.0000 0.0000
# 3 22.2018 30.8313 69.7663 0.0000 0.0000 0.0000
# 4 0.0000 0.0000 0.0000 16.1219 0.0000 0.0000
# 5 0.0000 0.0000 0.0000 0.0000 28.5485 0.0000
# 6 0.0000 0.0000 0.0000 0.0000 0.0000 42.6657
#
#
#
# Elastic Compliance Matrix: (Units=1/GPa)
#
#
# Indices 1 2 3 4 5 6 
#
# 1 0.015757 -0.006678 -0.002063 0.000000 0.000000 0.000000
# 2 -0.006678 0.010367 -0.002456 0.000000 0.000000 0.000000
# 3 -0.002063 -0.002456 0.016075 0.000000 0.000000 0.000000
# 4 0.000000 0.000000 0.000000 0.062028 0.000000 0.000000
# 5 0.000000 0.000000 0.000000 0.000000 0.035028 0.000000
# 6 0.000000 0.000000 0.000000 0.000000 0.000000 0.023438
#
#
# Mechanical properties :
#
#
# Convention : Reuss Voigt Hill
#
# Bulk Modulus (GPa) = 50.49383 60.95757 55.72570
# Shear Modulus (GPa) = 26.08383 30.22489 28.15436
#
# Velocity S-wave (km/s) = 3.60665 3.88241 3.74707
# Velocity P-wave (km/s) = 6.52113 7.10611 6.81990
#
# Compressibility (1/GPa) = 0.01980440
#
# Stress axis : x y z
#
# Youngs Moduli (GPa) = 63.46238 96.46330 62.20662
#
# Poissons Ratio (x) = 0.64422 0.12834
# Poissons Ratio (y) = 0.42383 0.15278
# Poissons Ratio (z) = 0.13093 0.23691
#
# Static dielectric constant tensor:
#      x y z
#    x 3.718190 0.000000 0.000000 
#    y 0.000000 4.154450 0.000000 
#    z 0.000000 0.000000 3.518210 
# 
# 
# High freq. dielectric constant tensor:
#      x y z
#    x 1.764500 0.000000 0.000000 
#    y 0.000000 1.791280 0.000000 
#    z 0.000000 0.000000 1.784160 
# 
# From -- ./inp_files/7448.got.cif
#   From: 2010.03.12/outbox.cif.g09.slc.cpg/sg55_4_cif.got.tgz:7448.got - 2010.04.16 15:19:21.
