data_PCOD8227794
_publ_section_title
;
Structure prediction by ZEFSAII (Michael W. Deem and Ramdas Pophale) SiO2 
 PCOD8227794
Probable space group: P B A M
;
_chemical_formula_sum "Si O2"
_cell_formula_units_Z 48
_cell_length_a 16.126694
_cell_length_b 18.805258
_cell_length_c 7.874635
_cell_angle_alpha 90.000000
_cell_angle_beta 90.000000
_cell_angle_gamma 90.000000
_cell_volume 2388.114108
_symmetry_space_group_name_H-M "P B A M"
_symmetry_group_IT_number 55
_symmetry_cell_setting 'orthorhombic'
loop_
_space_group_symop_operation_xyz
x,y,z
-x,-y,z
1/2+x,1/2-y,-z
1/2-x,1/2+y,-z
-x,-y,-z
x,y,-z
1/2-x,1/2+y,z
1/2+x,1/2-y,z
loop_
_atom_site_type_symbol
_atom_site_label
_atom_site_fract_x
_atom_site_fract_y
_atom_site_fract_z
Si Si1 0.409191 0.919110 0.000000
Si Si2 0.662190 0.166012 0.698374
Si Si3 0.992005 0.079842 0.192433
Si Si4 0.832609 0.337502 0.302096
Si Si5 0.898777 0.427625 0.000000
Si Si6 0.360096 0.670662 0.308990
Si Si7 0.845379 0.180365 0.695010
O O1 0.392450 0.879859 0.823447
O O2 0.504588 0.934111 0.000000
O O3 0.359276 0.993489 0.000000
O O4 0.651162 0.143616 0.500000
O O5 0.629545 0.246028 0.726285
O O6 0.756717 0.154349 0.766276
O O7 0.078619 0.122551 0.196182
O O8 0.919257 0.124612 0.281894
O O9 0.962953 0.071253 0.000000
O O10 0.000000 0.000000 0.272833
O O11 0.856692 0.351542 0.500000
O O12 0.734748 0.348700 0.275176
O O13 0.864326 0.259773 0.236560
O O14 0.874131 0.392190 0.176696
O O15 0.386418 0.652532 0.500000
O O16 0.826470 0.193552 0.500000
#
# Coordination Sequence:
#
# PCOD8227794 Si02
#       7
#     4   8   8   8   4   8   8
#     4  11  26  41  58  89 121 156 199 248 310 360
#     4   9  21  41  65  91 117 155 206 253 297 353
#     4  11  25  37  53  91 133 164 195 240 302 366
#     4   9  21  41  65  91 117 155 206 253 297 353
#     4  11  26  41  58  89 121 156 199 248 310 360
#     4   9  20  39  62  89 118 155 204 248 294 352
#     4   9  20  39  62  89 118 155 204 248 294 352
#
# _framework density 20.099542
#
# number of rings (size 3 to 8) (size 9 to 14) (size 15 to 20)
#    0.000    2.333    0.000    2.500    7.000    5.333 
#    0.000    5.000    0.000    0.000    0.000    0.000 
#    0.000    0.000    0.000    0.000    0.000    0.000 
#
# Total GULP energy -594813.460913 kJ/mol
# GULP energy per Si atom -12391.947102 kJ/mol
# Density = 2.005379 g / cm^3
# Si number density = 20.099542 Si / 1000 Ang^3
#
#
#
# Elastic Constant Matrix: (Units=GPa)
#
#
# Indices 1 2 3 4 5 6 
#
# 1 78.4627 55.5704 23.1494 0.0000 0.0000 0.0000
# 2 55.5704 125.5458 47.4244 0.0000 0.0000 0.0000
# 3 23.1494 47.4244 93.2018 0.0000 0.0000 0.0000
# 4 0.0000 0.0000 0.0000 23.1066 0.0000 0.0000
# 5 0.0000 0.0000 0.0000 0.0000 32.9588 0.0000
# 6 0.0000 0.0000 0.0000 0.0000 0.0000 -47.6246
#
#
#
# Elastic Compliance Matrix: (Units=1/GPa)
#
#
# Indices 1 2 3 4 5 6 
#
# 1 0.018586 -0.008026 -0.000533 0.000000 0.000000 0.000000
# 2 -0.008026 0.013326 -0.004787 0.000000 0.000000 0.000000
# 3 -0.000533 -0.004787 0.013298 0.000000 0.000000 0.000000
# 4 0.000000 0.000000 0.000000 0.043278 0.000000 0.000000
# 5 0.000000 0.000000 0.000000 0.000000 0.030341 0.000000
# 6 0.000000 0.000000 0.000000 0.000000 0.000000 -0.020998
#
#
# Mechanical properties :
#
#
# Convention : Reuss Voigt Hill
#
# Bulk Modulus (GPa) = 53.99995 61.05541 57.52768
# Shear Modulus (GPa) = 38.25705 13.09257 25.67481
#
# Velocity S-wave (km/s) = 4.36751 2.55500 3.57793
# Velocity P-wave (km/s) = 7.23589 6.25671 6.76404
#
# Compressibility (1/GPa) = 0.01851853
#
# Stress axis : x y z
#
# Youngs Moduli (GPa) = 53.80370 75.04144 75.20103
#
# Poissons Ratio (x) = 0.60225 0.04006
# Poissons Ratio (y) = 0.43180 0.36001
# Poissons Ratio (z) = 0.02866 0.35925
#
# Static dielectric constant tensor:
#      x y z
#    x 3.532340 0.000000 0.000000 
#    y 0.000000 3.826040 0.000000 
#    z 0.000000 0.000000 3.552700 
# 
# 
# High freq. dielectric constant tensor:
#      x y z
#    x 1.784320 0.000000 0.000000 
#    y 0.000000 1.782250 0.000000 
#    z 0.000000 0.000000 1.785940 
# 
# From -- ./inp_files/5717.got.cif
#   From: 2010.03.12/outbox.cif.g09.slc.cpg/sg55_3_cif.got.tgz:5717.got - 2010.04.16 15:19:21.
