data_PCOD8227298
_publ_section_title
;
Structure prediction by ZEFSAII (Michael W. Deem and Ramdas Pophale) SiO2 
 PCOD8227298
Probable space group: P B A M
;
_chemical_formula_sum "Si O2"
_cell_formula_units_Z 32
_cell_length_a 4.993910
_cell_length_b 13.333840
_cell_length_c 21.776531
_cell_angle_alpha 90.000000
_cell_angle_beta 90.000000
_cell_angle_gamma 90.000000
_cell_volume 1450.055579
_symmetry_space_group_name_H-M "P B A M"
_symmetry_group_IT_number 55
_symmetry_cell_setting 'orthorhombic'
loop_
_space_group_symop_operation_xyz
x,y,z
-x,-y,z
1/2+x,1/2-y,-z
1/2-x,1/2+y,-z
-x,-y,-z
x,y,-z
1/2-x,1/2+y,z
1/2+x,1/2-y,z
loop_
_atom_site_type_symbol
_atom_site_label
_atom_site_fract_x
_atom_site_fract_y
_atom_site_fract_z
Si Si1 0.000000 0.000000 0.845060
Si Si2 0.141159 0.815908 0.070153
Si Si3 0.500000 0.000000 0.235041
Si Si4 0.757004 0.067947 0.568224
Si Si5 0.191476 0.314055 0.314483
O O1 0.748547 0.960792 0.805403
O O2 0.100659 0.909357 0.886275
O O3 0.434432 0.773268 0.083972
O O4 0.112111 0.852825 0.000000
O O5 0.619503 0.087639 0.276669
O O6 0.829112 0.109496 0.500000
O O7 0.695782 0.160677 0.613062
O O8 0.500000 0.000000 0.564348
O O9 0.000000 0.000000 0.594358
O O10 0.485321 0.274239 0.297645
#
# Coordination Sequence:
#
# PCOD8227298 Si02
#       5
#     4   8   4   8   8
#     4  12  25  42  68  92 129 178 218 264 322 390
#     4  10  22  41  67  99 132 164 209 269 327 386
#     4  12  28  44  62  94 134 174 226 276 312 378
#     4  10  21  40  68  96 128 165 207 272 337 391
#     4  12  26  43  68  94 128 175 221 270 330 391
#
# _framework density 22.068118999999999
#
# number of rings (size 3 to 8) (size 9 to 14) (size 15 to 20)
#    0.000    1.000    1.250    4.875    1.750    7.000 
#    0.000    5.000    0.000    0.000    0.000    0.000 
#    0.000    0.000    0.000    0.000    0.000    0.000 
#
# Total GULP energy -396924.860558 kJ/mol
# GULP energy per Si atom -12403.901892 kJ/mol
# Density = 2.201789 g / cm^3
# Si number density = 22.068119 Si / 1000 Ang^3
#
#
#
# Elastic Constant Matrix: (Units=GPa)
#
#
# Indices 1 2 3 4 5 6 
#
# 1 113.6218 10.9064 28.5178 0.0000 0.0000 0.0000
# 2 10.9064 82.9044 47.3122 0.0000 0.0000 0.0000
# 3 28.5178 47.3122 98.6844 0.0000 0.0000 0.0000
# 4 0.0000 0.0000 0.0000 21.0611 0.0000 0.0000
# 5 0.0000 0.0000 0.0000 0.0000 25.0718 0.0000
# 6 0.0000 0.0000 0.0000 0.0000 0.0000 33.6820
#
#
#
# Elastic Compliance Matrix: (Units=1/GPa)
#
#
# Indices 1 2 3 4 5 6 
#
# 1 0.009501 0.000436 -0.002955 0.000000 0.000000 0.000000
# 2 0.000436 0.016625 -0.008097 0.000000 0.000000 0.000000
# 3 -0.002955 -0.008097 0.014869 0.000000 0.000000 0.000000
# 4 0.000000 0.000000 0.000000 0.047481 0.000000 0.000000
# 5 0.000000 0.000000 0.000000 0.000000 0.039885 0.000000
# 6 0.000000 0.000000 0.000000 0.000000 0.000000 0.029689
#
#
# Mechanical properties :
#
#
# Convention : Reuss Voigt Hill
#
# Bulk Modulus (GPa) = 50.59483 52.07595 51.33539
# Shear Modulus (GPa) = 26.90054 29.86125 28.38090
#
# Velocity S-wave (km/s) = 3.49517 3.68250 3.59006
# Velocity P-wave (km/s) = 6.26616 6.45988 6.36376
#
# Compressibility (1/GPa) = 0.01976486
#
# Stress axis : x y z
#
# Youngs Moduli (GPa) = 105.25376 60.14893 67.25394
#
# Poissons Ratio (x) = -0.02625 0.19872
# Poissons Ratio (y) = -0.04593 0.54454
# Poissons Ratio (z) = 0.31100 0.48701
#
# Static dielectric constant tensor:
#      x y z
#    x 4.274750 0.000000 0.000000 
#    y 0.000000 3.660140 0.000000 
#    z 0.000000 0.000000 4.359710 
# 
# 
# High freq. dielectric constant tensor:
#      x y z
#    x 1.891820 0.000000 0.000000 
#    y 0.000000 1.854970 0.000000 
#    z 0.000000 0.000000 1.877480 
# 
# From -- ./inp_files/22213.got.cif
#   From: 2010.03.12/outbox.cif.g09.slc.cpg/sg55_12_cif.got.tgz:22213.got - 2010.04.16 15:19:21.
