data_PCOD8227048
_publ_section_title
;
Structure prediction by ZEFSAII (Michael W. Deem and Ramdas Pophale) SiO2 
 PCOD8227048
Probable space group: P B A M
;
_chemical_formula_sum "Si O2"
_cell_formula_units_Z 28
_cell_length_a 16.907570
_cell_length_b 7.727358
_cell_length_c 10.432750
_cell_angle_alpha 90.000000
_cell_angle_beta 90.000000
_cell_angle_gamma 90.000000
_cell_volume 1363.047617
_symmetry_space_group_name_H-M "P B A M"
_symmetry_group_IT_number 55
_symmetry_cell_setting 'orthorhombic'
loop_
_space_group_symop_operation_xyz
x,y,z
-x,-y,z
1/2+x,1/2-y,-z
1/2-x,1/2+y,-z
-x,-y,-z
x,y,-z
1/2-x,1/2+y,z
1/2+x,1/2-y,z
loop_
_atom_site_type_symbol
_atom_site_label
_atom_site_fract_x
_atom_site_fract_y
_atom_site_fract_z
Si Si1 0.650096 0.631973 0.352529
Si Si2 0.500000 0.500000 0.207822
Si Si3 0.176382 0.470720 0.349726
Si Si4 0.937397 0.646306 0.859191
O O1 0.639703 0.596265 0.500000
O O2 0.577573 0.536048 0.289594
O O3 0.732638 0.547881 0.307765
O O4 0.648958 0.835127 0.322204
O O5 0.481070 0.669459 0.125016
O O6 0.163949 0.417585 0.500000
O O7 0.126492 0.346456 0.255638
O O8 0.000000 0.500000 0.821531
O O9 0.899713 0.605145 0.000000
#
# Coordination Sequence:
#
# PCOD8227048 Si02
#       4
#     8   4   8   8
#     4  10  21  37  63  96 130 165 210 263 318 375
#     4  12  22  40  66  94 129 168 211 256 319 376
#     4  10  21  41  64  93 128 167 212 263 315 376
#     4  11  24  43  64  91 126 165 209 261 311 373
#
# _framework density 20.542203000000001
#
# number of rings (size 3 to 8) (size 9 to 14) (size 15 to 20)
#    0.000    1.429    2.857    2.571    0.000    5.143 
#    0.000    7.143    0.000    0.000    0.000    0.000 
#    0.000    0.000    0.000    0.000    0.000    0.000 
#
# Total GULP energy -347107.263171 kJ/mol
# GULP energy per Si atom -12396.687970 kJ/mol
# Density = 2.049545 g / cm^3
# Si number density = 20.542203 Si / 1000 Ang^3
#
#
#
# Elastic Constant Matrix: (Units=GPa)
#
#
# Indices 1 2 3 4 5 6 
#
# 1 126.6576 47.4877 75.2412 0.0000 0.0000 0.0000
# 2 47.4877 86.9645 35.5173 0.0000 0.0000 0.0000
# 3 75.2412 35.5173 99.1485 0.0000 0.0000 0.0000
# 4 0.0000 0.0000 0.0000 17.4061 0.0000 0.0000
# 5 0.0000 0.0000 0.0000 0.0000 17.0483 0.0000
# 6 0.0000 0.0000 0.0000 0.0000 0.0000 39.3940
#
#
#
# Elastic Compliance Matrix: (Units=1/GPa)
#
#
# Indices 1 2 3 4 5 6 
#
# 1 0.015655 -0.004330 -0.010329 0.000000 0.000000 0.000000
# 2 -0.004330 0.014667 -0.001968 0.000000 0.000000 0.000000
# 3 -0.010329 -0.001968 0.018629 0.000000 0.000000 0.000000
# 4 0.000000 0.000000 0.000000 0.057451 0.000000 0.000000
# 5 0.000000 0.000000 0.000000 0.000000 0.058657 0.000000
# 6 0.000000 0.000000 0.000000 0.000000 0.000000 0.025385
#
#
# Mechanical properties :
#
#
# Convention : Reuss Voigt Hill
#
# Bulk Modulus (GPa) = 63.70622 69.91809 66.81216
# Shear Modulus (GPa) = 21.84079 25.07131 23.45605
#
# Velocity S-wave (km/s) = 3.26424 3.49732 3.38279
# Velocity P-wave (km/s) = 6.72954 7.10060 6.91756
#
# Compressibility (1/GPa) = 0.01569705
#
# Stress axis : x y z
#
# Youngs Moduli (GPa) = 63.87933 68.17937 53.67928
#
# Poissons Ratio (x) = 0.29521 0.55444
# Poissons Ratio (y) = 0.27659 0.10566
# Poissons Ratio (z) = 0.65979 0.13420
#
# Static dielectric constant tensor:
#      x y z
#    x 3.394450 0.000000 0.000000 
#    y 0.000000 3.874880 0.000000 
#    z 0.000000 0.000000 3.530690 
# 
# 
# High freq. dielectric constant tensor:
#      x y z
#    x 1.801080 0.000000 0.000000 
#    y 0.000000 1.820830 0.000000 
#    z 0.000000 0.000000 1.792860 
# 
# From -- ./inp_files/1823.got.cif
#   From: 2010.03.12/outbox.cif.g09.slc.cpg/sg55_1_cif.got.tgz:1823.got - 2010.04.16 15:19:21.
