data_PCOD8227321
_publ_section_title
;
Structure prediction by ZEFSAII (Michael W. Deem and Ramdas Pophale) SiO2 
 PCOD8227321
Probable space group: P B A M
;
_chemical_formula_sum "Si O2"
_cell_formula_units_Z 48
_cell_length_a 14.570543
_cell_length_b 18.417481
_cell_length_c 8.937253
_cell_angle_alpha 90.000000
_cell_angle_beta 90.000000
_cell_angle_gamma 90.000000
_cell_volume 2398.335963
_symmetry_space_group_name_H-M "P B A M"
_symmetry_group_IT_number 55
_symmetry_cell_setting 'orthorhombic'
loop_
_space_group_symop_operation_xyz
x,y,z
-x,-y,z
1/2+x,1/2-y,-z
1/2-x,1/2+y,-z
-x,-y,-z
x,y,-z
1/2-x,1/2+y,z
1/2+x,1/2-y,z
loop_
_atom_site_type_symbol
_atom_site_label
_atom_site_fract_x
_atom_site_fract_y
_atom_site_fract_z
Si Si1 0.401418 0.183572 0.174672
Si Si2 0.401617 0.030999 0.324649
Si Si3 0.947499 0.074095 0.172985
Si Si4 0.212086 0.257677 0.828810
Si Si5 0.036828 0.210963 0.324116
Si Si6 0.235918 0.424873 0.172502
O O1 0.381913 0.104246 0.236449
O O2 0.314774 0.233971 0.210864
O O3 0.489226 0.218627 0.253089
O O4 0.422485 0.178711 0.000000
O O5 0.397355 0.046761 0.500000
O O6 0.500000 0.000000 0.276054
O O7 0.323361 0.974315 0.281291
O O8 0.841725 0.064019 0.216932
O O9 0.991471 0.136576 0.271984
O O10 0.956368 0.097449 0.000000
O O11 0.000000 0.000000 0.207544
O O12 0.143033 0.212956 0.724228
O O13 0.204388 0.342918 0.798476
O O14 0.188820 0.238302 0.000000
O O15 0.028675 0.216507 0.500000
O O16 0.219745 0.447140 0.000000
#
# Coordination Sequence:
#
# PCOD8227321 Si02
#       6
#     8   8   8   8   8   8
#     4  11  23  43  68  93 122 164 217 263 306 366
#     4  11  25  42  61  92 132 169 204 254 322 380
#     4  10  22  42  66  91 124 167 216 262 308 370
#     4  10  22  41  66  91 121 162 212 261 307 369
#     4  12  25  40  63  95 131 164 202 257 324 382
#     4  10  21  41  66  94 123 164 214 259 309 366
#
# _framework density 20.013876
#
# number of rings (size 3 to 8) (size 9 to 14) (size 15 to 20)
#    0.000    1.333    1.667    3.500    2.333    7.000 
#    0.000    0.000    0.000    0.000    0.000    0.000 
#    0.000    0.000    0.000    0.000    0.000    0.000 
#
# Total GULP energy -595563.282935 kJ/mol
# GULP energy per Si atom -12407.568394 kJ/mol
# Density = 1.996832 g / cm^3
# Si number density = 20.013876 Si / 1000 Ang^3
#
#
#
# Elastic Constant Matrix: (Units=GPa)
#
#
# Indices 1 2 3 4 5 6 
#
# 1 88.8859 23.8290 45.9858 0.0000 0.0000 0.0000
# 2 23.8290 81.2958 41.2576 0.0000 0.0000 0.0000
# 3 45.9858 41.2576 103.1394 0.0000 0.0000 0.0000
# 4 0.0000 0.0000 0.0000 28.0075 0.0000 0.0000
# 5 0.0000 0.0000 0.0000 0.0000 19.4561 0.0000
# 6 0.0000 0.0000 0.0000 0.0000 0.0000 30.1769
#
#
#
# Elastic Compliance Matrix: (Units=1/GPa)
#
#
# Indices 1 2 3 4 5 6 
#
# 1 0.014722 -0.001235 -0.006070 0.000000 0.000000 0.000000
# 2 -0.001235 0.015538 -0.005665 0.000000 0.000000 0.000000
# 3 -0.006070 -0.005665 0.014668 0.000000 0.000000 0.000000
# 4 0.000000 0.000000 0.000000 0.035705 0.000000 0.000000
# 5 0.000000 0.000000 0.000000 0.000000 0.051398 0.000000
# 6 0.000000 0.000000 0.000000 0.000000 0.000000 0.033138
#
#
# Mechanical properties :
#
#
# Convention : Reuss Voigt Hill
#
# Bulk Modulus (GPa) = 52.66367 55.05176 53.85771
# Shear Modulus (GPa) = 25.32467 26.34469 25.83468
#
# Velocity S-wave (km/s) = 3.56104 3.63205 3.59672
# Velocity P-wave (km/s) = 6.57866 6.71979 6.64960
#
# Compressibility (1/GPa) = 0.01898842
#
# Stress axis : x y z
#
# Youngs Moduli (GPa) = 67.92699 64.36018 68.17562
#
# Poissons Ratio (x) = 0.07946 0.41382
# Poissons Ratio (y) = 0.08387 0.38620
# Poissons Ratio (z) = 0.41231 0.36459
#
# Static dielectric constant tensor:
#      x y z
#    x 3.769230 0.000000 0.000000 
#    y 0.000000 3.665740 0.000000 
#    z 0.000000 0.000000 3.559770 
# 
# 
# High freq. dielectric constant tensor:
#      x y z
#    x 1.796230 0.000000 0.000000 
#    y 0.000000 1.791100 0.000000 
#    z 0.000000 0.000000 1.776180 
# 
# From -- ./inp_files/5572.got.cif
#   From: 2010.03.12/outbox.cif.g09.slc.cpg/sg55_3_cif.got.tgz:5572.got - 2010.04.16 15:19:21.
