data_PCOD8227616
_publ_section_title
;
Structure prediction by ZEFSAII (Michael W. Deem and Ramdas Pophale) SiO2 
 PCOD8227616
Probable space group: P B A M
;
_chemical_formula_sum "Si O2"
_cell_formula_units_Z 64
_cell_length_a 11.979750
_cell_length_b 29.215014
_cell_length_c 9.139422
_cell_angle_alpha 90.000000
_cell_angle_beta 90.000000
_cell_angle_gamma 90.000000
_cell_volume 3198.693181
_symmetry_space_group_name_H-M "P B A M"
_symmetry_group_IT_number 55
_symmetry_cell_setting 'orthorhombic'
loop_
_space_group_symop_operation_xyz
x,y,z
-x,-y,z
1/2+x,1/2-y,-z
1/2-x,1/2+y,-z
-x,-y,-z
x,y,-z
1/2-x,1/2+y,z
1/2+x,1/2-y,z
loop_
_atom_site_type_symbol
_atom_site_label
_atom_site_fract_x
_atom_site_fract_y
_atom_site_fract_z
Si Si1 0.964567 0.225313 0.328045
Si Si2 0.346040 0.116071 0.828493
Si Si3 0.750329 0.665028 0.328487
Si Si4 0.020762 0.066998 0.837403
Si Si5 0.698628 0.562203 0.328395
Si Si6 0.241664 0.522707 0.831473
Si Si7 0.525988 0.187031 0.172157
Si Si8 0.127275 0.163289 0.167033
O O1 0.975543 0.233350 0.500000
O O2 0.859629 0.193602 0.288043
O O3 0.950953 0.273745 0.246848
O O4 0.078831 0.202801 0.269998
O O5 0.337491 0.063845 0.768310
O O6 0.465740 0.138338 0.794072
O O7 0.247670 0.148770 0.766900
O O8 0.319360 0.112237 0.000000
O O9 0.776850 0.668158 0.500000
O O10 0.735935 0.612634 0.277518
O O11 0.851364 0.686915 0.239274
O O12 0.130905 0.037776 0.807069
O O13 0.044450 0.120529 0.824094
O O14 0.927885 0.052853 0.721049
O O15 0.974889 0.055881 0.000000
O O16 0.705369 0.556990 0.500000
O O17 0.780254 0.524129 0.257147
O O18 0.214169 0.512677 0.000000
O O19 0.532373 0.196213 0.000000
O O20 0.136008 0.181501 0.000000
#
# Coordination Sequence:
#
# PCOD8227616 Si02
#       8
#     8   8   8   8   8   8   8   8
#     4  11  23  40  60  85 119 155 190 234 295 359
#     4   8  18  38  60  85 117 148 188 244 295 341
#     4  10  24  44  60  82 122 162 195 238 293 352
#     4   9  17  30  51  80 116 153 189 233 288 345
#     4  11  21  34  53  81 117 155 197 243 287 342
#     4   9  18  34  56  82 115 154 192 235 294 355
#     4  11  24  41  64  89 113 148 199 251 293 345
#     4   9  17  33  58  86 114 148 190 235 285 343
#
# _framework density 20.008171000000001
#
# number of rings (size 3 to 8) (size 9 to 14) (size 15 to 20)
#    0.000    2.250    1.250    3.000    1.750    4.000 
#    0.000    4.375    0.000    3.750    0.000    0.000 
#    0.000    0.000    0.000    0.000    0.000    0.000 
#
# Total GULP energy -793539.941097 kJ/mol
# GULP energy per Si atom -12399.061580 kJ/mol
# Density = 1.996263 g / cm^3
# Si number density = 20.008171 Si / 1000 Ang^3
#
#
#
# Elastic Constant Matrix: (Units=GPa)
#
#
# Indices 1 2 3 4 5 6 
#
# 1 57.4686 27.1569 30.9296 0.0000 0.0000 0.0000
# 2 27.1569 121.5920 49.6031 0.0000 0.0000 0.0000
# 3 30.9296 49.6031 72.0810 0.0000 0.0000 0.0000
# 4 0.0000 0.0000 0.0000 33.4432 0.0000 0.0000
# 5 0.0000 0.0000 0.0000 0.0000 19.1776 0.0000
# 6 0.0000 0.0000 0.0000 0.0000 0.0000 18.1847
#
#
#
# Elastic Compliance Matrix: (Units=1/GPa)
#
#
# Indices 1 2 3 4 5 6 
#
# 1 0.022830 -0.001533 -0.008741 0.000000 0.000000 0.000000
# 2 -0.001533 0.011537 -0.007282 0.000000 0.000000 0.000000
# 3 -0.008741 -0.007282 0.022635 0.000000 0.000000 0.000000
# 4 0.000000 0.000000 0.000000 0.029901 0.000000 0.000000
# 5 0.000000 0.000000 0.000000 0.000000 0.052144 0.000000
# 6 0.000000 0.000000 0.000000 0.000000 0.000000 0.054991
#
#
# Mechanical properties :
#
#
# Convention : Reuss Voigt Hill
#
# Bulk Modulus (GPa) = 45.68224 51.83563 48.75894
# Shear Modulus (GPa) = 21.14641 23.72458 22.43549
#
# Velocity S-wave (km/s) = 3.25451 3.44720 3.35224
# Velocity P-wave (km/s) = 6.08308 6.46589 6.27740
#
# Compressibility (1/GPa) = 0.02189034
#
# Stress axis : x y z
#
# Youngs Moduli (GPa) = 43.80258 86.67699 44.17945
#
# Poissons Ratio (x) = 0.13287 0.38618
# Poissons Ratio (y) = 0.06715 0.32170
# Poissons Ratio (z) = 0.38289 0.63114
#
# Static dielectric constant tensor:
#      x y z
#    x 3.349250 0.000000 0.000000 
#    y 0.000000 3.898510 0.000000 
#    z 0.000000 0.000000 3.417350 
# 
# 
# High freq. dielectric constant tensor:
#      x y z
#    x 1.758870 0.000000 0.000000 
#    y 0.000000 1.796260 0.000000 
#    z 0.000000 0.000000 1.760520 
# 
# From -- ./inp_files/4616.got.cif
#   From: 2010.03.12/outbox.cif.g09.slc.cpg/sg55_3_cif.got.tgz:4616.got - 2010.04.16 15:19:21.
