data_PCOD8227087
_publ_section_title
;
Structure prediction by ZEFSAII (Michael W. Deem and Ramdas Pophale) SiO2 
 PCOD8227087
Probable space group: P B A M
;
_chemical_formula_sum "Si O2"
_cell_formula_units_Z 56
_cell_length_a 20.797119
_cell_length_b 14.867046
_cell_length_c 9.304929
_cell_angle_alpha 90.000000
_cell_angle_beta 90.000000
_cell_angle_gamma 90.000000
_cell_volume 2877.007047
_symmetry_space_group_name_H-M "P B A M"
_symmetry_group_IT_number 55
_symmetry_cell_setting 'orthorhombic'
loop_
_space_group_symop_operation_xyz
x,y,z
-x,-y,z
1/2+x,1/2-y,-z
1/2-x,1/2+y,-z
-x,-y,-z
x,y,-z
1/2-x,1/2+y,z
1/2+x,1/2-y,z
loop_
_atom_site_type_symbol
_atom_site_label
_atom_site_fract_x
_atom_site_fract_y
_atom_site_fract_z
Si Si1 0.056829 0.930143 0.839427
Si Si2 0.462813 0.252187 0.331086
Si Si3 0.773217 0.681412 0.168373
Si Si4 0.257505 0.025530 0.163015
Si Si5 0.894861 0.746940 0.661346
Si Si6 0.842925 0.311371 0.164046
Si Si7 0.358633 0.555736 0.663001
O O1 0.035306 0.847858 0.744233
O O2 0.117229 0.975468 0.763414
O O3 0.077240 0.899156 0.000000
O O4 0.000000 0.000000 0.848080
O O5 0.449930 0.263802 0.500000
O O6 0.533625 0.207995 0.304187
O O7 0.406365 0.193138 0.261844
O O8 0.765802 0.577353 0.212402
O O9 0.841105 0.711451 0.232514
O O10 0.712551 0.741882 0.221279
O O11 0.780696 0.694596 0.000000
O O12 0.322472 0.084082 0.172877
O O13 0.211409 0.077432 0.273861
O O14 0.230466 0.029793 0.000000
O O15 0.874012 0.720222 0.500000
O O16 0.901519 0.855061 0.673422
O O17 0.860028 0.285394 0.000000
O O18 0.354633 0.520849 0.500000
#
# Coordination Sequence:
#
# PCOD8227087 Si02
#       7
#     8   8   8   8   8   8   8
#     4  11  22  34  53  82 115 152 191 232 288 356
#     4  11  23  39  58  83 119 158 196 245 296 351
#     4  10  21  38  62  87 114 153 197 242 294 349
#     4  10  21  38  60  88 118 149 197 250 295 348
#     4  10  22  38  57  84 118 152 193 241 292 349
#     4  10  21  38  59  87 121 154 194 247 297 353
#     4  11  21  35  57  84 116 153 192 239 295 353
#
# _framework density 19.464673000000001
#
# number of rings (size 3 to 8) (size 9 to 14) (size 15 to 20)
#    0.000    1.571    2.857    2.143    0.000    5.143 
#    0.000    0.714    0.000    4.286    0.000    0.000 
#    0.000    0.000    0.000    0.000    0.000    0.000 
#
# Total GULP energy -694225.094981 kJ/mol
# GULP energy per Si atom -12396.876696 kJ/mol
# Density = 1.942037 g / cm^3
# Si number density = 19.464673 Si / 1000 Ang^3
#
#
#
# Elastic Constant Matrix: (Units=GPa)
#
#
# Indices 1 2 3 4 5 6 
#
# 1 109.9245 17.3306 56.3632 0.0000 0.0000 0.0000
# 2 17.3306 60.2708 17.5746 0.0000 0.0000 0.0000
# 3 56.3632 17.5746 98.2819 0.0000 0.0000 0.0000
# 4 0.0000 0.0000 0.0000 28.5243 0.0000 0.0000
# 5 0.0000 0.0000 0.0000 0.0000 34.5512 0.0000
# 6 0.0000 0.0000 0.0000 0.0000 0.0000 28.2808
#
#
#
# Elastic Compliance Matrix: (Units=1/GPa)
#
#
# Indices 1 2 3 4 5 6 
#
# 1 0.013041 -0.001655 -0.007183 0.000000 0.000000 0.000000
# 2 -0.001655 0.017715 -0.002218 0.000000 0.000000 0.000000
# 3 -0.007183 -0.002218 0.014691 0.000000 0.000000 0.000000
# 4 0.000000 0.000000 0.000000 0.035058 0.000000 0.000000
# 5 0.000000 0.000000 0.000000 0.000000 0.028943 0.000000
# 6 0.000000 0.000000 0.000000 0.000000 0.000000 0.035360
#
#
# Mechanical properties :
#
#
# Convention : Reuss Voigt Hill
#
# Bulk Modulus (GPa) = 42.85730 50.11266 46.48498
# Shear Modulus (GPa) = 28.62089 30.08519 29.35304
#
# Velocity S-wave (km/s) = 3.83874 3.93572 3.88753
# Velocity P-wave (km/s) = 6.45862 6.81575 6.63959
#
# Compressibility (1/GPa) = 0.02333325
#
# Stress axis : x y z
#
# Youngs Moduli (GPa) = 76.68056 56.45051 68.07004
#
# Poissons Ratio (x) = 0.09345 0.48894
# Poissons Ratio (y) = 0.12694 0.15100
# Poissons Ratio (z) = 0.55079 0.12523
#
# Static dielectric constant tensor:
#      x y z
#    x 3.553070 0.000000 0.000000 
#    y 0.000000 3.299420 0.000000 
#    z 0.000000 0.000000 3.591040 
# 
# 
# High freq. dielectric constant tensor:
#      x y z
#    x 1.759950 0.000000 0.000000 
#    y 0.000000 1.740730 0.000000 
#    z 0.000000 0.000000 1.761680 
# 
# From -- ./inp_files/6030.got.cif
#   From: 2010.03.12/outbox.cif.g09.slc.cpg/sg55_4_cif.got.tgz:6030.got - 2010.04.16 15:19:21.
