data_PCOD8227061
_publ_section_title
;
Structure prediction by ZEFSAII (Michael W. Deem and Ramdas Pophale) SiO2 
 PCOD8227061
Probable space group: P B A M
;
_chemical_formula_sum "Si O2"
_cell_formula_units_Z 64
_cell_length_a 15.525141
_cell_length_b 24.172161
_cell_length_c 8.539423
_cell_angle_alpha 90.000000
_cell_angle_beta 90.000000
_cell_angle_gamma 90.000000
_cell_volume 3204.642280
_symmetry_space_group_name_H-M "P B A M"
_symmetry_group_IT_number 55
_symmetry_cell_setting 'orthorhombic'
loop_
_space_group_symop_operation_xyz
x,y,z
-x,-y,z
1/2+x,1/2-y,-z
1/2-x,1/2+y,-z
-x,-y,-z
x,y,-z
1/2-x,1/2+y,z
1/2+x,1/2-y,z
loop_
_atom_site_type_symbol
_atom_site_label
_atom_site_fract_x
_atom_site_fract_y
_atom_site_fract_z
Si Si1 0.249018 0.057839 0.684950
Si Si2 0.598410 0.744468 0.817624
Si Si3 0.164182 0.374046 0.819292
Si Si4 0.592093 0.516581 0.685556
Si Si5 0.342386 0.366747 0.679985
Si Si6 0.404542 0.979330 0.319726
Si Si7 0.252572 0.680734 0.814041
Si Si8 0.407968 0.755904 0.184610
O O1 0.243140 0.066151 0.500000
O O2 0.168134 0.022560 0.751660
O O3 0.247347 0.117488 0.764032
O O4 0.336544 0.026303 0.733146
O O5 0.634628 0.683446 0.792332
O O6 0.666476 0.788884 0.746423
O O7 0.503161 0.747536 0.739967
O O8 0.589894 0.756583 0.000000
O O9 0.243723 0.383128 0.703750
O O10 0.101535 0.425445 0.789187
O O11 0.118028 0.317709 0.769945
O O12 0.193368 0.371988 0.000000
O O13 0.500000 0.500000 0.757511
O O14 0.593317 0.510505 0.500000
O O15 0.603353 0.580195 0.733855
O O16 0.359964 0.350947 0.500000
O O17 0.387640 0.963313 0.500000
O O18 0.500000 0.000000 0.291875
O O19 0.337846 0.712236 0.747002
O O20 0.252588 0.685573 0.000000
O O21 0.412910 0.747374 0.000000
#
# Coordination Sequence:
#
# PCOD8227061 Si02
#       8
#     8   8   8   8   8   8   8   8
#     4  10  21  38  57  80 114 151 186 227 283 342
#     4  10  21  39  60  81 113 151 187 232 284 333
#     4  11  21  38  63  86 113 151 197 239 285 344
#     4   9  19  36  57  80 111 148 183 227 283 337
#     4  11  21  37  61  86 114 147 190 237 285 338
#     4  10  22  40  59  83 118 154 188 239 295 335
#     4  10  21  38  57  80 114 150 185 229 283 337
#     4   9  20  38  58  82 113 149 186 233 288 334
#
# _framework density 19.971028
#
# number of rings (size 3 to 8) (size 9 to 14) (size 15 to 20)
#    0.000    2.000    2.500    0.750    3.500    1.250 
#    0.000    1.250    0.000    1.875    0.000    0.000 
#    0.000    0.000    0.000    0.000    0.000    0.000 
#
# Total GULP energy -793558.423496 kJ/mol
# GULP energy per Si atom -12399.350367 kJ/mol
# Density = 1.992557 g / cm^3
# Si number density = 19.971028 Si / 1000 Ang^3
#
#
#
# Elastic Constant Matrix: (Units=GPa)
#
#
# Indices 1 2 3 4 5 6 
#
# 1 152.1936 54.4555 15.8861 0.0000 0.0000 0.0000
# 2 54.4555 135.3793 16.9236 0.0000 0.0000 0.0000
# 3 15.8861 16.9236 13.2769 0.0000 0.0000 0.0000
# 4 0.0000 0.0000 0.0000 27.6841 0.0000 0.0000
# 5 0.0000 0.0000 0.0000 0.0000 12.1276 0.0000
# 6 0.0000 0.0000 0.0000 0.0000 0.0000 31.4956
#
#
#
# Elastic Compliance Matrix: (Units=1/GPa)
#
#
# Indices 1 2 3 4 5 6 
#
# 1 0.008136 -0.002445 -0.006618 0.000000 0.000000 0.000000
# 2 -0.002445 0.009522 -0.009211 0.000000 0.000000 0.000000
# 3 -0.006618 -0.009211 0.094979 0.000000 0.000000 0.000000
# 4 0.000000 0.000000 0.000000 0.036122 0.000000 0.000000
# 5 0.000000 0.000000 0.000000 0.000000 0.082457 0.000000
# 6 0.000000 0.000000 0.000000 0.000000 0.000000 0.031750
#
#
# Mechanical properties :
#
#
# Convention : Reuss Voigt Hill
#
# Bulk Modulus (GPa) = 13.14277 52.82002 32.98140
# Shear Modulus (GPa) = 15.39041 28.50044 21.94542
#
# Velocity S-wave (km/s) = 2.77905 3.78178 3.31851
# Velocity P-wave (km/s) = 4.11007 6.75092 5.58872
#
# Compressibility (1/GPa) = 0.07608745
#
# Stress axis : x y z
#
# Youngs Moduli (GPa) = 122.90445 105.02231 10.52868
#
# Poissons Ratio (x) = 0.25683 0.06968
# Poissons Ratio (y) = 0.30056 0.09698
# Poissons Ratio (z) = 0.81341 0.96736
#
# Static dielectric constant tensor:
#      x y z
#    x 4.091210 0.000000 0.000000 
#    y 0.000000 3.695990 0.000000 
#    z 0.000000 0.000000 3.195160 
# 
# 
# High freq. dielectric constant tensor:
#      x y z
#    x 1.794200 0.000000 0.000000 
#    y 0.000000 1.790290 0.000000 
#    z 0.000000 0.000000 1.740850 
# 
# From -- ./inp_files/6734.got.cif
#   From: 2010.03.12/outbox.cif.g09.slc.cpg/sg55_4_cif.got.tgz:6734.got - 2010.04.16 15:19:21.
