data_PCOD8227001
_publ_section_title
;
Structure prediction by ZEFSAII (Michael W. Deem and Ramdas Pophale) SiO2 
 PCOD8227001
Probable space group: P B A M
;
_chemical_formula_sum "Si O2"
_cell_formula_units_Z 40
_cell_length_a 14.883010
_cell_length_b 14.972457
_cell_length_c 9.361094
_cell_angle_alpha 90.000000
_cell_angle_beta 90.000000
_cell_angle_gamma 90.000000
_cell_volume 2085.981509
_symmetry_space_group_name_H-M "P B A M"
_symmetry_group_IT_number 55
_symmetry_cell_setting 'orthorhombic'
loop_
_space_group_symop_operation_xyz
x,y,z
-x,-y,z
1/2+x,1/2-y,-z
1/2-x,1/2+y,-z
-x,-y,-z
x,y,-z
1/2-x,1/2+y,z
1/2+x,1/2-y,z
loop_
_atom_site_type_symbol
_atom_site_label
_atom_site_fract_x
_atom_site_fract_y
_atom_site_fract_z
Si Si1 0.431121 0.928336 0.336867
Si Si2 0.961878 0.773417 0.664610
Si Si3 0.866908 0.178660 0.163134
Si Si4 0.736813 0.021623 0.837674
Si Si5 0.783326 0.822071 0.831963
O O1 0.409550 0.952798 0.500000
O O2 0.476737 0.832257 0.321893
O O3 0.338328 0.929668 0.253857
O O4 0.500000 0.000000 0.270188
O O5 0.955165 0.803501 0.500000
O O6 0.871988 0.801185 0.744347
O O7 0.047003 0.820438 0.735880
O O8 0.827266 0.079201 0.178655
O O9 0.794240 0.252591 0.211892
O O10 0.896208 0.197789 0.000000
O O11 0.752549 0.920855 0.786048
O O12 0.702854 0.022447 0.000000
O O13 0.805397 0.815869 0.000000
#
# Coordination Sequence:
#
# PCOD8227001 Si02
#       5
#     8   8   8   8   8
#     4  10  21  37  57  85 118 151 191 240 292 344
#     4  11  23  37  58  86 117 156 195 235 290 350
#     4  10  21  38  59  84 116 152 192 242 293 342
#     4  10  21  37  60  87 112 149 196 240 290 342
#     4  10  21  39  61  85 116 152 194 243 291 343
#
# _framework density 19.175625
#
# number of rings (size 3 to 8) (size 9 to 14) (size 15 to 20)
#    0.000    1.800    2.000    1.800    0.000    4.400 
#    0.000    4.000    0.000    0.000    0.000    0.000 
#    0.000    0.000    0.000    0.000    0.000    0.000 
#
# Total GULP energy -496180.011488 kJ/mol
# GULP energy per Si atom -12404.500287 kJ/mol
# Density = 1.913198 g / cm^3
# Si number density = 19.175625 Si / 1000 Ang^3
#
#
#
# Elastic Constant Matrix: (Units=GPa)
#
#
# Indices 1 2 3 4 5 6 
#
# 1 82.8509 -4.6159 42.5157 0.0000 0.0000 0.0000
# 2 -4.6159 65.5298 7.5199 0.0000 0.0000 0.0000
# 3 42.5157 7.5199 67.6935 0.0000 0.0000 0.0000
# 4 0.0000 0.0000 0.0000 25.4756 0.0000 0.0000
# 5 0.0000 0.0000 0.0000 0.0000 45.0643 0.0000
# 6 0.0000 0.0000 0.0000 0.0000 0.0000 29.7931
#
#
#
# Elastic Compliance Matrix: (Units=1/GPa)
#
#
# Indices 1 2 3 4 5 6 
#
# 1 0.018248 0.002634 -0.011754 0.000000 0.000000 0.000000
# 2 0.002634 0.015838 -0.003414 0.000000 0.000000 0.000000
# 3 -0.011754 -0.003414 0.022534 0.000000 0.000000 0.000000
# 4 0.000000 0.000000 0.000000 0.039253 0.000000 0.000000
# 5 0.000000 0.000000 0.000000 0.000000 0.022191 0.000000
# 6 0.000000 0.000000 0.000000 0.000000 0.000000 0.033565
#
#
# Mechanical properties :
#
#
# Convention : Reuss Voigt Hill
#
# Bulk Modulus (GPa) = 31.69273 34.10149 32.89711
# Shear Modulus (GPa) = 26.70773 31.44357 29.07565
#
# Velocity S-wave (km/s) = 3.73607 4.05380 3.89817
# Velocity P-wave (km/s) = 5.93080 6.30344 6.11996
#
# Compressibility (1/GPa) = 0.03155297
#
# Stress axis : x y z
#
# Youngs Moduli (GPa) = 54.80034 63.14120 44.37808
#
# Poissons Ratio (x) = -0.16632 0.52160
# Poissons Ratio (y) = -0.14435 0.15150
# Poissons Ratio (z) = 0.64410 0.21555
#
# Static dielectric constant tensor:
#      x y z
#    x 3.343780 0.000000 0.000000 
#    y 0.000000 3.724110 0.000000 
#    z 0.000000 0.000000 3.512050 
# 
# 
# High freq. dielectric constant tensor:
#      x y z
#    x 1.743890 0.000000 0.000000 
#    y 0.000000 1.757280 0.000000 
#    z 0.000000 0.000000 1.742160 
# 
# From -- ./inp_files/3621.got.cif
#   From: 2010.03.12/outbox.cif.g09.slc.cpg/sg55_2_cif.got.tgz:3621.got - 2010.04.16 15:19:21.
