data_PCOD8227915
_publ_section_title
;
Structure prediction by ZEFSAII (Michael W. Deem and Ramdas Pophale) SiO2 
 PCOD8227915
Probable space group: P C C N
;
_chemical_formula_sum "Si O2"
_cell_formula_units_Z 40
_cell_length_a 11.255297
_cell_length_b 9.405936
_cell_length_c 18.866393
_cell_angle_alpha 90.000000
_cell_angle_beta 90.000000
_cell_angle_gamma 90.000000
_cell_volume 1997.320942
_symmetry_space_group_name_H-M "P C C N"
_symmetry_group_IT_number 56
_symmetry_cell_setting 'orthorhombic'
loop_
_space_group_symop_operation_xyz
x,y,z
1/2-x,1/2-y,z
1/2+x,-y,1/2-z
-x,1/2+y,1/2-z
-x,-y,-z
1/2+x,1/2+y,-z
1/2-x,y,1/2+z
x,1/2-y,1/2+z
loop_
_atom_site_type_symbol
_atom_site_label
_atom_site_fract_x
_atom_site_fract_y
_atom_site_fract_z
Si Si1 0.365640 0.162878 0.915807
Si Si2 0.442326 0.871763 0.542597
Si Si3 0.983981 0.999603 0.175660
Si Si4 0.885002 0.741670 0.244692
Si Si5 0.275334 0.601505 0.922747
O O1 0.250000 0.250000 0.939645
O O2 0.477088 0.227919 0.958864
O O3 0.387925 0.170987 0.832108
O O4 0.341479 0.996811 0.933741
O O5 0.320889 0.846472 0.500393
O O6 0.500000 0.000000 0.500000
O O7 0.420470 0.919717 0.624555
O O8 0.036994 0.147342 0.201994
O O9 0.868008 0.015645 0.125942
O O10 0.945281 0.898331 0.241144
O O11 0.750000 0.750000 0.273651
O O12 0.250000 0.750000 0.881916
#
# Coordination Sequence:
#
# PCOD8227915 Si02
#       5
#     8   8   8   8   8
#     4  10  17  37  62  77 114 161 184 234 300 351
#     4   9  18  37  57  83 110 149 194 239 288 351
#     4  10  21  37  60  84 115 153 199 239 295 359
#     4  10  20  38  57  86 119 155 193 244 298 349
#     4  11  22  37  60  87 116 154 202 239 300 363
#
# _framework density 20.026826
#
# number of rings (size 3 to 8) (size 9 to 14) (size 15 to 20)
#    0.000    2.000    8.000    0.000    2.800    0.800 
#    7.200    4.000    0.000    0.000    0.000    0.000 
#    0.000    0.000    0.000    0.000    0.000    0.000 
#
# Total GULP energy -495625.251680 kJ/mol
# GULP energy per Si atom -12390.631292 kJ/mol
# Density = 1.998124 g / cm^3
# Si number density = 20.026826 Si / 1000 Ang^3
#
#
#
# Elastic Constant Matrix: (Units=GPa)
#
#
# Indices 1 2 3 4 5 6 
#
# 1 46.8463 40.5241 28.1050 0.0000 0.0000 0.0000
# 2 40.5241 142.3649 29.6784 0.0000 0.0000 0.0000
# 3 28.1050 29.6784 49.9663 0.0000 0.0000 0.0000
# 4 0.0000 0.0000 0.0000 27.5333 0.0000 0.0000
# 5 0.0000 0.0000 0.0000 0.0000 10.2074 0.0000
# 6 0.0000 0.0000 0.0000 0.0000 0.0000 43.9449
#
#
#
# Elastic Compliance Matrix: (Units=1/GPa)
#
#
# Indices 1 2 3 4 5 6 
#
# 1 0.037757 -0.007213 -0.016953 0.000000 0.000000 0.000000
# 2 -0.007213 0.009395 -0.001523 0.000000 0.000000 0.000000
# 3 -0.016953 -0.001523 0.030454 0.000000 0.000000 0.000000
# 4 0.000000 0.000000 0.000000 0.036320 0.000000 0.000000
# 5 0.000000 0.000000 0.000000 0.000000 0.097968 0.000000
# 6 0.000000 0.000000 0.000000 0.000000 0.000000 0.022756
#
#
# Mechanical properties :
#
#
# Convention : Reuss Voigt Hill
#
# Bulk Modulus (GPa) = 38.12845 48.42139 43.27492
# Shear Modulus (GPa) = 16.96232 25.72844 21.34538
#
# Velocity S-wave (km/s) = 2.91345 3.58816 3.26826
# Velocity P-wave (km/s) = 5.51340 6.43407 5.99145
#
# Compressibility (1/GPa) = 0.02622714
#
# Stress axis : x y z
#
# Youngs Moduli (GPa) = 26.48502 106.43978 32.83658
#
# Poissons Ratio (x) = 0.76779 0.55668
# Poissons Ratio (y) = 0.19105 0.05001
# Poissons Ratio (z) = 0.44900 0.16210
#
# Static dielectric constant tensor:
#      x y z
#    x 1.579110 0.000000 0.000000 
#    y 0.000000 3.794910 0.000000 
#    z 0.000000 0.000000 3.622520 
# 
# 
# High freq. dielectric constant tensor:
#      x y z
#    x 1.759030 0.000000 0.000000 
#    y 0.000000 1.794200 0.000000 
#    z 0.000000 0.000000 1.756100 
# 
# From -- ./inp_files/15415.got.cif
#   From: 2010.03.12/outbox.cif.g09.slc.cpg/sg56_8_cif.got.tgz:15415.got - 2010.04.16 15:33:40.
