data_PCOD8227816
_publ_section_title
;
Structure prediction by ZEFSAII (Michael W. Deem and Ramdas Pophale) SiO2 
 PCOD8227816
Probable space group: P B A M
;
_chemical_formula_sum "Si O2"
_cell_formula_units_Z 40
_cell_length_a 17.917544
_cell_length_b 13.413744
_cell_length_c 9.075058
_cell_angle_alpha 90.000000
_cell_angle_beta 90.000000
_cell_angle_gamma 90.000000
_cell_volume 2181.111676
_symmetry_space_group_name_H-M "P B A M"
_symmetry_group_IT_number 55
_symmetry_cell_setting 'orthorhombic'
loop_
_space_group_symop_operation_xyz
x,y,z
-x,-y,z
1/2+x,1/2-y,-z
1/2-x,1/2+y,-z
-x,-y,-z
x,y,-z
1/2-x,1/2+y,z
1/2+x,1/2-y,z
loop_
_atom_site_type_symbol
_atom_site_label
_atom_site_fract_x
_atom_site_fract_y
_atom_site_fract_z
Si Si1 0.534617 0.101445 0.175220
Si Si2 0.306757 0.826607 0.829516
Si Si3 0.866718 0.890616 0.832975
Si Si4 0.971867 0.191328 0.171452
Si Si5 0.835131 0.087823 0.326229
O O1 0.620212 0.113349 0.226616
O O2 0.485236 0.195483 0.227228
O O3 0.500000 0.000000 0.242069
O O4 0.533928 0.100087 0.000000
O O5 0.319737 0.709300 0.808035
O O6 0.238513 0.857787 0.729311
O O7 0.289787 0.851186 0.000000
O O8 0.953784 0.872630 0.801291
O O9 0.834714 0.973390 0.724267
O O10 0.856718 0.928755 0.000000
O O11 0.906761 0.144927 0.266417
O O12 0.949327 0.189333 0.000000
O O13 0.836690 0.091606 0.500000
#
# Coordination Sequence:
#
# PCOD8227816 Si02
#       5
#     8   8   8   8   8
#     4   8  15  31  57  84 104 127 168 221 268 308
#     4   9  19  36  56  78 104 136 176 219 262 309
#     4   9  19  37  58  76  99 136 182 228 266 305
#     4   9  18  34  56  80 104 134 178 224 262 309
#     4  12  24  34  50  79 113 144 173 211 264 323
#
# _framework density 18.339271
#
# number of rings (size 3 to 8) (size 9 to 14) (size 15 to 20)
#    0.000    2.600    0.000    4.800    0.000    5.600 
#    0.000    7.000    0.000    1.200    0.000    0.000 
#    0.000    0.000    0.000    0.000    0.000    0.000 
#
# Total GULP energy -495994.746987 kJ/mol
# GULP energy per Si atom -12399.868675 kJ/mol
# Density = 1.829753 g / cm^3
# Si number density = 18.339271 Si / 1000 Ang^3
#
#
#
# Elastic Constant Matrix: (Units=GPa)
#
#
# Indices 1 2 3 4 5 6 
#
# 1 120.8152 68.8731 68.5005 0.0000 0.0000 0.0000
# 2 68.8731 109.3942 55.9838 0.0000 0.0000 0.0000
# 3 68.5005 55.9838 101.7543 0.0000 0.0000 0.0000
# 4 0.0000 0.0000 0.0000 7.8646 0.0000 0.0000
# 5 0.0000 0.0000 0.0000 0.0000 -7.2502 0.0000
# 6 0.0000 0.0000 0.0000 0.0000 0.0000 26.0345
#
#
#
# Elastic Compliance Matrix: (Units=1/GPa)
#
#
# Indices 1 2 3 4 5 6 
#
# 1 0.016044 -0.006366 -0.007298 0.000000 0.000000 0.000000
# 2 -0.006366 0.015250 -0.004105 0.000000 0.000000 0.000000
# 3 -0.007298 -0.004105 0.016999 0.000000 0.000000 0.000000
# 4 0.000000 0.000000 0.000000 0.127152 0.000000 0.000000
# 5 0.000000 0.000000 0.000000 0.000000 -0.137928 0.000000
# 6 0.000000 0.000000 0.000000 0.000000 0.000000 0.038411
#
#
# Mechanical properties :
#
#
# Convention : Reuss Voigt Hill
#
# Bulk Modulus (GPa) = 78.40061 79.85318 79.12689
# Shear Modulus (GPa) = 43.20829 14.57022 28.88925
#
# Velocity S-wave (km/s) = 4.85918 2.82171 3.97327
# Velocity P-wave (km/s) = 8.62120 7.36565 8.01804
#
# Compressibility (1/GPa) = 0.01275500
#
# Stress axis : x y z
#
# Youngs Moduli (GPa) = 62.32703 65.57401 58.82682
#
# Poissons Ratio (x) = 0.41747 0.42934
# Poissons Ratio (y) = 0.39679 0.24146
# Poissons Ratio (z) = 0.45488 0.26915
#
# Static dielectric constant tensor:
#      x y z
#    x 3.399910 0.000000 0.000000 
#    y 0.000000 3.637290 0.000000 
#    z 0.000000 0.000000 3.050800 
# 
# 
# High freq. dielectric constant tensor:
#      x y z
#    x 1.715320 0.000000 0.000000 
#    y 0.000000 1.722840 0.000000 
#    z 0.000000 0.000000 1.676650 
# 
# From -- ./inp_files/3623.got.cif
#   From: 2010.03.12/outbox.cif.g09.slc.cpg/sg55_2_cif.got.tgz:3623.got - 2010.04.16 15:19:21.
