data_PCOD8227872
_publ_section_title
;
Structure prediction by ZEFSAII (Michael W. Deem and Ramdas Pophale) SiO2 
 PCOD8227872
Probable space group: P C C N
;
_chemical_formula_sum "Si O2"
_cell_formula_units_Z 60
_cell_length_a 11.547713
_cell_length_b 15.952670
_cell_length_c 17.694753
_cell_angle_alpha 90.000000
_cell_angle_beta 90.000000
_cell_angle_gamma 90.000000
_cell_volume 3259.671743
_symmetry_space_group_name_H-M "P C C N"
_symmetry_group_IT_number 56
_symmetry_cell_setting 'orthorhombic'
loop_
_space_group_symop_operation_xyz
x,y,z
1/2-x,1/2-y,z
1/2+x,-y,1/2-z
-x,1/2+y,1/2-z
-x,-y,-z
1/2+x,1/2+y,-z
1/2-x,y,1/2+z
x,1/2-y,1/2+z
loop_
_atom_site_type_symbol
_atom_site_label
_atom_site_fract_x
_atom_site_fract_y
_atom_site_fract_z
Si Si1 0.876008 0.973496 0.031241
Si Si2 0.082141 0.609766 0.868590
Si Si3 0.343875 0.456555 0.657535
Si Si4 0.250000 0.750000 0.508710
Si Si5 0.825600 0.667369 0.423596
Si Si6 0.668993 0.081844 0.971739
Si Si7 0.188761 0.540241 0.317099
Si Si8 0.413742 0.703123 0.880115
O O1 0.872284 0.977213 0.122639
O O2 0.842518 0.880218 0.003557
O O3 0.786946 0.041661 0.001020
O O4 0.000000 0.000000 0.000000
O O5 0.174418 0.547106 0.832264
O O6 0.117016 0.705040 0.848092
O O7 0.957373 0.598730 0.831559
O O8 0.077845 0.592961 0.959296
O O9 0.236801 0.397213 0.634147
O O10 0.380217 0.526261 0.595657
O O11 0.317868 0.503117 0.734494
O O12 0.192137 0.823055 0.559275
O O13 0.156971 0.697251 0.458524
O O14 0.750000 0.750000 0.438107
O O15 0.948903 0.693978 0.390968
O O16 0.128054 0.631222 0.322622
#
# Coordination Sequence:
#
# PCOD8227872 Si02
#       8
#     8   8   8   4   8   8   8   8
#     4  10  18  35  61  84 109 149 198 238 274 344
#     4  10  20  39  61  79 112 156 201 231 283 350
#     4  11  24  36  57  88 122 154 184 239 297 350
#     4  10  16  36  60  84 106 154 196 248 274 332
#     4  11  22  37  60  86 112 155 200 240 287 349
#     4   9  19  34  57  84 110 147 196 235 279 333
#     4  11  22  37  60  88 115 153 189 237 296 341
#     4  11  18  37  62  81 110 148 202 235 287 341
#
# _framework density 18.406760999999999
#
# number of rings (size 3 to 8) (size 9 to 14) (size 15 to 20)
#    0.000    1.600    6.667    0.400    1.867    0.000 
#    2.400    0.667    2.933    0.000    0.000    0.000 
#    0.000    0.000    0.000    0.000    0.000    0.000 
#
# Total GULP energy -743637.757347 kJ/mol
# GULP energy per Si atom -12393.962622 kJ/mol
# Density = 1.836487 g / cm^3
# Si number density = 18.406761 Si / 1000 Ang^3
#
#
#
# Elastic Constant Matrix: (Units=GPa)
#
#
# Indices 1 2 3 4 5 6 
#
# 1 92.1005 16.2405 23.1631 0.0000 0.0000 0.0000
# 2 16.2405 108.9380 51.0936 0.0000 0.0000 0.0000
# 3 23.1631 51.0936 92.1066 0.0000 0.0000 0.0000
# 4 0.0000 0.0000 0.0000 26.1502 0.0000 0.0000
# 5 0.0000 0.0000 0.0000 0.0000 17.7445 0.0000
# 6 0.0000 0.0000 0.0000 0.0000 0.0000 28.3462
#
#
#
# Elastic Compliance Matrix: (Units=1/GPa)
#
#
# Indices 1 2 3 4 5 6 
#
# 1 0.011610 -0.000489 -0.002649 0.000000 0.000000 0.000000
# 2 -0.000489 0.012428 -0.006771 0.000000 0.000000 0.000000
# 3 -0.002649 -0.006771 0.015279 0.000000 0.000000 0.000000
# 4 0.000000 0.000000 0.000000 0.038241 0.000000 0.000000
# 5 0.000000 0.000000 0.000000 0.000000 0.056355 0.000000
# 6 0.000000 0.000000 0.000000 0.000000 0.000000 0.035278
#
#
# Mechanical properties :
#
#
# Convention : Reuss Voigt Hill
#
# Bulk Modulus (GPa) = 51.28115 52.68217 51.98166
# Shear Modulus (GPa) = 25.57427 27.95804 26.76615
#
# Velocity S-wave (km/s) = 3.73150 3.90154 3.81747
# Velocity P-wave (km/s) = 6.81806 6.99851 6.90888
#
# Compressibility (1/GPa) = 0.01950034
#
# Stress axis : x y z
#
# Youngs Moduli (GPa) = 86.13269 80.46192 65.44800
#
# Poissons Ratio (x) = 0.03931 0.17335
# Poissons Ratio (y) = 0.04208 0.44317
# Poissons Ratio (z) = 0.22814 0.54484
#
# Static dielectric constant tensor:
#      x y z
#    x 3.481150 0.000000 0.000000 
#    y 0.000000 3.696910 0.000000 
#    z 0.000000 0.000000 3.179080 
# 
# 
# High freq. dielectric constant tensor:
#      x y z
#    x 1.726000 0.000000 0.000000 
#    y 0.000000 1.728230 0.000000 
#    z 0.000000 0.000000 1.670290 
# 
# From -- ./inp_files/15757.got.cif
#   From: 2010.03.12/outbox.cif.g09.slc.cpg/sg56_8_cif.got.tgz:15757.got - 2010.04.16 15:33:40.
