data_PCOD8227037
_publ_section_title
;
Structure prediction by ZEFSAII (Michael W. Deem and Ramdas Pophale) SiO2 
 PCOD8227037
Probable space group: P B A M
;
_chemical_formula_sum "Si O2"
_cell_formula_units_Z 48
_cell_length_a 11.789599
_cell_length_b 22.695354
_cell_length_c 8.925163
_cell_angle_alpha 90.000000
_cell_angle_beta 90.000000
_cell_angle_gamma 90.000000
_cell_volume 2388.098035
_symmetry_space_group_name_H-M "P B A M"
_symmetry_group_IT_number 55
_symmetry_cell_setting 'orthorhombic'
loop_
_space_group_symop_operation_xyz
x,y,z
-x,-y,z
1/2+x,1/2-y,-z
1/2-x,1/2+y,-z
-x,-y,-z
x,y,-z
1/2-x,1/2+y,z
1/2+x,1/2-y,z
loop_
_atom_site_type_symbol
_atom_site_label
_atom_site_fract_x
_atom_site_fract_y
_atom_site_fract_z
Si Si1 0.726275 0.377592 0.178924
Si Si2 0.989283 0.067885 0.176975
Si Si3 0.070865 0.336724 0.165227
Si Si4 0.871789 0.279273 0.674377
Si Si5 0.196564 0.853239 0.325946
Si Si6 0.075435 0.548459 0.835901
O O1 0.599019 0.393899 0.227063
O O2 0.768665 0.316335 0.251179
O O3 0.805654 0.431944 0.239608
O O4 0.739437 0.371999 0.000000
O O5 0.880555 0.096487 0.253435
O O6 0.972795 0.070824 0.000000
O O7 0.000000 0.000000 0.229537
O O8 0.180398 0.356375 0.254696
O O9 0.996154 0.289854 0.256779
O O10 0.995265 0.393250 0.144318
O O11 0.101977 0.311084 0.000000
O O12 0.873629 0.295320 0.500000
O O13 0.852466 0.211033 0.705442
O O14 0.206909 0.867129 0.500000
O O15 0.000000 0.500000 0.744237
O O16 0.103264 0.520812 0.000000
#
# Coordination Sequence:
#
# PCOD8227037 Si02
#       6
#     8   8   8   8   8   8
#     4   9  19  36  59  89 119 152 197 247 295 351
#     4  10  23  41  63  91 123 161 208 256 304 359
#     4  10  21  37  61  89 116 149 196 251 300 351
#     4  10  22  40  61  86 120 159 196 243 306 364
#     4  11  25  41  60  86 122 164 200 243 303 370
#     4   8  15  29  55  85 112 143 180 231 291 344
#
# _framework density 20.099678999999998
#
# number of rings (size 3 to 8) (size 9 to 14) (size 15 to 20)
#    0.000    2.333    0.000    2.500    4.667    3.667 
#    0.000    0.000    0.000    2.500    0.000    0.000 
#    0.000    0.000    0.000    0.000    0.000    0.000 
#
# Total GULP energy -594927.609336 kJ/mol
# GULP energy per Si atom -12394.325194 kJ/mol
# Density = 2.005393 g / cm^3
# Si number density = 20.099679 Si / 1000 Ang^3
#
#
#
# Elastic Constant Matrix: (Units=GPa)
#
#
# Indices 1 2 3 4 5 6 
#
# 1 119.5757 17.6520 30.0274 0.0000 0.0000 0.0000
# 2 17.6520 51.5177 30.8296 0.0000 0.0000 0.0000
# 3 30.0274 30.8296 50.5977 0.0000 0.0000 0.0000
# 4 0.0000 0.0000 0.0000 19.7205 0.0000 0.0000
# 5 0.0000 0.0000 0.0000 0.0000 26.9136 0.0000
# 6 0.0000 0.0000 0.0000 0.0000 0.0000 -10.9174
#
#
#
# Elastic Compliance Matrix: (Units=1/GPa)
#
#
# Indices 1 2 3 4 5 6 
#
# 1 0.009829 0.000193 -0.005951 0.000000 0.000000 0.000000
# 2 0.000193 0.030554 -0.018732 0.000000 0.000000 0.000000
# 3 -0.005951 -0.018732 0.034709 0.000000 0.000000 0.000000
# 4 0.000000 0.000000 0.000000 0.050709 0.000000 0.000000
# 5 0.000000 0.000000 0.000000 0.000000 0.037156 0.000000
# 6 0.000000 0.000000 0.000000 0.000000 0.000000 -0.091597
#
#
# Mechanical properties :
#
#
# Convention : Reuss Voigt Hill
#
# Bulk Modulus (GPa) = 38.29450 42.07880 40.18665
# Shear Modulus (GPa) = 38.74731 16.68882 27.71806
#
# Velocity S-wave (km/s) = 4.39539 2.88462 3.71756
# Velocity P-wave (km/s) = 6.69723 5.66350 6.20194
#
# Compressibility (1/GPa) = 0.02611341
#
# Stress axis : x y z
#
# Youngs Moduli (GPa) = 101.74315 32.72881 28.81129
#
# Poissons Ratio (x) = -0.00633 0.17145
# Poissons Ratio (y) = -0.01967 0.53968
# Poissons Ratio (z) = 0.60544 0.61307
#
# Static dielectric constant tensor:
#      x y z
#    x 4.276110 0.000000 0.000000 
#    y 0.000000 3.653530 0.000000 
#    z 0.000000 0.000000 3.558890 
# 
# 
# High freq. dielectric constant tensor:
#      x y z
#    x 1.797300 0.000000 0.000000 
#    y 0.000000 1.785950 0.000000 
#    z 0.000000 0.000000 1.763580 
# 
# From -- ./inp_files/4098.got.cif
#   From: 2010.03.12/outbox.cif.g09.slc.cpg/sg55_3_cif.got.tgz:4098.got - 2010.04.16 15:19:21.
