data_PCOD8227544
_publ_section_title
;
Structure prediction by ZEFSAII (Michael W. Deem and Ramdas Pophale) SiO2 
 PCOD8227544
Probable space group: P B A M
;
_chemical_formula_sum "Si O2"
_cell_formula_units_Z 48
_cell_length_a 8.811295
_cell_length_b 13.955189
_cell_length_c 16.987668
_cell_angle_alpha 90.000000
_cell_angle_beta 90.000000
_cell_angle_gamma 90.000000
_cell_volume 2088.859497
_symmetry_space_group_name_H-M "P B A M"
_symmetry_group_IT_number 55
_symmetry_cell_setting 'orthorhombic'
loop_
_space_group_symop_operation_xyz
x,y,z
-x,-y,z
1/2+x,1/2-y,-z
1/2-x,1/2+y,-z
-x,-y,-z
x,y,-z
1/2-x,1/2+y,z
1/2+x,1/2-y,z
loop_
_atom_site_type_symbol
_atom_site_label
_atom_site_fract_x
_atom_site_fract_y
_atom_site_fract_z
Si Si1 0.906888 0.865793 0.353541
Si Si2 0.855754 0.709851 0.766799
Si Si3 0.732001 0.434115 0.000000
Si Si4 0.369235 0.883675 0.500000
Si Si5 0.773554 0.058158 0.347592
Si Si6 0.627589 0.802467 0.873773
Si Si7 0.211545 0.693933 0.500000
Si Si8 0.891800 0.140368 0.000000
O O1 0.938061 0.773805 0.299072
O O2 0.795511 0.845024 0.424342
O O3 0.074510 0.893164 0.382545
O O4 0.820350 0.954948 0.311693
O O5 0.792443 0.614106 0.727163
O O6 0.728882 0.782559 0.797969
O O7 0.960152 0.678184 0.840181
O O8 0.819683 0.395486 0.077147
O O9 0.563507 0.393843 0.000000
O O10 0.725018 0.550137 0.000000
O O11 0.346534 0.947665 0.420743
O O12 0.232694 0.807644 0.500000
O O13 0.533713 0.833163 0.500000
O O14 0.635747 0.704906 0.923921
#
# Coordination Sequence:
#
# PCOD8227544 Si02
#       8
#     8   8   4   4   8   8   4   4
#     4  11  25  45  69  99 137 185 238 289 356 425
#     4  12  24  44  68 102 145 182 224 287 356 414
#     4  10  22  45  76 107 132 188 228 280 335 419
#     4  12  25  42  69  96 134 186 243 299 358 413
#     4  11  25  45  69 100 136 185 237 292 354 425
#     4  11  24  44  72 104 143 181 225 286 343 414
#     4  12  25  42  69  96 134 186 243 301 356 417
#     4  10  22  45  76 103 138 179 238 270 344 415
#
# _framework density 22.979047000000001
#
# number of rings (size 3 to 8) (size 9 to 14) (size 15 to 20)
#    0.000    0.833    5.000    2.000    2.333    4.000 
#    0.000    3.333    0.000    0.000    0.000    0.000 
#    0.000    0.000    0.000    0.000    0.000    0.000 
#
# Total GULP energy -595042.079063 kJ/mol
# GULP energy per Si atom -12396.709980 kJ/mol
# Density = 2.292675 g / cm^3
# Si number density = 22.979047 Si / 1000 Ang^3
#
#
#
# Elastic Constant Matrix: (Units=GPa)
#
#
# Indices 1 2 3 4 5 6 
#
# 1 99.1305 41.8193 40.3379 0.0000 0.0000 0.0000
# 2 41.8193 123.8324 44.0789 0.0000 0.0000 0.0000
# 3 40.3379 44.0789 109.0603 0.0000 0.0000 0.0000
# 4 0.0000 0.0000 0.0000 21.7029 0.0000 0.0000
# 5 0.0000 0.0000 0.0000 0.0000 35.3614 0.0000
# 6 0.0000 0.0000 0.0000 0.0000 0.0000 38.8117
#
#
#
# Elastic Compliance Matrix: (Units=1/GPa)
#
#
# Indices 1 2 3 4 5 6 
#
# 1 0.012809 -0.003083 -0.003492 0.000000 0.000000 0.000000
# 2 -0.003083 0.010174 -0.002972 0.000000 0.000000 0.000000
# 3 -0.003492 -0.002972 0.011662 0.000000 0.000000 0.000000
# 4 0.000000 0.000000 0.000000 0.046077 0.000000 0.000000
# 5 0.000000 0.000000 0.000000 0.000000 0.028279 0.000000
# 6 0.000000 0.000000 0.000000 0.000000 0.000000 0.025765
#
#
# Mechanical properties :
#
#
# Convention : Reuss Voigt Hill
#
# Bulk Modulus (GPa) = 64.29867 64.94392 64.62129
# Shear Modulus (GPa) = 31.43784 32.89435 32.16610
#
# Velocity S-wave (km/s) = 3.70281 3.78761 3.74545
# Velocity P-wave (km/s) = 6.80612 6.88851 6.84744
#
# Compressibility (1/GPa) = 0.01555242
#
# Stress axis : x y z
#
# Youngs Moduli (GPa) = 78.06973 98.28573 85.74959
#
# Poissons Ratio (x) = 0.30300 0.29941
# Poissons Ratio (y) = 0.24068 0.25484
# Poissons Ratio (z) = 0.27259 0.29210
#
# Static dielectric constant tensor:
#      x y z
#    x 4.190320 0.000000 0.000000 
#    y 0.000000 4.316090 0.000000 
#    z 0.000000 0.000000 3.979370 
# 
# 
# High freq. dielectric constant tensor:
#      x y z
#    x 1.918140 0.000000 0.000000 
#    y 0.000000 1.909740 0.000000 
#    z 0.000000 0.000000 1.903370 
# 
# From -- ./inp_files/20879.got.cif
#   From: 2010.03.12/outbox.cif.g09.slc.cpg/sg55_11_cif.got.tgz:20879.got - 2010.04.16 15:19:21.
