data_PCOD8227202
_publ_section_title
;
Structure prediction by ZEFSAII (Michael W. Deem and Ramdas Pophale) SiO2 
 PCOD8227202
Probable space group: P B A M
;
_chemical_formula_sum "Si O2"
_cell_formula_units_Z 48
_cell_length_a 14.906003
_cell_length_b 4.915783
_cell_length_c 28.979483
_cell_angle_alpha 90.000000
_cell_angle_beta 90.000000
_cell_angle_gamma 90.000000
_cell_volume 2123.462232
_symmetry_space_group_name_H-M "P B A M"
_symmetry_group_IT_number 55
_symmetry_cell_setting 'orthorhombic'
loop_
_space_group_symop_operation_xyz
x,y,z
-x,-y,z
1/2+x,1/2-y,-z
1/2-x,1/2+y,-z
-x,-y,-z
x,y,-z
1/2-x,1/2+y,z
1/2+x,1/2-y,z
loop_
_atom_site_type_symbol
_atom_site_label
_atom_site_fract_x
_atom_site_fract_y
_atom_site_fract_z
Si Si1 0.812860 0.619809 0.447974
Si Si2 0.185712 0.953589 0.296891
Si Si3 0.313078 0.172316 0.134105
Si Si4 0.438859 0.259208 0.948596
Si Si5 0.556583 0.255294 0.630062
Si Si6 0.559399 0.744767 0.216263
O O1 0.852028 0.619411 0.500000
O O2 0.750039 0.369907 0.437897
O O3 0.892566 0.610419 0.411719
O O4 0.228461 0.652554 0.300621
O O5 0.126798 0.911012 0.251231
O O6 0.117145 0.074472 0.334229
O O7 0.247729 0.416775 0.142241
O O8 0.353864 0.196632 0.083123
O O9 0.389693 0.140559 0.172141
O O10 0.500000 0.500000 0.927605
O O11 0.500000 0.000000 0.951602
O O12 0.403907 0.338795 0.000000
O O13 0.500000 0.500000 0.607526
O O14 0.500000 0.000000 0.652746
O O15 0.500000 0.500000 0.197288
O O16 0.500000 0.000000 0.236872
#
# Coordination Sequence:
#
# PCOD8227202 Si02
#       6
#     8   8   8   8   8   8
#     4  10  21  40  65  93 128 172 218 263 318 380
#     4  12  25  44  67  92 126 166 213 265 323 385
#     4  12  24  40  63  94 129 165 211 262 320 383
#     4  10  21  39  62  89 125 170 215 259 314 377
#     4  12  25  41  64  96 132 170 215 265 323 386
#     4  12  25  44  68  94 126 164 212 267 327 388
#
# _framework density 22.604592
#
# number of rings (size 3 to 8) (size 9 to 14) (size 15 to 20)
#    0.000    0.667    0.000    8.500    0.000    2.667 
#    0.000    0.000    0.000    0.000    0.000    0.000 
#    0.000    0.000    0.000    0.000    0.000    0.000 
#
# Total GULP energy -594727.916888 kJ/mol
# GULP energy per Si atom -12390.164935 kJ/mol
# Density = 2.255314 g / cm^3
# Si number density = 22.604592 Si / 1000 Ang^3
#
#
#
# Elastic Constant Matrix: (Units=GPa)
#
#
# Indices 1 2 3 4 5 6 
#
# 1 85.5052 34.2677 39.5728 0.0000 0.0000 0.0000
# 2 34.2677 143.9325 13.9401 0.0000 0.0000 0.0000
# 3 39.5728 13.9401 101.0445 0.0000 0.0000 0.0000
# 4 0.0000 0.0000 0.0000 31.1026 0.0000 0.0000
# 5 0.0000 0.0000 0.0000 0.0000 -4.3391 0.0000
# 6 0.0000 0.0000 0.0000 0.0000 0.0000 59.2907
#
#
#
# Elastic Compliance Matrix: (Units=1/GPa)
#
#
# Indices 1 2 3 4 5 6 
#
# 1 0.015585 -0.003162 -0.005668 0.000000 0.000000 0.000000
# 2 -0.003162 0.007683 0.000178 0.000000 0.000000 0.000000
# 3 -0.005668 0.000178 0.012092 0.000000 0.000000 0.000000
# 4 0.000000 0.000000 0.000000 0.032152 0.000000 0.000000
# 5 0.000000 0.000000 0.000000 0.000000 -0.230463 0.000000
# 6 0.000000 0.000000 0.000000 0.000000 0.000000 0.016866
#
#
# Mechanical properties :
#
#
# Convention : Reuss Voigt Hill
#
# Bulk Modulus (GPa) = 55.37670 56.22705 55.80188
# Shear Modulus (GPa) = -40.72879 33.39093 -3.66893
#
# Velocity S-wave (km/s) = -4.24936 3.84757 -1.27539
# Velocity P-wave (km/s) = 0.68929 6.68331 4.75088
#
# Compressibility (1/GPa) = 0.01805814
#
# Stress axis : x y z
#
# Youngs Moduli (GPa) = 64.16292 130.15453 82.70143
#
# Poissons Ratio (x) = 0.41151 0.46872
# Poissons Ratio (y) = 0.20286 -0.01474
# Poissons Ratio (z) = 0.36365 -0.02320
#
# Static dielectric constant tensor:
#      x y z
#    x 4.422910 0.000000 0.000000 
#    y 0.000000 11.570700 0.000000 
#    z 0.000000 0.000000 4.257010 
# 
# 
# High freq. dielectric constant tensor:
#      x y z
#    x 1.901640 0.000000 0.000000 
#    y 0.000000 1.920710 0.000000 
#    z 0.000000 0.000000 1.886790 
# 
# From -- ./inp_files/23976.got.cif
#   From: 2010.03.12/outbox.cif.g09.slc.cpg/sg55_12_cif.got.tgz:23976.got - 2010.04.16 15:19:21.
