data_PCOD8227576
_publ_section_title
;
Structure prediction by ZEFSAII (Michael W. Deem and Ramdas Pophale) SiO2 
 PCOD8227576
Probable space group: P B A M
;
_chemical_formula_sum "Si O2"
_cell_formula_units_Z 56
_cell_length_a 14.525374
_cell_length_b 21.553412
_cell_length_c 8.588782
_cell_angle_alpha 90.000000
_cell_angle_beta 90.000000
_cell_angle_gamma 90.000000
_cell_volume 2688.901750
_symmetry_space_group_name_H-M "P B A M"
_symmetry_group_IT_number 55
_symmetry_cell_setting 'orthorhombic'
loop_
_space_group_symop_operation_xyz
x,y,z
-x,-y,z
1/2+x,1/2-y,-z
1/2-x,1/2+y,-z
-x,-y,-z
x,y,-z
1/2-x,1/2+y,z
1/2+x,1/2-y,z
loop_
_atom_site_type_symbol
_atom_site_label
_atom_site_fract_x
_atom_site_fract_y
_atom_site_fract_z
Si Si1 0.719632 0.505495 0.181447
Si Si2 0.578086 0.049297 0.180742
Si Si3 0.608966 0.740150 0.319214
Si Si4 0.573388 0.608580 0.818965
Si Si5 0.380699 0.608049 0.680542
Si Si6 0.568103 0.181187 0.680446
Si Si7 0.295261 0.727642 0.180471
O O1 0.823867 0.520725 0.227253
O O2 0.656651 0.563635 0.228863
O O3 0.690963 0.445749 0.279931
O O4 0.709659 0.489302 0.000000
O O5 0.557478 0.109063 0.283889
O O6 0.500000 0.000000 0.221906
O O7 0.576150 0.068219 0.000000
O O8 0.605476 0.722190 0.500000
O O9 0.604252 0.678036 0.218504
O O10 0.525951 0.785004 0.272022
O O11 0.702066 0.776702 0.279692
O O12 0.483835 0.587041 0.723499
O O13 0.549828 0.602688 0.000000
O O14 0.374801 0.624721 0.500000
O O15 0.359532 0.669849 0.777216
O O16 0.590984 0.191358 0.500000
O O17 0.651536 0.208865 0.781050
O O18 0.269671 0.726457 0.000000
#
# Coordination Sequence:
#
# PCOD8227576 Si02
#       7
#     8   8   8   8   8   8   8
#     4  10  23  42  63  92 128 169 218 268 322 384
#     4  10  23  43  67  96 130 171 221 270 319 383
#     4  11  24  41  65  97 134 170 211 265 325 385
#     4  11  22  40  66  96 130 172 218 264 320 390
#     4  12  25  41  63  94 130 167 214 270 331 388
#     4  11  24  43  67  97 133 170 212 266 326 387
#     4  12  25  42  67  95 129 172 220 269 324 388
#
# _framework density 20.826346999999998
#
# number of rings (size 3 to 8) (size 9 to 14) (size 15 to 20)
#    0.000    1.000    1.429    5.143    2.000    6.571 
#    0.000    0.000    0.000    0.000    0.000    0.000 
#    0.000    0.000    0.000    0.000    0.000    0.000 
#
# Total GULP energy -694934.762629 kJ/mol
# GULP energy per Si atom -12409.549333 kJ/mol
# Density = 2.077894 g / cm^3
# Si number density = 20.826347 Si / 1000 Ang^3
#
#
#
# Elastic Constant Matrix: (Units=GPa)
#
#
# Indices 1 2 3 4 5 6 
#
# 1 135.8572 46.5525 28.6748 0.0000 0.0000 0.0000
# 2 46.5525 109.2009 31.7666 0.0000 0.0000 0.0000
# 3 28.6748 31.7666 64.0476 0.0000 0.0000 0.0000
# 4 0.0000 0.0000 0.0000 30.0510 0.0000 0.0000
# 5 0.0000 0.0000 0.0000 0.0000 30.8264 0.0000
# 6 0.0000 0.0000 0.0000 0.0000 0.0000 31.4604
#
#
#
# Elastic Compliance Matrix: (Units=1/GPa)
#
#
# Indices 1 2 3 4 5 6 
#
# 1 0.008942 -0.003094 -0.002469 0.000000 0.000000 0.000000
# 2 -0.003094 0.011772 -0.004454 0.000000 0.000000 0.000000
# 3 -0.002469 -0.004454 0.018928 0.000000 0.000000 0.000000
# 4 0.000000 0.000000 0.000000 0.033277 0.000000 0.000000
# 5 0.000000 0.000000 0.000000 0.000000 0.032440 0.000000
# 6 0.000000 0.000000 0.000000 0.000000 0.000000 0.031786
#
#
# Mechanical properties :
#
#
# Convention : Reuss Voigt Hill
#
# Bulk Modulus (GPa) = 50.99714 58.12147 54.55930
# Shear Modulus (GPa) = 30.54134 31.94168 31.24151
#
# Velocity S-wave (km/s) = 3.83361 3.92052 3.87731
# Velocity P-wave (km/s) = 6.64345 6.96148 6.80432
#
# Compressibility (1/GPa) = 0.01960894
#
# Stress axis : x y z
#
# Youngs Moduli (GPa) = 111.83353 84.94862 52.83280
#
# Poissons Ratio (x) = 0.26281 0.13044
# Poissons Ratio (y) = 0.34598 0.23529
# Poissons Ratio (z) = 0.27611 0.37832
#
# Static dielectric constant tensor:
#      x y z
#    x 3.912930 0.000000 0.000000 
#    y 0.000000 3.706700 0.000000 
#    z 0.000000 0.000000 3.678760 
# 
# 
# High freq. dielectric constant tensor:
#      x y z
#    x 1.830470 0.000000 0.000000 
#    y 0.000000 1.820940 0.000000 
#    z 0.000000 0.000000 1.815940 
# 
# From -- ./inp_files/6134.got.cif
#   From: 2010.03.12/outbox.cif.g09.slc.cpg/sg55_4_cif.got.tgz:6134.got - 2010.04.16 15:19:21.
