data_PCOD8227204
_publ_section_title
;
Structure prediction by ZEFSAII (Michael W. Deem and Ramdas Pophale) SiO2 
 PCOD8227204
Probable space group: P B A M
;
_chemical_formula_sum "Si O2"
_cell_formula_units_Z 64
_cell_length_a 13.891997
_cell_length_b 12.859867
_cell_length_c 17.688446
_cell_angle_alpha 90.000000
_cell_angle_beta 90.000000
_cell_angle_gamma 90.000000
_cell_volume 3160.027325
_symmetry_space_group_name_H-M "P B A M"
_symmetry_group_IT_number 55
_symmetry_cell_setting 'orthorhombic'
loop_
_space_group_symop_operation_xyz
x,y,z
-x,-y,z
1/2+x,1/2-y,-z
1/2-x,1/2+y,-z
-x,-y,-z
x,y,-z
1/2-x,1/2+y,z
1/2+x,1/2-y,z
loop_
_atom_site_type_symbol
_atom_site_label
_atom_site_fract_x
_atom_site_fract_y
_atom_site_fract_z
Si Si1 0.724176 0.520990 0.914055
Si Si2 0.950607 0.891455 0.083152
Si Si3 0.121323 0.793545 0.846454
Si Si4 0.755157 0.344506 0.415848
Si Si5 0.402669 0.058589 0.838514
Si Si6 0.267937 0.345364 0.690836
Si Si7 0.892193 0.486754 0.672762
Si Si8 0.393587 0.483533 0.584383
O O1 0.656282 0.423622 0.887911
O O2 0.675179 0.634729 0.907931
O O3 0.817416 0.518755 0.861386
O O4 0.755856 0.504788 0.000000
O O5 0.007589 0.827178 0.148438
O O6 0.946799 0.834129 0.000000
O O7 0.000000 0.000000 0.067603
O O8 0.118446 0.673165 0.872581
O O9 0.177209 0.816857 0.768338
O O10 0.778376 0.300506 0.500000
O O11 0.741091 0.257756 0.353464
O O12 0.838851 0.424265 0.392711
O O13 0.654743 0.404058 0.417301
O O14 0.404360 0.079829 0.748987
O O15 0.500000 0.000000 0.865659
O O16 0.167440 0.409297 0.697070
O O17 0.344003 0.407474 0.642192
O O18 0.000000 0.500000 0.640182
O O19 0.500000 0.500000 0.615174
O O20 0.392931 0.434203 0.500000
#
# Coordination Sequence:
#
# PCOD8227204 Si02
#       8
#     8   8   8   8   8   8   8   8
#     4  10  22  42  65  91 124 163 208 260 310 374
#     4   8  17  36  61  89 120 151 198 253 299 360
#     4  11  21  38  63  91 120 165 205 253 314 367
#     4  10  21  39  62  91 122 157 207 256 303 364
#     4  11  24  42  60  89 130 165 205 259 310 368
#     4  11  21  37  61  90 116 163 207 251 301 366
#     4  10  22  42  61  86 126 167 206 253 311 367
#     4   9  20  38  57  83 122 156 191 251 312 361
#
# _framework density 20.252987999999998
#
# number of rings (size 3 to 8) (size 9 to 14) (size 15 to 20)
#    0.000    2.000    2.500    1.500    0.000    5.500 
#    0.000    2.500    0.000    0.000    0.000    0.000 
#    0.000    0.000    0.000    0.000    0.000    0.000 
#
# Total GULP energy -792943.727643 kJ/mol
# GULP energy per Si atom -12389.745744 kJ/mol
# Density = 2.020689 g / cm^3
# Si number density = 20.252988 Si / 1000 Ang^3
#
#
#
# Elastic Constant Matrix: (Units=GPa)
#
#
# Indices 1 2 3 4 5 6 
#
# 1 147.8995 39.3293 31.9511 0.0000 0.0000 0.0000
# 2 39.3293 92.2137 14.4612 0.0000 0.0000 0.0000
# 3 31.9511 14.4612 56.7083 0.0000 0.0000 0.0000
# 4 0.0000 0.0000 0.0000 27.3619 0.0000 0.0000
# 5 0.0000 0.0000 0.0000 0.0000 30.7656 0.0000
# 6 0.0000 0.0000 0.0000 0.0000 0.0000 16.7577
#
#
#
# Elastic Compliance Matrix: (Units=1/GPa)
#
#
# Indices 1 2 3 4 5 6 
#
# 1 0.008409 -0.002962 -0.003983 0.000000 0.000000 0.000000
# 2 -0.002962 0.012339 -0.001478 0.000000 0.000000 0.000000
# 3 -0.003983 -0.001478 0.020255 0.000000 0.000000 0.000000
# 4 0.000000 0.000000 0.000000 0.036547 0.000000 0.000000
# 5 0.000000 0.000000 0.000000 0.000000 0.032504 0.000000
# 6 0.000000 0.000000 0.000000 0.000000 0.000000 0.059674
#
#
# Mechanical properties :
#
#
# Convention : Reuss Voigt Hill
#
# Bulk Modulus (GPa) = 41.39303 52.03384 46.71343
# Shear Modulus (GPa) = 25.69020 29.04905 27.36962
#
# Velocity S-wave (km/s) = 3.56542 3.79134 3.68011
# Velocity P-wave (km/s) = 6.11816 6.70174 6.41659
#
# Compressibility (1/GPa) = 0.02415866
#
# Stress axis : x y z
#
# Youngs Moduli (GPa) = 118.91427 81.04087 49.37061
#
# Poissons Ratio (x) = 0.24005 0.19663
# Poissons Ratio (y) = 0.35223 0.07296
# Poissons Ratio (z) = 0.47361 0.11976
#
# Static dielectric constant tensor:
#      x y z
#    x 3.968420 0.000000 0.000000 
#    y 0.000000 3.565680 0.000000 
#    z 0.000000 0.000000 3.637930 
# 
# 
# High freq. dielectric constant tensor:
#      x y z
#    x 1.798800 0.000000 0.000000 
#    y 0.000000 1.776590 0.000000 
#    z 0.000000 0.000000 1.786970 
# 
# From -- ./inp_files/21639.got.cif
#   From: 2010.03.12/outbox.cif.g09.slc.cpg/sg55_11_cif.got.tgz:21639.got - 2010.04.16 15:19:21.
