data_PCOD8227701
_publ_section_title
;
Structure prediction by ZEFSAII (Michael W. Deem and Ramdas Pophale) SiO2 
 PCOD8227701
Probable space group: P B A M
;
_chemical_formula_sum "Si O2"
_cell_formula_units_Z 56
_cell_length_a 14.112978
_cell_length_b 9.032745
_cell_length_c 21.456907
_cell_angle_alpha 90.000000
_cell_angle_beta 90.000000
_cell_angle_gamma 90.000000
_cell_volume 2735.303577
_symmetry_space_group_name_H-M "P B A M"
_symmetry_group_IT_number 55
_symmetry_cell_setting 'orthorhombic'
loop_
_space_group_symop_operation_xyz
x,y,z
-x,-y,z
1/2+x,1/2-y,-z
1/2-x,1/2+y,-z
-x,-y,-z
x,y,-z
1/2-x,1/2+y,z
1/2+x,1/2-y,z
loop_
_atom_site_type_symbol
_atom_site_label
_atom_site_fract_x
_atom_site_fract_y
_atom_site_fract_z
Si Si1 0.040177 0.164957 0.707682
Si Si2 0.376472 0.223160 0.629819
Si Si3 0.799027 0.941485 0.928936
Si Si4 0.028358 0.668974 0.500000
Si Si5 0.459692 0.664507 0.151638
Si Si6 0.801271 0.960597 0.629792
Si Si7 0.398286 0.583267 0.500000
Si Si8 0.377044 0.240185 0.928980
O O1 0.139407 0.156196 0.671430
O O2 0.968747 0.280828 0.674411
O O3 0.056161 0.220776 0.778081
O O4 0.000000 0.000000 0.705166
O O5 0.410637 0.223008 0.558737
O O6 0.309143 0.080718 0.639627
O O7 0.315918 0.368717 0.648190
O O8 0.688967 0.902425 0.917117
O O9 0.860694 0.835262 0.884637
O O10 0.814755 0.113693 0.914239
O O11 0.827377 0.903812 0.000000
O O12 0.000000 0.500000 0.500000
O O13 0.925256 0.744474 0.500000
O O14 0.500000 0.500000 0.150193
O O15 0.533498 0.772582 0.116829
O O16 0.833467 0.949644 0.558708
O O17 0.500000 0.500000 0.500000
O O18 0.414418 0.245341 0.000000
#
# Coordination Sequence:
#
# PCOD8227701 Si02
#       8
#     8   8   8   4   8   8   4   8
#     4   9  19  37  55  77 108 146 183 229 272 318
#     4  11  23  39  58  86 111 145 182 223 276 330
#     4   9  17  30  50  77 107 138 177 224 274 323
#     4  12  25  38  62  87 115 139 177 225 272 320
#     4   9  17  31  54  76 102 142 189 222 264 323
#     4  11  22  37  60  81 112 145 182 223 277 328
#     4  12  19  40  62  79 113 147 170 222 274 322
#     4   9  17  30  50  77 107 138 175 224 272 321
#
# _framework density 20.473047000000001
#
# number of rings (size 3 to 8) (size 9 to 14) (size 15 to 20)
#    0.000    2.000    2.857    1.286    2.000    2.857 
#    0.000    0.714    0.000    6.857    0.000    0.000 
#    0.000    0.000    0.000    0.000    0.000    0.000 
#
# Total GULP energy -694273.981375 kJ/mol
# GULP energy per Si atom -12397.749667 kJ/mol
# Density = 2.042645 g / cm^3
# Si number density = 20.473047 Si / 1000 Ang^3
#
#
#
# Elastic Constant Matrix: (Units=GPa)
#
#
# Indices 1 2 3 4 5 6 
#
# 1 46.0781 0.0082 22.8075 0.0000 0.0000 0.0000
# 2 0.0082 42.4757 -1.9701 0.0000 0.0000 0.0000
# 3 22.8075 -1.9701 115.5350 0.0000 0.0000 0.0000
# 4 0.0000 0.0000 0.0000 12.7140 0.0000 0.0000
# 5 0.0000 0.0000 0.0000 0.0000 15.4634 0.0000
# 6 0.0000 0.0000 0.0000 0.0000 0.0000 37.1598
#
#
#
# Elastic Compliance Matrix: (Units=1/GPa)
#
#
# Indices 1 2 3 4 5 6 
#
# 1 0.024055 -0.000225 -0.004752 0.000000 0.000000 0.000000
# 2 -0.000225 0.023564 0.000446 0.000000 0.000000 0.000000
# 3 -0.004752 0.000446 0.009601 0.000000 0.000000 0.000000
# 4 0.000000 0.000000 0.000000 0.078654 0.000000 0.000000
# 5 0.000000 0.000000 0.000000 0.000000 0.064669 0.000000
# 6 0.000000 0.000000 0.000000 0.000000 0.000000 0.026911
#
#
# Mechanical properties :
#
#
# Convention : Reuss Voigt Hill
#
# Bulk Modulus (GPa) = 20.76543 27.30888 24.03715
# Shear Modulus (GPa) = 19.79670 25.28366 22.54018
#
# Velocity S-wave (km/s) = 3.11298 3.51803 3.32168
# Velocity P-wave (km/s) = 4.80476 5.46534 5.14566
#
# Compressibility (1/GPa) = 0.04815697
#
# Stress axis : x y z
#
# Youngs Moduli (GPa) = 41.57200 42.43831 104.15412
#
# Poissons Ratio (x) = 0.00955 0.49498
# Poissons Ratio (y) = 0.00936 -0.04648
# Poissons Ratio (z) = 0.19757 -0.01894
#
# Static dielectric constant tensor:
#      x y z
#    x 3.650780 0.000000 0.000000 
#    y 0.000000 3.487240 0.000000 
#    z 0.000000 0.000000 3.817490 
# 
# 
# High freq. dielectric constant tensor:
#      x y z
#    x 1.795010 0.000000 0.000000 
#    y 0.000000 1.774140 0.000000 
#    z 0.000000 0.000000 1.796590 
# 
# From -- ./inp_files/22992.got.cif
#   From: 2010.03.12/outbox.cif.g09.slc.cpg/sg55_12_cif.got.tgz:22992.got - 2010.04.16 15:19:21.
