data_PCOD8227128
_publ_section_title
;
Structure prediction by ZEFSAII (Michael W. Deem and Ramdas Pophale) SiO2 
 PCOD8227128
Probable space group: P B A M
;
_chemical_formula_sum "Si O2"
_cell_formula_units_Z 48
_cell_length_a 24.122081
_cell_length_b 5.019397
_cell_length_c 19.824845
_cell_angle_alpha 90.000000
_cell_angle_beta 90.000000
_cell_angle_gamma 90.000000
_cell_volume 2400.358550
_symmetry_space_group_name_H-M "P B A M"
_symmetry_group_IT_number 55
_symmetry_cell_setting 'orthorhombic'
loop_
_space_group_symop_operation_xyz
x,y,z
-x,-y,z
1/2+x,1/2-y,-z
1/2-x,1/2+y,-z
-x,-y,-z
x,y,-z
1/2-x,1/2+y,z
1/2+x,1/2-y,z
loop_
_atom_site_type_symbol
_atom_site_label
_atom_site_fract_x
_atom_site_fract_y
_atom_site_fract_z
Si Si1 0.213720 0.132897 0.422166
Si Si2 0.562298 0.976689 0.278232
Si Si3 0.131069 0.010171 0.308987
Si Si4 0.439054 0.075562 0.121636
Si Si5 0.286524 0.522507 0.187744
Si Si6 0.625235 0.435215 0.077143
O O1 0.196167 0.110127 0.500000
O O2 0.239111 0.418629 0.403978
O O3 0.158068 0.090961 0.379835
O O4 0.596332 0.759751 0.321184
O O5 0.561336 0.876274 0.201458
O O6 0.500000 0.000000 0.306939
O O7 0.590160 0.263516 0.282573
O O8 0.178498 0.959870 0.254256
O O9 0.423804 0.351499 0.085698
O O10 0.500000 0.000000 0.095556
O O11 0.395110 0.851688 0.101559
O O12 0.234174 0.326007 0.187983
O O13 0.322452 0.471110 0.121039
O O14 0.644496 0.418572 0.000000
#
# Coordination Sequence:
#
# PCOD8227128 Si02
#       6
#     8   8   8   8   8   8
#     4  10  21  38  61  94 129 161 198 240 292 347
#     4  11  22  38  63  90 119 153 196 246 297 351
#     4  12  21  39  64  90 119 155 197 243 294 341
#     4  11  22  41  62  86 116 148 193 248 303 354
#     4  12  24  39  59  83 112 148 197 240 284 342
#     4  12  25  41  59  84 117 153 193 243 302 360
#
# _framework density 19.997012000000002
#
# number of rings (size 3 to 8) (size 9 to 14) (size 15 to 20)
#    0.000    0.667    3.333    5.500    0.000    5.333 
#    0.000    0.000    0.000    3.000    0.000    0.000 
#    0.000    0.000    0.000    0.000    0.000    0.000 
#
# Total GULP energy -595651.242711 kJ/mol
# GULP energy per Si atom -12409.400890 kJ/mol
# Density = 1.995150 g / cm^3
# Si number density = 19.997012 Si / 1000 Ang^3
#
#
#
# Elastic Constant Matrix: (Units=GPa)
#
#
# Indices 1 2 3 4 5 6 
#
# 1 86.6619 5.7443 31.9344 0.0000 0.0000 0.0000
# 2 5.7443 71.2822 0.5777 0.0000 0.0000 0.0000
# 3 31.9344 0.5777 71.9628 0.0000 0.0000 0.0000
# 4 0.0000 0.0000 0.0000 17.5540 0.0000 0.0000
# 5 0.0000 0.0000 0.0000 0.0000 18.7442 0.0000
# 6 0.0000 0.0000 0.0000 0.0000 0.0000 40.4064
#
#
#
# Elastic Compliance Matrix: (Units=1/GPa)
#
#
# Indices 1 2 3 4 5 6 
#
# 1 0.013876 -0.001068 -0.006149 0.000000 0.000000 0.000000
# 2 -0.001068 0.014112 0.000361 0.000000 0.000000 0.000000
# 3 -0.006149 0.000361 0.016622 0.000000 0.000000 0.000000
# 4 0.000000 0.000000 0.000000 0.056967 0.000000 0.000000
# 5 0.000000 0.000000 0.000000 0.000000 0.053350 0.000000
# 6 0.000000 0.000000 0.000000 0.000000 0.000000 0.024749
#
#
# Mechanical properties :
#
#
# Convention : Reuss Voigt Hill
#
# Bulk Modulus (GPa) = 32.36610 34.04663 33.20636
# Shear Modulus (GPa) = 24.54750 28.11762 26.33256
#
# Velocity S-wave (km/s) = 3.50745 3.75386 3.63274
# Velocity P-wave (km/s) = 5.71171 5.98760 5.85128
#
# Compressibility (1/GPa) = 0.03089652
#
# Stress axis : x y z
#
# Youngs Moduli (GPa) = 72.06813 70.86206 60.16180
#
# Poissons Ratio (x) = 0.07571 0.36993
# Poissons Ratio (y) = 0.07699 -0.02171
# Poissons Ratio (z) = 0.44314 -0.02557
#
# Static dielectric constant tensor:
#      x y z
#    x 3.665510 0.000000 0.000000 
#    y 0.000000 3.725850 0.000000 
#    z 0.000000 0.000000 3.540160 
# 
# 
# High freq. dielectric constant tensor:
#      x y z
#    x 1.781180 0.000000 0.000000 
#    y 0.000000 1.799830 0.000000 
#    z 0.000000 0.000000 1.764020 
# 
# From -- ./inp_files/23114.got.cif
#   From: 2010.03.12/outbox.cif.g09.slc.cpg/sg55_12_cif.got.tgz:23114.got - 2010.04.16 15:19:21.
