data_PCOD8227476
_publ_section_title
;
Structure prediction by ZEFSAII (Michael W. Deem and Ramdas Pophale) SiO2 
 PCOD8227476
Probable space group: P B A M
;
_chemical_formula_sum "Si O2"
_cell_formula_units_Z 48
_cell_length_a 18.735923
_cell_length_b 15.497172
_cell_length_c 7.765869
_cell_angle_alpha 90.000000
_cell_angle_beta 90.000000
_cell_angle_gamma 90.000000
_cell_volume 2254.849740
_symmetry_space_group_name_H-M "P B A M"
_symmetry_group_IT_number 55
_symmetry_cell_setting 'orthorhombic'
loop_
_space_group_symop_operation_xyz
x,y,z
-x,-y,z
1/2+x,1/2-y,-z
1/2-x,1/2+y,-z
-x,-y,-z
x,y,-z
1/2-x,1/2+y,z
1/2+x,1/2-y,z
loop_
_atom_site_type_symbol
_atom_site_label
_atom_site_fract_x
_atom_site_fract_y
_atom_site_fract_z
Si Si1 0.617860 0.520719 0.500000
Si Si2 0.184382 0.625689 0.202043
Si Si3 0.971784 0.411840 0.199547
Si Si4 0.716934 0.220898 0.697419
Si Si5 0.061170 0.246976 0.806119
Si Si6 0.022228 0.132505 0.500000
Si Si7 0.275254 0.458086 0.804961
O O1 0.596472 0.420431 0.500000
O O2 0.546620 0.574780 0.500000
O O3 0.659620 0.543417 0.673103
O O4 0.103843 0.619773 0.277819
O O5 0.221979 0.706639 0.292754
O O6 0.222505 0.535471 0.247857
O O7 0.185428 0.644468 0.000000
O O8 0.000000 0.500000 0.287718
O O9 0.034423 0.343521 0.228708
O O10 0.956282 0.430096 0.000000
O O11 0.702948 0.196778 0.500000
O O12 0.645710 0.259343 0.781254
O O13 0.735934 0.133736 0.798207
O O14 0.019260 0.187345 0.673686
O O15 0.041882 0.217124 0.000000
O O16 0.303612 0.471995 0.000000
#
# Coordination Sequence:
#
# PCOD8227476 Si02
#       7
#     4   8   8   8   8   4   8
#     4  11  26  45  65  93 130 172 218 284 335 388
#     4  10  22  40  66  98 128 170 224 271 324 398
#     4   9  19  38  64  94 131 170 210 264 331 396
#     4  12  24  40  66  96 134 174 219 273 333 395
#     4  11  23  42  69  95 132 178 219 270 333 398
#     4  11  26  45  64  93 131 168 229 276 328 399
#     4  11  24  43  69  97 132 172 221 275 334 397
#
# _framework density 21.287448000000001
#
# number of rings (size 3 to 8) (size 9 to 14) (size 15 to 20)
#    0.000    1.333    1.667    3.500    3.500    5.333 
#    0.000    2.083    0.000    0.000    0.000    0.000 
#    0.000    0.000    0.000    0.000    0.000    0.000 
#
# Total GULP energy -595356.625361 kJ/mol
# GULP energy per Si atom -12403.263028 kJ/mol
# Density = 2.123900 g / cm^3
# Si number density = 21.287448 Si / 1000 Ang^3
#
#
#
# Elastic Constant Matrix: (Units=GPa)
#
#
# Indices 1 2 3 4 5 6 
#
# 1 106.0870 23.5933 24.1371 0.0000 0.0000 0.0000
# 2 23.5933 102.3611 29.0304 0.0000 0.0000 0.0000
# 3 24.1371 29.0304 113.5999 0.0000 0.0000 0.0000
# 4 0.0000 0.0000 0.0000 -37.6848 0.0000 0.0000
# 5 0.0000 0.0000 0.0000 0.0000 -19.3164 0.0000
# 6 0.0000 0.0000 0.0000 0.0000 0.0000 35.1611
#
#
#
# Elastic Compliance Matrix: (Units=1/GPa)
#
#
# Indices 1 2 3 4 5 6 
#
# 1 0.010229 -0.001877 -0.001694 0.000000 0.000000 0.000000
# 2 -0.001877 0.010877 -0.002381 0.000000 0.000000 0.000000
# 3 -0.001694 -0.002381 0.009771 0.000000 0.000000 0.000000
# 4 0.000000 0.000000 0.000000 -0.026536 0.000000 0.000000
# 5 0.000000 0.000000 0.000000 0.000000 -0.051769 0.000000
# 6 0.000000 0.000000 0.000000 0.000000 0.000000 0.028440
#
#
# Mechanical properties :
#
#
# Convention : Reuss Voigt Hill
#
# Bulk Modulus (GPa) = 52.70424 52.84106 52.77265
# Shear Modulus (GPa) = -6586.19672 11.98446 -3287.10613
#
# Velocity S-wave (km/s) = -55.68349 2.37530 -39.33833
# Velocity P-wave (km/s) = 64.10452 5.69203 45.14970
#
# Compressibility (1/GPa) = 0.01897381
#
# Stress axis : x y z
#
# Youngs Moduli (GPa) = 97.76039 91.93487 102.34273
#
# Poissons Ratio (x) = 0.17260 0.17333
# Poissons Ratio (y) = 0.18353 0.24366
# Poissons Ratio (z) = 0.16557 0.21888
#
# Static dielectric constant tensor:
#      x y z
#    x 3.871060 0.000000 0.000000 
#    y 0.000000 3.966720 0.000000 
#    z 0.000000 0.000000 3.839160 
# 
# 
# High freq. dielectric constant tensor:
#      x y z
#    x 1.837610 0.000000 0.000000 
#    y 0.000000 1.844310 0.000000 
#    z 0.000000 0.000000 1.832900 
# 
# From -- ./inp_files/7473.got.cif
#   From: 2010.03.12/outbox.cif.g09.slc.cpg/sg55_4_cif.got.tgz:7473.got - 2010.04.16 15:19:21.
