data_PCOD8227505
_publ_section_title
;
Structure prediction by ZEFSAII (Michael W. Deem and Ramdas Pophale) SiO2 
 PCOD8227505
Probable space group: P B A M
;
_chemical_formula_sum "Si O2"
_cell_formula_units_Z 56
_cell_length_a 11.515846
_cell_length_b 15.249099
_cell_length_c 13.950292
_cell_angle_alpha 90.000000
_cell_angle_beta 90.000000
_cell_angle_gamma 90.000000
_cell_volume 2449.758823
_symmetry_space_group_name_H-M "P B A M"
_symmetry_group_IT_number 55
_symmetry_cell_setting 'orthorhombic'
loop_
_space_group_symop_operation_xyz
x,y,z
-x,-y,z
1/2+x,1/2-y,-z
1/2-x,1/2+y,-z
-x,-y,-z
x,y,-z
1/2-x,1/2+y,z
1/2+x,1/2-y,z
loop_
_atom_site_type_symbol
_atom_site_label
_atom_site_fract_x
_atom_site_fract_y
_atom_site_fract_z
Si Si1 0.829944 0.748869 0.891968
Si Si2 0.474016 0.594194 0.816708
Si Si3 0.186776 0.376896 0.392678
Si Si4 0.256886 0.533739 0.717316
Si Si5 0.158011 0.784875 0.739508
Si Si6 0.927796 0.350839 0.388088
Si Si7 0.620900 0.048690 0.889724
O O1 0.924150 0.827187 0.882323
O O2 0.713048 0.768019 0.829838
O O3 0.887356 0.653553 0.866823
O O4 0.784999 0.748473 0.000000
O O5 0.500000 0.500000 0.869659
O O6 0.383293 0.576021 0.730734
O O7 0.598234 0.625304 0.775409
O O8 0.213558 0.347447 0.500000
O O9 0.262548 0.461161 0.365713
O O10 0.226272 0.299067 0.323999
O O11 0.050693 0.400330 0.379637
O O12 0.170819 0.605064 0.674735
O O13 0.214404 0.494617 0.819252
O O14 0.061384 0.740143 0.670894
O O15 0.893549 0.338943 0.500000
O O16 0.500000 0.000000 0.869859
O O17 0.660285 0.033719 0.000000
#
# Coordination Sequence:
#
# PCOD8227505 Si02
#       7
#     8   8   8   8   8   8   8
#     4  11  25  46  73 104 139 188 240 289 353 427
#     4  12  26  46  71 104 147 192 235 289 364 425
#     4  11  23  43  70 100 136 184 238 292 356 422
#     4  12  23  43  69 102 142 184 230 297 359 424
#     4  12  24  46  70  99 147 189 230 296 353 430
#     4  11  25  43  70 104 136 182 243 298 355 421
#     4  10  22  41  70 107 141 180 235 294 354 422
#
# _framework density 22.859393000000001
#
# number of rings (size 3 to 8) (size 9 to 14) (size 15 to 20)
#    0.000    0.714    4.286    3.000    2.000    2.571 
#    0.000    2.857    0.000    0.000    0.000    0.000 
#    0.000    0.000    0.000    0.000    0.000    0.000 
#
# Total GULP energy -694000.336746 kJ/mol
# GULP energy per Si atom -12392.863156 kJ/mol
# Density = 2.280736 g / cm^3
# Si number density = 22.859393 Si / 1000 Ang^3
#
#
#
# Elastic Constant Matrix: (Units=GPa)
#
#
# Indices 1 2 3 4 5 6 
#
# 1 104.4813 25.6026 54.6893 0.0000 0.0000 0.0000
# 2 25.6026 102.1306 43.3279 0.0000 0.0000 0.0000
# 3 54.6893 43.3279 130.6739 0.0000 0.0000 0.0000
# 4 0.0000 0.0000 0.0000 25.8413 0.0000 0.0000
# 5 0.0000 0.0000 0.0000 0.0000 22.2872 0.0000
# 6 0.0000 0.0000 0.0000 0.0000 0.0000 43.1882
#
#
#
# Elastic Compliance Matrix: (Units=1/GPa)
#
#
# Indices 1 2 3 4 5 6 
#
# 1 0.012352 -0.001051 -0.004821 0.000000 0.000000 0.000000
# 2 -0.001051 0.011484 -0.003368 0.000000 0.000000 0.000000
# 3 -0.004821 -0.003368 0.010787 0.000000 0.000000 0.000000
# 4 0.000000 0.000000 0.000000 0.038698 0.000000 0.000000
# 5 0.000000 0.000000 0.000000 0.000000 0.044869 0.000000
# 6 0.000000 0.000000 0.000000 0.000000 0.000000 0.023154
#
#
# Mechanical properties :
#
#
# Convention : Reuss Voigt Hill
#
# Bulk Modulus (GPa) = 61.94699 64.94727 63.44713
# Shear Modulus (GPa) = 30.26547 32.50774 31.38661
#
# Velocity S-wave (km/s) = 3.64261 3.77513 3.70946
# Velocity P-wave (km/s) = 6.69697 6.89024 6.79429
#
# Compressibility (1/GPa) = 0.01614284
#
# Stress axis : x y z
#
# Youngs Moduli (GPa) = 80.95720 87.08052 92.70440
#
# Poissons Ratio (x) = 0.09154 0.44693
# Poissons Ratio (y) = 0.08510 0.31220
# Poissons Ratio (z) = 0.39030 0.29326
#
# Static dielectric constant tensor:
#      x y z
#    x 3.953640 0.000000 0.000000 
#    y 0.000000 4.484610 0.000000 
#    z 0.000000 0.000000 4.128630 
# 
# 
# High freq. dielectric constant tensor:
#      x y z
#    x 1.895820 0.000000 0.000000 
#    y 0.000000 1.912500 0.000000 
#    z 0.000000 0.000000 1.900890 
# 
# From -- ./inp_files/18407.got.cif
#   From: 2010.03.12/outbox.cif.g09.slc.cpg/sg55_10_cif.got.tgz:18407.got - 2010.04.16 15:19:21.
