data_PCOD8227709
_publ_section_title
;
Structure prediction by ZEFSAII (Michael W. Deem and Ramdas Pophale) SiO2 
 PCOD8227709
Probable space group: P B A M
;
_chemical_formula_sum "Si O2"
_cell_formula_units_Z 64
_cell_length_a 19.922334
_cell_length_b 9.453852
_cell_length_c 18.232923
_cell_angle_alpha 90.000000
_cell_angle_beta 90.000000
_cell_angle_gamma 90.000000
_cell_volume 3434.039718
_symmetry_space_group_name_H-M "P B A M"
_symmetry_group_IT_number 55
_symmetry_cell_setting 'orthorhombic'
loop_
_space_group_symop_operation_xyz
x,y,z
-x,-y,z
1/2+x,1/2-y,-z
1/2-x,1/2+y,-z
-x,-y,-z
x,y,-z
1/2-x,1/2+y,z
1/2+x,1/2-y,z
loop_
_atom_site_type_symbol
_atom_site_label
_atom_site_fract_x
_atom_site_fract_y
_atom_site_fract_z
Si Si1 0.491130 0.169119 0.726012
Si Si2 0.794454 0.484920 0.416294
Si Si3 0.557751 0.886522 0.422241
Si Si4 0.747628 0.243116 0.679329
Si Si5 0.618717 0.339895 0.232885
Si Si6 0.291935 0.393043 0.081181
Si Si7 0.627843 0.665079 0.221244
Si Si8 0.669678 0.296570 0.081568
O O1 0.458886 0.211757 0.646921
O O2 0.562041 0.247212 0.728476
O O3 0.437721 0.234239 0.782865
O O4 0.500000 0.000000 0.737141
O O5 0.772142 0.520767 0.500000
O O6 0.873990 0.471507 0.410433
O O7 0.773523 0.596383 0.355424
O O8 0.757949 0.342139 0.391132
O O9 0.561270 0.800424 0.500000
O O10 0.500000 0.000000 0.427829
O O11 0.691146 0.300490 0.734517
O O12 0.816690 0.227271 0.723792
O O13 0.606294 0.506597 0.245089
O O14 0.614543 0.300895 0.146007
O O15 0.344696 0.332116 0.138779
O O16 0.285507 0.561897 0.087750
O O17 0.217529 0.336286 0.096331
O O18 0.316559 0.347083 0.000000
O O19 0.636155 0.286649 0.000000
#
# Coordination Sequence:
#
# PCOD8227709 Si02
#       8
#     8   8   8   8   8   8   8   8
#     4  11  23  39  61  86 111 153 203 244 288 351
#     4  11  23  38  58  83 119 154 191 242 295 347
#     4   9  18  35  57  80 107 144 188 235 286 344
#     4  12  21  37  58  89 114 153 193 241 292 349
#     4  11  23  37  60  86 119 154 190 243 298 345
#     4   9  18  33  56  85 117 153 192 235 289 348
#     4  11  22  38  58  86 123 152 192 243 294 348
#     4   9  18  33  54  85 117 151 190 234 289 350
#
# _framework density 18.636942000000001
#
# number of rings (size 3 to 8) (size 9 to 14) (size 15 to 20)
#    0.000    1.625    3.750    2.250    0.000    1.000 
#    0.000    1.250    0.000    4.500    0.000    0.000 
#    0.000    0.000    0.000    0.000    0.000    0.000 
#
# Total GULP energy -793282.957193 kJ/mol
# GULP energy per Si atom -12395.046206 kJ/mol
# Density = 1.859452 g / cm^3
# Si number density = 18.636942 Si / 1000 Ang^3
#
#
#
# Elastic Constant Matrix: (Units=GPa)
#
#
# Indices 1 2 3 4 5 6 
#
# 1 80.2415 24.8791 17.1495 0.0000 0.0000 0.0000
# 2 24.8791 73.7819 21.4197 0.0000 0.0000 0.0000
# 3 17.1495 21.4197 78.3073 0.0000 0.0000 0.0000
# 4 0.0000 0.0000 0.0000 25.6179 0.0000 0.0000
# 5 0.0000 0.0000 0.0000 0.0000 26.0350 0.0000
# 6 0.0000 0.0000 0.0000 0.0000 0.0000 30.3401
#
#
#
# Elastic Compliance Matrix: (Units=1/GPa)
#
#
# Indices 1 2 3 4 5 6 
#
# 1 0.014187 -0.004217 -0.001954 0.000000 0.000000 0.000000
# 2 -0.004217 0.015976 -0.003446 0.000000 0.000000 0.000000
# 3 -0.001954 -0.003446 0.014141 0.000000 0.000000 0.000000
# 4 0.000000 0.000000 0.000000 0.039035 0.000000 0.000000
# 5 0.000000 0.000000 0.000000 0.000000 0.038410 0.000000
# 6 0.000000 0.000000 0.000000 0.000000 0.000000 0.032960
#
#
# Mechanical properties :
#
#
# Convention : Reuss Voigt Hill
#
# Bulk Modulus (GPa) = 39.88791 39.91415 39.90103
# Shear Modulus (GPa) = 27.42744 27.65743 27.54244
#
# Velocity S-wave (km/s) = 3.84040 3.85647 3.84844
# Velocity P-wave (km/s) = 6.41202 6.42596 6.41899
#
# Compressibility (1/GPa) = 0.02507026
#
# Stress axis : x y z
#
# Youngs Moduli (GPa) = 70.48545 62.59435 70.71750
#
# Poissons Ratio (x) = 0.26395 0.13816
# Poissons Ratio (y) = 0.29722 0.24373
# Poissons Ratio (z) = 0.13770 0.21573
#
# Static dielectric constant tensor:
#      x y z
#    x 3.246620 0.000000 0.000000 
#    y 0.000000 3.399660 0.000000 
#    z 0.000000 0.000000 4.105280 
# 
# 
# High freq. dielectric constant tensor:
#      x y z
#    x 1.709410 0.000000 0.000000 
#    y 0.000000 1.715410 0.000000 
#    z 0.000000 0.000000 1.740740 
# 
# From -- ./inp_files/21944.got.cif
#   From: 2010.03.12/outbox.cif.g09.slc.cpg/sg55_11_cif.got.tgz:21944.got - 2010.04.16 15:19:21.
