data_PCOD8227932
_publ_section_title
;
Structure prediction by ZEFSAII (Michael W. Deem and Ramdas Pophale) SiO2 
 PCOD8227932
Probable space group: P C C N
;
_chemical_formula_sum "Si O2"
_cell_formula_units_Z 40
_cell_length_a 21.618385
_cell_length_b 9.791425
_cell_length_c 9.727601
_cell_angle_alpha 90.000000
_cell_angle_beta 90.000000
_cell_angle_gamma 90.000000
_cell_volume 2059.087951
_symmetry_space_group_name_H-M "P C C N"
_symmetry_group_IT_number 56
_symmetry_cell_setting 'orthorhombic'
loop_
_space_group_symop_operation_xyz
x,y,z
1/2-x,1/2-y,z
1/2+x,-y,1/2-z
-x,1/2+y,1/2-z
-x,-y,-z
1/2+x,1/2+y,-z
1/2-x,y,1/2+z
x,1/2-y,1/2+z
loop_
_atom_site_type_symbol
_atom_site_label
_atom_site_fract_x
_atom_site_fract_y
_atom_site_fract_z
Si Si1 0.321189 0.534770 0.584789
Si Si2 0.731105 0.091229 0.638717
Si Si3 0.544522 0.225263 0.247240
Si Si4 0.956972 0.520207 0.869740
Si Si5 0.878424 0.198822 0.993715
O O1 0.277920 0.510801 0.718272
O O2 0.282277 0.505123 0.446208
O O3 0.385450 0.450213 0.588820
O O4 0.336338 0.695555 0.591703
O O5 0.750000 0.250000 0.658433
O O6 0.665297 0.082205 0.557254
O O7 0.479478 0.151252 0.217010
O O8 0.535602 0.385067 0.277376
O O9 0.573793 0.143684 0.378386
O O10 0.587462 0.214003 0.112451
O O11 0.000000 0.500000 0.000000
#
# Coordination Sequence:
#
# PCOD8227932 Si02
#       5
#     8   8   8   8   8
#     4  10  20  31  53  81 121 149 190 247 313 348
#     4  10  18  30  51  83 116 150 187 248 306 354
#     4  11  21  37  61  85 128 160 197 250 305 366
#     4  11  22  40  57  89 128 160 201 253 303 368
#     4  10  18  33  54  88 118 150 194 245 305 356
#
# _framework density 19.426075999999998
#
# number of rings (size 3 to 8) (size 9 to 14) (size 15 to 20)
#    0.000    1.600    8.000    1.800    2.800    0.800 
#    0.000    0.000    0.000    0.000    0.000   11.200 
#    0.000    0.000    0.000    0.000    0.000    0.000 
#
# Total GULP energy -495695.367943 kJ/mol
# GULP energy per Si atom -12392.384199 kJ/mol
# Density = 1.938186 g / cm^3
# Si number density = 19.426076 Si / 1000 Ang^3
#
#
#
# Elastic Constant Matrix: (Units=GPa)
#
#
# Indices 1 2 3 4 5 6 
#
# 1 127.0693 24.8899 65.3889 0.0000 0.0000 0.0000
# 2 24.8899 32.3026 8.4048 0.0000 0.0000 0.0000
# 3 65.3889 8.4048 129.0230 0.0000 0.0000 0.0000
# 4 0.0000 0.0000 0.0000 12.5986 0.0000 0.0000
# 5 0.0000 0.0000 0.0000 0.0000 42.4050 0.0000
# 6 0.0000 0.0000 0.0000 0.0000 0.0000 30.9851
#
#
#
# Elastic Compliance Matrix: (Units=1/GPa)
#
#
# Indices 1 2 3 4 5 6 
#
# 1 0.012418 -0.008068 -0.005768 0.000000 0.000000 0.000000
# 2 -0.008068 0.036732 0.001696 0.000000 0.000000 0.000000
# 3 -0.005768 0.001696 0.010563 0.000000 0.000000 0.000000
# 4 0.000000 0.000000 0.000000 0.079374 0.000000 0.000000
# 5 0.000000 0.000000 0.000000 0.000000 0.023582 0.000000
# 6 0.000000 0.000000 0.000000 0.000000 0.000000 0.032274
#
#
# Mechanical properties :
#
#
# Convention : Reuss Voigt Hill
#
# Bulk Modulus (GPa) = 28.22128 53.97357 41.09743
# Shear Modulus (GPa) = 21.64180 29.84515 25.74347
#
# Velocity S-wave (km/s) = 3.34137 3.92388 3.64428
# Velocity P-wave (km/s) = 5.42636 6.95510 6.23774
#
# Compressibility (1/GPa) = 0.03543425
#
# Stress axis : x y z
#
# Youngs Moduli (GPa) = 80.52724 27.22395 94.66739
#
# Poissons Ratio (x) = 0.21963 0.54604
# Poissons Ratio (y) = 0.64967 -0.16055
# Poissons Ratio (z) = 0.46448 -0.04617
#
# Static dielectric constant tensor:
#      x y z
#    x 3.958710 0.000000 0.000000 
#    y 0.000000 3.065670 0.000000 
#    z 0.000000 0.000000 3.926520 
# 
# 
# High freq. dielectric constant tensor:
#      x y z
#    x 1.768700 0.000000 0.000000 
#    y 0.000000 1.664770 0.000000 
#    z 0.000000 0.000000 1.780480 
# 
# From -- ./inp_files/2049.got.cif
#   From: 2010.03.12/outbox.cif.g09.slc.cpg/sg56_2_cif.got.tgz:2049.got - 2010.04.16 15:33:40.
