data_PCOD8227237
_publ_section_title
;
Structure prediction by ZEFSAII (Michael W. Deem and Ramdas Pophale) SiO2 
 PCOD8227237
Probable space group: P B A M
;
_chemical_formula_sum "Si O2"
_cell_formula_units_Z 64
_cell_length_a 10.849669
_cell_length_b 32.448918
_cell_length_c 8.632593
_cell_angle_alpha 90.000000
_cell_angle_beta 90.000000
_cell_angle_gamma 90.000000
_cell_volume 3039.190862
_symmetry_space_group_name_H-M "P B A M"
_symmetry_group_IT_number 55
_symmetry_cell_setting 'orthorhombic'
loop_
_space_group_symop_operation_xyz
x,y,z
-x,-y,z
1/2+x,1/2-y,-z
1/2-x,1/2+y,-z
-x,-y,-z
x,y,-z
1/2-x,1/2+y,z
1/2+x,1/2-y,z
loop_
_atom_site_type_symbol
_atom_site_label
_atom_site_fract_x
_atom_site_fract_y
_atom_site_fract_z
Si Si1 0.652099 0.119813 0.179257
Si Si2 0.499599 0.190594 0.322957
Si Si3 0.401652 0.352927 0.319046
Si Si4 0.117094 0.473899 0.180543
Si Si5 0.986940 0.777074 0.176224
Si Si6 0.863772 0.989135 0.680144
Si Si7 0.763101 0.326054 0.830403
Si Si8 0.118765 0.095508 0.176048
O O1 0.550086 0.153980 0.216268
O O2 0.766885 0.129207 0.289453
O O3 0.596436 0.074579 0.215431
O O4 0.691833 0.123107 0.000000
O O5 0.539965 0.184376 0.500000
O O6 0.541913 0.235167 0.265895
O O7 0.352144 0.188991 0.305427
O O8 0.432123 0.353530 0.500000
O O9 0.409065 0.305654 0.257375
O O10 0.494127 0.382828 0.230261
O O11 0.250703 0.485683 0.247525
O O12 0.000000 0.500000 0.250170
O O13 0.124231 0.483439 0.000000
O O14 0.862511 0.801990 0.185540
O O15 0.028701 0.768188 0.000000
O O16 0.862252 0.999229 0.500000
O O17 0.843134 0.941237 0.711759
O O18 0.000000 0.000000 0.749484
O O19 0.735104 0.374252 0.813488
O O20 0.821912 0.317200 0.000000
O O21 0.098951 0.080080 0.000000
#
# Coordination Sequence:
#
# PCOD8227237 Si02
#       8
#     8   8   8   8   8   8   8   8
#     4  11  24  43  66  90 125 170 215 257 312 383
#     4  12  26  40  61  92 128 163 205 258 312 369
#     4  11  22  39  64  96 133 165 207 264 320 374
#     4  10  24  45  68  95 127 170 221 272 324 390
#     4  10  22  42  66  91 122 166 213 254 309 372
#     4  11  24  40  63  97 133 168 210 268 330 388
#     4   9  21  41  63  87 118 159 206 253 301 366
#     4  10  21  39  65  93 124 165 212 257 310 374
#
# _framework density 21.058236000000001
#
# number of rings (size 3 to 8) (size 9 to 14) (size 15 to 20)
#    0.000    1.500    0.000    5.250    3.500    7.250 
#    0.000    0.000    0.000    0.000    0.000    0.000 
#    0.000    0.000    0.000    0.000    0.000    0.000 
#
# Total GULP energy -793625.384113 kJ/mol
# GULP energy per Si atom -12400.396627 kJ/mol
# Density = 2.101031 g / cm^3
# Si number density = 21.058236 Si / 1000 Ang^3
#
#
#
# Elastic Constant Matrix: (Units=GPa)
#
#
# Indices 1 2 3 4 5 6 
#
# 1 63.9382 25.1567 25.6496 0.0000 0.0000 0.0000
# 2 25.1567 134.7625 29.5074 0.0000 0.0000 0.0000
# 3 25.6496 29.5074 66.6266 0.0000 0.0000 0.0000
# 4 0.0000 0.0000 0.0000 22.4072 0.0000 0.0000
# 5 0.0000 0.0000 0.0000 0.0000 26.3144 0.0000
# 6 0.0000 0.0000 0.0000 0.0000 0.0000 26.4121
#
#
#
# Elastic Compliance Matrix: (Units=1/GPa)
#
#
# Indices 1 2 3 4 5 6 
#
# 1 0.019048 -0.002160 -0.006377 0.000000 0.000000 0.000000
# 2 -0.002160 0.008462 -0.002916 0.000000 0.000000 0.000000
# 3 -0.006377 -0.002916 0.018755 0.000000 0.000000 0.000000
# 4 0.000000 0.000000 0.000000 0.044629 0.000000 0.000000
# 5 0.000000 0.000000 0.000000 0.000000 0.038002 0.000000
# 6 0.000000 0.000000 0.000000 0.000000 0.000000 0.037861
#
#
# Mechanical properties :
#
#
# Convention : Reuss Voigt Hill
#
# Bulk Modulus (GPa) = 42.80715 47.32828 45.06772
# Shear Modulus (GPa) = 25.32301 27.36099 26.34200
#
# Velocity S-wave (km/s) = 3.47150 3.60849 3.54066
# Velocity P-wave (km/s) = 6.03660 6.31549 6.17762
#
# Compressibility (1/GPa) = 0.02336058
#
# Stress axis : x y z
#
# Youngs Moduli (GPa) = 52.49950 118.17340 53.31799
#
# Poissons Ratio (x) = 0.25520 0.33998
# Poissons Ratio (y) = 0.11337 0.15549
# Poissons Ratio (z) = 0.33476 0.34463
#
# Static dielectric constant tensor:
#      x y z
#    x 3.781520 0.000000 0.000000 
#    y 0.000000 4.112280 0.000000 
#    z 0.000000 0.000000 3.790170 
# 
# 
# High freq. dielectric constant tensor:
#      x y z
#    x 1.824070 0.000000 0.000000 
#    y 0.000000 1.838070 0.000000 
#    z 0.000000 0.000000 1.823540 
# 
# From -- ./inp_files/4687.got.cif
#   From: 2010.03.12/outbox.cif.g09.slc.cpg/sg55_3_cif.got.tgz:4687.got - 2010.04.16 15:19:21.
