data_PCOD8227198
_publ_section_title
;
Structure prediction by ZEFSAII (Michael W. Deem and Ramdas Pophale) SiO2 
 PCOD8227198
Probable space group: P B A M
;
_chemical_formula_sum "Si O2"
_cell_formula_units_Z 32
_cell_length_a 15.361246
_cell_length_b 12.947142
_cell_length_c 7.694513
_cell_angle_alpha 90.000000
_cell_angle_beta 90.000000
_cell_angle_gamma 90.000000
_cell_volume 1530.317318
_symmetry_space_group_name_H-M "P B A M"
_symmetry_group_IT_number 55
_symmetry_cell_setting 'orthorhombic'
loop_
_space_group_symop_operation_xyz
x,y,z
-x,-y,z
1/2+x,1/2-y,-z
1/2-x,1/2+y,-z
-x,-y,-z
x,y,-z
1/2-x,1/2+y,z
1/2+x,1/2-y,z
loop_
_atom_site_type_symbol
_atom_site_label
_atom_site_fract_x
_atom_site_fract_y
_atom_site_fract_z
Si Si1 0.902639 0.517509 0.294251
Si Si2 0.734379 0.426646 0.803251
Si Si3 0.510301 0.333270 0.500000
Si Si4 0.638471 0.523499 0.500000
Si Si5 0.610379 0.243197 0.803546
O O1 0.903334 0.518819 0.500000
O O2 0.839048 0.426462 0.224787
O O3 0.863466 0.624303 0.220058
O O4 0.000000 0.500000 0.220964
O O5 0.696113 0.513375 0.673595
O O6 0.694769 0.313811 0.758435
O O7 0.710284 0.457690 0.000000
O O8 0.566601 0.435603 0.500000
O O9 0.408546 0.364712 0.500000
O O10 0.530747 0.267133 0.672696
O O11 0.578877 0.265141 0.000000
#
# Coordination Sequence:
#
# PCOD8227198 Si02
#       5
#     8   8   4   4   8
#     4  11  23  41  64  89 121 162 203 250 306 359
#     4  10  21  39  63  89 119 159 202 248 303 360
#     4   9  18  35  58  87 123 159 197 240 298 358
#     4   9  18  35  58  87 123 157 193 248 298 353
#     4  10  21  39  62  88 122 160 201 249 299 358
#
# _framework density 20.910695
#
# number of rings (size 3 to 8) (size 9 to 14) (size 15 to 20)
#    0.000    2.000    2.500    0.750    0.000    3.000 
#    4.500    5.000    0.000    0.000    0.000    0.000 
#    0.000    0.000    0.000    0.000    0.000    0.000 
#
# Total GULP energy -396737.140870 kJ/mol
# GULP energy per Si atom -12398.035652 kJ/mol
# Density = 2.086310 g / cm^3
# Si number density = 20.910695 Si / 1000 Ang^3
#
#
#
# Elastic Constant Matrix: (Units=GPa)
#
#
# Indices 1 2 3 4 5 6 
#
# 1 116.4558 52.4854 41.0712 0.0000 0.0000 0.0000
# 2 52.4854 87.5451 29.3165 0.0000 0.0000 0.0000
# 3 41.0712 29.3165 135.4860 0.0000 0.0000 0.0000
# 4 0.0000 0.0000 0.0000 22.8709 0.0000 0.0000
# 5 0.0000 0.0000 0.0000 0.0000 16.1663 0.0000
# 6 0.0000 0.0000 0.0000 0.0000 0.0000 24.3400
#
#
#
# Elastic Compliance Matrix: (Units=1/GPa)
#
#
# Indices 1 2 3 4 5 6 
#
# 1 0.012407 -0.006662 -0.002320 0.000000 0.000000 0.000000
# 2 -0.006662 0.015892 -0.001419 0.000000 0.000000 0.000000
# 3 -0.002320 -0.001419 0.008391 0.000000 0.000000 0.000000
# 4 0.000000 0.000000 0.000000 0.043724 0.000000 0.000000
# 5 0.000000 0.000000 0.000000 0.000000 0.061857 0.000000
# 6 0.000000 0.000000 0.000000 0.000000 0.000000 0.041085
#
#
# Mechanical properties :
#
#
# Convention : Reuss Voigt Hill
#
# Bulk Modulus (GPa) = 62.93666 65.02590 63.98128
# Shear Modulus (GPa) = 23.87163 27.11636 25.49399
#
# Velocity S-wave (km/s) = 3.38242 3.60498 3.49547
# Velocity P-wave (km/s) = 6.73925 6.96364 6.85236
#
# Compressibility (1/GPa) = 0.01588899
#
# Stress axis : x y z
#
# Youngs Moduli (GPa) = 80.59683 62.92549 119.17350
#
# Poissons Ratio (x) = 0.41919 0.27645
# Poissons Ratio (y) = 0.53692 0.16913
# Poissons Ratio (z) = 0.18696 0.08931
#
# Static dielectric constant tensor:
#      x y z
#    x 3.955260 0.000000 0.000000 
#    y 0.000000 3.694130 0.000000 
#    z 0.000000 0.000000 3.899090 
# 
# 
# High freq. dielectric constant tensor:
#      x y z
#    x 1.805460 0.000000 0.000000 
#    y 0.000000 1.799270 0.000000 
#    z 0.000000 0.000000 1.833140 
# 
# From -- ./inp_files/3367.got.cif
#   From: 2010.03.12/outbox.cif.g09.slc.cpg/sg55_2_cif.got.tgz:3367.got - 2010.04.16 15:19:21.
