data_PCOD8227602
_publ_section_title
;
Structure prediction by ZEFSAII (Michael W. Deem and Ramdas Pophale) SiO2 
 PCOD8227602
Probable space group: P B A M
;
_chemical_formula_sum "Si O2"
_cell_formula_units_Z 32
_cell_length_a 10.143944
_cell_length_b 10.136627
_cell_length_c 15.391347
_cell_angle_alpha 90.000000
_cell_angle_beta 90.000000
_cell_angle_gamma 90.000000
_cell_volume 1582.621052
_symmetry_space_group_name_H-M "P B A M"
_symmetry_group_IT_number 55
_symmetry_cell_setting 'orthorhombic'
loop_
_space_group_symop_operation_xyz
x,y,z
-x,-y,z
1/2+x,1/2-y,-z
1/2-x,1/2+y,-z
-x,-y,-z
x,y,-z
1/2-x,1/2+y,z
1/2+x,1/2-y,z
loop_
_atom_site_type_symbol
_atom_site_label
_atom_site_fract_x
_atom_site_fract_y
_atom_site_fract_z
Si Si1 0.098924 0.608376 0.146668
Si Si2 0.646543 0.845348 0.334119
Si Si3 0.525305 0.707870 0.000000
Si Si4 0.785889 0.987245 0.000000
Si Si5 0.143575 0.364189 0.601786
O O1 0.163229 0.678185 0.230269
O O2 0.000000 0.500000 0.185708
O O3 0.013919 0.707025 0.087301
O O4 0.206615 0.537510 0.087427
O O5 0.496514 0.813713 0.361641
O O6 0.744938 0.744191 0.380204
O O7 0.685828 0.995578 0.357246
O O8 0.411606 0.603886 0.000000
O O9 0.669567 0.639436 0.000000
O O10 0.127935 0.385936 0.500000
#
# Coordination Sequence:
#
# PCOD8227602 Si02
#       5
#     8   8   4   4   8
#     4  11  24  40  64  89 128 163 211 250 325 363
#     4  11  25  41  71  97 133 172 216 269 325 397
#     4  10  24  39  63  89 126 166 209 260 304 375
#     4  10  24  39  63  89 126 166 209 260 304 375
#     4  11  23  46  68  98 130 171 215 273 330 389
#
# _framework density 20.219624
#
# number of rings (size 3 to 8) (size 9 to 14) (size 15 to 20)
#    0.000    1.250    2.500    4.500   14.000    1.000 
#    0.000    2.500    0.000    0.000    0.000    0.000 
#    0.000    0.000    0.000    0.000    0.000    0.000 
#
# Total GULP energy -396871.514967 kJ/mol
# GULP energy per Si atom -12402.234843 kJ/mol
# Density = 2.017360 g / cm^3
# Si number density = 20.219624 Si / 1000 Ang^3
#
#
#
# Elastic Constant Matrix: (Units=GPa)
#
#
# Indices 1 2 3 4 5 6 
#
# 1 94.6704 48.8298 19.4528 0.0000 0.0000 0.0000
# 2 48.8298 93.9858 17.4293 0.0000 0.0000 0.0000
# 3 19.4528 17.4293 148.4918 0.0000 0.0000 0.0000
# 4 0.0000 0.0000 0.0000 15.9161 0.0000 0.0000
# 5 0.0000 0.0000 0.0000 0.0000 18.7628 0.0000
# 6 0.0000 0.0000 0.0000 0.0000 0.0000 44.5732
#
#
#
# Elastic Compliance Matrix: (Units=1/GPa)
#
#
# Indices 1 2 3 4 5 6 
#
# 1 0.014586 -0.007385 -0.001044 0.000000 0.000000 0.000000
# 2 -0.007385 0.014615 -0.000748 0.000000 0.000000 0.000000
# 3 -0.001044 -0.000748 0.006959 0.000000 0.000000 0.000000
# 4 0.000000 0.000000 0.000000 0.062829 0.000000 0.000000
# 5 0.000000 0.000000 0.000000 0.000000 0.053297 0.000000
# 6 0.000000 0.000000 0.000000 0.000000 0.000000 0.022435
#
#
# Mechanical properties :
#
#
# Convention : Reuss Voigt Hill
#
# Bulk Modulus (GPa) = 56.15755 56.50797 56.33276
# Shear Modulus (GPa) = 25.12422 32.61284 28.86853
#
# Velocity S-wave (km/s) = 3.52883 4.02049 3.78265
# Velocity P-wave (km/s) = 6.66615 7.03990 6.85557
#
# Compressibility (1/GPa) = 0.01780704
#
# Stress axis : x y z
#
# Youngs Moduli (GPa) = 68.55688 68.42145 143.69960
#
# Poissons Ratio (x) = 0.50527 0.15003
# Poissons Ratio (y) = 0.50627 0.10750
# Poissons Ratio (z) = 0.07158 0.05118
#
# Static dielectric constant tensor:
#      x y z
#    x 3.820160 0.000000 0.000000 
#    y 0.000000 3.816890 0.000000 
#    z 0.000000 0.000000 3.768760 
# 
# 
# High freq. dielectric constant tensor:
#      x y z
#    x 1.791020 0.000000 0.000000 
#    y 0.000000 1.792230 0.000000 
#    z 0.000000 0.000000 1.806870 
# 
# From -- ./inp_files/16876.got.cif
#   From: 2010.03.12/outbox.cif.g09.slc.cpg/sg55_9_cif.got.tgz:16876.got - 2010.04.16 15:19:21.
