data_PCOD8227482
_publ_section_title
;
Structure prediction by ZEFSAII (Michael W. Deem and Ramdas Pophale) SiO2 
 PCOD8227482
Probable space group: P B A M
;
_chemical_formula_sum "Si O2"
_cell_formula_units_Z 28
_cell_length_a 4.989837
_cell_length_b 12.043161
_cell_length_c 18.843795
_cell_angle_alpha 90.000000
_cell_angle_beta 90.000000
_cell_angle_gamma 90.000000
_cell_volume 1132.387906
_symmetry_space_group_name_H-M "P B A M"
_symmetry_group_IT_number 55
_symmetry_cell_setting 'orthorhombic'
loop_
_space_group_symop_operation_xyz
x,y,z
-x,-y,z
1/2+x,1/2-y,-z
1/2-x,1/2+y,-z
-x,-y,-z
x,y,-z
1/2-x,1/2+y,z
1/2+x,1/2-y,z
loop_
_atom_site_type_symbol
_atom_site_label
_atom_site_fract_x
_atom_site_fract_y
_atom_site_fract_z
Si Si1 0.733918 0.820492 0.848802
Si Si2 0.749414 0.420515 0.000000
Si Si3 0.730781 0.673431 0.652223
Si Si4 0.000000 0.000000 0.756722
Si Si5 0.625368 0.680055 0.500000
O O1 0.439781 0.777704 0.827672
O O2 0.753689 0.840922 0.932389
O O3 0.795734 0.932204 0.806167
O O4 0.500000 0.500000 0.000000
O O5 0.000000 0.500000 0.000000
O O6 0.527014 0.776756 0.662254
O O7 0.686416 0.578179 0.709246
O O8 0.696759 0.617092 0.573590
O O9 0.310250 0.708553 0.500000
#
# Coordination Sequence:
#
# PCOD8227482 Si02
#       5
#     8   4   8   4   4
#     4  12  27  46  70 100 135 177 219 274 337 393
#     4  12  24  48  76 101 129 172 224 276 326 393
#     4  10  22  41  63  94 130 174 224 277 335 389
#     4  12  26  42  68  96 140 178 222 274 328 420
#     4   8  16  35  62  87 124 168 220 279 327 386
#
# _framework density 24.726510999999999
#
# number of rings (size 3 to 8) (size 9 to 14) (size 15 to 20)
#    0.000    1.143    1.429    4.286    0.000    4.000 
#    0.000    0.000    0.000   10.286    0.000    0.000 
#    0.000    0.000    0.000    0.000    0.000    0.000 
#
# Total GULP energy -347282.728459 kJ/mol
# GULP energy per Si atom -12402.954588 kJ/mol
# Density = 2.467023 g / cm^3
# Si number density = 24.726511 Si / 1000 Ang^3
#
#
#
# Elastic Constant Matrix: (Units=GPa)
#
#
# Indices 1 2 3 4 5 6 
#
# 1 100.9947 12.8624 -7.7954 0.0000 0.0000 0.0000
# 2 12.8624 88.2009 48.6670 0.0000 0.0000 0.0000
# 3 -7.7954 48.6670 156.2447 0.0000 0.0000 0.0000
# 4 0.0000 0.0000 0.0000 16.5866 0.0000 0.0000
# 5 0.0000 0.0000 0.0000 0.0000 6.8036 0.0000
# 6 0.0000 0.0000 0.0000 0.0000 0.0000 24.8661
#
#
#
# Elastic Compliance Matrix: (Units=1/GPa)
#
#
# Indices 1 2 3 4 5 6 
#
# 1 0.010266 -0.002149 0.001182 0.000000 0.000000 0.000000
# 2 -0.002149 0.014141 -0.004512 0.000000 0.000000 0.000000
# 3 0.001182 -0.004512 0.007864 0.000000 0.000000 0.000000
# 4 0.000000 0.000000 0.000000 0.060290 0.000000 0.000000
# 5 0.000000 0.000000 0.000000 0.000000 0.146981 0.000000
# 6 0.000000 0.000000 0.000000 0.000000 0.000000 0.040215
#
#
# Mechanical properties :
#
#
# Convention : Reuss Voigt Hill
#
# Bulk Modulus (GPa) = 46.91966 50.32312 48.62139
# Shear Modulus (GPa) = 16.78863 29.09835 22.94349
#
# Velocity S-wave (km/s) = 2.60854 3.43418 3.04943
# Velocity P-wave (km/s) = 5.29993 6.01007 5.66613
#
# Compressibility (1/GPa) = 0.02131303
#
# Stress axis : x y z
#
# Youngs Moduli (GPa) = 97.40492 70.71823 127.15390
#
# Poissons Ratio (x) = 0.15198 -0.15025
# Poissons Ratio (y) = 0.20934 0.57368
# Poissons Ratio (z) = -0.11510 0.31906
#
# Static dielectric constant tensor:
#      x y z
#    x 4.449280 0.000000 0.000000 
#    y 0.000000 4.109610 0.000000 
#    z 0.000000 0.000000 5.198090 
# 
# 
# High freq. dielectric constant tensor:
#      x y z
#    x 1.995410 0.000000 0.000000 
#    y 0.000000 1.953370 0.000000 
#    z 0.000000 0.000000 2.020010 
# 
# From -- ./inp_files/22187.got.cif
#   From: 2010.03.12/outbox.cif.g09.slc.cpg/sg55_12_cif.got.tgz:22187.got - 2010.04.16 15:19:21.
