data_PCOD8227744
_publ_section_title
;
Structure prediction by ZEFSAII (Michael W. Deem and Ramdas Pophale) SiO2 
 PCOD8227744
Probable space group: P B A M
;
_chemical_formula_sum "Si O2"
_cell_formula_units_Z 48
_cell_length_a 11.492103
_cell_length_b 16.995032
_cell_length_c 12.659123
_cell_angle_alpha 90.000000
_cell_angle_beta 90.000000
_cell_angle_gamma 90.000000
_cell_volume 2472.436328
_symmetry_space_group_name_H-M "P B A M"
_symmetry_group_IT_number 55
_symmetry_cell_setting 'orthorhombic'
loop_
_space_group_symop_operation_xyz
x,y,z
-x,-y,z
1/2+x,1/2-y,-z
1/2-x,1/2+y,-z
-x,-y,-z
x,y,-z
1/2-x,1/2+y,z
1/2+x,1/2-y,z
loop_
_atom_site_type_symbol
_atom_site_label
_atom_site_fract_x
_atom_site_fract_y
_atom_site_fract_z
Si Si1 0.280204 0.850415 0.191779
Si Si2 0.648030 0.579667 0.620817
Si Si3 0.844974 0.074013 0.000000
Si Si4 0.481136 0.091920 0.124721
Si Si5 0.398149 0.608143 0.000000
Si Si6 0.744970 0.328731 0.810468
Si Si7 0.115542 0.102255 0.621012
O O1 0.244174 0.879019 0.307582
O O2 0.227465 0.907564 0.104020
O O3 0.419395 0.855835 0.180563
O O4 0.230739 0.763270 0.173906
O O5 0.683090 0.595217 0.500000
O O6 0.520859 0.615686 0.644704
O O7 0.647589 0.487447 0.645724
O O8 0.964180 0.122358 0.000000
O O9 0.866059 0.982288 0.000000
O O10 0.360576 0.120221 0.174780
O O11 0.500000 0.000000 0.149674
O O12 0.479770 0.108153 0.000000
O O13 0.350825 0.647696 0.104744
O O14 0.693073 0.341778 0.693951
O O15 0.143867 0.123593 0.500000
#
# Coordination Sequence:
#
# PCOD8227744 Si02
#       7
#     8   8   4   8   4   8   8
#     4  12  25  37  61  89 126 159 198 253 303 357
#     4   9  19  39  66  89 114 153 200 250 304 362
#     4  11  23  39  63  89 117 155 203 255 301 359
#     4  11  24  42  61  83 123 174 206 233 295 378
#     4  11  23  39  63  89 117 155 203 255 301 359
#     4  12  25  37  61  89 126 159 198 253 303 357
#     4   9  19  39  66  89 114 153 200 250 304 362
#
# _framework density 19.41405
#
# number of rings (size 3 to 8) (size 9 to 14) (size 15 to 20)
#    0.000    1.333    1.667    5.500    4.667    3.333 
#    0.000    0.833    0.000    3.000    0.000    0.000 
#    0.000    0.000    0.000    0.000    0.000    0.000 
#
# Total GULP energy -595449.622998 kJ/mol
# GULP energy per Si atom -12405.200479 kJ/mol
# Density = 1.936986 g / cm^3
# Si number density = 19.414050 Si / 1000 Ang^3
#
#
#
# Elastic Constant Matrix: (Units=GPa)
#
#
# Indices 1 2 3 4 5 6 
#
# 1 73.9855 7.9086 42.0369 0.0000 0.0000 0.0000
# 2 7.9086 53.9055 23.9372 0.0000 0.0000 0.0000
# 3 42.0369 23.9372 108.7389 0.0000 0.0000 0.0000
# 4 0.0000 0.0000 0.0000 -103.7951 0.0000 0.0000
# 5 0.0000 0.0000 0.0000 0.0000 29.0823 0.0000
# 6 0.0000 0.0000 0.0000 0.0000 0.0000 26.8190
#
#
#
# Elastic Compliance Matrix: (Units=1/GPa)
#
#
# Indices 1 2 3 4 5 6 
#
# 1 0.017332 0.000479 -0.006806 0.000000 0.000000 0.000000
# 2 0.000479 0.020574 -0.004714 0.000000 0.000000 0.000000
# 3 -0.006806 -0.004714 0.012865 0.000000 0.000000 0.000000
# 4 0.000000 0.000000 0.000000 -0.009634 0.000000 0.000000
# 5 0.000000 0.000000 0.000000 0.000000 0.034385 0.000000
# 6 0.000000 0.000000 0.000000 0.000000 0.000000 0.037287
#
#
# Mechanical properties :
#
#
# Convention : Reuss Voigt Hill
#
# Bulk Modulus (GPa) = 34.85595 42.71060 38.78327
# Shear Modulus (GPa) = 34.61320 1.27105 17.94213
#
# Velocity S-wave (km/s) = 4.22701 0.81002 3.04334
# Velocity P-wave (km/s) = 6.46657 4.78774 5.68942
#
# Compressibility (1/GPa) = 0.02868950
#
# Stress axis : x y z
#
# Youngs Moduli (GPa) = 57.69743 48.60475 77.72938
#
# Poissons Ratio (x) = -0.02330 0.52901
# Poissons Ratio (y) = -0.02766 0.36645
# Poissons Ratio (z) = 0.39267 0.22914
#
# Static dielectric constant tensor:
#      x y z
#    x 3.673810 0.000000 0.000000 
#    y 0.000000 3.526340 0.000000 
#    z 0.000000 0.000000 3.552740 
# 
# 
# High freq. dielectric constant tensor:
#      x y z
#    x 1.759050 0.000000 0.000000 
#    y 0.000000 1.753290 0.000000 
#    z 0.000000 0.000000 1.758970 
# 
# From -- ./inp_files/13217.got.cif
#   From: 2010.03.12/outbox.cif.g09.slc.cpg/sg55_7_cif.got.tgz:13217.got - 2010.04.16 15:19:21.
