data_PCOD8227757
_publ_section_title
;
Structure prediction by ZEFSAII (Michael W. Deem and Ramdas Pophale) SiO2 
 PCOD8227757
Probable space group: P B A M
;
_chemical_formula_sum "Si O2"
_cell_formula_units_Z 48
_cell_length_a 17.356787
_cell_length_b 9.985222
_cell_length_c 13.849743
_cell_angle_alpha 90.000000
_cell_angle_beta 90.000000
_cell_angle_gamma 90.000000
_cell_volume 2400.317953
_symmetry_space_group_name_H-M "P B A M"
_symmetry_group_IT_number 55
_symmetry_cell_setting 'orthorhombic'
loop_
_space_group_symop_operation_xyz
x,y,z
-x,-y,z
1/2+x,1/2-y,-z
1/2-x,1/2+y,-z
-x,-y,-z
x,y,-z
1/2-x,1/2+y,z
1/2+x,1/2-y,z
loop_
_atom_site_type_symbol
_atom_site_label
_atom_site_fract_x
_atom_site_fract_y
_atom_site_fract_z
Si Si1 0.412997 0.479342 0.887132
Si Si2 0.837813 0.771320 0.203389
Si Si3 0.088289 0.840523 0.608622
Si Si4 0.090085 0.152801 0.391292
Si Si5 0.340706 0.230960 0.206274
Si Si6 0.410772 0.980399 0.112191
O O1 0.500000 0.500000 0.849679
O O2 0.356090 0.579758 0.832965
O O3 0.389473 0.328377 0.862475
O O4 0.406729 0.505486 0.000000
O O5 0.859634 0.760502 0.316642
O O6 0.748651 0.739233 0.190034
O O7 0.887781 0.669874 0.139710
O O8 0.114160 0.803828 0.500000
O O9 0.137993 0.751259 0.681613
O O10 0.998660 0.807831 0.622816
O O11 0.103005 0.996259 0.629809
O O12 0.116796 0.187984 0.500000
O O13 0.359709 0.079874 0.176410
O O14 0.500000 0.000000 0.136339
O O15 0.393435 0.006124 0.000000
#
# Coordination Sequence:
#
# PCOD8227757 Si02
#       6
#     8   8   8   8   8   8
#     4  11  23  41  66  89 112 157 219 260 284 347
#     4  12  24  38  61  92 126 157 193 250 308 358
#     4   9  18  36  64  91 115 152 203 252 295 349
#     4   9  18  36  64  91 115 152 203 252 295 349
#     4  12  24  38  61  92 126 157 193 250 308 358
#     4  11  25  43  60  83 122 167 201 238 298 361
#
# _framework density 19.997351999999999
#
# number of rings (size 3 to 8) (size 9 to 14) (size 15 to 20)
#    0.000    1.333    1.667    6.000    0.000    7.333 
#    0.000    0.833    0.000    3.000    0.000    0.000 
#    0.000    0.000    0.000    0.000    0.000    0.000 
#
# Total GULP energy -595493.792947 kJ/mol
# GULP energy per Si atom -12406.120686 kJ/mol
# Density = 1.995184 g / cm^3
# Si number density = 19.997352 Si / 1000 Ang^3
#
#
#
# Elastic Constant Matrix: (Units=GPa)
#
#
# Indices 1 2 3 4 5 6 
#
# 1 98.8817 14.8900 44.7804 0.0000 0.0000 0.0000
# 2 14.8900 54.9225 21.6244 0.0000 0.0000 0.0000
# 3 44.7804 21.6244 107.6005 0.0000 0.0000 0.0000
# 4 0.0000 0.0000 0.0000 33.5764 0.0000 0.0000
# 5 0.0000 0.0000 0.0000 0.0000 13.0819 0.0000
# 6 0.0000 0.0000 0.0000 0.0000 0.0000 30.8245
#
#
#
# Elastic Compliance Matrix: (Units=1/GPa)
#
#
# Indices 1 2 3 4 5 6 
#
# 1 0.012569 -0.001464 -0.004937 0.000000 0.000000 0.000000
# 2 -0.001464 0.019942 -0.003399 0.000000 0.000000 0.000000
# 3 -0.004937 -0.003399 0.012031 0.000000 0.000000 0.000000
# 4 0.000000 0.000000 0.000000 0.029783 0.000000 0.000000
# 5 0.000000 0.000000 0.000000 0.000000 0.076441 0.000000
# 6 0.000000 0.000000 0.000000 0.000000 0.000000 0.032442
#
#
# Mechanical properties :
#
#
# Convention : Reuss Voigt Hill
#
# Bulk Modulus (GPa) = 40.08920 47.11050 43.59985
# Shear Modulus (GPa) = 23.68296 27.50389 25.59343
#
# Velocity S-wave (km/s) = 3.44511 3.71263 3.58137
# Velocity P-wave (km/s) = 5.99298 6.47979 6.24113
#
# Compressibility (1/GPa) = 0.02494437
#
# Stress axis : x y z
#
# Youngs Moduli (GPa) = 79.55928 50.14420 83.11720
#
# Poissons Ratio (x) = 0.07341 0.41033
# Poissons Ratio (y) = 0.11647 0.28248
# Poissons Ratio (z) = 0.39277 0.17042
#
# Static dielectric constant tensor:
#      x y z
#    x 3.506150 0.000000 0.000000 
#    y 0.000000 3.515900 0.000000 
#    z 0.000000 0.000000 3.785570 
# 
# 
# High freq. dielectric constant tensor:
#      x y z
#    x 1.775800 0.000000 0.000000 
#    y 0.000000 1.765860 0.000000 
#    z 0.000000 0.000000 1.797600 
# 
# From -- ./inp_files/19338.got.cif
#   From: 2010.03.12/outbox.cif.g09.slc.cpg/sg55_10_cif.got.tgz:19338.got - 2010.04.16 15:19:21.
