data_PCOD8227244
_publ_section_title
;
Structure prediction by ZEFSAII (Michael W. Deem and Ramdas Pophale) SiO2 
 PCOD8227244
Probable space group: P B A M
;
_chemical_formula_sum "Si O2"
_cell_formula_units_Z 64
_cell_length_a 11.319443
_cell_length_b 19.169801
_cell_length_c 13.609140
_cell_angle_alpha 90.000000
_cell_angle_beta 90.000000
_cell_angle_gamma 90.000000
_cell_volume 2953.067291
_symmetry_space_group_name_H-M "P B A M"
_symmetry_group_IT_number 55
_symmetry_cell_setting 'orthorhombic'
loop_
_space_group_symop_operation_xyz
x,y,z
-x,-y,z
1/2+x,1/2-y,-z
1/2-x,1/2+y,-z
-x,-y,-z
x,y,-z
1/2-x,1/2+y,z
1/2+x,1/2-y,z
loop_
_atom_site_type_symbol
_atom_site_label
_atom_site_fract_x
_atom_site_fract_y
_atom_site_fract_z
Si Si1 0.676714 0.535535 0.700869
Si Si2 0.366102 0.868656 0.390926
Si Si3 0.722362 0.284288 0.610377
Si Si4 0.565131 0.818460 0.248474
Si Si5 0.526927 0.688200 0.115022
Si Si6 0.436166 0.608589 0.710804
Si Si7 0.490329 0.077140 0.110642
Si Si8 0.245364 0.900961 0.892936
O O1 0.785719 0.564858 0.637783
O O2 0.561968 0.581034 0.670966
O O3 0.658296 0.452694 0.688323
O O4 0.703325 0.541980 0.816006
O O5 0.416677 0.882674 0.500000
O O6 0.290611 0.798305 0.390101
O O7 0.470444 0.858203 0.315087
O O8 0.752105 0.310373 0.500000
O O9 0.827239 0.297058 0.685135
O O10 0.604093 0.323740 0.648011
O O11 0.511711 0.756702 0.181749
O O12 0.605508 0.878417 0.171590
O O13 0.449913 0.628918 0.172812
O O14 0.666546 0.669018 0.117404
O O15 0.485408 0.697118 0.000000
O O16 0.616478 0.117478 0.119910
O O17 0.500000 0.000000 0.155673
O O18 0.443747 0.072533 0.000000
O O19 0.225080 0.935038 0.000000
#
# Coordination Sequence:
#
# PCOD8227244 Si02
#       8
#     8   8   8   8   8   8   8   8
#     4  10  21  40  66  96 126 169 213 272 333 392
#     4  11  24  42  65  91 124 169 220 269 328 389
#     4  11  25  42  63  91 127 171 219 271 325 386
#     4  12  23  40  66  92 131 169 216 273 325 392
#     4  10  21  39  65  99 132 169 213 267 334 399
#     4  10  22  41  66  95 132 164 214 274 330 392
#     4  10  22  39  61  91 127 173 220 261 319 393
#     4   9  18  35  61  88 123 165 208 253 314 390
#
# _framework density 21.672381999999999
#
# number of rings (size 3 to 8) (size 9 to 14) (size 15 to 20)
#    0.000    1.625    2.500    2.250    1.750    1.500 
#    0.000    5.000    0.000    2.250    0.000    0.000 
#    0.000    0.000    0.000    0.000    0.000    0.000 
#
# Total GULP energy -793084.932847 kJ/mol
# GULP energy per Si atom -12391.952076 kJ/mol
# Density = 2.162305 g / cm^3
# Si number density = 21.672382 Si / 1000 Ang^3
#
#
#
# Elastic Constant Matrix: (Units=GPa)
#
#
# Indices 1 2 3 4 5 6 
#
# 1 42.3538 10.4238 23.5836 0.0000 0.0000 0.0000
# 2 10.4238 77.9835 44.9409 0.0000 0.0000 0.0000
# 3 23.5836 44.9409 116.4613 0.0000 0.0000 0.0000
# 4 0.0000 0.0000 0.0000 25.7050 0.0000 0.0000
# 5 0.0000 0.0000 0.0000 0.0000 21.4344 0.0000
# 6 0.0000 0.0000 0.0000 0.0000 0.0000 32.2459
#
#
#
# Elastic Compliance Matrix: (Units=1/GPa)
#
#
# Indices 1 2 3 4 5 6 
#
# 1 0.026632 -0.000581 -0.005169 0.000000 0.000000 0.000000
# 2 -0.000581 0.016503 -0.006251 0.000000 0.000000 0.000000
# 3 -0.005169 -0.006251 0.012045 0.000000 0.000000 0.000000
# 4 0.000000 0.000000 0.000000 0.038903 0.000000 0.000000
# 5 0.000000 0.000000 0.000000 0.000000 0.046654 0.000000
# 6 0.000000 0.000000 0.000000 0.000000 0.000000 0.031012
#
#
# Mechanical properties :
#
#
# Convention : Reuss Voigt Hill
#
# Bulk Modulus (GPa) = 32.07277 43.85503 37.96390
# Shear Modulus (GPa) = 24.25507 26.40043 25.32775
#
# Velocity S-wave (km/s) = 3.34903 3.49400 3.42228
# Velocity P-wave (km/s) = 5.45763 6.04622 5.75945
#
# Compressibility (1/GPa) = 0.03117909
#
# Stress axis : x y z
#
# Youngs Moduli (GPa) = 37.54923 60.59481 83.02025
#
# Poissons Ratio (x) = 0.03521 0.42911
# Poissons Ratio (y) = 0.02182 0.51893
# Poissons Ratio (z) = 0.19408 0.37876
#
# Static dielectric constant tensor:
#      x y z
#    x 3.798420 0.000000 0.000000 
#    y 0.000000 3.911760 0.000000 
#    z 0.000000 0.000000 4.206160 
# 
# 
# High freq. dielectric constant tensor:
#      x y z
#    x 1.832400 0.000000 0.000000 
#    y 0.000000 1.846050 0.000000 
#    z 0.000000 0.000000 1.863040 
# 
# From -- ./inp_files/18576.got.cif
#   From: 2010.03.12/outbox.cif.g09.slc.cpg/sg55_10_cif.got.tgz:18576.got - 2010.04.16 15:19:21.
