data_PCOD8227588
_publ_section_title
;
Structure prediction by ZEFSAII (Michael W. Deem and Ramdas Pophale) SiO2 
 PCOD8227588
Probable space group: P B A M
;
_chemical_formula_sum "Si O2"
_cell_formula_units_Z 48
_cell_length_a 9.552851
_cell_length_b 15.215011
_cell_length_c 16.863466
_cell_angle_alpha 90.000000
_cell_angle_beta 90.000000
_cell_angle_gamma 90.000000
_cell_volume 2451.049691
_symmetry_space_group_name_H-M "P B A M"
_symmetry_group_IT_number 55
_symmetry_cell_setting 'orthorhombic'
loop_
_space_group_symop_operation_xyz
x,y,z
-x,-y,z
1/2+x,1/2-y,-z
1/2-x,1/2+y,-z
-x,-y,-z
x,y,-z
1/2-x,1/2+y,z
1/2+x,1/2-y,z
loop_
_atom_site_type_symbol
_atom_site_label
_atom_site_fract_x
_atom_site_fract_y
_atom_site_fract_z
Si Si1 0.657330 0.107217 0.909608
Si Si2 0.017691 0.247432 0.309551
Si Si3 0.669948 0.907682 0.910239
Si Si4 0.089825 0.916393 0.593179
Si Si5 0.087022 0.414268 0.407516
Si Si6 0.766373 0.258741 0.800016
O O1 0.491746 0.118822 0.902653
O O2 0.736677 0.170938 0.849711
O O3 0.697140 0.007991 0.884606
O O4 0.705383 0.126270 0.000000
O O5 0.971128 0.168454 0.364757
O O6 0.924806 0.255665 0.230649
O O7 0.014148 0.335948 0.360356
O O8 0.174084 0.231751 0.278742
O O9 0.759971 0.843805 0.854729
O O10 0.721086 0.893794 0.000000
O O11 0.072938 0.901724 0.500000
O O12 0.251719 0.929529 0.617275
O O13 0.000000 0.000000 0.621563
O O14 0.075246 0.392096 0.500000
O O15 0.000000 0.500000 0.384480
#
# Coordination Sequence:
#
# PCOD8227588 Si02
#       6
#     8   8   8   8   8   8
#     4   9  19  38  62  86 116 157 204 247 292 356
#     4  12  25  40  59  90 127 163 196 248 308 362
#     4   9  19  38  63  86 113 158 206 246 294 355
#     4  10  23  43  65  90 121 160 205 251 301 359
#     4  10  23  43  66  90 118 160 209 251 298 360
#     4  12  23  38  59  90 125 158 198 246 306 359
#
# _framework density 19.583447
#
# number of rings (size 3 to 8) (size 9 to 14) (size 15 to 20)
#    0.000    1.667    3.333    2.000    2.333    2.667 
#    0.000    0.000    0.000    2.000    0.000    0.000 
#    0.000    0.000    0.000    0.000    0.000    0.000 
#
# Total GULP energy -595355.086472 kJ/mol
# GULP energy per Si atom -12403.230968 kJ/mol
# Density = 1.953887 g / cm^3
# Si number density = 19.583447 Si / 1000 Ang^3
#
#
#
# Elastic Constant Matrix: (Units=GPa)
#
#
# Indices 1 2 3 4 5 6 
#
# 1 58.5405 58.7239 33.6519 0.0000 0.0000 0.0000
# 2 58.7239 167.5896 76.8730 0.0000 0.0000 0.0000
# 3 33.6519 76.8730 73.3768 0.0000 0.0000 0.0000
# 4 0.0000 0.0000 0.0000 -146.8697 0.0000 0.0000
# 5 0.0000 0.0000 0.0000 0.0000 222.1750 0.0000
# 6 0.0000 0.0000 0.0000 0.0000 0.0000 34.2940
#
#
#
# Elastic Compliance Matrix: (Units=1/GPa)
#
#
# Indices 1 2 3 4 5 6 
#
# 1 0.027188 -0.007330 -0.004790 0.000000 0.000000 0.000000
# 2 -0.007330 0.013463 -0.010743 0.000000 0.000000 0.000000
# 3 -0.004790 -0.010743 0.027080 0.000000 0.000000 0.000000
# 4 0.000000 0.000000 0.000000 -0.006809 0.000000 0.000000
# 5 0.000000 0.000000 0.000000 0.000000 0.004501 0.000000
# 6 0.000000 0.000000 0.000000 0.000000 0.000000 0.029160
#
#
# Mechanical properties :
#
#
# Convention : Reuss Voigt Hill
#
# Bulk Modulus (GPa) = 45.44259 70.88939 58.16599
# Shear Modulus (GPa) = 33.86508 30.60373 32.23440
#
# Velocity S-wave (km/s) = 4.16296 3.95743 4.06150
# Velocity P-wave (km/s) = 6.80896 7.56035 7.19447
#
# Compressibility (1/GPa) = 0.02200579
#
# Stress axis : x y z
#
# Youngs Moduli (GPa) = 36.78034 74.27688 36.92743
#
# Poissons Ratio (x) = 0.54442 0.17689
# Poissons Ratio (y) = 0.26959 0.39672
# Poissons Ratio (z) = 0.17618 0.79796
#
# Static dielectric constant tensor:
#      x y z
#    x 3.545060 0.000000 0.000000 
#    y 0.000000 3.617200 0.000000 
#    z 0.000000 0.000000 3.575930 
# 
# 
# High freq. dielectric constant tensor:
#      x y z
#    x 1.753610 0.000000 0.000000 
#    y 0.000000 1.772720 0.000000 
#    z 0.000000 0.000000 1.770340 
# 
# From -- ./inp_files/20764.got.cif
#   From: 2010.03.12/outbox.cif.g09.slc.cpg/sg55_11_cif.got.tgz:20764.got - 2010.04.16 15:19:21.
