data_PCOD8227188
_publ_section_title
;
Structure prediction by ZEFSAII (Michael W. Deem and Ramdas Pophale) SiO2 
 PCOD8227188
Probable space group: P B A M
;
_chemical_formula_sum "Si O2"
_cell_formula_units_Z 56
_cell_length_a 14.554925
_cell_length_b 21.573981
_cell_length_c 9.071848
_cell_angle_alpha 90.000000
_cell_angle_beta 90.000000
_cell_angle_gamma 90.000000
_cell_volume 2848.629902
_symmetry_space_group_name_H-M "P B A M"
_symmetry_group_IT_number 55
_symmetry_cell_setting 'orthorhombic'
loop_
_space_group_symop_operation_xyz
x,y,z
-x,-y,z
1/2+x,1/2-y,-z
1/2-x,1/2+y,-z
-x,-y,-z
x,y,-z
1/2-x,1/2+y,z
1/2+x,1/2-y,z
loop_
_atom_site_type_symbol
_atom_site_label
_atom_site_fract_x
_atom_site_fract_y
_atom_site_fract_z
Si Si1 0.720189 0.508379 0.170636
Si Si2 0.577669 0.050698 0.168875
Si Si3 0.617365 0.749018 0.174529
Si Si4 0.573658 0.610972 0.827735
Si Si5 0.388722 0.595262 0.671808
Si Si6 0.539245 0.175999 0.671709
Si Si7 0.304629 0.727268 0.330330
O O1 0.825277 0.520857 0.212354
O O2 0.661797 0.569413 0.210005
O O3 0.688267 0.450440 0.266476
O O4 0.708722 0.490691 0.000000
O O5 0.557564 0.106573 0.277966
O O6 0.500000 0.000000 0.193282
O O7 0.579507 0.074537 0.000000
O O8 0.593995 0.679994 0.231546
O O9 0.546739 0.797757 0.240182
O O10 0.718093 0.768140 0.224902
O O11 0.613132 0.752554 0.000000
O O12 0.486310 0.581569 0.746787
O O13 0.551670 0.611515 0.000000
O O14 0.399946 0.583344 0.500000
O O15 0.359310 0.665042 0.708036
O O16 0.514638 0.177501 0.500000
O O17 0.629537 0.215565 0.706673
O O18 0.272329 0.727886 0.500000
#
# Coordination Sequence:
#
# PCOD8227188 Si02
#       7
#     8   8   8   8   8   8   8
#     4  10  22  40  61  87 124 162 204 257 309 359
#     4  10  23  43  65  91 124 162 209 260 307 361
#     4  11  23  38  64  94 121 159 207 255 306 365
#     4  10  21  39  61  89 122 160 201 251 309 364
#     4  11  23  39  60  89 124 160 203 251 304 369
#     4  11  23  42  65  91 127 165 202 251 310 370
#     4  10  23  41  60  88 126 165 202 251 310 366
#
# _framework density 19.658571999999999
#
# number of rings (size 3 to 8) (size 9 to 14) (size 15 to 20)
#    0.000    1.571    1.429    2.571    2.000    7.143 
#    0.000    0.000    0.000    0.000    0.000    0.000 
#    0.000    0.000    0.000    0.000    0.000    0.000 
#
# Total GULP energy -694811.543488 kJ/mol
# GULP energy per Si atom -12407.348991 kJ/mol
# Density = 1.961383 g / cm^3
# Si number density = 19.658572 Si / 1000 Ang^3
#
#
#
# Elastic Constant Matrix: (Units=GPa)
#
#
# Indices 1 2 3 4 5 6 
#
# 1 142.8273 42.2803 49.8285 0.0000 0.0000 0.0000
# 2 42.2803 82.2087 34.0114 0.0000 0.0000 0.0000
# 3 49.8285 34.0114 66.8914 0.0000 0.0000 0.0000
# 4 0.0000 0.0000 0.0000 33.7708 0.0000 0.0000
# 5 0.0000 0.0000 0.0000 0.0000 21.5761 0.0000
# 6 0.0000 0.0000 0.0000 0.0000 0.0000 22.5737
#
#
#
# Elastic Compliance Matrix: (Units=1/GPa)
#
#
# Indices 1 2 3 4 5 6 
#
# 1 0.009873 -0.002577 -0.006044 0.000000 0.000000 0.000000
# 2 -0.002577 0.016077 -0.006255 0.000000 0.000000 0.000000
# 3 -0.006044 -0.006255 0.022632 0.000000 0.000000 0.000000
# 4 0.000000 0.000000 0.000000 0.029611 0.000000 0.000000
# 5 0.000000 0.000000 0.000000 0.000000 0.046348 0.000000
# 6 0.000000 0.000000 0.000000 0.000000 0.000000 0.044299
#
#
# Mechanical properties :
#
#
# Convention : Reuss Voigt Hill
#
# Bulk Modulus (GPa) = 53.10596 60.46311 56.78453
# Shear Modulus (GPa) = 24.40567 26.63792 25.52180
#
# Velocity S-wave (km/s) = 3.52728 3.68506 3.60704
# Velocity P-wave (km/s) = 6.60770 6.99497 6.80409
#
# Compressibility (1/GPa) = 0.01883028
#
# Stress axis : x y z
#
# Youngs Moduli (GPa) = 101.28624 62.19916 44.18442
#
# Poissons Ratio (x) = 0.16029 0.26706
# Poissons Ratio (y) = 0.26103 0.27637
# Poissons Ratio (z) = 0.61220 0.38905
#
# Static dielectric constant tensor:
#      x y z
#    x 4.656080 0.000000 0.000000 
#    y 0.000000 3.665310 0.000000 
#    z 0.000000 0.000000 3.583740 
# 
# 
# High freq. dielectric constant tensor:
#      x y z
#    x 1.779220 0.000000 0.000000 
#    y 0.000000 1.775740 0.000000 
#    z 0.000000 0.000000 1.765340 
# 
# From -- ./inp_files/6135.got.cif
#   From: 2010.03.12/outbox.cif.g09.slc.cpg/sg55_4_cif.got.tgz:6135.got - 2010.04.16 15:19:21.
