data_PCOD8227515
_publ_section_title
;
Structure prediction by ZEFSAII (Michael W. Deem and Ramdas Pophale) SiO2 
 PCOD8227515
Probable space group: P B A M
;
_chemical_formula_sum "Si O2"
_cell_formula_units_Z 32
_cell_length_a 9.500967
_cell_length_b 12.645760
_cell_length_c 12.651782
_cell_angle_alpha 90.000000
_cell_angle_beta 90.000000
_cell_angle_gamma 90.000000
_cell_volume 1520.073000
_symmetry_space_group_name_H-M "P B A M"
_symmetry_group_IT_number 55
_symmetry_cell_setting 'orthorhombic'
loop_
_space_group_symop_operation_xyz
x,y,z
-x,-y,z
1/2+x,1/2-y,-z
1/2-x,1/2+y,-z
-x,-y,-z
x,y,-z
1/2-x,1/2+y,z
1/2+x,1/2-y,z
loop_
_atom_site_type_symbol
_atom_site_label
_atom_site_fract_x
_atom_site_fract_y
_atom_site_fract_z
Si Si1 0.415719 0.664317 0.882344
Si Si2 0.500000 0.500000 0.715100
Si Si3 0.143961 0.693537 0.211746
Si Si4 0.000000 0.500000 0.691629
Si Si5 0.240938 0.864081 0.619594
O O1 0.417518 0.574647 0.794654
O O2 0.503516 0.760788 0.837473
O O3 0.252823 0.697385 0.885611
O O4 0.464310 0.629359 0.000000
O O5 0.384567 0.446215 0.641016
O O6 0.106642 0.573542 0.242901
O O7 0.215709 0.761507 0.306754
O O8 0.895324 0.580160 0.628752
O O9 0.228110 0.822921 0.500000
#
# Coordination Sequence:
#
# PCOD8227515 Si02
#       5
#     8   4   8   4   8
#     4  11  22  42  68  94 130 175 217 277 338 391
#     4  10  22  42  64  94 130 164 222 276 320 398
#     4  11  24  44  63  98 138 168 225 275 321 402
#     4  12  23  46  67  96 136 176 217 272 331 386
#     4  11  24  42  67  95 131 175 217 269 333 390
#
# _framework density 21.05162
#
# number of rings (size 3 to 8) (size 9 to 14) (size 15 to 20)
#    0.000    1.000    5.000    1.875    0.000    2.000 
#    0.000    5.000    0.000    0.000    0.000    0.000 
#    0.000    0.000    0.000    0.000    0.000    0.000 
#
# Total GULP energy -396473.442638 kJ/mol
# GULP energy per Si atom -12389.795082 kJ/mol
# Density = 2.100371 g / cm^3
# Si number density = 21.051620 Si / 1000 Ang^3
#
#
#
# Elastic Constant Matrix: (Units=GPa)
#
#
# Indices 1 2 3 4 5 6 
#
# 1 114.1392 36.0103 35.1701 0.0000 0.0000 0.0000
# 2 36.0103 86.2442 16.1367 0.0000 0.0000 0.0000
# 3 35.1701 16.1367 103.5649 0.0000 0.0000 0.0000
# 4 0.0000 0.0000 0.0000 48.3860 0.0000 0.0000
# 5 0.0000 0.0000 0.0000 0.0000 26.4387 0.0000
# 6 0.0000 0.0000 0.0000 0.0000 0.0000 27.8352
#
#
#
# Elastic Compliance Matrix: (Units=1/GPa)
#
#
# Indices 1 2 3 4 5 6 
#
# 1 0.010981 -0.004004 -0.003105 0.000000 0.000000 0.000000
# 2 -0.004004 0.013403 -0.000729 0.000000 0.000000 0.000000
# 3 -0.003105 -0.000729 0.010824 0.000000 0.000000 0.000000
# 4 0.000000 0.000000 0.000000 0.020667 0.000000 0.000000
# 5 0.000000 0.000000 0.000000 0.000000 0.037823 0.000000
# 6 0.000000 0.000000 0.000000 0.000000 0.000000 0.035926
#
#
# Mechanical properties :
#
#
# Convention : Reuss Voigt Hill
#
# Bulk Modulus (GPa) = 51.19722 53.17583 52.18653
# Shear Modulus (GPa) = 32.93557 34.97404 33.95480
#
# Velocity S-wave (km/s) = 3.95969 4.08038 4.02049
# Velocity P-wave (km/s) = 6.72890 6.89304 6.81146
#
# Compressibility (1/GPa) = 0.01953231
#
# Stress axis : x y z
#
# Youngs Moduli (GPa) = 91.06337 74.60909 92.38848
#
# Poissons Ratio (x) = 0.29874 0.28690
# Poissons Ratio (y) = 0.36463 0.06731
# Poissons Ratio (z) = 0.28278 0.05436
#
# Static dielectric constant tensor:
#      x y z
#    x 4.171200 0.000000 0.000000 
#    y 0.000000 3.468030 0.000000 
#    z 0.000000 0.000000 3.609560 
# 
# 
# High freq. dielectric constant tensor:
#      x y z
#    x 1.851570 0.000000 0.000000 
#    y 0.000000 1.822560 0.000000 
#    z 0.000000 0.000000 1.812620 
# 
# From -- ./inp_files/11742.got.cif
#   From: 2010.03.12/outbox.cif.g09.slc.cpg/sg55_6_cif.got.tgz:11742.got - 2010.04.16 15:19:21.
