data_PCOD8227824
_publ_section_title
;
Structure prediction by ZEFSAII (Michael W. Deem and Ramdas Pophale) SiO2 
 PCOD8227824
Probable space group: P B A M
;
_chemical_formula_sum "Si O2"
_cell_formula_units_Z 64
_cell_length_a 19.342957
_cell_length_b 20.956525
_cell_length_c 9.123655
_cell_angle_alpha 90.000000
_cell_angle_beta 90.000000
_cell_angle_gamma 90.000000
_cell_volume 3698.375392
_symmetry_space_group_name_H-M "P B A M"
_symmetry_group_IT_number 55
_symmetry_cell_setting 'orthorhombic'
loop_
_space_group_symop_operation_xyz
x,y,z
-x,-y,z
1/2+x,1/2-y,-z
1/2-x,1/2+y,-z
-x,-y,-z
x,y,-z
1/2-x,1/2+y,z
1/2+x,1/2-y,z
loop_
_atom_site_type_symbol
_atom_site_label
_atom_site_fract_x
_atom_site_fract_y
_atom_site_fract_z
Si Si1 0.545617 0.439184 0.327328
Si Si2 0.954187 0.557559 0.327678
Si Si3 0.208456 0.315398 0.834361
Si Si4 0.554776 0.317570 0.827484
Si Si5 0.300520 0.693884 0.328631
Si Si6 0.298063 0.554110 0.670864
Si Si7 0.543729 0.179953 0.161938
Si Si8 0.796042 0.558721 0.674095
O O1 0.500000 0.500000 0.287700
O O2 0.543751 0.423517 0.500000
O O3 0.513658 0.378922 0.236329
O O4 0.623645 0.452351 0.269169
O O5 0.961428 0.559300 0.500000
O O6 0.983380 0.625561 0.271237
O O7 0.875272 0.547368 0.277100
O O8 0.000000 0.500000 0.261905
O O9 0.238227 0.251066 0.757402
O O10 0.126048 0.312345 0.828279
O O11 0.234696 0.377398 0.747063
O O12 0.236406 0.318129 0.000000
O O13 0.622275 0.314190 0.727889
O O14 0.512782 0.250730 0.803208
O O15 0.572544 0.325605 0.000000
O O16 0.301659 0.711049 0.500000
O O17 0.265229 0.624565 0.299432
O O18 0.301597 0.540603 0.500000
O O19 0.247924 0.500442 0.739085
O O20 0.521670 0.158027 0.000000
O O21 0.790847 0.566080 0.500000
#
# Coordination Sequence:
#
# PCOD8227824 Si02
#       8
#     8   8   8   8   8   8   8   8
#     4   9  17  29  45  65  88 112 140 176 215 256
#     4   9  17  27  41  63  86 107 135 172 210 246
#     4   9  16  26  40  62  88 109 138 179 215 249
#     4   9  16  26  41  63  88 111 140 178 214 250
#     4   9  15  25  42  63  85 110 142 178 215 254
#     4   8  15  27  44  65  85 108 140 173 207 252
#     4   8  15  26  40  59  82 108 137 170 206 244
#     4   9  16  28  45  62  84 113 140 170 210 255
#
# _framework density 17.304895999999999
#
# number of rings (size 3 to 8) (size 9 to 14) (size 15 to 20)
#    0.000    3.250    0.000    2.625    0.000    4.000 
#    0.000    3.125    0.000    1.500    0.000    8.750 
#    0.000    0.000    0.000    0.000    0.000    0.000 
#
# Total GULP energy -792938.253571 kJ/mol
# GULP energy per Si atom -12389.660212 kJ/mol
# Density = 1.726551 g / cm^3
# Si number density = 17.304896 Si / 1000 Ang^3
#
#
#
# Elastic Constant Matrix: (Units=GPa)
#
#
# Indices 1 2 3 4 5 6 
#
# 1 33.8363 45.8629 17.8808 0.0000 0.0000 0.0000
# 2 45.8629 184.0146 55.8775 0.0000 0.0000 0.0000
# 3 17.8808 55.8775 56.0681 0.0000 0.0000 0.0000
# 4 0.0000 0.0000 0.0000 25.8865 0.0000 0.0000
# 5 0.0000 0.0000 0.0000 0.0000 8.1674 0.0000
# 6 0.0000 0.0000 0.0000 0.0000 0.0000 23.4311
#
#
#
# Elastic Compliance Matrix: (Units=1/GPa)
#
#
# Indices 1 2 3 4 5 6 
#
# 1 0.045443 -0.009930 -0.004595 0.000000 0.000000 0.000000
# 2 -0.009930 0.009963 -0.006762 0.000000 0.000000 0.000000
# 3 -0.004595 -0.006762 0.026040 0.000000 0.000000 0.000000
# 4 0.000000 0.000000 0.000000 0.038630 0.000000 0.000000
# 5 0.000000 0.000000 0.000000 0.000000 0.122438 0.000000
# 6 0.000000 0.000000 0.000000 0.000000 0.000000 0.042678
#
#
# Mechanical properties :
#
#
# Convention : Reuss Voigt Hill
#
# Bulk Modulus (GPa) = 25.72703 57.01794 41.37248
# Shear Modulus (GPa) = 14.67464 21.78352 18.22908
#
# Velocity S-wave (km/s) = 2.91521 3.55182 3.24914
# Velocity P-wave (km/s) = 5.12157 7.05982 6.16731
#
# Compressibility (1/GPa) = 0.03886963
#
# Stress axis : x y z
#
# Youngs Moduli (GPa) = 22.00574 100.37467 38.40261
#
# Poissons Ratio (x) = 0.99677 0.17648
# Poissons Ratio (y) = 0.21853 0.25967
# Poissons Ratio (z) = 0.10113 0.67872
#
# Static dielectric constant tensor:
#      x y z
#    x 2.789580 0.000000 0.000000 
#    y 0.000000 3.885310 0.000000 
#    z 0.000000 0.000000 3.163640 
# 
# 
# High freq. dielectric constant tensor:
#      x y z
#    x 1.595750 0.000000 0.000000 
#    y 0.000000 1.694560 0.000000 
#    z 0.000000 0.000000 1.660030 
# 
# From -- ./inp_files/9132.got.cif
#   From: 2010.03.12/outbox.cif.g09.slc.cpg/sg55_5_cif.got.tgz:9132.got - 2010.04.16 15:19:21.
