data_PCOD8227176
_publ_section_title
;
Structure prediction by ZEFSAII (Michael W. Deem and Ramdas Pophale) SiO2 
 PCOD8227176
Probable space group: P B A M
;
_chemical_formula_sum "Si O2"
_cell_formula_units_Z 32
_cell_length_a 10.346446
_cell_length_b 20.041154
_cell_length_c 7.534317
_cell_angle_alpha 90.000000
_cell_angle_beta 90.000000
_cell_angle_gamma 90.000000
_cell_volume 1562.276174
_symmetry_space_group_name_H-M "P B A M"
_symmetry_group_IT_number 55
_symmetry_cell_setting 'orthorhombic'
loop_
_space_group_symop_operation_xyz
x,y,z
-x,-y,z
1/2+x,1/2-y,-z
1/2-x,1/2+y,-z
-x,-y,-z
x,y,-z
1/2-x,1/2+y,z
1/2+x,1/2-y,z
loop_
_atom_site_type_symbol
_atom_site_label
_atom_site_fract_x
_atom_site_fract_y
_atom_site_fract_z
Si Si1 0.634921 0.964067 0.802468
Si Si2 0.198338 0.984834 0.500000
Si Si3 0.620008 0.815032 0.793290
Si Si4 0.983213 0.889658 0.500000
Si Si5 0.092427 0.212463 0.209064
O O1 0.719199 0.011176 0.678760
O O2 0.623053 0.889979 0.713861
O O3 0.500000 0.000000 0.817677
O O4 0.697540 0.958904 0.000000
O O5 0.098065 0.044022 0.500000
O O6 0.132669 0.911957 0.500000
O O7 0.495549 0.774261 0.721027
O O8 0.754629 0.775900 0.750610
O O9 0.599232 0.823340 0.000000
O O10 0.953616 0.851107 0.318775
O O11 0.069940 0.198503 0.000000
#
# Coordination Sequence:
#
# PCOD8227176 Si02
#       5
#     8   4   8   4   8
#     4  10  21  39  64  89 119 162 201 246 308 363
#     4  11  23  39  57  87 121 154 202 249 284 361
#     4   9  19  37  61  87 116 154 198 246 302 357
#     4  11  24  37  59  87 115 161 202 236 304 357
#     4  10  21  39  60  85 120 156 199 255 302 358
#
# _framework density 20.482932999999999
#
# number of rings (size 3 to 8) (size 9 to 14) (size 15 to 20)
#    0.000    2.000    2.500    0.375    0.000    5.000 
#    0.000    7.500    0.000    0.000    0.000    0.000 
#    0.000    0.000    0.000    0.000    0.000    0.000 
#
# Total GULP energy -396623.650106 kJ/mol
# GULP energy per Si atom -12394.489066 kJ/mol
# Density = 2.043631 g / cm^3
# Si number density = 20.482933 Si / 1000 Ang^3
#
#
#
# Elastic Constant Matrix: (Units=GPa)
#
#
# Indices 1 2 3 4 5 6 
#
# 1 111.5052 39.8983 25.3224 0.0000 0.0000 0.0000
# 2 39.8983 54.0083 16.0043 0.0000 0.0000 0.0000
# 3 25.3224 16.0043 82.6078 0.0000 0.0000 0.0000
# 4 0.0000 0.0000 0.0000 27.9775 0.0000 0.0000
# 5 0.0000 0.0000 0.0000 0.0000 13.6533 0.0000
# 6 0.0000 0.0000 0.0000 0.0000 0.0000 45.3183
#
#
#
# Elastic Compliance Matrix: (Units=1/GPa)
#
#
# Indices 1 2 3 4 5 6 
#
# 1 0.012549 -0.008626 -0.002176 0.000000 0.000000 0.000000
# 2 -0.008626 0.025572 -0.002310 0.000000 0.000000 0.000000
# 3 -0.002176 -0.002310 0.013220 0.000000 0.000000 0.000000
# 4 0.000000 0.000000 0.000000 0.035743 0.000000 0.000000
# 5 0.000000 0.000000 0.000000 0.000000 0.073242 0.000000
# 6 0.000000 0.000000 0.000000 0.000000 0.000000 0.022066
#
#
# Mechanical properties :
#
#
# Convention : Reuss Voigt Hill
#
# Bulk Modulus (GPa) = 39.81194 45.61906 42.71550
# Shear Modulus (GPa) = 23.04280 28.51624 25.77952
#
# Velocity S-wave (km/s) = 3.35770 3.73526 3.55150
# Velocity P-wave (km/s) = 5.87461 6.39711 6.14142
#
# Compressibility (1/GPa) = 0.02511809
#
# Stress axis : x y z
#
# Youngs Moduli (GPa) = 79.69017 39.10476 75.64374
#
# Poissons Ratio (x) = 0.33730 0.16456
# Poissons Ratio (y) = 0.68737 0.17476
# Poissons Ratio (z) = 0.17337 0.09034
#
# Static dielectric constant tensor:
#      x y z
#    x 4.104210 0.000000 0.000000 
#    y 0.000000 3.935920 0.000000 
#    z 0.000000 0.000000 3.888580 
# 
# 
# High freq. dielectric constant tensor:
#      x y z
#    x 1.803810 0.000000 0.000000 
#    y 0.000000 1.791830 0.000000 
#    z 0.000000 0.000000 1.799720 
# 
# From -- ./inp_files/2029.got.cif
#   From: 2010.03.12/outbox.cif.g09.slc.cpg/sg55_2_cif.got.tgz:2029.got - 2010.04.16 15:19:21.
