data_PCOD8227246
_publ_section_title
;
Structure prediction by ZEFSAII (Michael W. Deem and Ramdas Pophale) SiO2 
 PCOD8227246
Probable space group: P B A M
;
_chemical_formula_sum "Si O2"
_cell_formula_units_Z 56
_cell_length_a 13.623147
_cell_length_b 12.399236
_cell_length_c 15.591905
_cell_angle_alpha 90.000000
_cell_angle_beta 90.000000
_cell_angle_gamma 90.000000
_cell_volume 2633.731810
_symmetry_space_group_name_H-M "P B A M"
_symmetry_group_IT_number 55
_symmetry_cell_setting 'orthorhombic'
loop_
_space_group_symop_operation_xyz
x,y,z
-x,-y,z
1/2+x,1/2-y,-z
1/2-x,1/2+y,-z
-x,-y,-z
x,y,-z
1/2-x,1/2+y,z
1/2+x,1/2-y,z
loop_
_atom_site_type_symbol
_atom_site_label
_atom_site_fract_x
_atom_site_fract_y
_atom_site_fract_z
Si Si1 0.479050 0.121010 0.402679
Si Si2 0.022603 0.667365 0.901102
Si Si3 0.737954 0.923114 0.403371
Si Si4 0.017574 0.882618 0.196385
Si Si5 0.773809 0.094179 0.257169
Si Si6 0.842314 0.526635 0.101253
Si Si7 0.128968 0.228710 0.688879
O O1 0.515048 0.138819 0.500000
O O2 0.363425 0.143073 0.392317
O O3 0.538653 0.198386 0.340731
O O4 0.500000 0.000000 0.372693
O O5 0.040333 0.788875 0.871252
O O6 0.117672 0.594234 0.881658
O O7 0.924221 0.611599 0.863914
O O8 0.002140 0.670245 0.000000
O O9 0.745091 0.970776 0.500000
O O10 0.825861 0.838860 0.389671
O O11 0.740411 0.020680 0.336492
O O12 0.109580 0.886938 0.261792
O O13 0.916440 0.857150 0.245283
O O14 0.000000 0.000000 0.152481
O O15 0.750983 0.042018 0.163265
O O16 0.715900 0.206228 0.265388
O O17 0.815108 0.542164 0.000000
#
# Coordination Sequence:
#
# PCOD8227246 Si02
#       7
#     8   8   8   8   8   8   8
#     4  10  21  39  66  96 123 162 224 282 334 399
#     4   9  20  41  70  99 131 173 223 280 340 401
#     4  11  25  44  67  98 132 174 231 285 340 402
#     4  12  26  42  61  97 138 177 226 271 334 416
#     4  12  25  41  70  96 136 179 229 272 346 402
#     4   9  20  41  71 105 131 166 227 286 338 400
#     4  12  24  43  66  94 131 181 216 287 341 405
#
# _framework density 21.262604
#
# number of rings (size 3 to 8) (size 9 to 14) (size 15 to 20)
#    0.000    1.286    4.286    2.143    4.000    1.429 
#    0.000    2.143    0.000    0.000    0.000    0.000 
#    0.000    0.000    0.000    0.000    0.000    0.000 
#
# Total GULP energy -694351.996588 kJ/mol
# GULP energy per Si atom -12399.142796 kJ/mol
# Density = 2.121421 g / cm^3
# Si number density = 21.262604 Si / 1000 Ang^3
#
#
#
# Elastic Constant Matrix: (Units=GPa)
#
#
# Indices 1 2 3 4 5 6 
#
# 1 83.7846 28.3394 15.7624 0.0000 0.0000 0.0000
# 2 28.3394 126.1978 20.7457 0.0000 0.0000 0.0000
# 3 15.7624 20.7457 44.3364 0.0000 0.0000 0.0000
# 4 0.0000 0.0000 0.0000 29.1352 0.0000 0.0000
# 5 0.0000 0.0000 0.0000 0.0000 31.5121 0.0000
# 6 0.0000 0.0000 0.0000 0.0000 0.0000 31.4830
#
#
#
# Elastic Compliance Matrix: (Units=1/GPa)
#
#
# Indices 1 2 3 4 5 6 
#
# 1 0.013439 -0.002419 -0.003646 0.000000 0.000000 0.000000
# 2 -0.002419 0.009020 -0.003361 0.000000 0.000000 0.000000
# 3 -0.003646 -0.003361 0.025424 0.000000 0.000000 0.000000
# 4 0.000000 0.000000 0.000000 0.034323 0.000000 0.000000
# 5 0.000000 0.000000 0.000000 0.000000 0.031734 0.000000
# 6 0.000000 0.000000 0.000000 0.000000 0.000000 0.031763
#
#
# Mechanical properties :
#
#
# Convention : Reuss Voigt Hill
#
# Bulk Modulus (GPa) = 34.44500 42.66820 38.55660
# Shear Modulus (GPa) = 28.69760 31.05747 29.87753
#
# Velocity S-wave (km/s) = 3.67778 3.82601 3.75262
# Velocity P-wave (km/s) = 5.85403 6.29512 6.07858
#
# Compressibility (1/GPa) = 0.02903179
#
# Stress axis : x y z
#
# Youngs Moduli (GPa) = 74.40805 110.86919 39.33355
#
# Poissons Ratio (x) = 0.26815 0.14342
# Poissons Ratio (y) = 0.17996 0.13218
# Poissons Ratio (z) = 0.27131 0.37258
#
# Static dielectric constant tensor:
#      x y z
#    x 3.746490 0.000000 0.000000 
#    y 0.000000 3.195980 0.000000 
#    z 0.000000 0.000000 3.656400 
# 
# 
# High freq. dielectric constant tensor:
#      x y z
#    x 1.836960 0.000000 0.000000 
#    y 0.000000 1.835050 0.000000 
#    z 0.000000 0.000000 1.824140 
# 
# From -- ./inp_files/18975.got.cif
#   From: 2010.03.12/outbox.cif.g09.slc.cpg/sg55_10_cif.got.tgz:18975.got - 2010.04.16 15:19:21.
