data_PCOD8227523
_publ_section_title
;
Structure prediction by ZEFSAII (Michael W. Deem and Ramdas Pophale) SiO2 
 PCOD8227523
Probable space group: P B A M
;
_chemical_formula_sum "Si O2"
_cell_formula_units_Z 56
_cell_length_a 21.399156
_cell_length_b 14.493025
_cell_length_c 8.464902
_cell_angle_alpha 90.000000
_cell_angle_beta 90.000000
_cell_angle_gamma 90.000000
_cell_volume 2625.292033
_symmetry_space_group_name_H-M "P B A M"
_symmetry_group_IT_number 55
_symmetry_cell_setting 'orthorhombic'
loop_
_space_group_symop_operation_xyz
x,y,z
-x,-y,z
1/2+x,1/2-y,-z
1/2-x,1/2+y,-z
-x,-y,-z
x,y,-z
1/2-x,1/2+y,z
1/2+x,1/2-y,z
loop_
_atom_site_type_symbol
_atom_site_label
_atom_site_fract_x
_atom_site_fract_y
_atom_site_fract_z
Si Si1 0.100319 0.892120 0.180554
Si Si2 0.462148 0.910277 0.816456
Si Si3 0.671376 0.056456 0.316821
Si Si4 0.011872 0.216712 0.318745
Si Si5 0.240870 0.611421 0.817143
Si Si6 0.616704 0.400261 0.817175
Si Si7 0.280469 0.305135 0.681947
O O1 0.154903 0.858736 0.295315
O O2 0.037384 0.835804 0.209398
O O3 0.086557 0.999631 0.213570
O O4 0.122012 0.878415 0.000000
O O5 0.389071 0.924628 0.787706
O O6 0.489004 0.824951 0.717695
O O7 0.500000 0.000000 0.759475
O O8 0.473765 0.890404 0.000000
O O9 0.653737 0.066280 0.500000
O O10 0.723663 0.129786 0.264730
O O11 0.696552 0.954082 0.285069
O O12 0.993828 0.201214 0.500000
O O13 0.080474 0.175943 0.284601
O O14 0.311881 0.599166 0.758917
O O15 0.218842 0.715587 0.791444
O O16 0.234062 0.584400 0.000000
O O17 0.612572 0.371229 0.000000
O O18 0.273790 0.276098 0.500000
#
# Coordination Sequence:
#
# PCOD8227523 Si02
#       7
#     8   8   8   8   8   8   8
#     4  11  23  42  67  95 129 170 219 269 320 385
#     4  11  26  47  70  94 126 172 224 273 320 385
#     4  11  24  43  68  98 133 169 210 270 329 385
#     4  12  26  42  65  96 132 173 214 268 331 388
#     4  11  23  40  66  96 129 172 217 264 318 384
#     4  10  22  42  67  97 130 172 220 267 318 383
#     4  11  24  41  63  96 133 171 214 268 330 385
#
# _framework density 21.330960000000001
#
# number of rings (size 3 to 8) (size 9 to 14) (size 15 to 20)
#    0.000    1.000    1.429    4.714    2.000    9.143 
#    0.000    0.000    0.000    0.000    0.000    0.000 
#    0.000    0.000    0.000    0.000    0.000    0.000 
#
# Total GULP energy -694940.712243 kJ/mol
# GULP energy per Si atom -12409.655576 kJ/mol
# Density = 2.128241 g / cm^3
# Si number density = 21.330960 Si / 1000 Ang^3
#
#
#
# Elastic Constant Matrix: (Units=GPa)
#
#
# Indices 1 2 3 4 5 6 
#
# 1 64.4052 13.1381 11.5350 0.0000 0.0000 0.0000
# 2 13.1381 116.8462 24.2022 0.0000 0.0000 0.0000
# 3 11.5350 24.2022 57.1770 0.0000 0.0000 0.0000
# 4 0.0000 0.0000 0.0000 25.6551 0.0000 0.0000
# 5 0.0000 0.0000 0.0000 0.0000 32.1449 0.0000
# 6 0.0000 0.0000 0.0000 0.0000 0.0000 31.7576
#
#
#
# Elastic Compliance Matrix: (Units=1/GPa)
#
#
# Indices 1 2 3 4 5 6 
#
# 1 0.016276 -0.001260 -0.002750 0.000000 0.000000 0.000000
# 2 -0.001260 0.009478 -0.003758 0.000000 0.000000 0.000000
# 3 -0.002750 -0.003758 0.019635 0.000000 0.000000 0.000000
# 4 0.000000 0.000000 0.000000 0.038979 0.000000 0.000000
# 5 0.000000 0.000000 0.000000 0.000000 0.031109 0.000000
# 6 0.000000 0.000000 0.000000 0.000000 0.000000 0.031488
#
#
# Mechanical properties :
#
#
# Convention : Reuss Voigt Hill
#
# Bulk Modulus (GPa) = 33.49743 37.35322 35.42533
# Shear Modulus (GPa) = 28.99331 30.54839 29.77085
#
# Velocity S-wave (km/s) = 3.69075 3.78844 3.73991
# Velocity P-wave (km/s) = 5.82237 6.05686 5.94077
#
# Compressibility (1/GPa) = 0.02985304
#
# Stress axis : x y z
#
# Youngs Moduli (GPa) = 61.43875 105.50394 50.92960
#
# Poissons Ratio (x) = 0.13299 0.14006
# Poissons Ratio (y) = 0.07744 0.19138
# Poissons Ratio (z) = 0.16896 0.39646
#
# Static dielectric constant tensor:
#      x y z
#    x 3.809090 0.000000 0.000000 
#    y 0.000000 3.903500 0.000000 
#    z 0.000000 0.000000 3.708370 
# 
# 
# High freq. dielectric constant tensor:
#      x y z
#    x 1.841760 0.000000 0.000000 
#    y 0.000000 1.849020 0.000000 
#    z 0.000000 0.000000 1.836540 
# 
# From -- ./inp_files/8805.got.cif
#   From: 2010.03.12/outbox.cif.g09.slc.cpg/sg55_5_cif.got.tgz:8805.got - 2010.04.16 15:19:21.
