data_PCOD8227132
_publ_section_title
;
Structure prediction by ZEFSAII (Michael W. Deem and Ramdas Pophale) SiO2 
 PCOD8227132
Probable space group: P B A M
;
_chemical_formula_sum "Si O2"
_cell_formula_units_Z 48
_cell_length_a 15.445269
_cell_length_b 17.604004
_cell_length_c 8.525164
_cell_angle_alpha 90.000000
_cell_angle_beta 90.000000
_cell_angle_gamma 90.000000
_cell_volume 2317.979962
_symmetry_space_group_name_H-M "P B A M"
_symmetry_group_IT_number 55
_symmetry_cell_setting 'orthorhombic'
loop_
_space_group_symop_operation_xyz
x,y,z
-x,-y,z
1/2+x,1/2-y,-z
1/2-x,1/2+y,-z
-x,-y,-z
x,y,-z
1/2-x,1/2+y,z
1/2+x,1/2-y,z
loop_
_atom_site_type_symbol
_atom_site_label
_atom_site_fract_x
_atom_site_fract_y
_atom_site_fract_z
Si Si1 0.410557 0.790624 0.181961
Si Si2 0.927258 0.207917 0.680601
Si Si3 0.744498 0.964395 0.817497
Si Si4 0.084587 0.453406 0.318820
Si Si5 0.582582 0.543295 0.815897
Si Si6 0.765949 0.287857 0.819205
O O1 0.483582 0.750152 0.283642
O O2 0.411886 0.880173 0.209143
O O3 0.317176 0.759998 0.235364
O O4 0.427772 0.772481 0.000000
O O5 0.924854 0.184914 0.500000
O O6 0.919390 0.132134 0.781662
O O7 0.848172 0.264117 0.717057
O O8 0.756043 0.875292 0.790383
O O9 0.665613 0.992966 0.713490
O O10 0.829827 0.005739 0.750247
O O11 0.727852 0.983672 0.000000
O O12 0.083091 0.428291 0.500000
O O13 0.000000 0.500000 0.272082
O O14 0.500000 0.500000 0.740066
O O15 0.581102 0.530120 0.000000
O O16 0.788360 0.271473 0.000000
#
# Coordination Sequence:
#
# PCOD8227132 Si02
#       6
#     8   8   8   8   8   8
#     4  11  23  41  65  89 116 156 205 251 293 344
#     4  12  25  39  59  90 126 160 194 240 301 361
#     4  10  21  38  62  89 115 150 197 245 293 347
#     4  11  24  40  58  85 121 157 194 241 300 359
#     4  10  21  40  64  88 117 155 200 246 291 346
#     4  10  22  41  64  89 117 154 202 250 294 346
#
# _framework density 20.707684
#
# number of rings (size 3 to 8) (size 9 to 14) (size 15 to 20)
#    0.000    1.333    0.000    5.500    0.000   13.667 
#    0.000    1.667    0.000    0.000    0.000    0.000 
#    0.000    0.000    0.000    0.000    0.000    0.000 
#
# Total GULP energy -595556.526354 kJ/mol
# GULP energy per Si atom -12407.427632 kJ/mol
# Density = 2.066055 g / cm^3
# Si number density = 20.707684 Si / 1000 Ang^3
#
#
#
# Elastic Constant Matrix: (Units=GPa)
#
#
# Indices 1 2 3 4 5 6 
#
# 1 121.2966 23.2669 31.1688 0.0000 0.0000 0.0000
# 2 23.2669 94.4024 7.0650 0.0000 0.0000 0.0000
# 3 31.1688 7.0650 29.3255 0.0000 0.0000 0.0000
# 4 0.0000 0.0000 0.0000 11.3013 0.0000 0.0000
# 5 0.0000 0.0000 0.0000 0.0000 0.3371 0.0000
# 6 0.0000 0.0000 0.0000 0.0000 0.0000 43.4397
#
#
#
# Elastic Compliance Matrix: (Units=1/GPa)
#
#
# Indices 1 2 3 4 5 6 
#
# 1 0.011697 -0.001988 -0.011954 0.000000 0.000000 0.000000
# 2 -0.001988 0.011125 -0.000567 0.000000 0.000000 0.000000
# 3 -0.011954 -0.000567 0.046942 0.000000 0.000000 0.000000
# 4 0.000000 0.000000 0.000000 0.088485 0.000000 0.000000
# 5 0.000000 0.000000 0.000000 0.000000 2.966653 0.000000
# 6 0.000000 0.000000 0.000000 0.000000 0.000000 0.023020
#
#
# Mechanical properties :
#
#
# Convention : Reuss Voigt Hill
#
# Bulk Modulus (GPa) = 24.54195 40.89179 32.71687
# Shear Modulus (GPa) = 1.56714 23.25054 12.40884
#
# Velocity S-wave (km/s) = 0.87088 3.35445 2.45059
# Velocity P-wave (km/s) = 3.59007 5.89857 4.88271
#
# Compressibility (1/GPa) = 0.04074656
#
# Stress axis : x y z
#
# Youngs Moduli (GPa) = 85.48992 89.88405 21.30310
#
# Poissons Ratio (x) = 0.17872 0.25465
# Poissons Ratio (y) = 0.16999 0.01208
# Poissons Ratio (z) = 1.02191 0.05096
#
# Static dielectric constant tensor:
#      x y z
#    x 4.065320 0.000000 0.000000 
#    y 0.000000 3.349860 0.000000 
#    z 0.000000 0.000000 3.595620 
# 
# 
# High freq. dielectric constant tensor:
#      x y z
#    x 1.829750 0.000000 0.000000 
#    y 0.000000 1.824140 0.000000 
#    z 0.000000 0.000000 1.796630 
# 
# From -- ./inp_files/5581.got.cif
#   From: 2010.03.12/outbox.cif.g09.slc.cpg/sg55_3_cif.got.tgz:5581.got - 2010.04.16 15:19:21.
