data_PCOD8227784
_publ_section_title
;
Structure prediction by ZEFSAII (Michael W. Deem and Ramdas Pophale) SiO2 
 PCOD8227784
Probable space group: P B A M
;
_chemical_formula_sum "Si O2"
_cell_formula_units_Z 40
_cell_length_a 9.345414
_cell_length_b 9.710361
_cell_length_c 20.361061
_cell_angle_alpha 90.000000
_cell_angle_beta 90.000000
_cell_angle_gamma 90.000000
_cell_volume 1847.712199
_symmetry_space_group_name_H-M "P B A M"
_symmetry_group_IT_number 55
_symmetry_cell_setting 'orthorhombic'
loop_
_space_group_symop_operation_xyz
x,y,z
-x,-y,z
1/2+x,1/2-y,-z
1/2-x,1/2+y,-z
-x,-y,-z
x,y,-z
1/2-x,1/2+y,z
1/2+x,1/2-y,z
loop_
_atom_site_type_symbol
_atom_site_label
_atom_site_fract_x
_atom_site_fract_y
_atom_site_fract_z
Si Si1 0.585788 0.687748 0.424593
Si Si2 0.267980 0.751985 0.843250
Si Si3 0.477851 0.339420 0.927410
Si Si4 0.833965 0.492889 0.239730
Si Si5 0.704987 0.414149 0.375477
O O1 0.536766 0.693421 0.500000
O O2 0.691315 0.557920 0.414458
O O3 0.443428 0.671241 0.380248
O O4 0.664680 0.828349 0.405933
O O5 0.425203 0.725419 0.870773
O O6 0.183516 0.811444 0.905405
O O7 0.190161 0.613753 0.819180
O O8 0.278285 0.858009 0.782856
O O9 0.500000 0.500000 0.931214
O O10 0.503539 0.274724 0.000000
O O11 0.735532 0.446034 0.299920
O O12 0.000000 0.500000 0.260112
#
# Coordination Sequence:
#
# PCOD8227784 Si02
#       5
#     8   8   8   8   8
#     4  11  24  47  72 102 141 180 229 285 348 412
#     4  12  24  46  69  99 137 183 223 282 340 400
#     4  11  24  43  69 103 137 178 229 282 339 401
#     4  12  27  44  69 100 140 178 229 278 342 411
#     4  11  26  43  70 103 136 181 230 283 342 413
#
# _framework density 21.648395000000001
#
# number of rings (size 3 to 8) (size 9 to 14) (size 15 to 20)
#    0.000    0.600    4.000    4.200    5.600    3.200 
#    0.000    3.000    0.000    0.000    0.000    0.000 
#    0.000    0.000    0.000    0.000    0.000    0.000 
#
# Total GULP energy -496234.021731 kJ/mol
# GULP energy per Si atom -12405.850543 kJ/mol
# Density = 2.159912 g / cm^3
# Si number density = 21.648395 Si / 1000 Ang^3
#
#
#
# Elastic Constant Matrix: (Units=GPa)
#
#
# Indices 1 2 3 4 5 6 
#
# 1 111.5164 34.9474 55.4330 0.0000 0.0000 0.0000
# 2 34.9474 78.0946 36.5076 0.0000 0.0000 0.0000
# 3 55.4330 36.5076 131.1069 0.0000 0.0000 0.0000
# 4 0.0000 0.0000 0.0000 189.4395 0.0000 0.0000
# 5 0.0000 0.0000 0.0000 0.0000 45.1704 0.0000
# 6 0.0000 0.0000 0.0000 0.0000 0.0000 36.7062
#
#
#
# Elastic Compliance Matrix: (Units=1/GPa)
#
#
# Indices 1 2 3 4 5 6 
#
# 1 0.012125 -0.003483 -0.004157 0.000000 0.000000 0.000000
# 2 -0.003483 0.015722 -0.002905 0.000000 0.000000 0.000000
# 3 -0.004157 -0.002905 0.010194 0.000000 0.000000 0.000000
# 4 0.000000 0.000000 0.000000 0.005279 0.000000 0.000000
# 5 0.000000 0.000000 0.000000 0.000000 0.022138 0.000000
# 6 0.000000 0.000000 0.000000 0.000000 0.000000 0.027243
#
#
# Mechanical properties :
#
#
# Convention : Reuss Voigt Hill
#
# Bulk Modulus (GPa) = 58.99364 63.83266 61.41315
# Shear Modulus (GPa) = 41.86173 67.18521 54.52347
#
# Velocity S-wave (km/s) = 4.40217 5.57693 5.02400
# Velocity P-wave (km/s) = 7.29032 8.42731 7.87935
#
# Compressibility (1/GPa) = 0.01695098
#
# Stress axis : x y z
#
# Youngs Moduli (GPa) = 82.47436 63.60652 98.09824
#
# Poissons Ratio (x) = 0.22153 0.40777
# Poissons Ratio (y) = 0.28724 0.28500
# Poissons Ratio (z) = 0.34282 0.18479
#
# Static dielectric constant tensor:
#      x y z
#    x 3.832140 0.000000 0.000000 
#    y 0.000000 4.007390 0.000000 
#    z 0.000000 0.000000 3.907550 
# 
# 
# High freq. dielectric constant tensor:
#      x y z
#    x 1.855870 0.000000 0.000000 
#    y 0.000000 1.857840 0.000000 
#    z 0.000000 0.000000 1.856140 
# 
# From -- ./inp_files/23412.got.cif
#   From: 2010.03.12/outbox.cif.g09.slc.cpg/sg55_12_cif.got.tgz:23412.got - 2010.04.16 15:19:21.
