data_PCOD8227219
_publ_section_title
;
Structure prediction by ZEFSAII (Michael W. Deem and Ramdas Pophale) SiO2 
 PCOD8227219
Probable space group: P B A M
;
_chemical_formula_sum "Si O2"
_cell_formula_units_Z 48
_cell_length_a 19.990709
_cell_length_b 14.281536
_cell_length_c 8.600930
_cell_angle_alpha 90.000000
_cell_angle_beta 90.000000
_cell_angle_gamma 90.000000
_cell_volume 2455.548573
_symmetry_space_group_name_H-M "P B A M"
_symmetry_group_IT_number 55
_symmetry_cell_setting 'orthorhombic'
loop_
_space_group_symop_operation_xyz
x,y,z
-x,-y,z
1/2+x,1/2-y,-z
1/2-x,1/2+y,-z
-x,-y,-z
x,y,-z
1/2-x,1/2+y,z
1/2+x,1/2-y,z
loop_
_atom_site_type_symbol
_atom_site_label
_atom_site_fract_x
_atom_site_fract_y
_atom_site_fract_z
Si Si1 0.423769 0.341740 0.318924
Si Si2 0.570856 0.287982 0.320019
Si Si3 0.625020 0.474901 0.820104
Si Si4 0.766390 0.482270 0.679487
Si Si5 0.825671 0.657094 0.819931
Si Si6 0.293395 0.228659 0.680160
O O1 0.420289 0.368566 0.500000
O O2 0.492524 0.289199 0.278503
O O3 0.421728 0.437034 0.220419
O O4 0.363755 0.273272 0.269878
O O5 0.583616 0.266770 0.500000
O O6 0.604533 0.387019 0.283063
O O7 0.604018 0.205296 0.221044
O O8 0.701116 0.502252 0.782389
O O9 0.616982 0.448973 0.000000
O O10 0.745961 0.492244 0.500000
O O11 0.820438 0.560882 0.723678
O O12 0.798210 0.381499 0.715266
O O13 0.765813 0.728177 0.780996
O O14 0.823817 0.632354 0.000000
O O15 0.277447 0.248606 0.500000
#
# Coordination Sequence:
#
# PCOD8227219 Si02
#       6
#     8   8   8   8   8   8
#     4  10  22  40  62  88 119 158 206 248 298 360
#     4  11  23  40  61  86 120 163 203 247 298 360
#     4  12  23  35  57  91 127 157 194 247 306 361
#     4  11  22  38  62  89 119 155 200 246 296 357
#     4  12  24  38  60  89 121 157 198 248 301 355
#     4  10  21  39  64  88 115 155 200 249 296 352
#
# _framework density 19.547564999999999
#
# number of rings (size 3 to 8) (size 9 to 14) (size 15 to 20)
#    0.000    1.000    3.333    4.500    0.000    4.000 
#    0.000    0.833    0.000    5.000    0.000    0.000 
#    0.000    0.000    0.000    0.000    0.000    0.000 
#
# Total GULP energy -595559.054462 kJ/mol
# GULP energy per Si atom -12407.480301 kJ/mol
# Density = 1.950307 g / cm^3
# Si number density = 19.547565 Si / 1000 Ang^3
#
#
#
# Elastic Constant Matrix: (Units=GPa)
#
#
# Indices 1 2 3 4 5 6 
#
# 1 63.2206 6.6501 14.6792 0.0000 0.0000 0.0000
# 2 6.6501 91.8940 15.8958 0.0000 0.0000 0.0000
# 3 14.6792 15.8958 62.4380 0.0000 0.0000 0.0000
# 4 0.0000 0.0000 0.0000 18.1988 0.0000 0.0000
# 5 0.0000 0.0000 0.0000 0.0000 16.7505 0.0000
# 6 0.0000 0.0000 0.0000 0.0000 0.0000 25.4134
#
#
#
# Elastic Compliance Matrix: (Units=1/GPa)
#
#
# Indices 1 2 3 4 5 6 
#
# 1 0.016758 -0.000556 -0.003798 0.000000 0.000000 0.000000
# 2 -0.000556 0.011402 -0.002772 0.000000 0.000000 0.000000
# 3 -0.003798 -0.002772 0.017615 0.000000 0.000000 0.000000
# 4 0.000000 0.000000 0.000000 0.054949 0.000000 0.000000
# 5 0.000000 0.000000 0.000000 0.000000 0.059700 0.000000
# 6 0.000000 0.000000 0.000000 0.000000 0.000000 0.039349
#
#
# Mechanical properties :
#
#
# Convention : Reuss Voigt Hill
#
# Bulk Modulus (GPa) = 31.72368 32.44476 32.08422
# Shear Modulus (GPa) = 22.26855 24.09437 23.18146
#
# Velocity S-wave (km/s) = 3.37886 3.51465 3.44743
# Velocity P-wave (km/s) = 5.61128 5.75363 5.68290
#
# Compressibility (1/GPa) = 0.03152219
#
# Stress axis : x y z
#
# Youngs Moduli (GPa) = 59.67291 87.70524 56.77103
#
# Poissons Ratio (x) = 0.04874 0.21564
# Poissons Ratio (y) = 0.03316 0.15737
# Poissons Ratio (z) = 0.22666 0.24313
#
# Static dielectric constant tensor:
#      x y z
#    x 3.619710 0.000000 0.000000 
#    y 0.000000 3.608970 0.000000 
#    z 0.000000 0.000000 3.527200 
# 
# 
# High freq. dielectric constant tensor:
#      x y z
#    x 1.755030 0.000000 0.000000 
#    y 0.000000 1.763840 0.000000 
#    z 0.000000 0.000000 1.761940 
# 
# From -- ./inp_files/5586.got.cif
#   From: 2010.03.12/outbox.cif.g09.slc.cpg/sg55_3_cif.got.tgz:5586.got - 2010.04.16 15:19:21.
