data_PCOD8227581
_publ_section_title
;
Structure prediction by ZEFSAII (Michael W. Deem and Ramdas Pophale) SiO2 
 PCOD8227581
Probable space group: P B A M
;
_chemical_formula_sum "Si O2"
_cell_formula_units_Z 48
_cell_length_a 18.461649
_cell_length_b 14.651664
_cell_length_c 8.555493
_cell_angle_alpha 90.000000
_cell_angle_beta 90.000000
_cell_angle_gamma 90.000000
_cell_volume 2314.208480
_symmetry_space_group_name_H-M "P B A M"
_symmetry_group_IT_number 55
_symmetry_cell_setting 'orthorhombic'
loop_
_space_group_symop_operation_xyz
x,y,z
-x,-y,z
1/2+x,1/2-y,-z
1/2-x,1/2+y,-z
-x,-y,-z
x,y,-z
1/2-x,1/2+y,z
1/2+x,1/2-y,z
loop_
_atom_site_type_symbol
_atom_site_label
_atom_site_fract_x
_atom_site_fract_y
_atom_site_fract_z
Si Si1 0.760963 0.711763 0.181177
Si Si2 0.567565 0.438257 0.182035
Si Si3 0.811446 0.400940 0.819214
Si Si4 0.534200 0.903836 0.318453
Si Si5 0.295716 0.465881 0.680071
Si Si6 0.413409 0.757294 0.318739
O O1 0.732104 0.810725 0.228060
O O2 0.714920 0.640163 0.281664
O O3 0.845788 0.708057 0.218425
O O4 0.748614 0.689661 0.000000
O O5 0.500000 0.500000 0.233978
O O6 0.641156 0.492426 0.214294
O O7 0.563893 0.345540 0.279704
O O8 0.564196 0.413204 0.000000
O O9 0.895303 0.386589 0.784273
O O10 0.779812 0.483497 0.716785
O O11 0.800409 0.424867 0.000000
O O12 0.555628 0.903490 0.500000
O O13 0.479677 0.822809 0.276351
O O14 0.500000 0.000000 0.269501
O O15 0.316836 0.477640 0.500000
O O16 0.392320 0.764459 0.500000
#
# Coordination Sequence:
#
# PCOD8227581 Si02
#       6
#     8   8   8   8   8   8
#     4  11  24  42  66  95 130 170 214 263 322 387
#     4  11  25  44  65  91 129 174 218 267 325 388
#     4  11  24  42  66  96 129 168 214 263 320 385
#     4  10  23  42  64  94 131 169 212 263 320 382
#     4  12  25  42  68  96 129 168 215 271 325 382
#     4  11  23  41  67  99 132 170 216 266 323 383
#
# _framework density 20.741434000000002
#
# number of rings (size 3 to 8) (size 9 to 14) (size 15 to 20)
#    0.000    1.000    1.667    4.500    2.333    6.333 
#    0.000    0.000    0.000    0.000    0.000    0.000 
#    0.000    0.000    0.000    0.000    0.000    0.000 
#
# Total GULP energy -595649.303128 kJ/mol
# GULP energy per Si atom -12409.360482 kJ/mol
# Density = 2.069423 g / cm^3
# Si number density = 20.741434 Si / 1000 Ang^3
#
#
#
# Elastic Constant Matrix: (Units=GPa)
#
#
# Indices 1 2 3 4 5 6 
#
# 1 101.1743 23.4959 18.5507 0.0000 0.0000 0.0000
# 2 23.4959 78.6648 28.5224 0.0000 0.0000 0.0000
# 3 18.5507 28.5224 54.9523 0.0000 0.0000 0.0000
# 4 0.0000 0.0000 0.0000 32.4927 0.0000 0.0000
# 5 0.0000 0.0000 0.0000 0.0000 32.2320 0.0000
# 6 0.0000 0.0000 0.0000 0.0000 0.0000 38.7288
#
#
#
# Elastic Compliance Matrix: (Units=1/GPa)
#
#
# Indices 1 2 3 4 5 6 
#
# 1 0.010881 -0.002363 -0.002447 0.000000 0.000000 0.000000
# 2 -0.002363 0.016172 -0.007596 0.000000 0.000000 0.000000
# 3 -0.002447 -0.007596 0.022966 0.000000 0.000000 0.000000
# 4 0.000000 0.000000 0.000000 0.030776 0.000000 0.000000
# 5 0.000000 0.000000 0.000000 0.000000 0.031025 0.000000
# 6 0.000000 0.000000 0.000000 0.000000 0.000000 0.025821
#
#
# Mechanical properties :
#
#
# Convention : Reuss Voigt Hill
#
# Bulk Modulus (GPa) = 39.67035 41.76993 40.72014
# Shear Modulus (GPa) = 29.26431 31.63885 30.45158
#
# Velocity S-wave (km/s) = 3.76028 3.90987 3.83580
# Velocity P-wave (km/s) = 6.16609 6.36905 6.26839
#
# Compressibility (1/GPa) = 0.02520774
#
# Stress axis : x y z
#
# Youngs Moduli (GPa) = 91.90063 61.83441 43.54181
#
# Poissons Ratio (x) = 0.14611 0.10654
# Poissons Ratio (y) = 0.21715 0.33076
# Poissons Ratio (z) = 0.22487 0.46972
#
# Static dielectric constant tensor:
#      x y z
#    x 3.741680 0.000000 0.000000 
#    y 0.000000 3.854970 0.000000 
#    z 0.000000 0.000000 3.697760 
# 
# 
# High freq. dielectric constant tensor:
#      x y z
#    x 1.819470 0.000000 0.000000 
#    y 0.000000 1.826330 0.000000 
#    z 0.000000 0.000000 1.816180 
# 
# From -- ./inp_files/7420.got.cif
#   From: 2010.03.12/outbox.cif.g09.slc.cpg/sg55_4_cif.got.tgz:7420.got - 2010.04.16 15:19:21.
