data_PCOD8227238
_publ_section_title
;
Structure prediction by ZEFSAII (Michael W. Deem and Ramdas Pophale) SiO2 
 PCOD8227238
Probable space group: P B A M
;
_chemical_formula_sum "Si O2"
_cell_formula_units_Z 32
_cell_length_a 18.234618
_cell_length_b 9.785940
_cell_length_c 8.532871
_cell_angle_alpha 90.000000
_cell_angle_beta 90.000000
_cell_angle_gamma 90.000000
_cell_volume 1522.630056
_symmetry_space_group_name_H-M "P B A M"
_symmetry_group_IT_number 55
_symmetry_cell_setting 'orthorhombic'
loop_
_space_group_symop_operation_xyz
x,y,z
-x,-y,z
1/2+x,1/2-y,-z
1/2-x,1/2+y,-z
-x,-y,-z
x,y,-z
1/2-x,1/2+y,z
1/2+x,1/2-y,z
loop_
_atom_site_type_symbol
_atom_site_label
_atom_site_fract_x
_atom_site_fract_y
_atom_site_fract_z
Si Si1 0.679313 0.207139 0.182313
Si Si2 0.975009 0.647152 0.682181
Si Si3 0.436633 0.406177 0.317939
Si Si4 0.282757 0.510072 0.315316
O O1 0.593433 0.203023 0.221252
O O2 0.718829 0.329616 0.275572
O O3 0.714822 0.063598 0.232166
O O4 0.689976 0.233561 0.000000
O O5 0.952302 0.641238 0.500000
O O6 0.000000 0.500000 0.745033
O O7 0.043963 0.747691 0.709248
O O8 0.500000 0.500000 0.239989
O O9 0.432032 0.444706 0.500000
O O10 0.357405 0.441930 0.246008
O O11 0.274199 0.490160 0.500000
#
# Coordination Sequence:
#
# PCOD8227238 Si02
#       4
#     8   8   8   8
#     4  12  26  43  61  93 135 169 206 264 330 382
#     4  10  21  39  65  94 123 162 216 267 312 374
#     4   9  17  35  63  93 117 148 206 269 307 355
#     4  11  23  42  68  92 122 170 220 262 312 382
#
# _framework density 21.016266999999999
#
# number of rings (size 3 to 8) (size 9 to 14) (size 15 to 20)
#    0.000    1.500    2.500    3.000    3.500    0.500 
#    0.000    3.750    0.000    0.000    0.000    0.000 
#    0.000    0.000    0.000    0.000    0.000    0.000 
#
# Total GULP energy -396936.195882 kJ/mol
# GULP energy per Si atom -12404.256121 kJ/mol
# Density = 2.096843 g / cm^3
# Si number density = 21.016267 Si / 1000 Ang^3
#
#
#
# Elastic Constant Matrix: (Units=GPa)
#
#
# Indices 1 2 3 4 5 6 
#
# 1 53.3295 7.1129 21.5481 0.0000 0.0000 0.0000
# 2 7.1129 110.1245 9.4352 0.0000 0.0000 0.0000
# 3 21.5481 9.4352 62.0819 0.0000 0.0000 0.0000
# 4 0.0000 0.0000 0.0000 21.8749 0.0000 0.0000
# 5 0.0000 0.0000 0.0000 0.0000 19.0583 0.0000
# 6 0.0000 0.0000 0.0000 0.0000 0.0000 42.0545
#
#
#
# Elastic Compliance Matrix: (Units=1/GPa)
#
#
# Indices 1 2 3 4 5 6 
#
# 1 0.021875 -0.000772 -0.007475 0.000000 0.000000 0.000000
# 2 -0.000772 0.009228 -0.001134 0.000000 0.000000 0.000000
# 3 -0.007475 -0.001134 0.018875 0.000000 0.000000 0.000000
# 4 0.000000 0.000000 0.000000 0.045714 0.000000 0.000000
# 5 0.000000 0.000000 0.000000 0.000000 0.052471 0.000000
# 6 0.000000 0.000000 0.000000 0.000000 0.000000 0.023779
#
#
# Mechanical properties :
#
#
# Convention : Reuss Voigt Hill
#
# Bulk Modulus (GPa) = 32.03754 33.52536 32.78145
# Shear Modulus (GPa) = 24.86212 29.09351 26.97782
#
# Velocity S-wave (km/s) = 3.44320 3.72470 3.58671
# Velocity P-wave (km/s) = 5.57537 5.87236 5.72579
#
# Compressibility (1/GPa) = 0.03121338
#
# Stress axis : x y z
#
# Youngs Moduli (GPa) = 45.71481 108.36932 52.98096
#
# Poissons Ratio (x) = 0.08371 0.39604
# Poissons Ratio (y) = 0.03531 0.06010
# Poissons Ratio (z) = 0.34172 0.12293
#
# Static dielectric constant tensor:
#      x y z
#    x 3.867690 0.000000 0.000000 
#    y 0.000000 3.849160 0.000000 
#    z 0.000000 0.000000 3.419740 
# 
# 
# High freq. dielectric constant tensor:
#      x y z
#    x 1.826020 0.000000 0.000000 
#    y 0.000000 1.836470 0.000000 
#    z 0.000000 0.000000 1.787490 
# 
# From -- ./inp_files/2010.got.cif
#   From: 2010.03.12/outbox.cif.g09.slc.cpg/sg55_2_cif.got.tgz:2010.got - 2010.04.16 15:19:21.
