data_PCOD8227858
_publ_section_title
;
Structure prediction by ZEFSAII (Michael W. Deem and Ramdas Pophale) SiO2 
 PCOD8227858
Probable space group: P C C N
;
_chemical_formula_sum "Si O2"
_cell_formula_units_Z 48
_cell_length_a 24.401080
_cell_length_b 16.943330
_cell_length_c 5.331527
_cell_angle_alpha 90.000000
_cell_angle_beta 90.000000
_cell_angle_gamma 90.000000
_cell_volume 2204.242802
_symmetry_space_group_name_H-M "P C C N"
_symmetry_group_IT_number 56
_symmetry_cell_setting 'orthorhombic'
loop_
_space_group_symop_operation_xyz
x,y,z
1/2-x,1/2-y,z
1/2+x,-y,1/2-z
-x,1/2+y,1/2-z
-x,-y,-z
1/2+x,1/2+y,-z
1/2-x,y,1/2+z
x,1/2-y,1/2+z
loop_
_atom_site_type_symbol
_atom_site_label
_atom_site_fract_x
_atom_site_fract_y
_atom_site_fract_z
Si Si1 0.449228 0.285953 0.500009
Si Si2 0.724202 0.581676 0.499691
Si Si3 0.899862 0.949355 0.499799
Si Si4 0.270182 0.906861 0.500153
Si Si5 0.928836 0.219942 0.999965
Si Si6 0.396410 0.549318 0.000163
O O1 0.420688 0.250005 0.750017
O O2 0.444863 0.380481 0.499978
O O3 0.512782 0.263124 0.500041
O O4 0.750010 0.621592 0.749669
O O5 0.659165 0.592817 0.499750
O O6 0.736998 0.489016 0.499598
O O7 0.908703 0.000181 0.750047
O O8 0.908759 0.000078 0.249370
O O9 0.249963 0.860420 0.250216
O O10 0.334599 0.919805 0.499920
O O11 0.896797 0.250016 0.749985
O O12 0.935689 0.125534 0.999896
#
# Coordination Sequence:
#
# PCOD8227858 Si02
#       6
#     8   8   8   8   8   8
#     4  10  23  45  62  81 125 171 191 247 322 362
#     4  10  16  30  51  89 126 146 177 253 311 331
#     4  12  21  35  65  99 113 155 213 254 288 360
#     4  10  16  30  51  89 126 146 177 253 311 331
#     4  10  23  45  62  81 125 171 191 247 322 362
#     4  12  21  35  65  99 113 155 213 254 288 360
#
# _framework density 21.776185000000002
#
# number of rings (size 3 to 8) (size 9 to 14) (size 15 to 20)
#    0.000    1.333    6.667    2.000    0.000    0.000 
#    0.000   20.000    0.000    6.000    0.000    0.000 
#    0.000    0.000    0.000    0.000    0.000    0.000 
#
# Total GULP energy -594936.574428 kJ/mol
# GULP energy per Si atom -12394.511967 kJ/mol
# Density = 2.172662 g / cm^3
# Si number density = 21.776185 Si / 1000 Ang^3
#
#
#
# Elastic Constant Matrix: (Units=GPa)
#
#
# Indices 1 2 3 4 5 6 
#
# 1 62.3390 31.4317 14.2488 0.0000 0.0000 0.0000
# 2 31.4317 104.3916 69.0908 0.0000 0.0000 0.0000
# 3 14.2488 69.0908 278.3513 0.0000 0.0000 0.0000
# 4 0.0000 0.0000 0.0000 20.6480 0.0000 0.0000
# 5 0.0000 0.0000 0.0000 0.0000 8.2581 0.0000
# 6 0.0000 0.0000 0.0000 0.0000 0.0000 7.7649
#
#
#
# Elastic Compliance Matrix: (Units=1/GPa)
#
#
# Indices 1 2 3 4 5 6 
#
# 1 0.018979 -0.006068 0.000535 0.000000 0.000000 0.000000
# 2 -0.006068 0.013403 -0.003016 0.000000 0.000000 0.000000
# 3 0.000535 -0.003016 0.004314 0.000000 0.000000 0.000000
# 4 0.000000 0.000000 0.000000 0.048431 0.000000 0.000000
# 5 0.000000 0.000000 0.000000 0.000000 0.121093 0.000000
# 6 0.000000 0.000000 0.000000 0.000000 0.000000 0.128785
#
#
# Mechanical properties :
#
#
# Convention : Reuss Voigt Hill
#
# Bulk Modulus (GPa) = 51.03107 74.95827 62.99467
# Shear Modulus (GPa) = 13.94172 29.35491 21.64832
#
# Velocity S-wave (km/s) = 2.53302 3.67553 3.15640
# Velocity P-wave (km/s) = 5.66040 7.24635 6.50191
#
# Compressibility (1/GPa) = 0.01959591
#
# Stress axis : x y z
#
# Youngs Moduli (GPa) = 52.69045 74.61238 231.81175
#
# Poissons Ratio (x) = 0.45277 -0.12395
# Poissons Ratio (y) = 0.31974 0.69916
# Poissons Ratio (z) = -0.02817 0.22504
#
# Static dielectric constant tensor:
#      x y z
#    x 3.605590 0.000000 0.000000 
#    y 0.000000 3.537670 0.000000 
#    z 0.000000 0.000000 7.514900 
# 
# 
# High freq. dielectric constant tensor:
#      x y z
#    x 1.827800 0.000000 0.000000 
#    y 0.000000 1.809100 0.000000 
#    z 0.000000 0.000000 1.905150 
# 
# From -- ./inp_files/1063.got.cif
#   From: 2010.03.12/outbox.cif.g09.slc.cpg/sg56_1_cif.got.tgz:1063.got - 2010.04.16 15:33:40.
