data_PCOD8227180
_publ_section_title
;
Structure prediction by ZEFSAII (Michael W. Deem and Ramdas Pophale) SiO2 
 PCOD8227180
Probable space group: P B A M
;
_chemical_formula_sum "Si O2"
_cell_formula_units_Z 40
_cell_length_a 4.970590
_cell_length_b 25.499409
_cell_length_c 14.122090
_cell_angle_alpha 90.000000
_cell_angle_beta 90.000000
_cell_angle_gamma 90.000000
_cell_volume 1789.934058
_symmetry_space_group_name_H-M "P B A M"
_symmetry_group_IT_number 55
_symmetry_cell_setting 'orthorhombic'
loop_
_space_group_symop_operation_xyz
x,y,z
-x,-y,z
1/2+x,1/2-y,-z
1/2-x,1/2+y,-z
-x,-y,-z
x,y,-z
1/2-x,1/2+y,z
1/2+x,1/2-y,z
loop_
_atom_site_type_symbol
_atom_site_label
_atom_site_fract_x
_atom_site_fract_y
_atom_site_fract_z
Si Si1 0.949228 0.213662 0.302559
Si Si2 0.944205 0.784426 0.899225
Si Si3 0.751756 0.963729 0.897708
Si Si4 0.414050 0.392744 0.391918
Si Si5 0.410761 0.060240 0.297115
O O1 0.156947 0.261189 0.316301
O O2 0.985278 0.185458 0.198425
O O3 0.996617 0.168055 0.378875
O O4 0.633115 0.767393 0.897271
O O5 0.998119 0.815068 0.000000
O O6 0.686371 0.924635 0.810247
O O7 0.500000 0.000000 0.914365
O O8 0.810391 0.935072 0.000000
O O9 0.000000 0.000000 0.866602
O O10 0.331866 0.403157 0.500000
O O11 0.663164 0.430424 0.367686
O O12 0.159499 0.403288 0.324765
O O13 0.500000 0.000000 0.303488
#
# Coordination Sequence:
#
# PCOD8227180 Si02
#       5
#     8   8   8   8   8
#     4  10  21  39  61  84 116 155 195 247 307 361
#     4   8  14  27  50  78 107 142 181 225 284 350
#     4   9  17  33  60  90 120 157 196 238 296 362
#     4  12  26  41  61  90 120 158 213 262 302 359
#     4  11  23  42  64  89 124 161 199 250 309 366
#
# _framework density 22.347193000000001
#
# number of rings (size 3 to 8) (size 9 to 14) (size 15 to 20)
#    0.000    2.000    0.000    4.800    0.000    3.200 
#    0.000    2.000    0.000    2.400    0.000    0.000 
#    0.000    0.000    0.000    0.000    0.000    0.000 
#
# Total GULP energy -495582.127673 kJ/mol
# GULP energy per Si atom -12389.553192 kJ/mol
# Density = 2.229633 g / cm^3
# Si number density = 22.347193 Si / 1000 Ang^3
#
#
#
# Elastic Constant Matrix: (Units=GPa)
#
#
# Indices 1 2 3 4 5 6 
#
# 1 124.5939 19.4655 36.3916 0.0000 0.0000 0.0000
# 2 19.4655 56.5673 46.4789 0.0000 0.0000 0.0000
# 3 36.3916 46.4789 143.9170 0.0000 0.0000 0.0000
# 4 0.0000 0.0000 0.0000 17.3863 0.0000 0.0000
# 5 0.0000 0.0000 0.0000 0.0000 30.5802 0.0000
# 6 0.0000 0.0000 0.0000 0.0000 0.0000 26.9423
#
#
#
# Elastic Compliance Matrix: (Units=1/GPa)
#
#
# Indices 1 2 3 4 5 6 
#
# 1 0.008775 -0.001629 -0.001693 0.000000 0.000000 0.000000
# 2 -0.001629 0.024366 -0.007457 0.000000 0.000000 0.000000
# 3 -0.001693 -0.007457 0.009785 0.000000 0.000000 0.000000
# 4 0.000000 0.000000 0.000000 0.057517 0.000000 0.000000
# 5 0.000000 0.000000 0.000000 0.000000 0.032701 0.000000
# 6 0.000000 0.000000 0.000000 0.000000 0.000000 0.037116
#
#
# Mechanical properties :
#
#
# Convention : Reuss Voigt Hill
#
# Bulk Modulus (GPa) = 46.79870 58.86114 52.82992
# Shear Modulus (GPa) = 25.13323 29.83124 27.48224
#
# Velocity S-wave (km/s) = 3.35725 3.65759 3.51063
# Velocity P-wave (km/s) = 6.00127 6.65085 6.33440
#
# Compressibility (1/GPa) = 0.02136811
#
# Stress axis : x y z
#
# Youngs Moduli (GPa) = 113.96034 41.04121 102.19833
#
# Poissons Ratio (x) = 0.06684 0.17301
# Poissons Ratio (y) = 0.18559 0.76212
# Poissons Ratio (z) = 0.19293 0.30605
#
# Static dielectric constant tensor:
#      x y z
#    x 4.114050 0.000000 0.000000 
#    y 0.000000 3.335110 0.000000 
#    z 0.000000 0.000000 4.623680 
# 
# 
# High freq. dielectric constant tensor:
#      x y z
#    x 1.901730 0.000000 0.000000 
#    y 0.000000 1.817790 0.000000 
#    z 0.000000 0.000000 1.899010 
# 
# From -- ./inp_files/16550.got.cif
#   From: 2010.03.12/outbox.cif.g09.slc.cpg/sg55_9_cif.got.tgz:16550.got - 2010.04.16 15:19:21.
