data_PCOD8227485
_publ_section_title
;
Structure prediction by ZEFSAII (Michael W. Deem and Ramdas Pophale) SiO2 
 PCOD8227485
Probable space group: P B A M
;
_chemical_formula_sum "Si O2"
_cell_formula_units_Z 48
_cell_length_a 17.157579
_cell_length_b 9.118829
_cell_length_c 14.239111
_cell_angle_alpha 90.000000
_cell_angle_beta 90.000000
_cell_angle_gamma 90.000000
_cell_volume 2227.809002
_symmetry_space_group_name_H-M "P B A M"
_symmetry_group_IT_number 55
_symmetry_cell_setting 'orthorhombic'
loop_
_space_group_symop_operation_xyz
x,y,z
-x,-y,z
1/2+x,1/2-y,-z
1/2-x,1/2+y,-z
-x,-y,-z
x,y,-z
1/2-x,1/2+y,z
1/2+x,1/2-y,z
loop_
_atom_site_type_symbol
_atom_site_label
_atom_site_fract_x
_atom_site_fract_y
_atom_site_fract_z
Si Si1 0.420166 0.436616 0.893587
Si Si2 0.825661 0.775449 0.107144
Si Si3 0.114758 0.892231 0.606516
Si Si4 0.059665 0.210267 0.392937
Si Si5 0.328622 0.225720 0.227225
Si Si6 0.415562 0.933202 0.231658
O O1 0.500000 0.500000 0.850230
O O2 0.352281 0.556744 0.887912
O O3 0.398318 0.295570 0.833445
O O4 0.435028 0.384878 0.000000
O O5 0.751678 0.755412 0.173150
O O6 0.894333 0.669130 0.143005
O O7 0.804476 0.732217 0.000000
O O8 0.145219 0.880186 0.500000
O O9 0.177146 0.812580 0.673830
O O10 0.032500 0.810863 0.617589
O O11 0.105293 0.062067 0.636191
O O12 0.079893 0.251672 0.500000
O O13 0.087447 0.341596 0.327624
O O14 0.349620 0.056956 0.243342
O O15 0.500000 0.000000 0.212368
#
# Coordination Sequence:
#
# PCOD8227485 Si02
#       6
#     8   8   8   8   8   8
#     4  10  22  41  65  89 118 168 224 265 306 381
#     4  11  26  46  64  89 129 173 215 263 332 399
#     4   9  19  37  65  96 130 175 220 260 309 382
#     4   9  19  38  64  96 132 170 216 265 317 377
#     4  12  23  37  64  93 131 171 211 265 328 388
#     4  12  24  39  64 102 134 163 213 277 335 376
#
# _framework density 21.545832999999998
#
# number of rings (size 3 to 8) (size 9 to 14) (size 15 to 20)
#    0.000    1.500    1.667    4.500    2.333    4.000 
#    0.000    0.833    0.000    3.000    0.000    0.000 
#    0.000    0.000    0.000    0.000    0.000    0.000 
#
# Total GULP energy -595448.433130 kJ/mol
# GULP energy per Si atom -12405.175690 kJ/mol
# Density = 2.149679 g / cm^3
# Si number density = 21.545833 Si / 1000 Ang^3
#
#
#
# Elastic Constant Matrix: (Units=GPa)
#
#
# Indices 1 2 3 4 5 6 
#
# 1 68.4487 25.6612 46.8372 0.0000 0.0000 0.0000
# 2 25.6612 113.9607 63.1475 0.0000 0.0000 0.0000
# 3 46.8372 63.1475 136.8529 0.0000 0.0000 0.0000
# 4 0.0000 0.0000 0.0000 27.3268 0.0000 0.0000
# 5 0.0000 0.0000 0.0000 0.0000 36.1289 0.0000
# 6 0.0000 0.0000 0.0000 0.0000 0.0000 29.0625
#
#
#
# Elastic Compliance Matrix: (Units=1/GPa)
#
#
# Indices 1 2 3 4 5 6 
#
# 1 0.019148 -0.000914 -0.006131 0.000000 0.000000 0.000000
# 2 -0.000914 0.011833 -0.005147 0.000000 0.000000 0.000000
# 3 -0.006131 -0.005147 0.011781 0.000000 0.000000 0.000000
# 4 0.000000 0.000000 0.000000 0.036594 0.000000 0.000000
# 5 0.000000 0.000000 0.000000 0.000000 0.027679 0.000000
# 6 0.000000 0.000000 0.000000 0.000000 0.000000 0.034409
#
#
# Mechanical properties :
#
#
# Convention : Reuss Voigt Hill
#
# Bulk Modulus (GPa) = 54.41921 65.61711 60.01816
# Shear Modulus (GPa) = 29.07766 30.74473 29.91119
#
# Velocity S-wave (km/s) = 3.67764 3.78159 3.72998
# Velocity P-wave (km/s) = 6.58374 7.04188 6.81666
#
# Compressibility (1/GPa) = 0.01837587
#
# Stress axis : x y z
#
# Youngs Moduli (GPa) = 52.22558 84.51000 84.88528
#
# Poissons Ratio (x) = 0.07725 0.52047
# Poissons Ratio (y) = 0.04774 0.43692
# Poissons Ratio (z) = 0.32022 0.43499
#
# Static dielectric constant tensor:
#      x y z
#    x 3.627900 0.000000 0.000000 
#    y 0.000000 3.954260 0.000000 
#    z 0.000000 0.000000 4.059230 
# 
# 
# High freq. dielectric constant tensor:
#      x y z
#    x 1.829030 0.000000 0.000000 
#    y 0.000000 1.850050 0.000000 
#    z 0.000000 0.000000 1.857900 
# 
# From -- ./inp_files/19339.got.cif
#   From: 2010.03.12/outbox.cif.g09.slc.cpg/sg55_10_cif.got.tgz:19339.got - 2010.04.16 15:19:21.
