data_PCOD8227389
_publ_section_title
;
Structure prediction by ZEFSAII (Michael W. Deem and Ramdas Pophale) SiO2 
 PCOD8227389
Probable space group: P B A M
;
_chemical_formula_sum "Si O2"
_cell_formula_units_Z 48
_cell_length_a 16.453309
_cell_length_b 9.605980
_cell_length_c 14.295862
_cell_angle_alpha 90.000000
_cell_angle_beta 90.000000
_cell_angle_gamma 90.000000
_cell_volume 2259.463236
_symmetry_space_group_name_H-M "P B A M"
_symmetry_group_IT_number 55
_symmetry_cell_setting 'orthorhombic'
loop_
_space_group_symop_operation_xyz
x,y,z
-x,-y,z
1/2+x,1/2-y,-z
1/2-x,1/2+y,-z
-x,-y,-z
x,y,-z
1/2-x,1/2+y,z
1/2+x,1/2-y,z
loop_
_atom_site_type_symbol
_atom_site_label
_atom_site_fract_x
_atom_site_fract_y
_atom_site_fract_z
Si Si1 0.366504 0.481205 0.696685
Si Si2 0.591484 0.669153 0.000000
Si Si3 0.402234 0.736836 0.806073
Si Si4 0.182932 0.391603 0.500000
Si Si5 0.676233 0.032541 0.299280
Si Si6 0.398983 0.641316 0.000000
Si Si7 0.914122 0.288283 0.199337
Si Si8 0.154460 0.060707 0.500000
O O1 0.413501 0.579804 0.769046
O O2 0.270063 0.508864 0.701811
O O3 0.389093 0.324972 0.723179
O O4 0.397446 0.524624 0.592876
O O5 0.617598 0.751385 0.094481
O O6 0.496076 0.642926 0.000000
O O7 0.634176 0.517395 0.000000
O O8 0.334629 0.815327 0.745666
O O9 0.366992 0.725940 0.910735
O O10 0.489308 0.812113 0.802277
O O11 0.141519 0.454808 0.594037
O O12 0.183047 0.222541 0.500000
O O13 0.274623 0.445472 0.500000
O O14 0.625556 0.929806 0.234325
#
# Coordination Sequence:
#
# PCOD8227389 Si02
#       8
#     8   4   8   4   8   4   8   4
#     4  11  22  40  64  88 119 160 207 247 296 366
#     4   9  18  37  60  88 119 160 210 238 297 376
#     4  11  21  41  63  90 121 159 207 248 304 361
#     4  10  22  40  63  87 122 168 202 243 302 376
#     4  11  24  40  61  91 127 156 200 255 309 358
#     4   9  18  35  64  86 117 166 202 244 295 374
#     4  11  23  39  64  91 120 164 202 251 303 361
#     4  10  22  38  63  89 122 162 208 243 296 378
#
# _framework density 21.243983
#
# number of rings (size 3 to 8) (size 9 to 14) (size 15 to 20)
#    0.000    1.500    3.333    2.000    7.000    0.667 
#    0.000   12.500    0.000    0.000    0.000    0.000 
#    0.000    0.000    0.000    0.000    0.000    0.000 
#
# Total GULP energy -595069.583355 kJ/mol
# GULP energy per Si atom -12397.282987 kJ/mol
# Density = 2.119563 g / cm^3
# Si number density = 21.243983 Si / 1000 Ang^3
#
#
#
# Elastic Constant Matrix: (Units=GPa)
#
#
# Indices 1 2 3 4 5 6 
#
# 1 28.1416 3.3019 21.9551 0.0000 0.0000 0.0000
# 2 3.3019 78.4590 40.7010 0.0000 0.0000 0.0000
# 3 21.9551 40.7010 189.7167 0.0000 0.0000 0.0000
# 4 0.0000 0.0000 0.0000 41.6555 0.0000 0.0000
# 5 0.0000 0.0000 0.0000 0.0000 23.4508 0.0000
# 6 0.0000 0.0000 0.0000 0.0000 0.0000 36.8201
#
#
#
# Elastic Compliance Matrix: (Units=1/GPa)
#
#
# Indices 1 2 3 4 5 6 
#
# 1 0.039105 0.000790 -0.004695 0.000000 0.000000 0.000000
# 2 0.000790 0.014358 -0.003172 0.000000 0.000000 0.000000
# 3 -0.004695 -0.003172 0.006495 0.000000 0.000000 0.000000
# 4 0.000000 0.000000 0.000000 0.024006 0.000000 0.000000
# 5 0.000000 0.000000 0.000000 0.000000 0.042642 0.000000
# 6 0.000000 0.000000 0.000000 0.000000 0.000000 0.027159
#
#
# Mechanical properties :
#
#
# Convention : Reuss Voigt Hill
#
# Bulk Modulus (GPa) = 21.83235 47.58147 34.70691
# Shear Modulus (GPa) = 27.29464 35.74256 31.51860
#
# Velocity S-wave (km/s) = 3.58832 4.10625 3.85599
# Velocity P-wave (km/s) = 5.24093 6.70284 6.01645
#
# Compressibility (1/GPa) = 0.04580359
#
# Stress axis : x y z
#
# Youngs Moduli (GPa) = 25.57242 69.64972 153.97055
#
# Poissons Ratio (x) = -0.05501 0.72287
# Poissons Ratio (y) = -0.02020 0.48833
# Poissons Ratio (z) = 0.12006 0.22090
#
# Static dielectric constant tensor:
#      x y z
#    x 3.381370 0.000000 0.000000 
#    y 0.000000 3.703260 0.000000 
#    z 0.000000 0.000000 4.434670 
# 
# 
# High freq. dielectric constant tensor:
#      x y z
#    x 1.793310 0.000000 0.000000 
#    y 0.000000 1.836960 0.000000 
#    z 0.000000 0.000000 1.857710 
# 
# From -- ./inp_files/19420.got.cif
#   From: 2010.03.12/outbox.cif.g09.slc.cpg/sg55_10_cif.got.tgz:19420.got - 2010.04.16 15:19:21.
