data_PCOD8227448
_publ_section_title
;
Structure prediction by ZEFSAII (Michael W. Deem and Ramdas Pophale) SiO2 
 PCOD8227448
Probable space group: P B A M
;
_chemical_formula_sum "Si O2"
_cell_formula_units_Z 64
_cell_length_a 9.155224
_cell_length_b 17.355526
_cell_length_c 19.415643
_cell_angle_alpha 90.000000
_cell_angle_beta 90.000000
_cell_angle_gamma 90.000000
_cell_volume 3085.023901
_symmetry_space_group_name_H-M "P B A M"
_symmetry_group_IT_number 55
_symmetry_cell_setting 'orthorhombic'
loop_
_space_group_symop_operation_xyz
x,y,z
-x,-y,z
1/2+x,1/2-y,-z
1/2-x,1/2+y,-z
-x,-y,-z
x,y,-z
1/2-x,1/2+y,z
1/2+x,1/2-y,z
loop_
_atom_site_type_symbol
_atom_site_label
_atom_site_fract_x
_atom_site_fract_y
_atom_site_fract_z
Si Si1 0.067561 0.416019 0.166214
Si Si2 0.285017 0.171458 0.158501
Si Si3 0.779250 0.171321 0.078558
Si Si4 0.621841 0.147301 0.311604
Si Si5 0.563062 0.420586 0.922184
Si Si6 0.205628 0.703413 0.688549
Si Si7 0.382802 0.608750 0.579128
Si Si8 0.205787 0.935485 0.421300
O O1 0.195711 0.402021 0.111139
O O2 0.123554 0.406703 0.244282
O O3 0.000000 0.500000 0.155489
O O4 0.954724 0.347370 0.149799
O O5 0.249559 0.252998 0.123668
O O6 0.199477 0.101760 0.123811
O O7 0.242308 0.168364 0.238751
O O8 0.948819 0.149576 0.080439
O O9 0.727129 0.185794 0.000000
O O10 0.467178 0.190339 0.323174
O O11 0.756632 0.206564 0.307026
O O12 0.657634 0.092604 0.376071
O O13 0.500000 0.500000 0.891732
O O14 0.617319 0.434924 0.000000
O O15 0.299080 0.668561 0.626792
O O16 0.361377 0.634249 0.500000
O O17 0.554680 0.607980 0.597467
O O18 0.313414 0.525629 0.591861
O O19 0.247239 0.918803 0.500000
#
# Coordination Sequence:
#
# PCOD8227448 Si02
#       8
#     8   8   8   8   8   8   8   8
#     4  11  25  42  63  92 131 168 209 271 323 388
#     4  11  23  40  60  91 125 164 212 254 317 381
#     4  11  23  41  67  92 122 167 209 256 317 381
#     4  11  24  40  63  90 132 166 218 265 324 384
#     4  10  22  40  62  90 122 156 205 261 309 371
#     4  11  24  39  60  91 122 170 207 264 320 378
#     4   9  20  41  66  95 129 166 214 260 319 384
#     4   9  20  40  66  94 127 168 210 263 316 382
#
# _framework density 20.745381999999999
#
# number of rings (size 3 to 8) (size 9 to 14) (size 15 to 20)
#    0.000    1.625    1.250    3.375    5.250    4.250 
#    2.250    1.250    0.000    0.000    0.000    0.000 
#    0.000    0.000    0.000    0.000    0.000    0.000 
#
# Total GULP energy -793732.799162 kJ/mol
# GULP energy per Si atom -12402.074987 kJ/mol
# Density = 2.069816 g / cm^3
# Si number density = 20.745382 Si / 1000 Ang^3
#
#
#
# Elastic Constant Matrix: (Units=GPa)
#
#
# Indices 1 2 3 4 5 6 
#
# 1 68.3027 24.6486 54.7280 0.0000 0.0000 0.0000
# 2 24.6486 75.2835 37.0617 0.0000 0.0000 0.0000
# 3 54.7280 37.0617 118.9271 0.0000 0.0000 0.0000
# 4 0.0000 0.0000 0.0000 36.9460 0.0000 0.0000
# 5 0.0000 0.0000 0.0000 0.0000 30.3636 0.0000
# 6 0.0000 0.0000 0.0000 0.0000 0.0000 35.6995
#
#
#
# Elastic Compliance Matrix: (Units=1/GPa)
#
#
# Indices 1 2 3 4 5 6 
#
# 1 0.023689 -0.002822 -0.010022 0.000000 0.000000 0.000000
# 2 -0.002822 0.016027 -0.003696 0.000000 0.000000 0.000000
# 3 -0.010022 -0.003696 0.014172 0.000000 0.000000 0.000000
# 4 0.000000 0.000000 0.000000 0.027067 0.000000 0.000000
# 5 0.000000 0.000000 0.000000 0.000000 0.032934 0.000000
# 6 0.000000 0.000000 0.000000 0.000000 0.000000 0.028012
#
#
# Mechanical properties :
#
#
# Convention : Reuss Voigt Hill
#
# Bulk Modulus (GPa) = 48.05792 55.04331 51.55061
# Shear Modulus (GPa) = 27.48527 30.34018 28.91272
#
# Velocity S-wave (km/s) = 3.64385 3.82842 3.73727
# Velocity P-wave (km/s) = 6.39683 6.79211 6.59743
#
# Compressibility (1/GPa) = 0.02080823
#
# Stress axis : x y z
#
# Youngs Moduli (GPa) = 42.21325 62.39650 70.56164
#
# Poissons Ratio (x) = 0.17611 0.70715
# Poissons Ratio (y) = 0.11914 0.26077
# Poissons Ratio (z) = 0.42305 0.23059
#
# Static dielectric constant tensor:
#      x y z
#    x 3.690980 0.000000 0.000000 
#    y 0.000000 3.622270 0.000000 
#    z 0.000000 0.000000 3.806520 
# 
# 
# High freq. dielectric constant tensor:
#      x y z
#    x 1.811280 0.000000 0.000000 
#    y 0.000000 1.812300 0.000000 
#    z 0.000000 0.000000 1.818000 
# 
# From -- ./inp_files/22706.got.cif
#   From: 2010.03.12/outbox.cif.g09.slc.cpg/sg55_12_cif.got.tgz:22706.got - 2010.04.16 15:19:21.
