data_PCOD8227245
_publ_section_title
;
Structure prediction by ZEFSAII (Michael W. Deem and Ramdas Pophale) SiO2 
 PCOD8227245
Probable space group: P B A M
;
_chemical_formula_sum "Si O2"
_cell_formula_units_Z 64
_cell_length_a 14.618295
_cell_length_b 12.125175
_cell_length_c 17.249884
_cell_angle_alpha 90.000000
_cell_angle_beta 90.000000
_cell_angle_gamma 90.000000
_cell_volume 3057.531332
_symmetry_space_group_name_H-M "P B A M"
_symmetry_group_IT_number 55
_symmetry_cell_setting 'orthorhombic'
loop_
_space_group_symop_operation_xyz
x,y,z
-x,-y,z
1/2+x,1/2-y,-z
1/2-x,1/2+y,-z
-x,-y,-z
x,y,-z
1/2-x,1/2+y,z
1/2+x,1/2-y,z
loop_
_atom_site_type_symbol
_atom_site_label
_atom_site_fract_x
_atom_site_fract_y
_atom_site_fract_z
Si Si1 0.403946 0.531066 0.912493
Si Si2 0.292233 0.976457 0.091941
Si Si3 0.101129 0.262938 0.853391
Si Si4 0.315805 0.274304 0.411715
Si Si5 0.968109 0.379748 0.645962
Si Si6 0.106125 0.008080 0.415049
Si Si7 0.936924 0.398554 0.177437
Si Si8 0.363723 0.723583 0.676818
O O1 0.500000 0.500000 0.868486
O O2 0.313098 0.472857 0.877854
O O3 0.387832 0.661934 0.911422
O O4 0.412986 0.489411 0.000000
O O5 0.340790 0.081854 0.133777
O O6 0.337822 0.862410 0.115787
O O7 0.298193 0.996004 0.000000
O O8 0.136444 0.227249 0.769151
O O9 0.992353 0.291035 0.851195
O O10 0.280617 0.276513 0.500000
O O11 0.388078 0.173504 0.405514
O O12 0.361116 0.389052 0.386608
O O13 0.232110 0.267416 0.353417
O O14 0.923105 0.394435 0.730528
O O15 0.000000 0.500000 0.614121
O O16 0.055202 0.299276 0.643546
O O17 0.148997 0.039154 0.500000
O O18 0.129632 0.097610 0.350463
O O19 0.000000 0.000000 0.425929
O O20 0.000000 0.500000 0.153672
#
# Coordination Sequence:
#
# PCOD8227245 Si02
#       8
#     8   8   8   8   8   8   8   8
#     4  10  23  41  58  87 129 165 204 255 309 372
#     4  10  21  39  66  95 124 168 216 257 308 374
#     4  10  22  39  61  91 123 165 208 260 317 370
#     4  11  25  41  65  95 122 169 219 262 326 387
#     4  10  22  42  64  91 133 166 207 270 325 379
#     4  10  21  42  65  86 122 164 209 263 312 380
#     4   8  18  37  61  89 121 158 205 255 310 368
#     4  11  24  41  63  94 126 167 211 265 323 379
#
# _framework density 20.931919000000001
#
# number of rings (size 3 to 8) (size 9 to 14) (size 15 to 20)
#    0.000    2.000    1.250    1.500    3.500    6.000 
#    2.250    2.500    0.000    0.000    0.000    0.000 
#    0.000    0.000    0.000    0.000    0.000    0.000 
#
# Total GULP energy -793328.950257 kJ/mol
# GULP energy per Si atom -12395.764848 kJ/mol
# Density = 2.088428 g / cm^3
# Si number density = 20.931919 Si / 1000 Ang^3
#
#
#
# Elastic Constant Matrix: (Units=GPa)
#
#
# Indices 1 2 3 4 5 6 
#
# 1 150.1705 47.9999 45.2024 0.0000 0.0000 0.0000
# 2 47.9999 107.4390 31.7855 0.0000 0.0000 0.0000
# 3 45.2024 31.7855 64.0373 0.0000 0.0000 0.0000
# 4 0.0000 0.0000 0.0000 36.1559 0.0000 0.0000
# 5 0.0000 0.0000 0.0000 0.0000 16.3283 0.0000
# 6 0.0000 0.0000 0.0000 0.0000 0.0000 31.4891
#
#
#
# Elastic Compliance Matrix: (Units=1/GPa)
#
#
# Indices 1 2 3 4 5 6 
#
# 1 0.008998 -0.002509 -0.005106 0.000000 0.000000 0.000000
# 2 -0.002509 0.011610 -0.003991 0.000000 0.000000 0.000000
# 3 -0.005106 -0.003991 0.021201 0.000000 0.000000 0.000000
# 4 0.000000 0.000000 0.000000 0.027658 0.000000 0.000000
# 5 0.000000 0.000000 0.000000 0.000000 0.061243 0.000000
# 6 0.000000 0.000000 0.000000 0.000000 0.000000 0.031757
#
#
# Mechanical properties :
#
#
# Convention : Reuss Voigt Hill
#
# Bulk Modulus (GPa) = 53.77603 63.51362 58.64483
# Shear Modulus (GPa) = 26.05811 29.90526 27.98169
#
# Velocity S-wave (km/s) = 3.53214 3.78390 3.66019
# Velocity P-wave (km/s) = 6.51010 7.03558 6.77793
#
# Compressibility (1/GPa) = 0.01859564
#
# Stress axis : x y z
#
# Youngs Moduli (GPa) = 111.13397 86.13635 47.16733
#
# Poissons Ratio (x) = 0.21616 0.24084
# Poissons Ratio (y) = 0.27889 0.18825
# Poissons Ratio (z) = 0.56745 0.34378
#
# Static dielectric constant tensor:
#      x y z
#    x 4.046020 0.000000 0.000000 
#    y 0.000000 3.764670 0.000000 
#    z 0.000000 0.000000 3.642770 
# 
# 
# High freq. dielectric constant tensor:
#      x y z
#    x 1.827890 0.000000 0.000000 
#    y 0.000000 1.821190 0.000000 
#    z 0.000000 0.000000 1.807830 
# 
# From -- ./inp_files/21629.got.cif
#   From: 2010.03.12/outbox.cif.g09.slc.cpg/sg55_11_cif.got.tgz:21629.got - 2010.04.16 15:19:21.
