data_PCOD8227102
_publ_section_title
;
Structure prediction by ZEFSAII (Michael W. Deem and Ramdas Pophale) SiO2 
 PCOD8227102
Probable space group: P B A M
;
_chemical_formula_sum "Si O2"
_cell_formula_units_Z 48
_cell_length_a 8.623262
_cell_length_b 23.121276
_cell_length_c 12.463685
_cell_angle_alpha 90.000000
_cell_angle_beta 90.000000
_cell_angle_gamma 90.000000
_cell_volume 2485.019745
_symmetry_space_group_name_H-M "P B A M"
_symmetry_group_IT_number 55
_symmetry_cell_setting 'orthorhombic'
loop_
_space_group_symop_operation_xyz
x,y,z
-x,-y,z
1/2+x,1/2-y,-z
1/2-x,1/2+y,-z
-x,-y,-z
x,y,-z
1/2-x,1/2+y,z
1/2+x,1/2-y,z
loop_
_atom_site_type_symbol
_atom_site_label
_atom_site_fract_x
_atom_site_fract_y
_atom_site_fract_z
Si Si1 0.727477 0.826288 0.500000
Si Si2 0.179947 0.986815 0.623172
Si Si3 0.126749 0.294572 0.500000
Si Si4 0.183679 0.178584 0.124420
Si Si5 0.819078 0.399743 0.701616
Si Si6 0.322635 0.871427 0.696927
Si Si7 0.171264 0.799723 0.124745
O O1 0.846504 0.773648 0.500000
O O2 0.556153 0.801372 0.500000
O O3 0.759872 0.865090 0.396006
O O4 0.236678 0.987801 0.500000
O O5 0.278492 0.033024 0.690657
O O6 0.208354 0.924265 0.673595
O O7 0.000000 0.000000 0.633351
O O8 0.201519 0.323453 0.394937
O O9 0.247899 0.123675 0.188030
O O10 0.286275 0.234132 0.155377
O O11 0.006882 0.191434 0.156152
O O12 0.198750 0.163117 0.000000
O O13 0.003104 0.394215 0.700240
O O14 0.278606 0.844093 0.810874
O O15 0.204827 0.811471 0.000000
#
# Coordination Sequence:
#
# PCOD8227102 Si02
#       7
#     4   8   4   8   8   8   8
#     4  10  22  35  52  81 115 148 182 230 285 338
#     4  11  23  39  60  85 114 155 197 237 287 346
#     4  10  22  35  52  81 115 148 182 230 285 338
#     4  10  21  38  60  87 119 154 194 240 290 345
#     4  11  22  38  59  84 116 153 194 239 288 344
#     4  11  22  38  59  84 116 153 194 239 288 344
#     4  10  21  38  60  87 119 154 194 240 290 345
#
# _framework density 19.315743999999999
#
# number of rings (size 3 to 8) (size 9 to 14) (size 15 to 20)
#    0.000    1.500    1.667    3.500    0.000    8.000 
#    0.000    0.833    0.000    5.000    0.000    0.000 
#    0.000    0.000    0.000    0.000    0.000    0.000 
#
# Total GULP energy -595564.575687 kJ/mol
# GULP energy per Si atom -12407.595327 kJ/mol
# Density = 1.927178 g / cm^3
# Si number density = 19.315744 Si / 1000 Ang^3
#
#
#
# Elastic Constant Matrix: (Units=GPa)
#
#
# Indices 1 2 3 4 5 6 
#
# 1 47.1043 0.7079 24.2254 0.0000 0.0000 0.0000
# 2 0.7079 55.0472 25.6697 0.0000 0.0000 0.0000
# 3 24.2254 25.6697 79.9281 0.0000 0.0000 0.0000
# 4 0.0000 0.0000 0.0000 26.4748 0.0000 0.0000
# 5 0.0000 0.0000 0.0000 0.0000 30.8970 0.0000
# 6 0.0000 0.0000 0.0000 0.0000 0.0000 37.9886
#
#
#
# Elastic Compliance Matrix: (Units=1/GPa)
#
#
# Indices 1 2 3 4 5 6 
#
# 1 0.025844 0.003905 -0.009087 0.000000 0.000000 0.000000
# 2 0.003905 0.021956 -0.008235 0.000000 0.000000 0.000000
# 3 -0.009087 -0.008235 0.017910 0.000000 0.000000 0.000000
# 4 0.000000 0.000000 0.000000 0.037772 0.000000 0.000000
# 5 0.000000 0.000000 0.000000 0.000000 0.032366 0.000000
# 6 0.000000 0.000000 0.000000 0.000000 0.000000 0.026324
#
#
# Mechanical properties :
#
#
# Convention : Reuss Voigt Hill
#
# Bulk Modulus (GPa) = 25.72247 31.47618 28.59933
# Shear Modulus (GPa) = 24.75672 27.83717 26.29695
#
# Velocity S-wave (km/s) = 3.58395 3.80039 3.69375
# Velocity P-wave (km/s) = 5.52014 5.96559 5.74718
#
# Compressibility (1/GPa) = 0.03887652
#
# Stress axis : x y z
#
# Youngs Moduli (GPa) = 38.69312 45.54516 55.83372
#
# Poissons Ratio (x) = -0.17787 0.50738
# Poissons Ratio (y) = -0.15111 0.45980
# Poissons Ratio (z) = 0.35162 0.37507
#
# Static dielectric constant tensor:
#      x y z
#    x 3.510060 0.000000 0.000000 
#    y 0.000000 3.464620 0.000000 
#    z 0.000000 0.000000 3.546640 
# 
# 
# High freq. dielectric constant tensor:
#      x y z
#    x 1.761960 0.000000 0.000000 
#    y 0.000000 1.750920 0.000000 
#    z 0.000000 0.000000 1.750850 
# 
# From -- ./inp_files/12280.got.cif
#   From: 2010.03.12/outbox.cif.g09.slc.cpg/sg55_7_cif.got.tgz:12280.got - 2010.04.16 15:19:21.
