data_PCOD8227376
_publ_section_title
;
Structure prediction by ZEFSAII (Michael W. Deem and Ramdas Pophale) SiO2 
 PCOD8227376
Probable space group: P B A M
;
_chemical_formula_sum "Si O2"
_cell_formula_units_Z 64
_cell_length_a 8.652477
_cell_length_b 17.197570
_cell_length_c 20.773575
_cell_angle_alpha 90.000000
_cell_angle_beta 90.000000
_cell_angle_gamma 90.000000
_cell_volume 3091.140759
_symmetry_space_group_name_H-M "P B A M"
_symmetry_group_IT_number 55
_symmetry_cell_setting 'orthorhombic'
loop_
_space_group_symop_operation_xyz
x,y,z
-x,-y,z
1/2+x,1/2-y,-z
1/2-x,1/2+y,-z
-x,-y,-z
x,y,-z
1/2-x,1/2+y,z
1/2+x,1/2-y,z
loop_
_atom_site_type_symbol
_atom_site_label
_atom_site_fract_x
_atom_site_fract_y
_atom_site_fract_z
Si Si1 0.220782 0.702800 0.572366
Si Si2 0.461220 0.247543 0.876890
Si Si3 0.271281 0.445196 0.682785
Si Si4 0.899819 0.884502 0.325698
Si Si5 0.176560 0.483237 0.822151
Si Si6 0.214519 0.153963 0.807315
Si Si7 0.613582 0.142678 0.573648
Si Si8 0.714524 0.141278 0.928217
O O1 0.244050 0.674346 0.500000
O O2 0.356645 0.659809 0.609941
O O3 0.248274 0.794921 0.578104
O O4 0.048178 0.681666 0.595379
O O5 0.370773 0.201801 0.820407
O O6 0.574748 0.311067 0.847592
O O7 0.549348 0.182018 0.917572
O O8 0.344907 0.292641 0.923407
O O9 0.329776 0.530453 0.668240
O O10 0.415878 0.386296 0.683950
O O11 0.188620 0.441533 0.752461
O O12 0.151136 0.424087 0.625773
O O13 0.821546 0.837071 0.267729
O O14 0.273595 0.562782 0.825150
O O15 0.245363 0.426289 0.876335
O O16 0.000000 0.500000 0.838293
O O17 0.604781 0.109765 0.500000
O O18 0.718070 0.105401 0.000000
#
# Coordination Sequence:
#
# PCOD8227376 Si02
#       8
#     8   8   8   8   8   8   8   8
#     4  10  22  38  58  85 120 155 201 252 304 364
#     4  10  22  41  64  92 127 161 202 261 308 366
#     4  10  23  39  62  86 121 158 202 251 306 364
#     4  10  22  39  59  88 117 159 200 252 306 369
#     4  11  23  42  64  93 126 166 206 261 310 370
#     4  10  22  41  63  92 124 160 207 254 314 371
#     4  10  22  39  60  87 119 160 202 252 306 369
#     4  11  23  41  65  94 126 167 210 254 311 369
#
# _framework density 20.704329999999999
#
# number of rings (size 3 to 8) (size 9 to 14) (size 15 to 20)
#    0.000    1.750    1.250    1.875    3.500    7.750 
#    0.000    4.375    0.000    0.000    0.000    0.000 
#    0.000    0.000    0.000    0.000    0.000    0.000 
#
# Total GULP energy -793716.757384 kJ/mol
# GULP energy per Si atom -12401.824334 kJ/mol
# Density = 2.065721 g / cm^3
# Si number density = 20.704330 Si / 1000 Ang^3
#
#
#
# Elastic Constant Matrix: (Units=GPa)
#
#
# Indices 1 2 3 4 5 6 
#
# 1 73.2963 20.1284 22.2099 0.0000 0.0000 0.0000
# 2 20.1284 62.3337 44.5519 0.0000 0.0000 0.0000
# 3 22.2099 44.5519 117.6243 0.0000 0.0000 0.0000
# 4 0.0000 0.0000 0.0000 23.8375 0.0000 0.0000
# 5 0.0000 0.0000 0.0000 0.0000 21.1383 0.0000
# 6 0.0000 0.0000 0.0000 0.0000 0.0000 36.2700
#
#
#
# Elastic Compliance Matrix: (Units=1/GPa)
#
#
# Indices 1 2 3 4 5 6 
#
# 1 0.015132 -0.003900 -0.001380 0.000000 0.000000 0.000000
# 2 -0.003900 0.023003 -0.007976 0.000000 0.000000 0.000000
# 3 -0.001380 -0.007976 0.011783 0.000000 0.000000 0.000000
# 4 0.000000 0.000000 0.000000 0.041951 0.000000 0.000000
# 5 0.000000 0.000000 0.000000 0.000000 0.047308 0.000000
# 6 0.000000 0.000000 0.000000 0.000000 0.000000 0.027571
#
#
# Mechanical properties :
#
#
# Convention : Reuss Voigt Hill
#
# Bulk Modulus (GPa) = 42.72434 47.44831 45.08632
# Shear Modulus (GPa) = 24.86781 27.34008 26.10395
#
# Velocity S-wave (km/s) = 3.46944 3.63781 3.55462
# Velocity P-wave (km/s) = 6.06049 6.37273 6.21857
#
# Compressibility (1/GPa) = 0.02340586
#
# Stress axis : x y z
#
# Youngs Moduli (GPa) = 66.08307 43.47263 84.86532
#
# Poissons Ratio (x) = 0.16955 0.11712
# Poissons Ratio (y) = 0.25773 0.67691
# Poissons Ratio (z) = 0.09120 0.34675
#
# Static dielectric constant tensor:
#      x y z
#    x 3.864700 0.000000 0.000000 
#    y 0.000000 3.684580 0.000000 
#    z 0.000000 0.000000 3.674960 
# 
# 
# High freq. dielectric constant tensor:
#      x y z
#    x 1.820080 0.000000 0.000000 
#    y 0.000000 1.805470 0.000000 
#    z 0.000000 0.000000 1.806380 
# 
# From -- ./inp_files/23477.got.cif
#   From: 2010.03.12/outbox.cif.g09.slc.cpg/sg55_12_cif.got.tgz:23477.got - 2010.04.16 15:19:21.
