data_PCOD8227199
_publ_section_title
;
Structure prediction by ZEFSAII (Michael W. Deem and Ramdas Pophale) SiO2 
 PCOD8227199
Probable space group: P B A M
;
_chemical_formula_sum "Si O2"
_cell_formula_units_Z 32
_cell_length_a 12.187319
_cell_length_b 5.156863
_cell_length_c 20.922399
_cell_angle_alpha 90.000000
_cell_angle_beta 90.000000
_cell_angle_gamma 90.000000
_cell_volume 1314.937929
_symmetry_space_group_name_H-M "P B A M"
_symmetry_group_IT_number 55
_symmetry_cell_setting 'orthorhombic'
loop_
_space_group_symop_operation_xyz
x,y,z
-x,-y,z
1/2+x,1/2-y,-z
1/2-x,1/2+y,-z
-x,-y,-z
x,y,-z
1/2-x,1/2+y,z
1/2+x,1/2-y,z
loop_
_atom_site_type_symbol
_atom_site_label
_atom_site_fract_x
_atom_site_fract_y
_atom_site_fract_z
Si Si1 0.000000 0.000000 0.897303
Si Si2 0.827882 0.134751 0.000000
Si Si3 0.932378 0.750149 0.299742
Si Si4 0.815584 0.752986 0.822580
Si Si5 0.820019 0.795617 0.570836
O O1 0.936405 0.789953 0.853230
O O2 0.091535 0.851073 0.939080
O O3 0.742032 0.369309 0.000000
O O4 0.824353 0.753711 0.255069
O O5 0.909466 0.744771 0.375303
O O6 0.000000 0.500000 0.280317
O O7 0.000000 0.000000 0.280730
O O8 0.765051 0.482199 0.845917
O O9 0.873024 0.763805 0.500000
O O10 0.723334 0.587204 0.579602
#
# Coordination Sequence:
#
# PCOD8227199 Si02
#       5
#     4   4   8   8   8
#     4  11  26  46  76 106 143 182 238 282 329 422
#     4  11  26  49  74 108 144 185 225 284 344 396
#     4  12  24  41  63  94 135 174 227 289 341 409
#     4  12  26  44  69 101 140 185 228 283 345 401
#     4  10  21  39  62  88 123 171 226 282 344 412
#
# _framework density 24.335750000000001
#
# number of rings (size 3 to 8) (size 9 to 14) (size 15 to 20)
#    0.000    0.750    1.250    6.000    0.000    5.000 
#    0.000    0.000    0.000    0.000    0.000    0.000 
#    0.000    0.000    0.000    0.000    0.000    0.000 
#
# Total GULP energy -396861.465717 kJ/mol
# GULP energy per Si atom -12401.920804 kJ/mol
# Density = 2.428036 g / cm^3
# Si number density = 24.335750 Si / 1000 Ang^3
#
#
#
# Elastic Constant Matrix: (Units=GPa)
#
#
# Indices 1 2 3 4 5 6 
#
# 1 104.0247 43.3997 43.3826 0.0000 0.0000 0.0000
# 2 43.3997 147.3043 21.0821 0.0000 0.0000 0.0000
# 3 43.3826 21.0821 117.2841 0.0000 0.0000 0.0000
# 4 0.0000 0.0000 0.0000 25.2001 0.0000 0.0000
# 5 0.0000 0.0000 0.0000 0.0000 59.4481 0.0000
# 6 0.0000 0.0000 0.0000 0.0000 0.0000 32.5732
#
#
#
# Elastic Compliance Matrix: (Units=1/GPa)
#
#
# Indices 1 2 3 4 5 6 
#
# 1 0.012635 -0.003134 -0.004110 0.000000 0.000000 0.000000
# 2 -0.003134 0.007745 -0.000233 0.000000 0.000000 0.000000
# 3 -0.004110 -0.000233 0.010088 0.000000 0.000000 0.000000
# 4 0.000000 0.000000 0.000000 0.039682 0.000000 0.000000
# 5 0.000000 0.000000 0.000000 0.000000 0.016821 0.000000
# 6 0.000000 0.000000 0.000000 0.000000 0.000000 0.030700
#
#
# Mechanical properties :
#
#
# Convention : Reuss Voigt Hill
#
# Bulk Modulus (GPa) = 64.45766 64.92690 64.69228
# Shear Modulus (GPa) = 36.28482 40.82754 38.55618
#
# Velocity S-wave (km/s) = 3.86555 4.10039 3.98470
# Velocity P-wave (km/s) = 6.81671 7.01107 6.91458
#
# Compressibility (1/GPa) = 0.01551406
#
# Stress axis : x y z
#
# Youngs Moduli (GPa) = 79.14605 129.10802 99.12291
#
# Poissons Ratio (x) = 0.40467 0.40741
# Poissons Ratio (y) = 0.24807 0.02309
# Poissons Ratio (z) = 0.32530 0.03007
#
# Static dielectric constant tensor:
#      x y z
#    x 4.177180 0.000000 0.000000 
#    y 0.000000 4.357280 0.000000 
#    z 0.000000 0.000000 4.794990 
# 
# 
# High freq. dielectric constant tensor:
#      x y z
#    x 1.950940 0.000000 0.000000 
#    y 0.000000 1.972820 0.000000 
#    z 0.000000 0.000000 1.992150 
# 
# From -- ./inp_files/22784.got.cif
#   From: 2010.03.12/outbox.cif.g09.slc.cpg/sg55_12_cif.got.tgz:22784.got - 2010.04.16 15:19:21.
