data_PCOD8227325
_publ_section_title
;
Structure prediction by ZEFSAII (Michael W. Deem and Ramdas Pophale) SiO2 
 PCOD8227325
Probable space group: P B A M
;
_chemical_formula_sum "Si O2"
_cell_formula_units_Z 64
_cell_length_a 9.206453
_cell_length_b 17.188429
_cell_length_c 20.129486
_cell_angle_alpha 90.000000
_cell_angle_beta 90.000000
_cell_angle_gamma 90.000000
_cell_volume 3185.379717
_symmetry_space_group_name_H-M "P B A M"
_symmetry_group_IT_number 55
_symmetry_cell_setting 'orthorhombic'
loop_
_space_group_symop_operation_xyz
x,y,z
-x,-y,z
1/2+x,1/2-y,-z
1/2-x,1/2+y,-z
-x,-y,-z
x,y,-z
1/2-x,1/2+y,z
1/2+x,1/2-y,z
loop_
_atom_site_type_symbol
_atom_site_label
_atom_site_fract_x
_atom_site_fract_y
_atom_site_fract_z
Si Si1 0.447230 0.250373 0.636620
Si Si2 0.509997 0.674890 0.926662
Si Si3 0.796350 0.851385 0.303267
Si Si4 0.603774 0.435481 0.821166
Si Si5 0.849308 0.540060 0.177926
Si Si6 0.800605 0.651279 0.576437
Si Si7 0.658597 0.175586 0.925407
Si Si8 0.169503 0.484894 0.673592
O O1 0.555991 0.313719 0.668271
O O2 0.344502 0.205681 0.690868
O O3 0.335667 0.290934 0.585972
O O4 0.545667 0.188761 0.597430
O O5 0.491481 0.602122 0.878751
O O6 0.424538 0.748969 0.899836
O O7 0.675639 0.699589 0.928563
O O8 0.454184 0.651390 0.000000
O O9 0.832021 0.869115 0.226647
O O10 0.757475 0.934340 0.336837
O O11 0.500000 0.500000 0.785194
O O12 0.737241 0.480438 0.856099
O O13 0.870203 0.613646 0.131678
O O14 0.797050 0.555200 0.254313
O O15 0.000000 0.500000 0.186483
O O16 0.810595 0.627593 0.500000
O O17 0.771018 0.573933 0.618589
O O18 0.606637 0.148864 0.000000
O O19 0.000000 0.500000 0.662862
#
# Coordination Sequence:
#
# PCOD8227325 Si02
#       8
#     8   8   8   8   8   8   8   8
#     4  10  23  42  63  92 126 165 203 260 304 369
#     4  10  23  40  59  85 121 160 206 255 305 367
#     4  10  23  41  64  94 125 162 207 254 316 369
#     4  11  23  40  62  91 120 162 204 255 315 371
#     4  10  23  40  62  88 123 159 201 255 306 364
#     4  11  23  41  65  92 125 167 209 254 309 370
#     4  10  22  41  61  87 120 161 207 254 304 367
#     4  10  21  42  63  90 127 160 205 258 312 371
#
# _framework density 20.091795999999999
#
# number of rings (size 3 to 8) (size 9 to 14) (size 15 to 20)
#    0.000    1.750    2.500    0.375    5.250    4.250 
#    0.000    1.875    0.000    0.000    0.000    0.000 
#    0.000    0.000    0.000    0.000    0.000    0.000 
#
# Total GULP energy -793252.914689 kJ/mol
# GULP energy per Si atom -12394.576792 kJ/mol
# Density = 2.004607 g / cm^3
# Si number density = 20.091796 Si / 1000 Ang^3
#
#
#
# Elastic Constant Matrix: (Units=GPa)
#
#
# Indices 1 2 3 4 5 6 
#
# 1 89.2036 38.3750 41.7210 0.0000 0.0000 0.0000
# 2 38.3750 107.5569 72.3724 0.0000 0.0000 0.0000
# 3 41.7210 72.3724 106.4119 0.0000 0.0000 0.0000
# 4 0.0000 0.0000 0.0000 25.4543 0.0000 0.0000
# 5 0.0000 0.0000 0.0000 0.0000 23.6825 0.0000
# 6 0.0000 0.0000 0.0000 0.0000 0.0000 40.7534
#
#
#
# Elastic Compliance Matrix: (Units=1/GPa)
#
#
# Indices 1 2 3 4 5 6 
#
# 1 0.014058 -0.002410 -0.003873 0.000000 0.000000 0.000000
# 2 -0.002410 0.017555 -0.010995 0.000000 0.000000 0.000000
# 3 -0.003873 -0.010995 0.018394 0.000000 0.000000 0.000000
# 4 0.000000 0.000000 0.000000 0.039286 0.000000 0.000000
# 5 0.000000 0.000000 0.000000 0.000000 0.042225 0.000000
# 6 0.000000 0.000000 0.000000 0.000000 0.000000 0.024538
#
#
# Mechanical properties :
#
#
# Convention : Reuss Voigt Hill
#
# Bulk Modulus (GPa) = 64.71571 67.56769 66.14170
# Shear Modulus (GPa) = 25.54115 28.02499 26.78307
#
# Velocity S-wave (km/s) = 3.56929 3.73882 3.65504
# Velocity P-wave (km/s) = 7.01900 7.23470 7.12766
#
# Compressibility (1/GPa) = 0.01545220
#
# Stress axis : x y z
#
# Youngs Moduli (GPa) = 71.13189 56.96265 54.36666
#
# Poissons Ratio (x) = 0.13727 0.21056
# Poissons Ratio (y) = 0.17142 0.59775
# Poissons Ratio (z) = 0.27548 0.62629
#
# Static dielectric constant tensor:
#      x y z
#    x 3.873040 0.000000 0.000000 
#    y 0.000000 3.676820 0.000000 
#    z 0.000000 0.000000 3.699520 
# 
# 
# High freq. dielectric constant tensor:
#      x y z
#    x 1.804570 0.000000 0.000000 
#    y 0.000000 1.784520 0.000000 
#    z 0.000000 0.000000 1.766480 
# 
# From -- ./inp_files/22711.got.cif
#   From: 2010.03.12/outbox.cif.g09.slc.cpg/sg55_12_cif.got.tgz:22711.got - 2010.04.16 15:19:21.
