data_PCOD8227115
_publ_section_title
;
Structure prediction by ZEFSAII (Michael W. Deem and Ramdas Pophale) SiO2 
 PCOD8227115
Probable space group: P B A M
;
_chemical_formula_sum "Si O2"
_cell_formula_units_Z 56
_cell_length_a 20.885613
_cell_length_b 14.729642
_cell_length_c 9.030549
_cell_angle_alpha 90.000000
_cell_angle_beta 90.000000
_cell_angle_gamma 90.000000
_cell_volume 2778.136443
_symmetry_space_group_name_H-M "P B A M"
_symmetry_group_IT_number 55
_symmetry_cell_setting 'orthorhombic'
loop_
_space_group_symop_operation_xyz
x,y,z
-x,-y,z
1/2+x,1/2-y,-z
1/2-x,1/2+y,-z
-x,-y,-z
x,y,-z
1/2-x,1/2+y,z
1/2+x,1/2-y,z
loop_
_atom_site_type_symbol
_atom_site_label
_atom_site_fract_x
_atom_site_fract_y
_atom_site_fract_z
Si Si1 0.941292 0.566738 0.663277
Si Si2 0.233349 0.812386 0.325500
Si Si3 0.266965 0.522002 0.326891
Si Si4 0.468018 0.756464 0.168794
Si Si5 0.332094 0.674416 0.171702
Si Si6 0.354530 0.059156 0.833777
Si Si7 0.892085 0.243449 0.165204
O O1 0.909157 0.574396 0.500000
O O2 0.964546 0.664091 0.713088
O O3 0.890596 0.530773 0.781324
O O4 0.000000 0.500000 0.654053
O O5 0.241270 0.798096 0.500000
O O6 0.287555 0.752022 0.246145
O O7 0.160598 0.788902 0.281352
O O8 0.241515 0.917568 0.279015
O O9 0.278227 0.532249 0.500000
O O10 0.324182 0.574582 0.243634
O O11 0.204505 0.577746 0.275726
O O12 0.407387 0.691965 0.194468
O O13 0.536209 0.704993 0.199019
O O14 0.468172 0.793780 0.000000
O O15 0.312660 0.671993 0.000000
O O16 0.399623 0.147152 0.826464
O O17 0.329488 0.041466 0.000000
O O18 0.869820 0.214332 0.000000
#
# Coordination Sequence:
#
# PCOD8227115 Si02
#       7
#     8   8   8   8   8   8   8
#     4  11  22  33  51  83 120 157 195 236 294 363
#     4  11  24  41  63  90 122 161 203 250 303 360
#     4  11  24  41  62  89 122 158 201 252 305 361
#     4  10  22  40  60  85 120 159 202 251 304 360
#     4  11  23  40  64  92 121 159 202 250 305 359
#     4  11  21  35  59  86 116 155 197 245 300 357
#     4  10  21  38  61  88 118 155 200 248 300 356
#
# _framework density 20.157397
#
# number of rings (size 3 to 8) (size 9 to 14) (size 15 to 20)
#    0.000    1.286    2.857    3.000    0.000    7.429 
#    0.000    0.714    0.000    4.286    0.000    0.000 
#    0.000    0.000    0.000    0.000    0.000    0.000 
#
# Total GULP energy -694274.510995 kJ/mol
# GULP energy per Si atom -12397.759125 kJ/mol
# Density = 2.011152 g / cm^3
# Si number density = 20.157397 Si / 1000 Ang^3
#
#
#
# Elastic Constant Matrix: (Units=GPa)
#
#
# Indices 1 2 3 4 5 6 
#
# 1 116.3725 18.4504 35.9208 0.0000 0.0000 0.0000
# 2 18.4504 59.1607 39.2784 0.0000 0.0000 0.0000
# 3 35.9208 39.2784 97.9117 0.0000 0.0000 0.0000
# 4 0.0000 0.0000 0.0000 33.4023 0.0000 0.0000
# 5 0.0000 0.0000 0.0000 0.0000 23.7987 0.0000
# 6 0.0000 0.0000 0.0000 0.0000 0.0000 29.4179
#
#
#
# Elastic Compliance Matrix: (Units=1/GPa)
#
#
# Indices 1 2 3 4 5 6 
#
# 1 0.009726 -0.000905 -0.003205 0.000000 0.000000 0.000000
# 2 -0.000905 0.023124 -0.008944 0.000000 0.000000 0.000000
# 3 -0.003205 -0.008944 0.014977 0.000000 0.000000 0.000000
# 4 0.000000 0.000000 0.000000 0.029938 0.000000 0.000000
# 5 0.000000 0.000000 0.000000 0.000000 0.042019 0.000000
# 6 0.000000 0.000000 0.000000 0.000000 0.000000 0.033993
#
#
# Mechanical properties :
#
#
# Convention : Reuss Voigt Hill
#
# Bulk Modulus (GPa) = 46.04519 51.19379 48.61949
# Shear Modulus (GPa) = 26.72008 29.31014 28.01511
#
# Velocity S-wave (km/s) = 3.64479 3.81736 3.73207
# Velocity P-wave (km/s) = 6.37221 6.69939 6.53785
#
# Compressibility (1/GPa) = 0.02171779
#
# Stress axis : x y z
#
# Youngs Moduli (GPa) = 102.81809 43.24555 66.76836
#
# Poissons Ratio (x) = 0.03915 0.21399
# Poissons Ratio (y) = 0.09309 0.59719
# Poissons Ratio (z) = 0.32953 0.38680
#
# Static dielectric constant tensor:
#      x y z
#    x 3.843960 0.000000 0.000000 
#    y 0.000000 3.441060 0.000000 
#    z 0.000000 0.000000 3.814760 
# 
# 
# High freq. dielectric constant tensor:
#      x y z
#    x 1.791930 0.000000 0.000000 
#    y 0.000000 1.765190 0.000000 
#    z 0.000000 0.000000 1.797000 
# 
# From -- ./inp_files/6139.got.cif
#   From: 2010.03.12/outbox.cif.g09.slc.cpg/sg55_4_cif.got.tgz:6139.got - 2010.04.16 15:19:21.
