data_PCOD8227994
_publ_section_title
;
Structure prediction by ZEFSAII (Michael W. Deem and Ramdas Pophale) SiO2 
 PCOD8227994
Probable space group: P C C N
;
_chemical_formula_sum "Si O2"
_cell_formula_units_Z 60
_cell_length_a 14.233262
_cell_length_b 12.749996
_cell_length_c 17.418358
_cell_angle_alpha 90.000000
_cell_angle_beta 90.000000
_cell_angle_gamma 90.000000
_cell_volume 3160.979684
_symmetry_space_group_name_H-M "P C C N"
_symmetry_group_IT_number 56
_symmetry_cell_setting 'orthorhombic'
loop_
_space_group_symop_operation_xyz
x,y,z
1/2-x,1/2-y,z
1/2+x,-y,1/2-z
-x,1/2+y,1/2-z
-x,-y,-z
1/2+x,1/2+y,-z
1/2-x,y,1/2+z
x,1/2-y,1/2+z
loop_
_atom_site_type_symbol
_atom_site_label
_atom_site_fract_x
_atom_site_fract_y
_atom_site_fract_z
Si Si1 0.832549 0.168761 0.447887
Si Si2 0.200900 0.004370 0.022676
Si Si3 0.307655 0.855321 0.220883
Si Si4 0.380140 0.130698 0.396292
Si Si5 0.750000 0.750000 0.710696
Si Si6 0.681447 0.945377 0.306247
Si Si7 0.956350 0.163976 0.008305
Si Si8 0.030601 0.930026 0.828884
O O1 0.750000 0.250000 0.436930
O O2 0.863298 0.145702 0.360403
O O3 0.909448 0.221024 0.503064
O O4 0.795738 0.063004 0.487772
O O5 0.200014 0.066944 0.102638
O O6 0.201682 0.079329 0.948821
O O7 0.108706 0.929712 0.023938
O O8 0.250000 0.750000 0.239734
O O9 0.392002 0.866873 0.280886
O O10 0.231044 0.948970 0.224386
O O11 0.338302 0.221759 0.343290
O O12 0.453753 0.178209 0.455406
O O13 0.429145 0.045150 0.342846
O O14 0.772527 0.847872 0.763913
O O15 0.569924 0.944831 0.287427
O O16 0.986439 0.137960 0.094376
#
# Coordination Sequence:
#
# PCOD8227994 Si02
#       8
#     8   8   8   8   4   8   8   8
#     4   8  17  31  57  88 116 147 184 254 301 341
#     4   9  17  36  63  80 115 152 200 247 297 350
#     4  10  22  38  62  94 125 156 204 260 311 352
#     4  11  21  39  60  85 113 167 202 247 287 375
#     4  12  28  38  58  84 134 160 200 248 310 368
#     4  11  22  42  58  92 122 164 204 246 310 379
#     4  10  18  35  61  92 112 149 210 246 295 361
#     4  11  21  37  65  89 121 165 204 255 299 365
#
# _framework density 18.981456999999999
#
# number of rings (size 3 to 8) (size 9 to 14) (size 15 to 20)
#    0.000    1.867    4.000    1.600    1.867    3.200 
#    0.000    0.000    0.000    0.800    0.000    0.000 
#    0.000    0.000    0.000    0.000    0.000    0.000 
#
# Total GULP energy -743767.119892 kJ/mol
# GULP energy per Si atom -12396.118665 kJ/mol
# Density = 1.893825 g / cm^3
# Si number density = 18.981457 Si / 1000 Ang^3
#
#
#
# Elastic Constant Matrix: (Units=GPa)
#
#
# Indices 1 2 3 4 5 6 
#
# 1 79.9636 45.1264 35.0474 0.0000 0.0000 0.0000
# 2 45.1264 99.1446 38.2625 0.0000 0.0000 0.0000
# 3 35.0474 38.2625 63.1572 0.0000 0.0000 0.0000
# 4 0.0000 0.0000 0.0000 20.7048 0.0000 0.0000
# 5 0.0000 0.0000 0.0000 0.0000 32.8801 0.0000
# 6 0.0000 0.0000 0.0000 0.0000 0.0000 22.4310
#
#
#
# Elastic Compliance Matrix: (Units=1/GPa)
#
#
# Indices 1 2 3 4 5 6 
#
# 1 0.018868 -0.005935 -0.006875 0.000000 0.000000 0.000000
# 2 -0.005935 0.015031 -0.005813 0.000000 0.000000 0.000000
# 3 -0.006875 -0.005813 0.023170 0.000000 0.000000 0.000000
# 4 0.000000 0.000000 0.000000 0.048298 0.000000 0.000000
# 5 0.000000 0.000000 0.000000 0.000000 0.030414 0.000000
# 6 0.000000 0.000000 0.000000 0.000000 0.000000 0.044581
#
#
# Mechanical properties :
#
#
# Convention : Reuss Voigt Hill
#
# Bulk Modulus (GPa) = 50.44351 53.23756 51.84053
# Shear Modulus (GPa) = 22.30005 23.45845 22.87925
#
# Velocity S-wave (km/s) = 3.43130 3.51930 3.47558
# Velocity P-wave (km/s) = 6.50625 6.67997 6.59368
#
# Compressibility (1/GPa) = 0.01982415
#
# Stress axis : x y z
#
# Youngs Moduli (GPa) = 52.99951 66.52984 43.15911
#
# Poissons Ratio (x) = 0.39484 0.29671
# Poissons Ratio (y) = 0.31454 0.25087
# Poissons Ratio (z) = 0.36437 0.38672
#
# Static dielectric constant tensor:
#      x y z
#    x 3.569910 0.000000 0.000000 
#    y 0.000000 3.602710 0.000000 
#    z 0.000000 0.000000 3.548480 
# 
# 
# High freq. dielectric constant tensor:
#      x y z
#    x 1.727760 0.000000 0.000000 
#    y 0.000000 1.727540 0.000000 
#    z 0.000000 0.000000 1.736040 
# 
# From -- ./inp_files/15788.got.cif
#   From: 2010.03.12/outbox.cif.g09.slc.cpg/sg56_8_cif.got.tgz:15788.got - 2010.04.16 15:33:40.
