data_PCOD8227793
_publ_section_title
;
Structure prediction by ZEFSAII (Michael W. Deem and Ramdas Pophale) SiO2 
 PCOD8227793
Probable space group: P B A M
;
_chemical_formula_sum "Si O2"
_cell_formula_units_Z 40
_cell_length_a 12.750345
_cell_length_b 9.603450
_cell_length_c 14.829569
_cell_angle_alpha 90.000000
_cell_angle_beta 90.000000
_cell_angle_gamma 90.000000
_cell_volume 1815.840694
_symmetry_space_group_name_H-M "P B A M"
_symmetry_group_IT_number 55
_symmetry_cell_setting 'orthorhombic'
loop_
_space_group_symop_operation_xyz
x,y,z
-x,-y,z
1/2+x,1/2-y,-z
1/2-x,1/2+y,-z
-x,-y,-z
x,y,-z
1/2-x,1/2+y,z
1/2+x,1/2-y,z
loop_
_atom_site_type_symbol
_atom_site_label
_atom_site_fract_x
_atom_site_fract_y
_atom_site_fract_z
Si Si1 0.455985 0.227781 0.600242
Si Si2 0.844687 0.566674 0.598218
Si Si3 0.279372 0.608454 0.856616
Si Si4 0.187767 0.851473 0.257684
Si Si5 0.948863 0.850273 0.000000
Si Si6 0.899738 0.400354 0.000000
O O1 0.438025 0.295964 0.500000
O O2 0.578149 0.197308 0.615374
O O3 0.417730 0.319507 0.685309
O O4 0.399927 0.080346 0.602405
O O5 0.792355 0.587543 0.500000
O O6 0.759097 0.565735 0.673688
O O7 0.329485 0.462510 0.822174
O O8 0.244518 0.712749 0.777814
O O9 0.373001 0.677400 0.914386
O O10 0.173731 0.575550 0.913225
O O11 0.050788 0.752820 0.000000
O O12 0.000000 0.000000 0.000000
O O13 0.000000 0.500000 0.000000
#
# Coordination Sequence:
#
# PCOD8227793 Si02
#       6
#     8   8   8   8   4   4
#     4   9  19  37  60  87 123 172 215 250 301 370
#     4   9  19  37  60  87 124 171 215 248 302 373
#     4  11  26  40  64  99 124 155 219 259 310 400
#     4  12  21  39  61  95 130 156 202 270 314 352
#     4  11  24  47  66  86 126 167 195 260 328 373
#     4  11  24  47  70  88 122 172 204 249 325 393
#
# _framework density 22.028362999999999
#
# number of rings (size 3 to 8) (size 9 to 14) (size 15 to 20)
#    0.000    1.600    2.000    4.200    0.000    8.000 
#    0.000    0.000    0.000    2.400    0.000    0.000 
#    0.000    0.000    0.000    0.000    0.000    0.000 
#
# Total GULP energy -495722.242790 kJ/mol
# GULP energy per Si atom -12393.056070 kJ/mol
# Density = 2.197823 g / cm^3
# Si number density = 22.028363 Si / 1000 Ang^3
#
#
#
# Elastic Constant Matrix: (Units=GPa)
#
#
# Indices 1 2 3 4 5 6 
#
# 1 54.6151 3.8629 27.2701 0.0000 0.0000 0.0000
# 2 3.8629 79.4055 26.9939 0.0000 0.0000 0.0000
# 3 27.2701 26.9939 105.0293 0.0000 0.0000 0.0000
# 4 0.0000 0.0000 0.0000 38.1451 0.0000 0.0000
# 5 0.0000 0.0000 0.0000 0.0000 32.5400 0.0000
# 6 0.0000 0.0000 0.0000 0.0000 0.0000 35.8661
#
#
#
# Elastic Compliance Matrix: (Units=1/GPa)
#
#
# Indices 1 2 3 4 5 6 
#
# 1 0.021098 0.000916 -0.005713 0.000000 0.000000 0.000000
# 2 0.000916 0.013839 -0.003795 0.000000 0.000000 0.000000
# 3 -0.005713 -0.003795 0.011980 0.000000 0.000000 0.000000
# 4 0.000000 0.000000 0.000000 0.026216 0.000000 0.000000
# 5 0.000000 0.000000 0.000000 0.000000 0.030731 0.000000
# 6 0.000000 0.000000 0.000000 0.000000 0.000000 0.027881
#
#
# Mechanical properties :
#
#
# Convention : Reuss Voigt Hill
#
# Bulk Modulus (GPa) = 33.63304 39.47820 36.55562
# Shear Modulus (GPa) = 31.47816 33.37178 32.42497
#
# Velocity S-wave (km/s) = 3.78429 3.89645 3.84078
# Velocity P-wave (km/s) = 5.86478 6.18090 6.02492
#
# Compressibility (1/GPa) = 0.02973267
#
# Stress axis : x y z
#
# Youngs Moduli (GPa) = 47.39804 72.25951 83.47360
#
# Poissons Ratio (x) = -0.06618 0.47691
# Poissons Ratio (y) = -0.04341 0.31675
# Poissons Ratio (z) = 0.27080 0.27420
#
# Static dielectric constant tensor:
#      x y z
#    x 4.255760 0.000000 0.000000 
#    y 0.000000 3.879380 0.000000 
#    z 0.000000 0.000000 4.303770 
# 
# 
# High freq. dielectric constant tensor:
#      x y z
#    x 1.860760 0.000000 0.000000 
#    y 0.000000 1.855760 0.000000 
#    z 0.000000 0.000000 1.880810 
# 
# From -- ./inp_files/18773.got.cif
#   From: 2010.03.12/outbox.cif.g09.slc.cpg/sg55_10_cif.got.tgz:18773.got - 2010.04.16 15:19:21.
