data_PCOD8227572
_publ_section_title
;
Structure prediction by ZEFSAII (Michael W. Deem and Ramdas Pophale) SiO2 
 PCOD8227572
Probable space group: P B A M
;
_chemical_formula_sum "Si O2"
_cell_formula_units_Z 48
_cell_length_a 18.576025
_cell_length_b 14.576132
_cell_length_c 8.883918
_cell_angle_alpha 90.000000
_cell_angle_beta 90.000000
_cell_angle_gamma 90.000000
_cell_volume 2405.468204
_symmetry_space_group_name_H-M "P B A M"
_symmetry_group_IT_number 55
_symmetry_cell_setting 'orthorhombic'
loop_
_space_group_symop_operation_xyz
x,y,z
-x,-y,z
1/2+x,1/2-y,-z
1/2-x,1/2+y,-z
-x,-y,-z
x,y,-z
1/2-x,1/2+y,z
1/2+x,1/2-y,z
loop_
_atom_site_type_symbol
_atom_site_label
_atom_site_fract_x
_atom_site_fract_y
_atom_site_fract_z
Si Si1 0.740331 0.213671 0.326760
Si Si2 0.528095 0.901875 0.821923
Si Si3 0.068354 0.062290 0.824885
Si Si4 0.423989 0.756692 0.675979
Si Si5 0.819461 0.399890 0.675141
Si Si6 0.715329 0.537040 0.824011
O O1 0.754158 0.187981 0.500000
O O2 0.656467 0.211333 0.285771
O O3 0.767774 0.314966 0.290046
O O4 0.784503 0.143456 0.222931
O O5 0.476131 0.822389 0.766682
O O6 0.606441 0.882318 0.758513
O O7 0.500000 0.000000 0.762841
O O8 0.531409 0.899437 0.000000
O O9 0.062808 0.152825 0.725772
O O10 0.139302 0.006328 0.777179
O O11 0.070511 0.089687 0.000000
O O12 0.000000 0.000000 0.787179
O O13 0.440729 0.764217 0.500000
O O14 0.834983 0.413480 0.500000
O O15 0.780989 0.490374 0.736422
O O16 0.729438 0.527205 0.000000
#
# Coordination Sequence:
#
# PCOD8227572 Si02
#       6
#     8   8   8   8   8   8
#     4  10  23  41  63  91 125 162 204 256 311 370
#     4  11  25  43  64  93 127 165 209 259 315 374
#     4  10  23  42  62  90 127 168 211 259 312 372
#     4  11  23  42  66  94 126 168 210 255 315 373
#     4  11  23  42  65  93 126 163 209 259 312 372
#     4  11  23  39  64  94 125 165 209 258 315 370
#
# _framework density 19.954535
#
# number of rings (size 3 to 8) (size 9 to 14) (size 15 to 20)
#    0.000    1.333    1.667    3.000    2.333    7.667 
#    0.000    0.000    0.000    0.000    0.000    0.000 
#    0.000    0.000    0.000    0.000    0.000    0.000 
#
# Total GULP energy -595557.932559 kJ/mol
# GULP energy per Si atom -12407.456928 kJ/mol
# Density = 1.990912 g / cm^3
# Si number density = 19.954535 Si / 1000 Ang^3
#
#
#
# Elastic Constant Matrix: (Units=GPa)
#
#
# Indices 1 2 3 4 5 6 
#
# 1 99.8985 14.4505 38.3390 0.0000 0.0000 0.0000
# 2 14.4505 82.2947 36.3532 0.0000 0.0000 0.0000
# 3 38.3390 36.3532 69.7870 0.0000 0.0000 0.0000
# 4 0.0000 0.0000 0.0000 40.6456 0.0000 0.0000
# 5 0.0000 0.0000 0.0000 0.0000 33.6899 0.0000
# 6 0.0000 0.0000 0.0000 0.0000 0.0000 36.6926
#
#
#
# Elastic Compliance Matrix: (Units=1/GPa)
#
#
# Indices 1 2 3 4 5 6 
#
# 1 0.012762 0.001112 -0.007591 0.000000 0.000000 0.000000
# 2 0.001112 0.015880 -0.008883 0.000000 0.000000 0.000000
# 3 -0.007591 -0.008883 0.023127 0.000000 0.000000 0.000000
# 4 0.000000 0.000000 0.000000 0.024603 0.000000 0.000000
# 5 0.000000 0.000000 0.000000 0.000000 0.029683 0.000000
# 6 0.000000 0.000000 0.000000 0.000000 0.000000 0.027253
#
#
# Mechanical properties :
#
#
# Convention : Reuss Voigt Hill
#
# Bulk Modulus (GPa) = 47.51503 47.80729 47.66116
# Shear Modulus (GPa) = 29.23167 33.06144 31.14655
#
# Velocity S-wave (km/s) = 3.83157 4.07484 3.95508
# Velocity P-wave (km/s) = 6.59075 6.79332 6.69280
#
# Compressibility (1/GPa) = 0.02104597
#
# Stress axis : x y z
#
# Youngs Moduli (GPa) = 78.35508 62.97103 43.23982
#
# Poissons Ratio (x) = -0.07003 0.32822
# Poissons Ratio (y) = -0.08714 0.38411
# Poissons Ratio (z) = 0.59476 0.55939
#
# Static dielectric constant tensor:
#      x y z
#    x 4.099330 0.000000 0.000000 
#    y 0.000000 3.660540 0.000000 
#    z 0.000000 0.000000 3.647840 
# 
# 
# High freq. dielectric constant tensor:
#      x y z
#    x 1.790890 0.000000 0.000000 
#    y 0.000000 1.791700 0.000000 
#    z 0.000000 0.000000 1.784020 
# 
# From -- ./inp_files/7408.got.cif
#   From: 2010.03.12/outbox.cif.g09.slc.cpg/sg55_4_cif.got.tgz:7408.got - 2010.04.16 15:19:21.
