data_PCOD8227899
_publ_section_title
;
Structure prediction by ZEFSAII (Michael W. Deem and Ramdas Pophale) SiO2 
 PCOD8227899
Probable space group: P C C N
;
_chemical_formula_sum "Si O2"
_cell_formula_units_Z 48
_cell_length_a 8.196699
_cell_length_b 9.727386
_cell_length_c 27.427580
_cell_angle_alpha 90.000000
_cell_angle_beta 90.000000
_cell_angle_gamma 90.000000
_cell_volume 2186.868291
_symmetry_space_group_name_H-M "P C C N"
_symmetry_group_IT_number 56
_symmetry_cell_setting 'orthorhombic'
loop_
_space_group_symop_operation_xyz
x,y,z
1/2-x,1/2-y,z
1/2+x,-y,1/2-z
-x,1/2+y,1/2-z
-x,-y,-z
1/2+x,1/2+y,-z
1/2-x,y,1/2+z
x,1/2-y,1/2+z
loop_
_atom_site_type_symbol
_atom_site_label
_atom_site_fract_x
_atom_site_fract_y
_atom_site_fract_z
Si Si1 0.652626 0.610495 0.926434
Si Si2 0.022906 0.533783 0.071656
Si Si3 0.575867 0.809198 0.327238
Si Si4 0.433546 0.720404 0.488080
Si Si5 0.965748 0.017765 0.677842
Si Si6 0.819277 0.098014 0.242926
O O1 0.750000 0.750000 0.917567
O O2 0.779824 0.487232 0.935543
O O3 0.568101 0.588373 0.873886
O O4 0.525239 0.638971 0.970609
O O5 0.965926 0.568414 0.126983
O O6 0.934312 0.394984 0.054008
O O7 0.975936 0.662051 0.036768
O O8 0.750000 0.750000 0.310654
O O9 0.466599 0.675734 0.339029
O O10 0.493273 0.894432 0.284069
O O11 0.250000 0.750000 0.501931
O O12 0.804208 0.001898 0.711491
O O13 0.132968 0.976594 0.706387
O O14 0.750000 0.250000 0.254097
#
# Coordination Sequence:
#
# PCOD8227899 Si02
#       6
#     8   8   8   8   8   8
#     4   9  17  34  59  83 114 150 190 247 291 349
#     4  10  21  37  59  86 120 158 194 247 304 355
#     4  10  17  34  60  84 112 154 197 249 290 349
#     4  10  21  35  59  88 115 152 199 248 294 361
#     4  11  20  37  58  85 120 159 203 247 300 362
#     4  10  24  35  59  92 120 159 204 255 299 359
#
# _framework density 21.949195
#
# number of rings (size 3 to 8) (size 9 to 14) (size 15 to 20)
#    0.000    2.000    5.000    1.000    2.333    1.333 
#    0.000    0.000    0.000    9.000    0.000    0.000 
#    0.000    0.000    0.000    0.000    0.000    0.000 
#
# Total GULP energy -594709.265662 kJ/mol
# GULP energy per Si atom -12389.776368 kJ/mol
# Density = 2.189924 g / cm^3
# Si number density = 21.949195 Si / 1000 Ang^3
#
#
#
# Elastic Constant Matrix: (Units=GPa)
#
#
# Indices 1 2 3 4 5 6 
#
# 1 79.6972 14.2396 38.3049 0.0000 0.0000 0.0000
# 2 14.2396 33.0009 29.6170 0.0000 0.0000 0.0000
# 3 38.3049 29.6170 145.1504 0.0000 0.0000 0.0000
# 4 0.0000 0.0000 0.0000 15.0393 0.0000 0.0000
# 5 0.0000 0.0000 0.0000 0.0000 26.9717 0.0000
# 6 0.0000 0.0000 0.0000 0.0000 0.0000 22.7151
#
#
#
# Elastic Compliance Matrix: (Units=1/GPa)
#
#
# Indices 1 2 3 4 5 6 
#
# 1 0.014693 -0.003501 -0.003163 0.000000 0.000000 0.000000
# 2 -0.003501 0.037929 -0.006815 0.000000 0.000000 0.000000
# 3 -0.003163 -0.006815 0.009115 0.000000 0.000000 0.000000
# 4 0.000000 0.000000 0.000000 0.066493 0.000000 0.000000
# 5 0.000000 0.000000 0.000000 0.000000 0.037076 0.000000
# 6 0.000000 0.000000 0.000000 0.000000 0.000000 0.044024
#
#
# Mechanical properties :
#
#
# Convention : Reuss Voigt Hill
#
# Bulk Modulus (GPa) = 28.75366 46.90793 37.83079
# Shear Modulus (GPa) = 20.17090 24.65767 22.41429
#
# Velocity S-wave (km/s) = 3.03476 3.35535 3.19907
# Velocity P-wave (km/s) = 5.04066 6.03562 5.56044
#
# Compressibility (1/GPa) = 0.03477818
#
# Stress axis : x y z
#
# Youngs Moduli (GPa) = 68.05786 26.36474 109.71212
#
# Poissons Ratio (x) = 0.09231 0.34703
# Poissons Ratio (y) = 0.23829 0.74772
# Poissons Ratio (z) = 0.21528 0.17968
#
# Static dielectric constant tensor:
#      x y z
#    x 4.028260 0.000000 0.000000 
#    y 0.000000 3.549170 0.000000 
#    z 0.000000 0.000000 4.129830 
# 
# 
# High freq. dielectric constant tensor:
#      x y z
#    x 1.854700 0.000000 0.000000 
#    y 0.000000 1.816000 0.000000 
#    z 0.000000 0.000000 1.871650 
# 
# From -- ./inp_files/22022.got.cif
#   From: 2010.03.12/outbox.cif.g09.slc.cpg/sg56_12_cif.got.tgz:22022.got - 2010.04.16 15:33:40.
