data_PCOD8227463
_publ_section_title
;
Structure prediction by ZEFSAII (Michael W. Deem and Ramdas Pophale) SiO2 
 PCOD8227463
Probable space group: P B A M
;
_chemical_formula_sum "Si O2"
_cell_formula_units_Z 48
_cell_length_a 27.023502
_cell_length_b 9.716587
_cell_length_c 8.994127
_cell_angle_alpha 90.000000
_cell_angle_beta 90.000000
_cell_angle_gamma 90.000000
_cell_volume 2361.643764
_symmetry_space_group_name_H-M "P B A M"
_symmetry_group_IT_number 55
_symmetry_cell_setting 'orthorhombic'
loop_
_space_group_symop_operation_xyz
x,y,z
-x,-y,z
1/2+x,1/2-y,-z
1/2-x,1/2+y,-z
-x,-y,-z
x,y,-z
1/2-x,1/2+y,z
1/2+x,1/2-y,z
loop_
_atom_site_type_symbol
_atom_site_label
_atom_site_fract_x
_atom_site_fract_y
_atom_site_fract_z
Si Si1 0.203446 0.904068 0.671846
Si Si2 0.296333 0.086908 0.328020
Si Si3 0.062295 0.272395 0.324892
Si Si4 0.602521 0.965909 0.172802
Si Si5 0.611018 0.469152 0.829311
Si Si6 0.463391 0.293450 0.831584
O O1 0.190052 0.928912 0.500000
O O2 0.216771 0.745571 0.703133
O O3 0.249600 0.996580 0.721091
O O4 0.156828 0.944349 0.769920
O O5 0.309778 0.062136 0.500000
O O6 0.341767 0.034982 0.230580
O O7 0.067589 0.279119 0.500000
O O8 0.069571 0.423093 0.258221
O O9 0.008152 0.218493 0.282443
O O10 0.104587 0.171235 0.262196
O O11 0.578409 0.818517 0.205147
O O12 0.602626 0.003233 0.000000
O O13 0.560967 0.557371 0.811941
O O14 0.620911 0.431717 0.000000
O O15 0.483412 0.274074 0.000000
#
# Coordination Sequence:
#
# PCOD8227463 Si02
#       6
#     8   8   8   8   8   8
#     4  10  22  40  63  92 127 165 205 252 307 366
#     4  10  22  40  63  92 127 165 205 252 307 366
#     4  12  26  40  61  94 127 164 211 258 310 370
#     4  11  23  42  65  92 126 166 209 257 312 368
#     4  11  23  42  65  92 126 166 209 257 312 368
#     4  10  22  42  65  90 125 164 207 256 312 370
#
# _framework density 20.324825000000001
#
# number of rings (size 3 to 8) (size 9 to 14) (size 15 to 20)
#    0.000    1.333    1.667    3.500    2.333    7.333 
#    0.000    0.000    0.000    0.000    0.000    0.000 
#    0.000    0.000    0.000    0.000    0.000    0.000 
#
# Total GULP energy -595565.185701 kJ/mol
# GULP energy per Si atom -12407.608035 kJ/mol
# Density = 2.027856 g / cm^3
# Si number density = 20.324825 Si / 1000 Ang^3
#
#
#
# Elastic Constant Matrix: (Units=GPa)
#
#
# Indices 1 2 3 4 5 6 
#
# 1 86.0016 13.5396 40.1567 0.0000 0.0000 0.0000
# 2 13.5396 65.1015 36.3239 0.0000 0.0000 0.0000
# 3 40.1567 36.3239 116.8270 0.0000 0.0000 0.0000
# 4 0.0000 0.0000 0.0000 30.7257 0.0000 0.0000
# 5 0.0000 0.0000 0.0000 0.0000 37.4883 0.0000
# 6 0.0000 0.0000 0.0000 0.0000 0.0000 35.3556
#
#
#
# Elastic Compliance Matrix: (Units=1/GPa)
#
#
# Indices 1 2 3 4 5 6 
#
# 1 0.013855 -0.000271 -0.004678 0.000000 0.000000 0.000000
# 2 -0.000271 0.018590 -0.005687 0.000000 0.000000 0.000000
# 3 -0.004678 -0.005687 0.011936 0.000000 0.000000 0.000000
# 4 0.000000 0.000000 0.000000 0.032546 0.000000 0.000000
# 5 0.000000 0.000000 0.000000 0.000000 0.026675 0.000000
# 6 0.000000 0.000000 0.000000 0.000000 0.000000 0.028284
#
#
# Mechanical properties :
#
#
# Convention : Reuss Voigt Hill
#
# Bulk Modulus (GPa) = 43.27431 49.77451 46.52441
# Shear Modulus (GPa) = 31.08290 32.57460 31.82875
#
# Velocity S-wave (km/s) = 3.91488 4.00772 3.96157
# Velocity P-wave (km/s) = 6.46317 6.77926 6.62310
#
# Compressibility (1/GPa) = 0.02310840
#
# Stress axis : x y z
#
# Youngs Moduli (GPa) = 72.17805 53.79228 83.78238
#
# Poissons Ratio (x) = 0.01460 0.39192
# Poissons Ratio (y) = 0.01959 0.47645
# Poissons Ratio (z) = 0.33764 0.30590
#
# Static dielectric constant tensor:
#      x y z
#    x 3.579550 0.000000 0.000000 
#    y 0.000000 3.871560 0.000000 
#    z 0.000000 0.000000 3.654860 
# 
# 
# High freq. dielectric constant tensor:
#      x y z
#    x 1.796020 0.000000 0.000000 
#    y 0.000000 1.810310 0.000000 
#    z 0.000000 0.000000 1.793420 
# 
# From -- ./inp_files/10509.got.cif
#   From: 2010.03.12/outbox.cif.g09.slc.cpg/sg55_6_cif.got.tgz:10509.got - 2010.04.16 15:19:21.
