data_PCOD8227795
_publ_section_title
;
Structure prediction by ZEFSAII (Michael W. Deem and Ramdas Pophale) SiO2 
 PCOD8227795
Probable space group: P B A M
;
_chemical_formula_sum "Si O2"
_cell_formula_units_Z 40
_cell_length_a 8.545120
_cell_length_b 19.811531
_cell_length_c 11.276529
_cell_angle_alpha 90.000000
_cell_angle_beta 90.000000
_cell_angle_gamma 90.000000
_cell_volume 1909.025130
_symmetry_space_group_name_H-M "P B A M"
_symmetry_group_IT_number 55
_symmetry_cell_setting 'orthorhombic'
loop_
_space_group_symop_operation_xyz
x,y,z
-x,-y,z
1/2+x,1/2-y,-z
1/2-x,1/2+y,-z
-x,-y,-z
x,y,-z
1/2-x,1/2+y,z
1/2+x,1/2-y,z
loop_
_atom_site_type_symbol
_atom_site_label
_atom_site_fract_x
_atom_site_fract_y
_atom_site_fract_z
Si Si1 0.022757 0.651373 0.000000
Si Si2 0.243314 0.759751 0.000000
Si Si3 0.431677 0.072688 0.775613
Si Si4 0.932774 0.688752 0.637344
Si Si5 0.108829 0.810577 0.242571
Si Si6 0.419556 0.571423 0.137927
O O1 0.204531 0.678664 0.000000
O O2 0.978048 0.606012 0.887491
O O3 0.927716 0.722687 0.000000
O O4 0.174595 0.792581 0.884118
O O5 0.462902 0.122389 0.665261
O O6 0.252910 0.065216 0.809751
O O7 0.500000 0.000000 0.744667
O O8 0.951139 0.705618 0.500000
O O9 0.750471 0.676042 0.666414
O O10 0.995047 0.751924 0.711892
O O11 0.007812 0.877545 0.225181
O O12 0.500000 0.500000 0.151890
O O13 0.419025 0.593815 0.000000
#
# Coordination Sequence:
#
# PCOD8227795 Si02
#       6
#     4   4   8   8   8   8
#     4  12  25  38  66 105 139 175 221 269 353 406
#     4  12  22  38  66 102 133 170 209 282 338 402
#     4  12  25  43  68  99 142 180 224 281 342 411
#     4  12  27  46  70  96 132 184 236 285 332 399
#     4  12  23  43  68  99 137 172 226 284 342 403
#     4  11  25  40  66 103 142 176 214 271 350 426
#
# _framework density 20.953102000000001
#
# number of rings (size 3 to 8) (size 9 to 14) (size 15 to 20)
#    0.000    0.200    6.000    3.300    2.800    0.400 
#    0.000    1.000    0.000    4.200    0.000    0.000 
#    0.000    0.000    0.000    0.000    0.000    0.000 
#
# Total GULP energy -496043.498696 kJ/mol
# GULP energy per Si atom -12401.087467 kJ/mol
# Density = 2.090541 g / cm^3
# Si number density = 20.953102 Si / 1000 Ang^3
#
#
#
# Elastic Constant Matrix: (Units=GPa)
#
#
# Indices 1 2 3 4 5 6 
#
# 1 123.8457 58.3904 41.5018 0.0000 0.0000 0.0000
# 2 58.3904 146.6331 33.5869 0.0000 0.0000 0.0000
# 3 41.5018 33.5869 82.2808 0.0000 0.0000 0.0000
# 4 0.0000 0.0000 0.0000 41.7214 0.0000 0.0000
# 5 0.0000 0.0000 0.0000 0.0000 27.1687 0.0000
# 6 0.0000 0.0000 0.0000 0.0000 0.0000 41.2532
#
#
#
# Elastic Compliance Matrix: (Units=1/GPa)
#
#
# Indices 1 2 3 4 5 6 
#
# 1 0.011113 -0.003465 -0.004191 0.000000 0.000000 0.000000
# 2 -0.003465 0.008604 -0.001764 0.000000 0.000000 0.000000
# 3 -0.004191 -0.001764 0.014987 0.000000 0.000000 0.000000
# 4 0.000000 0.000000 0.000000 0.023968 0.000000 0.000000
# 5 0.000000 0.000000 0.000000 0.000000 0.036807 0.000000
# 6 0.000000 0.000000 0.000000 0.000000 0.000000 0.024241
#
#
# Mechanical properties :
#
#
# Convention : Reuss Voigt Hill
#
# Bulk Modulus (GPa) = 63.03736 68.85756 65.94746
# Shear Modulus (GPa) = 34.75893 36.64736 35.70315
#
# Velocity S-wave (km/s) = 4.07737 4.18666 4.13238
# Velocity P-wave (km/s) = 7.23304 7.50366 7.36959
#
# Compressibility (1/GPa) = 0.01586361
#
# Stress axis : x y z
#
# Youngs Moduli (GPa) = 89.98730 116.22869 66.72289
#
# Poissons Ratio (x) = 0.40276 0.27961
# Poissons Ratio (y) = 0.31183 0.11771
# Poissons Ratio (z) = 0.37710 0.20505
#
# Static dielectric constant tensor:
#      x y z
#    x 4.185080 0.000000 0.000000 
#    y 0.000000 4.003870 0.000000 
#    z 0.000000 0.000000 3.027400 
# 
# 
# High freq. dielectric constant tensor:
#      x y z
#    x 1.838120 0.000000 0.000000 
#    y 0.000000 1.830550 0.000000 
#    z 0.000000 0.000000 1.803670 
# 
# From -- ./inp_files/12078.got.cif
#   From: 2010.03.12/outbox.cif.g09.slc.cpg/sg55_7_cif.got.tgz:12078.got - 2010.04.16 15:19:21.
