data_PCOD8227269
_publ_section_title
;
Structure prediction by ZEFSAII (Michael W. Deem and Ramdas Pophale) SiO2 
 PCOD8227269
Probable space group: P B A M
;
_chemical_formula_sum "Si O2"
_cell_formula_units_Z 64
_cell_length_a 30.149656
_cell_length_b 11.823007
_cell_length_c 9.086052
_cell_angle_alpha 90.000000
_cell_angle_beta 90.000000
_cell_angle_gamma 90.000000
_cell_volume 3238.810406
_symmetry_space_group_name_H-M "P B A M"
_symmetry_group_IT_number 55
_symmetry_cell_setting 'orthorhombic'
loop_
_space_group_symop_operation_xyz
x,y,z
-x,-y,z
1/2+x,1/2-y,-z
1/2-x,1/2+y,-z
-x,-y,-z
x,y,-z
1/2-x,1/2+y,z
1/2+x,1/2-y,z
loop_
_atom_site_type_symbol
_atom_site_label
_atom_site_fract_x
_atom_site_fract_y
_atom_site_fract_z
Si Si1 0.701360 0.743363 0.170646
Si Si2 0.957184 0.798174 0.332220
Si Si3 0.671492 0.496282 0.834392
Si Si4 0.622632 0.905222 0.174344
Si Si5 0.443976 0.256430 0.330707
Si Si6 0.929497 0.009941 0.831256
Si Si7 0.290883 0.706326 0.671992
Si Si8 0.624717 0.144275 0.327079
O O1 0.676635 0.626980 0.208129
O O2 0.668256 0.843113 0.219543
O O3 0.746364 0.744472 0.260708
O O4 0.713420 0.753814 0.000000
O O5 0.948093 0.836589 0.500000
O O6 0.960591 0.911331 0.233599
O O7 0.918369 0.715195 0.278513
O O8 0.003513 0.731883 0.318015
O O9 0.620305 0.463039 0.818219
O O10 0.701106 0.420514 0.727877
O O11 0.688338 0.474548 0.000000
O O12 0.580683 0.843103 0.245441
O O13 0.625267 0.031372 0.232908
O O14 0.616024 0.903958 0.000000
O O15 0.428488 0.257136 0.500000
O O16 0.433245 0.377069 0.261806
O O17 0.942686 0.034743 0.000000
O O18 0.284634 0.700064 0.500000
O O19 0.331605 0.786248 0.717155
O O20 0.623551 0.115320 0.500000
#
# Coordination Sequence:
#
# PCOD8227269 Si02
#       8
#     8   8   8   8   8   8   8   8
#     4  10  23  43  63  87 122 162 200 244 301 364
#     4  10  22  41  62  88 123 163 203 243 302 369
#     4  10  21  40  64  89 121 161 199 240 300 360
#     4  11  24  43  64  88 120 159 205 252 301 358
#     4  11  23  39  63  90 121 162 202 246 303 364
#     4  11  21  37  62  93 126 157 200 252 299 354
#     4  11  24  40  63  94 123 155 201 253 297 350
#     4  10  23  43  62  86 122 160 201 248 300 358
#
# _framework density 19.760341
#
# number of rings (size 3 to 8) (size 9 to 14) (size 15 to 20)
#    0.000    1.500    2.500    1.875    1.750    6.500 
#    0.000    2.500    0.000    0.000    0.000    0.000 
#    0.000    0.000    0.000    0.000    0.000    0.000 
#
# Total GULP energy -793943.908380 kJ/mol
# GULP energy per Si atom -12405.373568 kJ/mol
# Density = 1.971537 g / cm^3
# Si number density = 19.760341 Si / 1000 Ang^3
#
#
#
# Elastic Constant Matrix: (Units=GPa)
#
#
# Indices 1 2 3 4 5 6 
#
# 1 103.1769 39.1246 51.5739 0.0000 0.0000 0.0000
# 2 39.1246 113.5229 58.9707 0.0000 0.0000 0.0000
# 3 51.5739 58.9707 93.6561 0.0000 0.0000 0.0000
# 4 0.0000 0.0000 0.0000 40.9384 0.0000 0.0000
# 5 0.0000 0.0000 0.0000 0.0000 34.0729 0.0000
# 6 0.0000 0.0000 0.0000 0.0000 0.0000 24.2408
#
#
#
# Elastic Compliance Matrix: (Units=1/GPa)
#
#
# Indices 1 2 3 4 5 6 
#
# 1 0.013478 -0.001173 -0.006683 0.000000 0.000000 0.000000
# 2 -0.001173 0.013193 -0.007661 0.000000 0.000000 0.000000
# 3 -0.006683 -0.007661 0.019181 0.000000 0.000000 0.000000
# 4 0.000000 0.000000 0.000000 0.024427 0.000000 0.000000
# 5 0.000000 0.000000 0.000000 0.000000 0.029349 0.000000
# 6 0.000000 0.000000 0.000000 0.000000 0.000000 0.041253
#
#
# Mechanical properties :
#
#
# Convention : Reuss Voigt Hill
#
# Bulk Modulus (GPa) = 67.48852 67.74383 67.61618
# Shear Modulus (GPa) = 28.27217 30.56286 29.41751
#
# Velocity S-wave (km/s) = 3.78663 3.93705 3.86257
# Velocity P-wave (km/s) = 7.30382 7.41783 7.36105
#
# Compressibility (1/GPa) = 0.01481734
#
# Stress axis : x y z
#
# Youngs Moduli (GPa) = 74.19743 75.80039 52.13517
#
# Poissons Ratio (x) = 0.08895 0.34841
# Poissons Ratio (y) = 0.08706 0.39938
# Poissons Ratio (z) = 0.49585 0.58067
#
# Static dielectric constant tensor:
#      x y z
#    x 3.767410 0.000000 0.000000 
#    y 0.000000 3.511620 0.000000 
#    z 0.000000 0.000000 3.645580 
# 
# 
# High freq. dielectric constant tensor:
#      x y z
#    x 1.781930 0.000000 0.000000 
#    y 0.000000 1.770040 0.000000 
#    z 0.000000 0.000000 1.773840 
# 
# From -- ./inp_files/4610.got.cif
#   From: 2010.03.12/outbox.cif.g09.slc.cpg/sg55_3_cif.got.tgz:4610.got - 2010.04.16 15:19:21.
