data_PCOD8227956
_publ_section_title
;
Structure prediction by ZEFSAII (Michael W. Deem and Ramdas Pophale) SiO2 
 PCOD8227956
Probable space group: P C C N
;
_chemical_formula_sum "Si O2"
_cell_formula_units_Z 52
_cell_length_a 19.850764
_cell_length_b 9.191124
_cell_length_c 15.092858
_cell_angle_alpha 90.000000
_cell_angle_beta 90.000000
_cell_angle_gamma 90.000000
_cell_volume 2753.704521
_symmetry_space_group_name_H-M "P C C N"
_symmetry_group_IT_number 56
_symmetry_cell_setting 'orthorhombic'
loop_
_space_group_symop_operation_xyz
x,y,z
1/2-x,1/2-y,z
1/2+x,-y,1/2-z
-x,1/2+y,1/2-z
-x,-y,-z
1/2+x,1/2+y,-z
1/2-x,y,1/2+z
x,1/2-y,1/2+z
loop_
_atom_site_type_symbol
_atom_site_label
_atom_site_fract_x
_atom_site_fract_y
_atom_site_fract_z
Si Si1 0.592051 0.471943 0.447509
Si Si2 0.475693 0.721172 0.823102
Si Si3 0.250000 0.750000 0.797605
Si Si4 0.137111 0.549170 0.865637
Si Si5 0.593755 0.740880 0.182005
Si Si6 0.487776 0.261509 0.492178
Si Si7 0.138785 0.535503 0.240631
O O1 0.641280 0.481639 0.530548
O O2 0.556337 0.312259 0.442507
O O3 0.536730 0.597109 0.453889
O O4 0.636032 0.502436 0.361972
O O5 0.429755 0.863858 0.837599
O O6 0.537586 0.760960 0.759191
O O7 0.431857 0.598574 0.775535
O O8 0.498414 0.657110 0.921680
O O9 0.205429 0.637650 0.852591
O O10 0.299938 0.648326 0.742592
O O11 0.133243 0.394330 0.815186
O O12 0.563084 0.705681 0.083650
O O13 0.648306 0.614211 0.203688
#
# Coordination Sequence:
#
# PCOD8227956 Si02
#       7
#     8   8   4   8   8   8   8
#     4   9  16  32  56  83 108 148 178 220 278 334
#     4  10  18  33  55  89 119 140 173 226 280 337
#     4  10  24  42  54  76 104 150 194 234 274 316
#     4   9  21  37  58  76 111 149 185 226 271 327
#     4  11  19  32  59  86 111 143 178 231 280 330
#     4   9  17  30  53  86 121 141 171 215 289 341
#     4  11  21  34  58  82 113 149 186 228 274 326
#
# _framework density 18.883652999999999
#
# number of rings (size 3 to 8) (size 9 to 14) (size 15 to 20)
#    0.000    2.154    3.077    1.846    0.000    1.846 
#    0.000    0.000    3.385    1.846    0.000    0.000 
#    0.000    0.000    0.000    0.000    0.000    0.000 
#
# Total GULP energy -644185.310701 kJ/mol
# GULP energy per Si atom -12388.179052 kJ/mol
# Density = 1.884067 g / cm^3
# Si number density = 18.883653 Si / 1000 Ang^3
#
#
#
# Elastic Constant Matrix: (Units=GPa)
#
#
# Indices 1 2 3 4 5 6 
#
# 1 71.9567 31.2236 32.2500 0.0000 0.0000 0.0000
# 2 31.2236 93.8288 37.7871 0.0000 0.0000 0.0000
# 3 32.2500 37.7871 118.4756 0.0000 0.0000 0.0000
# 4 0.0000 0.0000 0.0000 22.9203 0.0000 0.0000
# 5 0.0000 0.0000 0.0000 0.0000 8.7397 0.0000
# 6 0.0000 0.0000 0.0000 0.0000 0.0000 26.5998
#
#
#
# Elastic Compliance Matrix: (Units=1/GPa)
#
#
# Indices 1 2 3 4 5 6 
#
# 1 0.017296 -0.004428 -0.003296 0.000000 0.000000 0.000000
# 2 -0.004428 0.013362 -0.003056 0.000000 0.000000 0.000000
# 3 -0.003296 -0.003056 0.010312 0.000000 0.000000 0.000000
# 4 0.000000 0.000000 0.000000 0.043630 0.000000 0.000000
# 5 0.000000 0.000000 0.000000 0.000000 0.114421 0.000000
# 6 0.000000 0.000000 0.000000 0.000000 0.000000 0.037594
#
#
# Mechanical properties :
#
#
# Convention : Reuss Voigt Hill
#
# Bulk Modulus (GPa) = 51.52040 54.08694 52.80367
# Shear Modulus (GPa) = 18.89318 23.85198 21.37258
#
# Velocity S-wave (km/s) = 3.16651 3.55787 3.36788
# Velocity P-wave (km/s) = 6.38054 6.75147 6.56862
#
# Compressibility (1/GPa) = 0.01940979
#
# Stress axis : x y z
#
# Youngs Moduli (GPa) = 57.81722 74.83794 96.96980
#
# Poissons Ratio (x) = 0.33141 0.31958
# Poissons Ratio (y) = 0.25603 0.29638
# Poissons Ratio (z) = 0.19055 0.22873
#
# Static dielectric constant tensor:
#      x y z
#    x 3.264880 0.000000 0.000000 
#    y 0.000000 3.573770 0.000000 
#    z 0.000000 0.000000 3.599900 
# 
# 
# High freq. dielectric constant tensor:
#      x y z
#    x 1.700250 0.000000 0.000000 
#    y 0.000000 1.726750 0.000000 
#    z 0.000000 0.000000 1.744090 
# 
# From -- ./inp_files/10811.got.cif
#   From: 2010.03.12/outbox.cif.g09.slc.cpg/sg56_6_cif.got.tgz:10811.got - 2010.04.16 15:33:40.
