data_PCOD8227644
_publ_section_title
;
Structure prediction by ZEFSAII (Michael W. Deem and Ramdas Pophale) SiO2 
 PCOD8227644
Probable space group: P B A M
;
_chemical_formula_sum "Si O2"
_cell_formula_units_Z 56
_cell_length_a 10.239047
_cell_length_b 25.397238
_cell_length_c 12.523343
_cell_angle_alpha 90.000000
_cell_angle_beta 90.000000
_cell_angle_gamma 90.000000
_cell_volume 3256.614115
_symmetry_space_group_name_H-M "P B A M"
_symmetry_group_IT_number 55
_symmetry_cell_setting 'orthorhombic'
loop_
_space_group_symop_operation_xyz
x,y,z
-x,-y,z
1/2+x,1/2-y,-z
1/2-x,1/2+y,-z
-x,-y,-z
x,y,-z
1/2-x,1/2+y,z
1/2+x,1/2-y,z
loop_
_atom_site_type_symbol
_atom_site_label
_atom_site_fract_x
_atom_site_fract_y
_atom_site_fract_z
Si Si1 0.234623 0.871918 0.194391
Si Si2 0.499878 0.303790 0.125059
Si Si3 0.649668 0.562733 0.000000
Si Si4 0.849006 0.938965 0.000000
Si Si5 0.003602 0.319186 0.874417
Si Si6 0.156367 0.942622 0.622676
Si Si7 0.240084 0.128853 0.189072
Si Si8 0.646636 0.437964 0.377050
O O1 0.221740 0.915808 0.103659
O O2 0.365910 0.839364 0.180972
O O3 0.240574 0.902454 0.306801
O O4 0.114028 0.831648 0.191576
O O5 0.491969 0.242334 0.148295
O O6 0.639736 0.324108 0.164798
O O7 0.480011 0.315823 0.000000
O O8 0.498713 0.580471 0.000000
O O9 0.662782 0.500822 0.000000
O O10 0.778205 0.917963 0.895069
O O11 0.884352 0.348371 0.818356
O O12 0.005666 0.331376 0.000000
O O13 0.179513 0.927449 0.500000
O O14 0.005204 0.936285 0.654532
O O15 0.199911 0.002945 0.643501
O O16 0.223355 0.104520 0.306599
O O17 0.666952 0.422121 0.500000
#
# Coordination Sequence:
#
# PCOD8227644 Si02
#       8
#     8   8   4   4   8   8   8   8
#     4  12  19  36  55  82 110 143 179 224 277 320
#     4  11  20  36  57  80 105 145 192 228 268 322
#     4  11  20  31  52  82 107 136 177 225 270 322
#     4  11  20  31  52  82 107 136 177 225 270 322
#     4  11  24  36  53  78 117 147 184 224 268 334
#     4   9  18  34  59  86 108 139 184 227 267 321
#     4  12  19  36  55  82 110 143 179 224 277 320
#     4   9  18  34  59  86 108 139 184 227 267 321
#
# _framework density 17.195774
#
# number of rings (size 3 to 8) (size 9 to 14) (size 15 to 20)
#    0.000    1.286    5.714    2.571    0.000    4.571 
#    0.000    4.286    0.000    6.857    0.000    0.000 
#    0.000    0.000    0.000    0.000    0.000    0.000 
#
# Total GULP energy -694617.207253 kJ/mol
# GULP energy per Si atom -12403.878701 kJ/mol
# Density = 1.715664 g / cm^3
# Si number density = 17.195774 Si / 1000 Ang^3
#
#
#
# Elastic Constant Matrix: (Units=GPa)
#
#
# Indices 1 2 3 4 5 6 
#
# 1 51.1419 16.4821 8.2267 0.0000 0.0000 0.0000
# 2 16.4821 87.9570 38.6685 0.0000 0.0000 0.0000
# 3 8.2267 38.6685 83.2145 0.0000 0.0000 0.0000
# 4 0.0000 0.0000 0.0000 30.9522 0.0000 0.0000
# 5 0.0000 0.0000 0.0000 0.0000 23.2307 0.0000
# 6 0.0000 0.0000 0.0000 0.0000 0.0000 -31.6604
#
#
#
# Elastic Compliance Matrix: (Units=1/GPa)
#
#
# Indices 1 2 3 4 5 6 
#
# 1 0.020817 -0.003765 -0.000308 0.000000 0.000000 0.000000
# 2 -0.003765 0.014969 -0.006584 0.000000 0.000000 0.000000
# 3 -0.000308 -0.006584 0.015107 0.000000 0.000000 0.000000
# 4 0.000000 0.000000 0.000000 0.032308 0.000000 0.000000
# 5 0.000000 0.000000 0.000000 0.000000 0.043046 0.000000
# 6 0.000000 0.000000 0.000000 0.000000 0.000000 -0.031585
#
#
# Mechanical properties :
#
#
# Convention : Reuss Voigt Hill
#
# Bulk Modulus (GPa) = 33.80877 38.78536 36.29706
# Shear Modulus (GPa) = 39.73438 15.10023 27.41731
#
# Velocity S-wave (km/s) = 4.81220 2.96655 3.99735
# Velocity P-wave (km/s) = 7.11197 5.85987 6.51606
#
# Compressibility (1/GPa) = 0.02957813
#
# Stress axis : x y z
#
# Youngs Moduli (GPa) = 48.03878 66.80409 66.19469
#
# Poissons Ratio (x) = 0.25153 0.02041
# Poissons Ratio (y) = 0.18088 0.43581
# Poissons Ratio (z) = 0.01481 0.43982
#
# Static dielectric constant tensor:
#      x y z
#    x 3.058490 0.000000 0.000000 
#    y 0.000000 3.280230 0.000000 
#    z 0.000000 0.000000 2.506750 
# 
# 
# High freq. dielectric constant tensor:
#      x y z
#    x 1.646210 0.000000 0.000000 
#    y 0.000000 1.675350 0.000000 
#    z 0.000000 0.000000 1.653270 
# 
# From -- ./inp_files/13534.got.cif
#   From: 2010.03.12/outbox.cif.g09.slc.cpg/sg55_7_cif.got.tgz:13534.got - 2010.04.16 15:19:21.
