data_PCOD8227166
_publ_section_title
;
Structure prediction by ZEFSAII (Michael W. Deem and Ramdas Pophale) SiO2 
 PCOD8227166
Probable space group: P B A M
;
_chemical_formula_sum "Si O2"
_cell_formula_units_Z 48
_cell_length_a 17.260959
_cell_length_b 8.835733
_cell_length_c 14.258313
_cell_angle_alpha 90.000000
_cell_angle_beta 90.000000
_cell_angle_gamma 90.000000
_cell_volume 2174.581299
_symmetry_space_group_name_H-M "P B A M"
_symmetry_group_IT_number 55
_symmetry_cell_setting 'orthorhombic'
loop_
_space_group_symop_operation_xyz
x,y,z
-x,-y,z
1/2+x,1/2-y,-z
1/2-x,1/2+y,-z
-x,-y,-z
x,y,-z
1/2-x,1/2+y,z
1/2+x,1/2-y,z
loop_
_atom_site_type_symbol
_atom_site_label
_atom_site_fract_x
_atom_site_fract_y
_atom_site_fract_z
Si Si1 0.321484 0.277079 0.107094
Si Si2 0.831931 0.725556 0.771897
Si Si3 0.083244 0.572664 0.770466
Si Si4 0.578378 0.434425 0.893807
Si Si5 0.300556 0.565970 0.395651
Si Si6 0.645688 0.767674 0.603776
O O1 0.251608 0.255094 0.179733
O O2 0.391396 0.165686 0.137136
O O3 0.350531 0.448716 0.113334
O O4 0.296301 0.238258 0.000000
O O5 0.850553 0.552074 0.750702
O O6 0.898750 0.781479 0.841888
O O7 0.841618 0.823797 0.677868
O O8 0.081117 0.685595 0.680187
O O9 0.000000 0.500000 0.786933
O O10 0.500000 0.500000 0.847291
O O11 0.559820 0.388993 0.000000
O O12 0.335446 0.594670 0.500000
O O13 0.209562 0.600496 0.397347
O O14 0.313627 0.390786 0.366093
O O15 0.607651 0.753684 0.500000
#
# Coordination Sequence:
#
# PCOD8227166 Si02
#       6
#     8   8   8   8   8   8
#     4  11  24  42  64  91 124 164 215 267 317 377
#     4  12  23  38  65  95 126 164 215 266 315 379
#     4  12  26  41  62  96 135 173 211 263 328 383
#     4  10  22  41  63  87 122 168 212 258 317 379
#     4  10  21  38  66  97 126 164 214 269 319 377
#     4  10  21  40  63  92 128 166 213 264 319 380
#
# _framework density 22.073212999999999
#
# number of rings (size 3 to 8) (size 9 to 14) (size 15 to 20)
#    0.000    1.167    1.667    4.500    0.000    5.333 
#    0.000    0.000    0.000    2.500    0.000    0.000 
#    0.000    0.000    0.000    0.000    0.000    0.000 
#
# Total GULP energy -595272.714934 kJ/mol
# GULP energy per Si atom -12401.514894 kJ/mol
# Density = 2.202297 g / cm^3
# Si number density = 22.073213 Si / 1000 Ang^3
#
#
#
# Elastic Constant Matrix: (Units=GPa)
#
#
# Indices 1 2 3 4 5 6 
#
# 1 55.1728 0.6897 22.0101 0.0000 0.0000 0.0000
# 2 0.6897 87.1974 45.0217 0.0000 0.0000 0.0000
# 3 22.0101 45.0217 120.1834 0.0000 0.0000 0.0000
# 4 0.0000 0.0000 0.0000 30.7814 0.0000 0.0000
# 5 0.0000 0.0000 0.0000 0.0000 25.5057 0.0000
# 6 0.0000 0.0000 0.0000 0.0000 0.0000 31.2516
#
#
#
# Elastic Compliance Matrix: (Units=1/GPa)
#
#
# Indices 1 2 3 4 5 6 
#
# 1 0.019869 0.002134 -0.004438 0.000000 0.000000 0.000000
# 2 0.002134 0.014448 -0.005803 0.000000 0.000000 0.000000
# 3 -0.004438 -0.005803 0.011307 0.000000 0.000000 0.000000
# 4 0.000000 0.000000 0.000000 0.032487 0.000000 0.000000
# 5 0.000000 0.000000 0.000000 0.000000 0.039207 0.000000
# 6 0.000000 0.000000 0.000000 0.000000 0.000000 0.031998
#
#
# Mechanical properties :
#
#
# Convention : Reuss Voigt Hill
#
# Bulk Modulus (GPa) = 34.00231 44.22184 39.11207
# Shear Modulus (GPa) = 28.51713 30.49655 29.50684
#
# Velocity S-wave (km/s) = 3.59825 3.72103 3.66015
# Velocity P-wave (km/s) = 5.71847 6.20799 5.96825
#
# Compressibility (1/GPa) = 0.02940977
#
# Stress axis : x y z
#
# Youngs Moduli (GPa) = 50.33030 69.21566 88.43830
#
# Poissons Ratio (x) = -0.14774 0.39251
# Poissons Ratio (y) = -0.10743 0.51321
# Poissons Ratio (z) = 0.22338 0.40166
#
# Static dielectric constant tensor:
#      x y z
#    x 3.564610 0.000000 0.000000 
#    y 0.000000 4.026350 0.000000 
#    z 0.000000 0.000000 4.221780 
# 
# 
# High freq. dielectric constant tensor:
#      x y z
#    x 1.838480 0.000000 0.000000 
#    y 0.000000 1.877770 0.000000 
#    z 0.000000 0.000000 1.882690 
# 
# From -- ./inp_files/17350.got.cif
#   From: 2010.03.12/outbox.cif.g09.slc.cpg/sg55_9_cif.got.tgz:17350.got - 2010.04.16 15:19:21.
