data_PCOD8227184
_publ_section_title
;
Structure prediction by ZEFSAII (Michael W. Deem and Ramdas Pophale) SiO2 
 PCOD8227184
Probable space group: P B A M
;
_chemical_formula_sum "Si O2"
_cell_formula_units_Z 32
_cell_length_a 8.861533
_cell_length_b 15.373853
_cell_length_c 12.888312
_cell_angle_alpha 90.000000
_cell_angle_beta 90.000000
_cell_angle_gamma 90.000000
_cell_volume 1755.850858
_symmetry_space_group_name_H-M "P B A M"
_symmetry_group_IT_number 55
_symmetry_cell_setting 'orthorhombic'
loop_
_space_group_symop_operation_xyz
x,y,z
-x,-y,z
1/2+x,1/2-y,-z
1/2-x,1/2+y,-z
-x,-y,-z
x,y,-z
1/2-x,1/2+y,z
1/2+x,1/2-y,z
loop_
_atom_site_type_symbol
_atom_site_label
_atom_site_fract_x
_atom_site_fract_y
_atom_site_fract_z
Si Si1 0.181216 0.672063 0.381689
Si Si2 0.348081 0.945429 0.883791
Si Si3 0.151243 0.332113 0.699272
Si Si4 0.677433 0.501738 0.698367
O O1 0.212458 0.699014 0.500000
O O2 0.262638 0.740867 0.306673
O O3 0.247912 0.577420 0.361832
O O4 0.003777 0.672629 0.362417
O O5 0.377863 0.855040 0.821253
O O6 0.500000 0.000000 0.886625
O O7 0.221506 0.001286 0.821212
O O8 0.290835 0.924879 0.000000
O O9 0.254640 0.409032 0.649536
O O10 0.500000 0.500000 0.682949
#
# Coordination Sequence:
#
# PCOD8227184 Si02
#       4
#     8   8   8   8
#     4  12  23  38  61  86 118 163 200 248 307 354
#     4   9  18  40  66  87 118 158 195 247 308 352
#     4  10  22  40  57  89 121 153 205 254 293 368
#     4  10  21  39  61  87 123 152 201 250 295 365
#
# _framework density 18.224782999999999
#
# number of rings (size 3 to 8) (size 9 to 14) (size 15 to 20)
#    1.500    0.250    2.500    3.000    0.000    4.000 
#    0.000    2.500    0.000    0.000    0.000    0.000 
#    0.000    0.000    0.000    0.000    0.000    0.000 
#
# Total GULP energy -396593.807353 kJ/mol
# GULP energy per Si atom -12393.556480 kJ/mol
# Density = 1.818330 g / cm^3
# Si number density = 18.224783 Si / 1000 Ang^3
#
#
#
# Elastic Constant Matrix: (Units=GPa)
#
#
# Indices 1 2 3 4 5 6 
#
# 1 110.6404 23.6471 12.1002 0.0000 0.0000 0.0000
# 2 23.6471 76.4403 15.5530 0.0000 0.0000 0.0000
# 3 12.1002 15.5530 102.9659 0.0000 0.0000 0.0000
# 4 0.0000 0.0000 0.0000 19.9964 0.0000 0.0000
# 5 0.0000 0.0000 0.0000 0.0000 11.5716 0.0000
# 6 0.0000 0.0000 0.0000 0.0000 0.0000 37.9811
#
#
#
# Elastic Compliance Matrix: (Units=1/GPa)
#
#
# Indices 1 2 3 4 5 6 
#
# 1 0.009728 -0.002865 -0.000710 0.000000 0.000000 0.000000
# 2 -0.002865 0.014341 -0.001829 0.000000 0.000000 0.000000
# 3 -0.000710 -0.001829 0.010072 0.000000 0.000000 0.000000
# 4 0.000000 0.000000 0.000000 0.050009 0.000000 0.000000
# 5 0.000000 0.000000 0.000000 0.000000 0.086419 0.000000
# 6 0.000000 0.000000 0.000000 0.000000 0.000000 0.026329
#
#
# Mechanical properties :
#
#
# Convention : Reuss Voigt Hill
#
# Bulk Modulus (GPa) = 42.86156 43.62747 43.24452
# Shear Modulus (GPa) = 23.20356 29.82622 26.51489
#
# Velocity S-wave (km/s) = 3.57205 4.04985 3.81843
# Velocity P-wave (km/s) = 6.37040 6.77192 6.57423
#
# Compressibility (1/GPa) = 0.02333093
#
# Stress axis : x y z
#
# Youngs Moduli (GPa) = 102.79273 69.73202 99.28722
#
# Poissons Ratio (x) = 0.19978 0.07054
# Poissons Ratio (y) = 0.29449 0.18164
# Poissons Ratio (z) = 0.07303 0.12757
#
# Static dielectric constant tensor:
#      x y z
#    x 3.350120 0.000000 0.000000 
#    y 0.000000 2.253970 0.000000 
#    z 0.000000 0.000000 3.362020 
# 
# 
# High freq. dielectric constant tensor:
#      x y z
#    x 1.712770 0.000000 0.000000 
#    y 0.000000 1.702410 0.000000 
#    z 0.000000 0.000000 1.694060 
# 
# From -- ./inp_files/14614.got.cif
#   From: 2010.03.12/outbox.cif.g09.slc.cpg/sg55_8_cif.got.tgz:14614.got - 2010.04.16 15:19:21.
