data_PCOD8227941
_publ_section_title
;
Structure prediction by ZEFSAII (Michael W. Deem and Ramdas Pophale) SiO2 
 PCOD8227941
Probable space group: P C C N
;
_chemical_formula_sum "Si O2"
_cell_formula_units_Z 64
_cell_length_a 18.834133
_cell_length_b 19.467166
_cell_length_c 9.764272
_cell_angle_alpha 90.000000
_cell_angle_beta 90.000000
_cell_angle_gamma 90.000000
_cell_volume 3580.042926
_symmetry_space_group_name_H-M "P C C N"
_symmetry_group_IT_number 56
_symmetry_cell_setting 'orthorhombic'
loop_
_space_group_symop_operation_xyz
x,y,z
1/2-x,1/2-y,z
1/2+x,-y,1/2-z
-x,1/2+y,1/2-z
-x,-y,-z
1/2+x,1/2+y,-z
1/2-x,y,1/2+z
x,1/2-y,1/2+z
loop_
_atom_site_type_symbol
_atom_site_label
_atom_site_fract_x
_atom_site_fract_y
_atom_site_fract_z
Si Si1 0.474303 0.039044 0.368291
Si Si2 0.701905 0.676258 0.198297
Si Si3 0.299860 0.498371 0.502882
Si Si4 0.318477 0.486066 0.804010
Si Si5 0.520946 0.811594 0.948005
Si Si6 0.179180 0.162465 0.500587
Si Si7 0.950108 0.451508 0.087821
Si Si8 0.049202 0.304365 0.365372
O O1 0.401998 0.001205 0.323039
O O2 0.531243 0.035671 0.246371
O O3 0.464029 0.117890 0.410240
O O4 0.500000 0.000000 0.500000
O O5 0.692502 0.594943 0.198242
O O6 0.776708 0.697491 0.125695
O O7 0.703669 0.698650 0.357534
O O8 0.634276 0.709951 0.117975
O O9 0.295270 0.521320 0.660912
O O10 0.228750 0.522027 0.422356
O O11 0.301544 0.416922 0.497278
O O12 0.367771 0.532310 0.430772
O O13 0.463966 0.872717 0.959359
O O14 0.528300 0.789968 0.790843
O O15 0.594765 0.836233 0.014947
O O16 0.501044 0.744351 0.037318
O O17 0.000000 0.500000 0.000000
#
# Coordination Sequence:
#
# PCOD8227941 Si02
#       8
#     8   8   8   8   8   8   8   8
#     4  10  21  36  54  80 113 135 174 229 273 321
#     4   8  16  29  44  64  98 134 171 205 248 296
#     4  10  18  32  51  77 110 139 178 217 270 319
#     4   9  18  31  49  75 108 139 170 217 266 322
#     4  10  20  34  51  69 103 138 180 218 259 308
#     4   9  16  29  46  68  98 139 172 212 246 302
#     4  11  19  35  55  77 107 145 180 223 268 316
#     4   9  20  36  47  70 102 136 171 220 258 316
#
# _framework density 17.876881000000001
#
# number of rings (size 3 to 8) (size 9 to 14) (size 15 to 20)
#    0.000    2.500    2.500    1.500    1.750    2.500 
#    2.250    2.500    0.000    0.000    0.000    0.875 
#    0.000    0.000    0.000    0.000    0.000    0.000 
#
# Total GULP energy -793277.401658 kJ/mol
# GULP energy per Si atom -12394.959401 kJ/mol
# Density = 1.783619 g / cm^3
# Si number density = 17.876881 Si / 1000 Ang^3
#
#
#
# Elastic Constant Matrix: (Units=GPa)
#
#
# Indices 1 2 3 4 5 6 
#
# 1 68.8564 22.4235 41.4817 0.0000 0.0000 0.0000
# 2 22.4235 54.9896 37.8199 0.0000 0.0000 0.0000
# 3 41.4817 37.8199 95.3186 0.0000 0.0000 0.0000
# 4 0.0000 0.0000 0.0000 22.8463 0.0000 0.0000
# 5 0.0000 0.0000 0.0000 0.0000 29.1874 0.0000
# 6 0.0000 0.0000 0.0000 0.0000 0.0000 25.6001
#
#
#
# Elastic Compliance Matrix: (Units=1/GPa)
#
#
# Indices 1 2 3 4 5 6 
#
# 1 0.020034 -0.002989 -0.007533 0.000000 0.000000 0.000000
# 2 -0.002989 0.025456 -0.008800 0.000000 0.000000 0.000000
# 3 -0.007533 -0.008800 0.017261 0.000000 0.000000 0.000000
# 4 0.000000 0.000000 0.000000 0.043771 0.000000 0.000000
# 5 0.000000 0.000000 0.000000 0.000000 0.034261 0.000000
# 6 0.000000 0.000000 0.000000 0.000000 0.000000 0.039062
#
#
# Mechanical properties :
#
#
# Convention : Reuss Voigt Hill
#
# Bulk Modulus (GPa) = 41.47867 46.95721 44.21794
# Shear Modulus (GPa) = 22.07265 23.35605 22.71435
#
# Velocity S-wave (km/s) = 3.51765 3.61847 3.56841
# Velocity P-wave (km/s) = 6.30486 6.61678 6.46270
#
# Compressibility (1/GPa) = 0.02410878
#
# Stress axis : x y z
#
# Youngs Moduli (GPa) = 49.91421 39.28342 57.93450
#
# Poissons Ratio (x) = 0.11740 0.43642
# Poissons Ratio (y) = 0.14918 0.50980
# Poissons Ratio (z) = 0.37600 0.34568
#
# Static dielectric constant tensor:
#      x y z
#    x 3.395200 0.000000 0.000000 
#    y 0.000000 3.199750 0.000000 
#    z 0.000000 0.000000 3.553110 
# 
# 
# High freq. dielectric constant tensor:
#      x y z
#    x 1.671110 0.000000 0.000000 
#    y 0.000000 1.668800 0.000000 
#    z 0.000000 0.000000 1.701810 
# 
# From -- ./inp_files/4233.got.cif
#   From: 2010.03.12/outbox.cif.g09.slc.cpg/sg56_3_cif.got.tgz:4233.got - 2010.04.16 15:33:40.
