data_PCOD8227613
_publ_section_title
;
Structure prediction by ZEFSAII (Michael W. Deem and Ramdas Pophale) SiO2 
 PCOD8227613
Probable space group: P B A M
;
_chemical_formula_sum "Si O2"
_cell_formula_units_Z 24
_cell_length_a 8.758448
_cell_length_b 11.680235
_cell_length_c 10.290244
_cell_angle_alpha 90.000000
_cell_angle_beta 90.000000
_cell_angle_gamma 90.000000
_cell_volume 1052.699482
_symmetry_space_group_name_H-M "P B A M"
_symmetry_group_IT_number 55
_symmetry_cell_setting 'orthorhombic'
loop_
_space_group_symop_operation_xyz
x,y,z
-x,-y,z
1/2+x,1/2-y,-z
1/2-x,1/2+y,-z
-x,-y,-z
x,y,-z
1/2-x,1/2+y,z
1/2+x,1/2-y,z
loop_
_atom_site_type_symbol
_atom_site_label
_atom_site_fract_x
_atom_site_fract_y
_atom_site_fract_z
Si Si1 0.223615 0.096001 0.355420
Si Si2 1.000000 0.724435 0.250000
Si Si3 0.276386 0.403999 0.144580
O O1 0.210591 0.042685 0.500000
O O2 0.103457 0.199134 0.344633
O O3 0.394304 0.143307 0.337696
O O4 0.182584 0.000000 0.250000
O O5 0.894303 0.643308 0.162304
O O6 0.103457 0.800867 0.155368
O O7 0.289410 0.457315 0.000000
#
# Coordination Sequence:
#
# PCOD8227613 Si02
#       3
#     8   8   8
#     4  11  24  42  65  93 125 163 207 255 308 366
#     4  10  24  42  64  90 126 166 206 252 306 368
#     4  11  24  42  65  93 125 163 207 255 308 366
#
# _framework density 22.798531000000001
#
# number of rings (size 3 to 8) (size 9 to 14) (size 15 to 20)
#    0.000    1.333    0.000    4.000    0.000   21.333 
#    0.000    0.000    0.000    0.000    0.000    0.000 
#    0.000    0.000    0.000    0.000    0.000    0.000 
#
# Total GULP energy -297721.747742 kJ/mol
# GULP energy per Si atom -12405.072823 kJ/mol
# Density = 2.274664 g / cm^3
# Si number density = 22.798531 Si / 1000 Ang^3
#
#
#
# Elastic Constant Matrix: (Units=GPa)
#
#
# Indices 1 2 3 4 5 6 
#
# 1 81.8886 -10.3241 1.8083 0.0000 0.0000 0.0000
# 2 -10.3241 62.9864 30.9058 0.0000 0.0000 0.0000
# 3 1.8083 30.9058 188.4533 0.0000 0.0000 0.0000
# 4 0.0000 0.0000 0.0000 33.6765 0.0000 0.0000
# 5 0.0000 0.0000 0.0000 0.0000 9.0297 0.0000
# 6 0.0000 0.0000 0.0000 0.0000 0.0000 20.0843
#
#
#
# Elastic Compliance Matrix: (Units=1/GPa)
#
#
# Indices 1 2 3 4 5 6 
#
# 1 0.012512 0.002294 -0.000496 0.000000 0.000000 0.000000
# 2 0.002294 0.017687 -0.002923 0.000000 0.000000 0.000000
# 3 -0.000496 -0.002923 0.005790 0.000000 0.000000 0.000000
# 4 0.000000 0.000000 0.000000 0.029694 0.000000 0.000000
# 5 0.000000 0.000000 0.000000 0.000000 0.110745 0.000000
# 6 0.000000 0.000000 0.000000 0.000000 0.000000 0.049790
#
#
# Mechanical properties :
#
#
# Convention : Reuss Voigt Hill
#
# Bulk Modulus (GPa) = 29.63856 42.01205 35.82531
# Shear Modulus (GPa) = 20.85815 33.28732 27.07274
#
# Velocity S-wave (km/s) = 3.02800 3.82522 3.44972
# Velocity P-wave (km/s) = 5.02528 6.16257 5.62276
#
# Compressibility (1/GPa) = 0.03373983
#
# Stress axis : x y z
#
# Youngs Moduli (GPa) = 79.92372 56.54013 172.69937
#
# Poissons Ratio (x) = -0.12972 0.08572
# Poissons Ratio (y) = -0.18337 0.50472
# Poissons Ratio (z) = 0.03967 0.16524
#
# Static dielectric constant tensor:
#      x y z
#    x 4.397050 0.000000 0.000000 
#    y 0.000000 4.045970 0.000000 
#    z 0.000000 0.000000 3.788200 
# 
# 
# High freq. dielectric constant tensor:
#      x y z
#    x 1.924030 0.000000 0.000000 
#    y 0.000000 1.894650 0.000000 
#    z 0.000000 0.000000 1.888700 
# 
# From -- ./inp_files/1655.got.cif
#   From: 2010.03.12/outbox.cif.g09.slc.cpg/sg55_1_cif.got.tgz:1655.got - 2010.04.16 15:19:21.
