data_PCOD8227592
_publ_section_title
;
Structure prediction by ZEFSAII (Michael W. Deem and Ramdas Pophale) SiO2 
 PCOD8227592
Probable space group: P B A M
;
_chemical_formula_sum "Si O2"
_cell_formula_units_Z 64
_cell_length_a 12.619435
_cell_length_b 10.765130
_cell_length_c 21.894996
_cell_angle_alpha 90.000000
_cell_angle_beta 90.000000
_cell_angle_gamma 90.000000
_cell_volume 2974.432104
_symmetry_space_group_name_H-M "P B A M"
_symmetry_group_IT_number 55
_symmetry_cell_setting 'orthorhombic'
loop_
_space_group_symop_operation_xyz
x,y,z
-x,-y,z
1/2+x,1/2-y,-z
1/2-x,1/2+y,-z
-x,-y,-z
x,y,-z
1/2-x,1/2+y,z
1/2+x,1/2-y,z
loop_
_atom_site_type_symbol
_atom_site_label
_atom_site_fract_x
_atom_site_fract_y
_atom_site_fract_z
Si Si1 0.746657 0.979320 0.846017
Si Si2 0.582661 0.851657 0.236673
Si Si3 0.400989 0.077411 0.630131
Si Si4 0.555920 0.120895 0.873966
Si Si5 0.020202 0.816344 0.569162
Si Si6 0.924963 0.883639 0.071470
Si Si7 0.839706 0.972561 0.613489
Si Si8 0.103590 0.930358 0.254895
O O1 0.675225 0.876086 0.812357
O O2 0.813579 0.904547 0.895739
O O3 0.679975 0.088799 0.878891
O O4 0.812638 0.054448 0.797538
O O5 0.597230 0.938606 0.296188
O O6 0.473717 0.873971 0.198840
O O7 0.583058 0.714156 0.263966
O O8 0.420203 0.217019 0.610216
O O9 0.500000 0.000000 0.602433
O O10 0.286765 0.036482 0.602171
O O11 0.525967 0.251616 0.906016
O O12 0.500000 0.000000 0.905076
O O13 0.002314 0.770867 0.500000
O O14 0.102852 0.930937 0.568399
O O15 0.904786 0.845099 0.599769
O O16 0.904576 0.874435 0.000000
O O17 0.000000 0.000000 0.087819
O O18 0.856935 0.008202 0.683225
O O19 0.000000 0.000000 0.231312
#
# Coordination Sequence:
#
# PCOD8227592 Si02
#       8
#     8   8   8   8   8   8   8   8
#     4  11  22  39  64  98 132 175 218 281 344 405
#     4  11  22  40  64  97 138 169 210 276 345 412
#     4  12  26  43  70 105 139 173 229 288 347 415
#     4  10  23  43  66  98 137 177 224 281 354 415
#     4  11  26  49  71  94 135 187 233 283 344 411
#     4  11  25  45  67  95 134 182 234 285 335 409
#     4  11  23  45  68 101 134 179 226 286 349 417
#     4  12  21  36  63  95 131 173 221 268 344 411
#
# _framework density 21.516711999999998
#
# number of rings (size 3 to 8) (size 9 to 14) (size 15 to 20)
#    0.000    0.875    3.750    4.500    1.750    3.000 
#    0.000    4.375    0.000    0.000    0.000    0.000 
#    0.000    0.000    0.000    0.000    0.000    0.000 
#
# Total GULP energy -793351.127234 kJ/mol
# GULP energy per Si atom -12396.111363 kJ/mol
# Density = 2.146774 g / cm^3
# Si number density = 21.516712 Si / 1000 Ang^3
#
#
#
# Elastic Constant Matrix: (Units=GPa)
#
#
# Indices 1 2 3 4 5 6 
#
# 1 150.8965 46.7151 34.9921 0.0000 0.0000 0.0000
# 2 46.7151 110.7041 28.2943 0.0000 0.0000 0.0000
# 3 34.9921 28.2943 95.5579 0.0000 0.0000 0.0000
# 4 0.0000 0.0000 0.0000 27.0170 0.0000 0.0000
# 5 0.0000 0.0000 0.0000 0.0000 30.1036 0.0000
# 6 0.0000 0.0000 0.0000 0.0000 0.0000 31.6422
#
#
#
# Elastic Compliance Matrix: (Units=1/GPa)
#
#
# Indices 1 2 3 4 5 6 
#
# 1 0.007989 -0.002838 -0.002085 0.000000 0.000000 0.000000
# 2 -0.002838 0.010781 -0.002153 0.000000 0.000000 0.000000
# 3 -0.002085 -0.002153 0.011866 0.000000 0.000000 0.000000
# 4 0.000000 0.000000 0.000000 0.037014 0.000000 0.000000
# 5 0.000000 0.000000 0.000000 0.000000 0.033219 0.000000
# 6 0.000000 0.000000 0.000000 0.000000 0.000000 0.031603
#
#
# Mechanical properties :
#
#
# Convention : Reuss Voigt Hill
#
# Bulk Modulus (GPa) = 60.66689 64.12907 62.39798
# Shear Modulus (GPa) = 32.86894 34.22969 33.54931
#
# Velocity S-wave (km/s) = 3.91269 3.99286 3.95298
# Velocity P-wave (km/s) = 6.97629 7.15026 7.06381
#
# Compressibility (1/GPa) = 0.01648346
#
# Stress axis : x y z
#
# Youngs Moduli (GPa) = 125.16716 92.75511 84.27544
#
# Poissons Ratio (x) = 0.26328 0.17573
# Poissons Ratio (y) = 0.35528 0.18143
# Poissons Ratio (z) = 0.26099 0.19969
#
# Static dielectric constant tensor:
#      x y z
#    x 3.951920 0.000000 0.000000 
#    y 0.000000 3.906400 0.000000 
#    z 0.000000 0.000000 3.743130 
# 
# 
# High freq. dielectric constant tensor:
#      x y z
#    x 1.846220 0.000000 0.000000 
#    y 0.000000 1.849210 0.000000 
#    z 0.000000 0.000000 1.836410 
# 
# From -- ./inp_files/23569.got.cif
#   From: 2010.03.12/outbox.cif.g09.slc.cpg/sg55_12_cif.got.tgz:23569.got - 2010.04.16 15:19:21.
