data_PCOD8227805
_publ_section_title
;
Structure prediction by ZEFSAII (Michael W. Deem and Ramdas Pophale) SiO2 
 PCOD8227805
Probable space group: P B A M
;
_chemical_formula_sum "Si O2"
_cell_formula_units_Z 48
_cell_length_a 8.695872
_cell_length_b 16.753953
_cell_length_c 14.853874
_cell_angle_alpha 90.000000
_cell_angle_beta 90.000000
_cell_angle_gamma 90.000000
_cell_volume 2164.064331
_symmetry_space_group_name_H-M "P B A M"
_symmetry_group_IT_number 55
_symmetry_cell_setting 'orthorhombic'
loop_
_space_group_symop_operation_xyz
x,y,z
-x,-y,z
1/2+x,1/2-y,-z
1/2-x,1/2+y,-z
-x,-y,-z
x,y,-z
1/2-x,1/2+y,z
1/2+x,1/2-y,z
loop_
_atom_site_type_symbol
_atom_site_label
_atom_site_fract_x
_atom_site_fract_y
_atom_site_fract_z
Si Si1 0.368087 0.835301 0.000000
Si Si2 0.649105 0.159263 0.678090
Si Si3 0.378551 0.561529 0.834680
Si Si4 0.703931 0.588239 0.500000
Si Si5 0.866382 0.555460 0.159948
Si Si6 0.718465 0.832649 0.317683
Si Si7 0.344249 0.598042 0.500000
Si Si8 0.495139 0.339147 0.000000
O O1 0.430503 0.881932 0.912814
O O2 0.434061 0.747794 0.000000
O O3 0.185895 0.830779 0.000000
O O4 0.706028 0.123751 0.584439
O O5 0.710074 0.100972 0.756027
O O6 0.726038 0.243379 0.699206
O O7 0.465231 0.164557 0.684787
O O8 0.500000 0.500000 0.789423
O O9 0.257606 0.503645 0.885373
O O10 0.294342 0.611698 0.757716
O O11 0.454242 0.617070 0.909421
O O12 0.526498 0.614033 0.500000
O O13 0.709863 0.493053 0.500000
O O14 0.000000 0.500000 0.199105
O O15 0.774560 0.859248 0.414448
#
# Coordination Sequence:
#
# PCOD8227805 Si02
#       8
#     4   8   8   4   8   8   4   4
#     4  12  28  46  72 101 145 181 233 287 347 422
#     4  12  27  47  70 105 144 187 233 290 352 416
#     4  12  26  46  75 100 141 183 236 287 351 415
#     4  11  26  45  76 103 141 181 236 288 344 416
#     4  12  26  47  72 106 136 184 234 288 349 415
#     4  12  27  46  72 103 144 187 233 290 353 416
#     4  11  26  45  74 107 136 186 233 287 349 407
#     4  12  28  47  70 105 139 188 227 289 353 410
#
# _framework density 22.180486999999999
#
# number of rings (size 3 to 8) (size 9 to 14) (size 15 to 20)
#    0.000    0.167    3.333    5.000    9.333    3.333 
#    0.000    0.000    0.000    0.000    0.000    0.000 
#    0.000    0.000    0.000    0.000    0.000    0.000 
#
# Total GULP energy -595298.588862 kJ/mol
# GULP energy per Si atom -12402.053935 kJ/mol
# Density = 2.213000 g / cm^3
# Si number density = 22.180487 Si / 1000 Ang^3
#
#
#
# Elastic Constant Matrix: (Units=GPa)
#
#
# Indices 1 2 3 4 5 6 
#
# 1 111.7300 59.2452 28.7595 0.0000 0.0000 0.0000
# 2 59.2452 167.5704 63.0642 0.0000 0.0000 0.0000
# 3 28.7595 63.0642 135.8711 0.0000 0.0000 0.0000
# 4 0.0000 0.0000 0.0000 -4.4715 0.0000 0.0000
# 5 0.0000 0.0000 0.0000 0.0000 33.3731 0.0000
# 6 0.0000 0.0000 0.0000 0.0000 0.0000 48.5157
#
#
#
# Elastic Compliance Matrix: (Units=1/GPa)
#
#
# Indices 1 2 3 4 5 6 
#
# 1 0.011061 -0.003671 -0.000637 0.000000 0.000000 0.000000
# 2 -0.003671 0.008449 -0.003145 0.000000 0.000000 0.000000
# 3 -0.000637 -0.003145 0.008954 0.000000 0.000000 0.000000
# 4 0.000000 0.000000 0.000000 -0.223637 0.000000 0.000000
# 5 0.000000 0.000000 0.000000 0.000000 0.029964 0.000000
# 6 0.000000 0.000000 0.000000 0.000000 0.000000 0.020612
#
#
# Mechanical properties :
#
#
# Convention : Reuss Voigt Hill
#
# Bulk Modulus (GPa) = 73.75422 79.70103 76.72762
# Shear Modulus (GPa) = -39.94486 33.09029 -3.42728
#
# Velocity S-wave (km/s) = -4.24831 3.86666 -1.24440
# Velocity P-wave (km/s) = 3.04301 7.47968 5.70988
#
# Compressibility (1/GPa) = 0.01355855
#
# Stress axis : x y z
#
# Youngs Moduli (GPa) = 90.41115 118.35958 111.67717
#
# Poissons Ratio (x) = 0.43445 0.07119
# Poissons Ratio (y) = 0.33186 0.35117
# Poissons Ratio (z) = 0.05763 0.37219
#
# Static dielectric constant tensor:
#      x y z
#    x 4.370310 0.000000 0.000000 
#    y 0.000000 4.504840 0.000000 
#    z 0.000000 0.000000 4.203120 
# 
# 
# High freq. dielectric constant tensor:
#      x y z
#    x 1.891340 0.000000 0.000000 
#    y 0.000000 1.900790 0.000000 
#    z 0.000000 0.000000 1.879710 
# 
# From -- ./inp_files/17427.got.cif
#   From: 2010.03.12/outbox.cif.g09.slc.cpg/sg55_9_cif.got.tgz:17427.got - 2010.04.16 15:19:21.
