data_PCOD8227903
_publ_section_title
;
Structure prediction by ZEFSAII (Michael W. Deem and Ramdas Pophale) SiO2 
 PCOD8227903
Probable space group: P C C N
;
_chemical_formula_sum "Si O2"
_cell_formula_units_Z 48
_cell_length_a 10.604506
_cell_length_b 8.244165
_cell_length_c 27.201303
_cell_angle_alpha 90.000000
_cell_angle_beta 90.000000
_cell_angle_gamma 90.000000
_cell_volume 2378.081999
_symmetry_space_group_name_H-M "P C C N"
_symmetry_group_IT_number 56
_symmetry_cell_setting 'orthorhombic'
loop_
_space_group_symop_operation_xyz
x,y,z
1/2-x,1/2-y,z
1/2+x,-y,1/2-z
-x,1/2+y,1/2-z
-x,-y,-z
1/2+x,1/2+y,-z
1/2-x,y,1/2+z
x,1/2-y,1/2+z
loop_
_atom_site_type_symbol
_atom_site_label
_atom_site_fract_x
_atom_site_fract_y
_atom_site_fract_z
Si Si1 0.808547 0.420413 0.983168
Si Si2 0.615750 0.666185 0.758086
Si Si3 0.782523 0.063553 0.835299
Si Si4 0.473186 0.906126 0.926758
Si Si5 0.510111 0.948127 0.818845
Si Si6 0.148451 0.375506 0.575853
O O1 0.750000 0.250000 0.967350
O O2 0.698620 0.554327 0.976092
O O3 0.922802 0.463436 0.945534
O O4 0.849361 0.425681 0.039909
O O5 0.750000 0.750000 0.745326
O O6 0.635994 0.503991 0.790012
O O7 0.516254 0.786694 0.784870
O O8 0.548760 0.603396 0.708511
O O9 0.750000 0.250000 0.828650
O O10 0.651390 0.970562 0.837123
O O11 0.861676 0.022808 0.884801
O O12 0.432574 0.927243 0.869811
O O13 0.519085 0.719530 0.933924
O O14 0.250000 0.250000 0.598628
#
# Coordination Sequence:
#
# PCOD8227903 Si02
#       6
#     8   8   8   8   8   8
#     4  10  21  37  58  90 114 152 204 249 293 366
#     4  10  22  38  58  88 123 158 202 250 302 357
#     4  11  19  33  61  88 110 155 206 255 289 356
#     4  10  21  38  62  83 122 162 193 250 310 347
#     4  11  20  39  60  85 122 163 200 248 305 358
#     4  10  17  35  59  83 114 151 196 249 296 348
#
# _framework density 20.184332999999999
#
# number of rings (size 3 to 8) (size 9 to 14) (size 15 to 20)
#    0.000    1.667    5.000    2.000    0.000    0.667 
#    0.000    8.333    0.000    0.000    0.000    0.000 
#    0.000    0.000    0.000    0.000    0.000    0.000 
#
# Total GULP energy -594879.838421 kJ/mol
# GULP energy per Si atom -12393.329967 kJ/mol
# Density = 2.013839 g / cm^3
# Si number density = 20.184333 Si / 1000 Ang^3
#
#
#
# Elastic Constant Matrix: (Units=GPa)
#
#
# Indices 1 2 3 4 5 6 
#
# 1 40.3292 27.1848 48.5069 0.0000 0.0000 0.0000
# 2 27.1848 125.0825 59.0620 0.0000 0.0000 0.0000
# 3 48.5069 59.0620 153.5236 0.0000 0.0000 0.0000
# 4 0.0000 0.0000 0.0000 23.8076 0.0000 0.0000
# 5 0.0000 0.0000 0.0000 0.0000 20.5788 0.0000
# 6 0.0000 0.0000 0.0000 0.0000 0.0000 27.8852
#
#
#
# Elastic Compliance Matrix: (Units=1/GPa)
#
#
# Indices 1 2 3 4 5 6 
#
# 1 0.041164 -0.003428 -0.011687 0.000000 0.000000 0.000000
# 2 -0.003428 0.010055 -0.002785 0.000000 0.000000 0.000000
# 3 -0.011687 -0.002785 0.011278 0.000000 0.000000 0.000000
# 4 0.000000 0.000000 0.000000 0.042003 0.000000 0.000000
# 5 0.000000 0.000000 0.000000 0.000000 0.048594 0.000000
# 6 0.000000 0.000000 0.000000 0.000000 0.000000 0.035861
#
#
# Mechanical properties :
#
#
# Convention : Reuss Voigt Hill
#
# Bulk Modulus (GPa) = 37.45897 65.38253 51.42075
# Shear Modulus (GPa) = 21.39920 26.73309 24.06614
#
# Velocity S-wave (km/s) = 3.25959 3.64324 3.45674
# Velocity P-wave (km/s) = 5.72409 7.08242 6.43917
#
# Compressibility (1/GPa) = 0.02669588
#
# Stress axis : x y z
#
# Youngs Moduli (GPa) = 24.29332 99.45504 88.66969
#
# Poissons Ratio (x) = 0.34091 1.03631
# Poissons Ratio (y) = 0.08327 0.24696
# Poissons Ratio (z) = 0.28392 0.27700
#
# Static dielectric constant tensor:
#      x y z
#    x 3.366220 0.000000 0.000000 
#    y 0.000000 3.997540 0.000000 
#    z 0.000000 0.000000 3.683150 
# 
# 
# High freq. dielectric constant tensor:
#      x y z
#    x 1.747290 0.000000 0.000000 
#    y 0.000000 1.795500 0.000000 
#    z 0.000000 0.000000 1.788920 
# 
# From -- ./inp_files/22020.got.cif
#   From: 2010.03.12/outbox.cif.g09.slc.cpg/sg56_12_cif.got.tgz:22020.got - 2010.04.16 15:33:40.
