data_PCOD8227645
_publ_section_title
;
Structure prediction by ZEFSAII (Michael W. Deem and Ramdas Pophale) SiO2 
 PCOD8227645
Probable space group: P B A M
;
_chemical_formula_sum "Si O2"
_cell_formula_units_Z 56
_cell_length_a 12.093313
_cell_length_b 18.512006
_cell_length_c 13.616612
_cell_angle_alpha 90.000000
_cell_angle_beta 90.000000
_cell_angle_gamma 90.000000
_cell_volume 3048.371119
_symmetry_space_group_name_H-M "P B A M"
_symmetry_group_IT_number 55
_symmetry_cell_setting 'orthorhombic'
loop_
_space_group_symop_operation_xyz
x,y,z
-x,-y,z
1/2+x,1/2-y,-z
1/2-x,1/2+y,-z
-x,-y,-z
x,y,-z
1/2-x,1/2+y,z
1/2+x,1/2-y,z
loop_
_atom_site_type_symbol
_atom_site_label
_atom_site_fract_x
_atom_site_fract_y
_atom_site_fract_z
Si Si1 0.904808 0.814274 0.696936
Si Si2 0.937316 0.069961 0.386228
Si Si3 0.794427 0.542679 0.301853
Si Si4 0.963176 0.883921 0.110354
Si Si5 0.551102 0.159855 0.386298
Si Si6 0.304498 0.114539 0.387670
Si Si7 0.178353 0.974152 0.110328
O O1 0.935019 0.820928 0.812235
O O2 0.906360 0.731938 0.664872
O O3 0.782279 0.844384 0.680331
O O4 0.991644 0.858727 0.631694
O O5 0.918863 0.057060 0.500000
O O6 0.818367 0.079241 0.338271
O O7 0.000000 0.000000 0.339983
O O8 0.896938 0.593419 0.327081
O O9 0.817554 0.467475 0.354526
O O10 0.781861 0.533597 0.184165
O O11 0.085238 0.914118 0.132985
O O12 0.874489 0.947242 0.123235
O O13 0.957556 0.851989 0.000000
O O14 0.588948 0.157600 0.500000
O O15 0.419689 0.155973 0.377179
O O16 0.262598 0.115463 0.500000
O O17 0.223932 0.964219 0.000000
#
# Coordination Sequence:
#
# PCOD8227645 Si02
#       7
#     8   8   8   8   8   8   8
#     4  12  22  38  59  87 121 151 195 251 305 350
#     4  11  20  31  54  88 115 141 187 250 295 334
#     4  12  21  38  62  85 116 158 204 243 289 351
#     4   9  17  33  58  90 122 149 189 247 308 355
#     4  11  27  42  56  82 123 168 200 234 298 371
#     4  11  23  40  60  83 117 160 204 243 286 360
#     4   9  17  32  59  94 120 145 191 251 305 348
#
# _framework density 18.370467000000001
#
# number of rings (size 3 to 8) (size 9 to 14) (size 15 to 20)
#    0.000    1.286    4.286    3.857    2.000    1.143 
#    0.000    0.714    0.000    4.286    0.000    0.000 
#    0.000    0.000    0.000    0.000    0.000    0.000 
#
# Total GULP energy -694576.885042 kJ/mol
# GULP energy per Si atom -12403.158661 kJ/mol
# Density = 1.832865 g / cm^3
# Si number density = 18.370467 Si / 1000 Ang^3
#
#
#
# Elastic Constant Matrix: (Units=GPa)
#
#
# Indices 1 2 3 4 5 6 
#
# 1 45.1617 14.3243 17.3035 0.0000 0.0000 0.0000
# 2 14.3243 79.6630 14.9383 0.0000 0.0000 0.0000
# 3 17.3035 14.9383 102.7646 0.0000 0.0000 0.0000
# 4 0.0000 0.0000 0.0000 23.4061 0.0000 0.0000
# 5 0.0000 0.0000 0.0000 0.0000 28.7143 0.0000
# 6 0.0000 0.0000 0.0000 0.0000 0.0000 22.3630
#
#
#
# Elastic Compliance Matrix: (Units=1/GPa)
#
#
# Indices 1 2 3 4 5 6 
#
# 1 0.024723 -0.003768 -0.003615 0.000000 0.000000 0.000000
# 2 -0.003768 0.013479 -0.001325 0.000000 0.000000 0.000000
# 3 -0.003615 -0.001325 0.010532 0.000000 0.000000 0.000000
# 4 0.000000 0.000000 0.000000 0.042724 0.000000 0.000000
# 5 0.000000 0.000000 0.000000 0.000000 0.034826 0.000000
# 6 0.000000 0.000000 0.000000 0.000000 0.000000 0.044717
#
#
# Mechanical properties :
#
#
# Convention : Reuss Voigt Hill
#
# Bulk Modulus (GPa) = 31.92993 35.63571 33.78282
# Shear Modulus (GPa) = 25.14394 26.96490 26.05442
#
# Velocity S-wave (km/s) = 3.70363 3.83540 3.77009
# Velocity P-wave (km/s) = 5.97562 6.24933 6.11401
#
# Compressibility (1/GPa) = 0.03131858
#
# Stress axis : x y z
#
# Youngs Moduli (GPa) = 40.44855 74.19071 94.94598
#
# Poissons Ratio (x) = 0.27951 0.34325
# Poissons Ratio (y) = 0.15239 0.12580
# Poissons Ratio (z) = 0.14623 0.09830
#
# Static dielectric constant tensor:
#      x y z
#    x 3.284840 0.000000 0.000000 
#    y 0.000000 3.265030 0.000000 
#    z 0.000000 0.000000 3.612040 
# 
# 
# High freq. dielectric constant tensor:
#      x y z
#    x 1.700790 0.000000 0.000000 
#    y 0.000000 1.692580 0.000000 
#    z 0.000000 0.000000 1.721960 
# 
# From -- ./inp_files/18364.got.cif
#   From: 2010.03.12/outbox.cif.g09.slc.cpg/sg55_10_cif.got.tgz:18364.got - 2010.04.16 15:19:21.
