data_PCOD8227379
_publ_section_title
;
Structure prediction by ZEFSAII (Michael W. Deem and Ramdas Pophale) SiO2 
 PCOD8227379
Probable space group: P B A M
;
_chemical_formula_sum "Si O2"
_cell_formula_units_Z 56
_cell_length_a 9.805761
_cell_length_b 14.800247
_cell_length_c 17.880770
_cell_angle_alpha 90.000000
_cell_angle_beta 90.000000
_cell_angle_gamma 90.000000
_cell_volume 2594.994753
_symmetry_space_group_name_H-M "P B A M"
_symmetry_group_IT_number 55
_symmetry_cell_setting 'orthorhombic'
loop_
_space_group_symop_operation_xyz
x,y,z
-x,-y,z
1/2+x,1/2-y,-z
1/2-x,1/2+y,-z
-x,-y,-z
x,y,-z
1/2-x,1/2+y,z
1/2+x,1/2-y,z
loop_
_atom_site_type_symbol
_atom_site_label
_atom_site_fract_x
_atom_site_fract_y
_atom_site_fract_z
Si Si1 0.649817 0.248262 0.414836
Si Si2 0.803339 0.834818 0.087422
Si Si3 0.359281 0.537279 0.416442
Si Si4 0.154866 0.529950 0.705399
Si Si5 0.917843 0.211381 0.155019
Si Si6 0.395621 0.230037 0.317828
Si Si7 0.348098 0.482526 0.835971
O O1 0.650190 0.210711 0.500000
O O2 0.633796 0.355298 0.415149
O O3 0.527627 0.205156 0.367102
O O4 0.789144 0.219675 0.372855
O O5 0.666152 0.796297 0.124548
O O6 0.929954 0.781073 0.123116
O O7 0.813888 0.942324 0.101624
O O8 0.799568 0.816412 0.000000
O O9 0.500000 0.500000 0.381465
O O10 0.340399 0.499595 0.500000
O O11 0.230303 0.499668 0.370612
O O12 0.167531 0.637600 0.714192
O O13 0.232665 0.483722 0.773406
O O14 0.000000 0.500000 0.703880
O O15 0.928577 0.208856 0.245682
O O16 0.847141 0.117698 0.127827
O O17 0.500000 0.500000 0.802333
#
# Coordination Sequence:
#
# PCOD8227379 Si02
#       7
#     8   8   8   8   8   8   8
#     4  10  22  38  58  87 122 167 213 264 317 372
#     4  11  24  45  69 101 133 165 210 262 320 390
#     4   9  20  38  59  84 119 162 214 262 314 380
#     4  11  24  38  60  90 126 164 208 268 323 376
#     4  11  24  41  69  97 130 172 214 264 320 384
#     4  11  23  39  63  89 126 166 217 264 318 378
#     4  10  24  42  67  92 128 170 218 258 310 388
#
# _framework density 21.580005
#
# number of rings (size 3 to 8) (size 9 to 14) (size 15 to 20)
#    0.000    1.571    1.429    2.143   12.000    4.000 
#    0.000    1.429    0.000    2.143    0.000    0.000 
#    0.000    0.000    0.000    0.000    0.000    0.000 
#
# Total GULP energy -694533.983288 kJ/mol
# GULP energy per Si atom -12402.392559 kJ/mol
# Density = 2.153089 g / cm^3
# Si number density = 21.580005 Si / 1000 Ang^3
#
#
#
# Elastic Constant Matrix: (Units=GPa)
#
#
# Indices 1 2 3 4 5 6 
#
# 1 115.3934 -1.0507 44.9443 0.0000 0.0000 0.0000
# 2 -1.0507 40.9028 8.7631 0.0000 0.0000 0.0000
# 3 44.9443 8.7631 131.8815 0.0000 0.0000 0.0000
# 4 0.0000 0.0000 0.0000 16.8223 0.0000 0.0000
# 5 0.0000 0.0000 0.0000 0.0000 31.1557 0.0000
# 6 0.0000 0.0000 0.0000 0.0000 0.0000 32.1927
#
#
#
# Elastic Compliance Matrix: (Units=1/GPa)
#
#
# Indices 1 2 3 4 5 6 
#
# 1 0.010033 0.001005 -0.003486 0.000000 0.000000 0.000000
# 2 0.001005 0.024902 -0.001997 0.000000 0.000000 0.000000
# 3 -0.003486 -0.001997 0.008903 0.000000 0.000000 0.000000
# 4 0.000000 0.000000 0.000000 0.059445 0.000000 0.000000
# 5 0.000000 0.000000 0.000000 0.000000 0.032097 0.000000
# 6 0.000000 0.000000 0.000000 0.000000 0.000000 0.031063
#
#
# Mechanical properties :
#
#
# Convention : Reuss Voigt Hill
#
# Bulk Modulus (GPa) = 28.66865 43.72121 36.19493
# Shear Modulus (GPa) = 26.73423 31.73557 29.23490
#
# Velocity S-wave (km/s) = 3.52354 3.83900 3.68465
# Velocity P-wave (km/s) = 5.46511 6.32097 5.90855
#
# Compressibility (1/GPa) = 0.03488131
#
# Stress axis : x y z
#
# Youngs Moduli (GPa) = 99.67250 40.15764 112.31889
#
# Poissons Ratio (x) = -0.04034 0.39153
# Poissons Ratio (y) = -0.10013 0.22430
# Poissons Ratio (z) = 0.34745 0.08019
#
# Static dielectric constant tensor:
#      x y z
#    x 3.906970 0.000000 0.000000 
#    y 0.000000 3.795400 0.000000 
#    z 0.000000 0.000000 3.843990 
# 
# 
# High freq. dielectric constant tensor:
#      x y z
#    x 1.853280 0.000000 0.000000 
#    y 0.000000 1.841330 0.000000 
#    z 0.000000 0.000000 1.841320 
# 
# From -- ./inp_files/22640.got.cif
#   From: 2010.03.12/outbox.cif.g09.slc.cpg/sg55_12_cif.got.tgz:22640.got - 2010.04.16 15:19:21.
