data_PCOD8227302
_publ_section_title
;
Structure prediction by ZEFSAII (Michael W. Deem and Ramdas Pophale) SiO2 
 PCOD8227302
Probable space group: P B A M
;
_chemical_formula_sum "Si O2"
_cell_formula_units_Z 52
_cell_length_a 14.910368
_cell_length_b 7.978282
_cell_length_c 19.395866
_cell_angle_alpha 90.000000
_cell_angle_beta 90.000000
_cell_angle_gamma 90.000000
_cell_volume 2307.315163
_symmetry_space_group_name_H-M "P B A M"
_symmetry_group_IT_number 55
_symmetry_cell_setting 'orthorhombic'
loop_
_space_group_symop_operation_xyz
x,y,z
-x,-y,z
1/2+x,1/2-y,-z
1/2-x,1/2+y,-z
-x,-y,-z
x,y,-z
1/2-x,1/2+y,z
1/2+x,1/2-y,z
loop_
_atom_site_type_symbol
_atom_site_label
_atom_site_fract_x
_atom_site_fract_y
_atom_site_fract_z
Si Si1 0.131153 0.850599 0.142909
Si Si2 0.371012 0.920797 0.278897
Si Si3 0.000000 0.500000 0.606198
Si Si4 0.713701 0.329541 0.078990
Si Si5 0.678205 0.700693 0.712419
Si Si6 0.546089 0.165579 0.136760
Si Si7 0.428664 0.352542 0.424858
O O1 0.198004 0.693651 0.126787
O O2 0.140852 0.908660 0.223154
O O3 0.026808 0.814010 0.127235
O O4 0.167106 0.993996 0.093152
O O5 0.284819 0.806218 0.290380
O O6 0.432003 0.850658 0.217591
O O7 0.425507 0.906832 0.348746
O O8 0.347760 0.113031 0.265627
O O9 0.964450 0.338968 0.564270
O O10 0.637435 0.191267 0.094630
O O11 0.743359 0.317535 0.000000
O O12 0.640544 0.640898 0.638685
O O13 0.500000 0.000000 0.107017
O O14 0.500000 0.500000 0.409632
O O15 0.383759 0.393314 0.500000
#
# Coordination Sequence:
#
# PCOD8227302 Si02
#       7
#     8   8   4   8   8   8   8
#     4  12  24  44  70  98 133 181 231 289 350 423
#     4  11  22  41  66 104 133 172 235 291 345 414
#     4  10  21  40  70  96 141 188 230 286 351 422
#     4  12  28  46  68 100 139 179 229 290 358 434
#     4  11  23  41  69 100 134 179 231 291 343 412
#     4  12  23  43  69  96 135 173 226 288 351 415
#     4  10  23  43  67 102 144 186 233 286 355 428
#
# _framework density 22.537019000000001
#
# number of rings (size 3 to 8) (size 9 to 14) (size 15 to 20)
#    0.000    0.769    3.846    3.923    2.154    3.385 
#    0.000    3.846    0.000    0.000    0.000    0.000 
#    0.000    0.000    0.000    0.000    0.000    0.000 
#
# Total GULP energy -644560.891908 kJ/mol
# GULP energy per Si atom -12395.401767 kJ/mol
# Density = 2.248572 g / cm^3
# Si number density = 22.537019 Si / 1000 Ang^3
#
#
#
# Elastic Constant Matrix: (Units=GPa)
#
#
# Indices 1 2 3 4 5 6 
#
# 1 87.7509 2.0412 27.6434 0.0000 0.0000 0.0000
# 2 2.0412 65.6242 13.9405 0.0000 0.0000 0.0000
# 3 27.6434 13.9405 136.9884 0.0000 0.0000 0.0000
# 4 0.0000 0.0000 0.0000 3.4975 0.0000 0.0000
# 5 0.0000 0.0000 0.0000 0.0000 16.6770 0.0000
# 6 0.0000 0.0000 0.0000 0.0000 0.0000 39.3978
#
#
#
# Elastic Compliance Matrix: (Units=1/GPa)
#
#
# Indices 1 2 3 4 5 6 
#
# 1 0.012171 0.000146 -0.002471 0.000000 0.000000 0.000000
# 2 0.000146 0.015577 -0.001615 0.000000 0.000000 0.000000
# 3 -0.002471 -0.001615 0.007963 0.000000 0.000000 0.000000
# 4 0.000000 0.000000 0.000000 0.285917 0.000000 0.000000
# 5 0.000000 0.000000 0.000000 0.000000 0.059963 0.000000
# 6 0.000000 0.000000 0.000000 0.000000 0.000000 0.025382
#
#
# Mechanical properties :
#
#
# Convention : Reuss Voigt Hill
#
# Bulk Modulus (GPa) = 35.92998 41.95709 38.94353
# Shear Modulus (GPa) = 11.78889 28.36368 20.07628
#
# Velocity S-wave (km/s) = 2.28960 3.55144 2.98789
# Velocity P-wave (km/s) = 4.79238 5.95603 5.40561
#
# Compressibility (1/GPa) = 0.02783191
#
# Stress axis : x y z
#
# Youngs Moduli (GPa) = 82.16338 64.19827 125.58371
#
# Poissons Ratio (x) = -0.00939 0.31030
# Poissons Ratio (y) = -0.01202 0.20278
# Poissons Ratio (z) = 0.20302 0.10366
#
# Static dielectric constant tensor:
#      x y z
#    x 4.342200 0.000000 0.000000 
#    y 0.000000 4.477480 0.000000 
#    z 0.000000 0.000000 3.966850 
# 
# 
# High freq. dielectric constant tensor:
#      x y z
#    x 1.889720 0.000000 0.000000 
#    y 0.000000 1.893560 0.000000 
#    z 0.000000 0.000000 1.888020 
# 
# From -- ./inp_files/22933.got.cif
#   From: 2010.03.12/outbox.cif.g09.slc.cpg/sg55_12_cif.got.tgz:22933.got - 2010.04.16 15:19:21.
