data_PCOD8227131
_publ_section_title
;
Structure prediction by ZEFSAII (Michael W. Deem and Ramdas Pophale) SiO2 
 PCOD8227131
Probable space group: P B A M
;
_chemical_formula_sum "Si O2"
_cell_formula_units_Z 56
_cell_length_a 11.765265
_cell_length_b 19.850701
_cell_length_c 12.389164
_cell_angle_alpha 90.000000
_cell_angle_beta 90.000000
_cell_angle_gamma 90.000000
_cell_volume 2893.473861
_symmetry_space_group_name_H-M "P B A M"
_symmetry_group_IT_number 55
_symmetry_cell_setting 'orthorhombic'
loop_
_space_group_symop_operation_xyz
x,y,z
-x,-y,z
1/2+x,1/2-y,-z
1/2-x,1/2+y,-z
-x,-y,-z
x,y,-z
1/2-x,1/2+y,z
1/2+x,1/2-y,z
loop_
_atom_site_type_symbol
_atom_site_label
_atom_site_fract_x
_atom_site_fract_y
_atom_site_fract_z
Si Si1 0.461484 0.167550 0.376638
Si Si2 0.872472 0.513754 0.125167
Si Si3 0.891979 0.783479 0.126134
Si Si4 0.560811 0.434239 0.376985
Si Si5 0.265025 0.109473 0.231492
Si Si6 0.172493 0.348936 0.762986
Si Si7 0.574783 0.686986 0.297914
O O1 0.445321 0.143878 0.500000
O O2 0.375647 0.128756 0.298875
O O3 0.589516 0.150703 0.340183
O O4 0.439191 0.246795 0.369492
O O5 0.796853 0.447718 0.145366
O O6 0.819543 0.577086 0.187084
O O7 0.000000 0.500000 0.166263
O O8 0.871039 0.531501 0.000000
O O9 0.783461 0.825710 0.168473
O O10 0.872944 0.704436 0.148577
O O11 0.006742 0.808025 0.184864
O O12 0.909235 0.795738 0.000000
O O13 0.500000 0.500000 0.327793
O O14 0.596332 0.446977 0.500000
O O15 0.674571 0.420800 0.312629
O O16 0.474062 0.372697 0.370145
O O17 0.294461 0.325841 0.723697
#
# Coordination Sequence:
#
# PCOD8227131 Si02
#       7
#     8   8   8   8   8   8   8
#     4  11  23  39  61  89 123 166 205 256 315 360
#     4  11  23  39  62  88 124 165 199 246 312 371
#     4  10  22  39  63  90 122 160 202 253 310 360
#     4  10  21  38  62  87 116 160 201 247 305 361
#     4  11  21  42  60  89 125 159 203 255 301 371
#     4  11  22  42  60  93 123 159 207 258 302 370
#     4  10  22  40  60  90 121 154 207 257 302 365
#
# _framework density 19.353898999999998
#
# number of rings (size 3 to 8) (size 9 to 14) (size 15 to 20)
#    0.000    1.429    2.857    2.571    0.000    2.286 
#    0.000    2.143    0.000    4.714    0.000    0.000 
#    0.000    0.000    0.000    0.000    0.000    0.000 
#
# Total GULP energy -694677.277876 kJ/mol
# GULP energy per Si atom -12404.951391 kJ/mol
# Density = 1.930985 g / cm^3
# Si number density = 19.353899 Si / 1000 Ang^3
#
#
#
# Elastic Constant Matrix: (Units=GPa)
#
#
# Indices 1 2 3 4 5 6 
#
# 1 107.4544 14.7687 24.6122 0.0000 0.0000 0.0000
# 2 14.7687 100.5599 12.9279 0.0000 0.0000 0.0000
# 3 24.6122 12.9279 84.8527 0.0000 0.0000 0.0000
# 4 0.0000 0.0000 0.0000 18.3521 0.0000 0.0000
# 5 0.0000 0.0000 0.0000 0.0000 20.1224 0.0000
# 6 0.0000 0.0000 0.0000 0.0000 0.0000 19.6344
#
#
#
# Elastic Compliance Matrix: (Units=1/GPa)
#
#
# Indices 1 2 3 4 5 6 
#
# 1 0.010092 -0.001128 -0.002756 0.000000 0.000000 0.000000
# 2 -0.001128 0.010269 -0.001237 0.000000 0.000000 0.000000
# 3 -0.002756 -0.001237 0.012773 0.000000 0.000000 0.000000
# 4 0.000000 0.000000 0.000000 0.054490 0.000000 0.000000
# 5 0.000000 0.000000 0.000000 0.000000 0.049696 0.000000
# 6 0.000000 0.000000 0.000000 0.000000 0.000000 0.050931
#
#
# Mechanical properties :
#
#
# Convention : Reuss Voigt Hill
#
# Bulk Modulus (GPa) = 43.68218 44.16496 43.92357
# Shear Modulus (GPa) = 24.25727 27.65899 25.95813
#
# Velocity S-wave (km/s) = 3.54411 3.78447 3.66626
# Velocity P-wave (km/s) = 6.27430 6.47808 6.37700
#
# Compressibility (1/GPa) = 0.02289263
#
# Stress axis : x y z
#
# Youngs Moduli (GPa) = 99.08394 97.37989 78.29069
#
# Poissons Ratio (x) = 0.10984 0.21573
# Poissons Ratio (y) = 0.11176 0.09688
# Poissons Ratio (z) = 0.27303 0.12050
#
# Static dielectric constant tensor:
#      x y z
#    x 3.540630 0.000000 0.000000 
#    y 0.000000 2.398740 0.000000 
#    z 0.000000 0.000000 3.330840 
# 
# 
# High freq. dielectric constant tensor:
#      x y z
#    x 1.761850 0.000000 0.000000 
#    y 0.000000 1.766680 0.000000 
#    z 0.000000 0.000000 1.746800 
# 
# From -- ./inp_files/13345.got.cif
#   From: 2010.03.12/outbox.cif.g09.slc.cpg/sg55_7_cif.got.tgz:13345.got - 2010.04.16 15:19:21.
