data_PCOD8227580
_publ_section_title
;
Structure prediction by ZEFSAII (Michael W. Deem and Ramdas Pophale) SiO2 
 PCOD8227580
Probable space group: P B A M
;
_chemical_formula_sum "Si O2"
_cell_formula_units_Z 64
_cell_length_a 19.337589
_cell_length_b 17.174160
_cell_length_c 8.810306
_cell_angle_alpha 90.000000
_cell_angle_beta 90.000000
_cell_angle_gamma 90.000000
_cell_volume 2925.962951
_symmetry_space_group_name_H-M "P B A M"
_symmetry_group_IT_number 55
_symmetry_cell_setting 'orthorhombic'
loop_
_space_group_symop_operation_xyz
x,y,z
-x,-y,z
1/2+x,1/2-y,-z
1/2-x,1/2+y,-z
-x,-y,-z
x,y,-z
1/2-x,1/2+y,z
1/2+x,1/2-y,z
loop_
_atom_site_type_symbol
_atom_site_label
_atom_site_fract_x
_atom_site_fract_y
_atom_site_fract_z
Si Si1 0.171539 0.504154 0.821040
Si Si2 0.275257 0.771809 0.671633
Si Si3 0.420661 0.509972 0.180406
Si Si4 0.475649 0.217331 0.825405
Si Si5 0.850000 0.337693 0.671826
Si Si6 0.603430 0.317014 0.175277
Si Si7 0.047672 0.424934 0.673455
Si Si8 0.704065 0.570992 0.680965
O O1 0.143233 0.589771 0.784496
O O2 0.123959 0.440484 0.738374
O O3 0.248097 0.496963 0.750881
O O4 0.171901 0.490161 0.000000
O O5 0.294111 0.792383 0.500000
O O6 0.225393 0.698054 0.683535
O O7 0.346197 0.746271 0.749470
O O8 0.236105 0.847068 0.741967
O O9 0.500000 0.500000 0.234019
O O10 0.391801 0.594431 0.235882
O O11 0.373466 0.442932 0.256442
O O12 0.415877 0.501774 0.000000
O O13 0.406698 0.226101 0.723620
O O14 0.524381 0.291359 0.795864
O O15 0.515317 0.139614 0.779685
O O16 0.453705 0.212058 0.000000
O O17 0.866498 0.364940 0.500000
O O18 0.622762 0.314949 0.000000
O O19 0.054060 0.396077 0.500000
O O20 0.000000 0.500000 0.685518
O O21 0.702208 0.567250 0.500000
#
# Coordination Sequence:
#
# PCOD8227580 Si02
#       8
#     8   8   8   8   8   8   8   8
#     4  12  24  39  62  92 125 164 208 256 311 374
#     4  10  24  43  64  91 124 162 207 261 319 379
#     4  10  23  44  69  97 133 174 219 271 329 388
#     4  11  23  38  60  92 125 162 209 258 310 374
#     4  11  23  40  61  89 123 161 205 254 311 374
#     4  10  23  42  64  94 129 166 214 265 319 384
#     4  11  22  37  58  86 125 168 208 254 313 375
#     4  11  24  43  66  95 129 165 215 268 321 385
#
# _framework density 21.873139999999999
#
# number of rings (size 3 to 8) (size 9 to 14) (size 15 to 20)
#    0.000    1.250    1.250    4.125    1.750    8.250 
#    0.000    0.000    0.000    0.000    0.000    0.000 
#    0.000    0.000    0.000    0.000    0.000    0.000 
#
# Total GULP energy -793763.498218 kJ/mol
# GULP energy per Si atom -12402.554660 kJ/mol
# Density = 2.182336 g / cm^3
# Si number density = 21.873140 Si / 1000 Ang^3
#
#
#
# Elastic Constant Matrix: (Units=GPa)
#
#
# Indices 1 2 3 4 5 6 
#
# 1 114.0286 14.9719 38.7084 0.0000 0.0000 0.0000
# 2 14.9719 73.4251 18.1473 0.0000 0.0000 0.0000
# 3 38.7084 18.1473 71.6449 0.0000 0.0000 0.0000
# 4 0.0000 0.0000 0.0000 26.3169 0.0000 0.0000
# 5 0.0000 0.0000 0.0000 0.0000 36.7390 0.0000
# 6 0.0000 0.0000 0.0000 0.0000 0.0000 30.7251
#
#
#
# Elastic Compliance Matrix: (Units=1/GPa)
#
#
# Indices 1 2 3 4 5 6 
#
# 1 0.010784 -0.000810 -0.005621 0.000000 0.000000 0.000000
# 2 -0.000810 0.014590 -0.003258 0.000000 0.000000 0.000000
# 3 -0.005621 -0.003258 0.017820 0.000000 0.000000 0.000000
# 4 0.000000 0.000000 0.000000 0.037998 0.000000 0.000000
# 5 0.000000 0.000000 0.000000 0.000000 0.027219 0.000000
# 6 0.000000 0.000000 0.000000 0.000000 0.000000 0.032547
#
#
# Mechanical properties :
#
#
# Convention : Reuss Voigt Hill
#
# Bulk Modulus (GPa) = 41.98896 44.75042 43.36969
# Shear Modulus (GPa) = 29.71322 31.24092 30.47707
#
# Velocity S-wave (km/s) = 3.68969 3.78336 3.73682
# Velocity P-wave (km/s) = 6.11474 6.29194 6.20397
#
# Compressibility (1/GPa) = 0.02381578
#
# Stress axis : x y z
#
# Youngs Moduli (GPa) = 92.72729 68.54173 56.11618
#
# Poissons Ratio (x) = 0.05549 0.31546
# Poissons Ratio (y) = 0.07507 0.18283
# Poissons Ratio (z) = 0.52127 0.22331
#
# Static dielectric constant tensor:
#      x y z
#    x 4.158130 0.000000 0.000000 
#    y 0.000000 4.014210 0.000000 
#    z 0.000000 0.000000 3.830630 
# 
# 
# High freq. dielectric constant tensor:
#      x y z
#    x 1.874970 0.000000 0.000000 
#    y 0.000000 1.859090 0.000000 
#    z 0.000000 0.000000 1.852260 
# 
# From -- ./inp_files/8985.got.cif
#   From: 2010.03.12/outbox.cif.g09.slc.cpg/sg55_5_cif.got.tgz:8985.got - 2010.04.16 15:19:21.
