data_PCOD8227354
_publ_section_title
;
Structure prediction by ZEFSAII (Michael W. Deem and Ramdas Pophale) SiO2 
 PCOD8227354
Probable space group: P B A M
;
_chemical_formula_sum "Si O2"
_cell_formula_units_Z 64
_cell_length_a 30.045336
_cell_length_b 14.322139
_cell_length_c 8.578174
_cell_angle_alpha 90.000000
_cell_angle_beta 90.000000
_cell_angle_gamma 90.000000
_cell_volume 3691.303893
_symmetry_space_group_name_H-M "P B A M"
_symmetry_group_IT_number 55
_symmetry_cell_setting 'orthorhombic'
loop_
_space_group_symop_operation_xyz
x,y,z
-x,-y,z
1/2+x,1/2-y,-z
1/2-x,1/2+y,-z
-x,-y,-z
x,y,-z
1/2-x,1/2+y,z
1/2+x,1/2-y,z
loop_
_atom_site_type_symbol
_atom_site_label
_atom_site_fract_x
_atom_site_fract_y
_atom_site_fract_z
Si Si1 0.549885 0.608248 0.682442
Si Si2 0.450033 0.607229 0.318021
Si Si3 0.635425 0.685937 0.818891
Si Si4 0.775616 0.514336 0.819424
Si Si5 0.863766 0.851796 0.179740
Si Si6 0.303799 0.169942 0.318050
Si Si7 0.816184 0.015806 0.678689
Si Si8 0.281420 0.773918 0.182597
O O1 0.560062 0.618604 0.500000
O O2 0.555545 0.500724 0.733179
O O3 0.499858 0.641698 0.722413
O O4 0.583504 0.674569 0.777328
O O5 0.441110 0.618480 0.500000
O O6 0.414991 0.672512 0.223379
O O7 0.654075 0.787769 0.775024
O O8 0.665291 0.617425 0.715247
O O9 0.642929 0.665082 0.000000
O O10 0.804430 0.439991 0.722706
O O11 0.724074 0.489678 0.792774
O O12 0.784209 0.619334 0.758312
O O13 0.787588 0.503597 0.000000
O O14 0.854247 0.940602 0.288969
O O15 0.829927 0.768448 0.220185
O O16 0.859759 0.879857 0.000000
O O17 0.311243 0.183849 0.500000
O O18 0.257031 0.217709 0.270833
O O19 0.800334 0.011966 0.500000
O O20 0.269740 0.770366 0.000000
#
# Coordination Sequence:
#
# PCOD8227354 Si02
#       8
#     8   8   8   8   8   8   8   8
#     4   9  18  33  51  74 105 138 174 214 260 314
#     4   9  18  32  51  74 105 141 172 212 262 310
#     4  12  23  35  52  76 105 141 179 218 262 313
#     4  11  22  38  55  73 103 140 179 220 263 306
#     4  11  21  33  51  77 106 140 179 215 257 312
#     4  12  24  36  54  77 104 139 178 220 261 310
#     4  12  22  32  49  75 106 140 179 218 259 306
#     4  10  22  37  54  74 104 141 176 217 262 308
#
# _framework density 17.338045999999999
#
# number of rings (size 3 to 8) (size 9 to 14) (size 15 to 20)
#    0.000    1.250    3.750    4.875    0.000    1.500 
#    0.000    1.250    0.000    0.000    0.000    0.875 
#    0.000    7.000    0.000    0.000    0.000    0.000 
#
# Total GULP energy -793676.119896 kJ/mol
# GULP energy per Si atom -12401.189373 kJ/mol
# Density = 1.729858 g / cm^3
# Si number density = 17.338046 Si / 1000 Ang^3
#
#
#
# Elastic Constant Matrix: (Units=GPa)
#
#
# Indices 1 2 3 4 5 6 
#
# 1 101.8667 24.8040 34.1448 0.0000 0.0000 0.0000
# 2 24.8040 65.7307 30.1528 0.0000 0.0000 0.0000
# 3 34.1448 30.1528 68.0834 0.0000 0.0000 0.0000
# 4 0.0000 0.0000 0.0000 20.8044 0.0000 0.0000
# 5 0.0000 0.0000 0.0000 0.0000 27.8935 0.0000
# 6 0.0000 0.0000 0.0000 0.0000 0.0000 24.9696
#
#
#
# Elastic Compliance Matrix: (Units=1/GPa)
#
#
# Indices 1 2 3 4 5 6 
#
# 1 0.012055 -0.002228 -0.005059 0.000000 0.000000 0.000000
# 2 -0.002228 0.019504 -0.007521 0.000000 0.000000 0.000000
# 3 -0.005059 -0.007521 0.020556 0.000000 0.000000 0.000000
# 4 0.000000 0.000000 0.000000 0.048067 0.000000 0.000000
# 5 0.000000 0.000000 0.000000 0.000000 0.035851 0.000000
# 6 0.000000 0.000000 0.000000 0.000000 0.000000 0.040049
#
#
# Mechanical properties :
#
#
# Convention : Reuss Voigt Hill
#
# Bulk Modulus (GPa) = 44.44544 45.98712 45.21628
# Shear Modulus (GPa) = 23.45252 24.50543 23.97897
#
# Velocity S-wave (km/s) = 3.68185 3.76359 3.72294
# Velocity P-wave (km/s) = 6.61551 6.74296 6.67954
#
# Compressibility (1/GPa) = 0.02249949
#
# Stress axis : x y z
#
# Youngs Moduli (GPa) = 82.95281 51.27052 48.64847
#
# Poissons Ratio (x) = 0.11425 0.24611
# Poissons Ratio (y) = 0.18485 0.36586
# Poissons Ratio (z) = 0.41965 0.38558
#
# Static dielectric constant tensor:
#      x y z
#    x 3.303420 0.000000 0.000000 
#    y 0.000000 3.138890 0.000000 
#    z 0.000000 0.000000 3.173310 
# 
# 
# High freq. dielectric constant tensor:
#      x y z
#    x 1.663120 0.000000 0.000000 
#    y 0.000000 1.638460 0.000000 
#    z 0.000000 0.000000 1.675860 
# 
# From -- ./inp_files/10916.got.cif
#   From: 2010.03.12/outbox.cif.g09.slc.cpg/sg55_6_cif.got.tgz:10916.got - 2010.04.16 15:19:21.
