data_PCOD8227339
_publ_section_title
;
Structure prediction by ZEFSAII (Michael W. Deem and Ramdas Pophale) SiO2 
 PCOD8227339
Probable space group: P B A M
;
_chemical_formula_sum "Si O2"
_cell_formula_units_Z 56
_cell_length_a 21.187538
_cell_length_b 9.971199
_cell_length_c 13.710103
_cell_angle_alpha 90.000000
_cell_angle_beta 90.000000
_cell_angle_gamma 90.000000
_cell_volume 2896.467073
_symmetry_space_group_name_H-M "P B A M"
_symmetry_group_IT_number 55
_symmetry_cell_setting 'orthorhombic'
loop_
_space_group_symop_operation_xyz
x,y,z
-x,-y,z
1/2+x,1/2-y,-z
1/2-x,1/2+y,-z
-x,-y,-z
x,y,-z
1/2-x,1/2+y,z
1/2+x,1/2-y,z
loop_
_atom_site_type_symbol
_atom_site_label
_atom_site_fract_x
_atom_site_fract_y
_atom_site_fract_z
Si Si1 0.490873 0.846147 0.613731
Si Si2 0.827789 0.496431 0.711776
Si Si3 0.397313 0.268113 0.723576
Si Si4 0.897196 0.741154 0.226048
Si Si5 0.991121 0.155349 0.112420
Si Si6 0.818304 0.542528 0.500000
Si Si7 0.207019 0.157161 0.500000
Si Si8 0.320450 0.532268 0.304931
O O1 0.472953 0.837242 0.500000
O O2 0.556190 0.769308 0.635143
O O3 0.436957 0.769799 0.674007
O O4 0.500000 0.000000 0.648742
O O5 0.847907 0.349951 0.744973
O O6 0.856100 0.605638 0.786815
O O7 0.856480 0.530688 0.602164
O O8 0.752219 0.504457 0.714395
O O9 0.433344 0.289608 0.824847
O O10 0.358969 0.396336 0.689637
O O11 0.849825 0.868436 0.224331
O O12 0.945276 0.761246 0.136350
O O13 0.974032 0.176502 0.000000
O O14 0.000000 0.000000 0.139152
O O15 0.780576 0.683142 0.500000
O O16 0.774397 0.412688 0.500000
O O17 0.168816 0.112217 0.594746
#
# Coordination Sequence:
#
# PCOD8227339 Si02
#       8
#     8   8   8   8   8   4   4   8
#     4  10  22  36  56  82 119 165 201 251 304 346
#     4  11  23  37  60  84 133 164 205 249 299 360
#     4  11  23  39  61  92 115 161 206 250 311 367
#     4  11  21  39  61  89 116 160 201 248 307 363
#     4  10  22  44  70  92 116 153 202 258 315 376
#     4  10  22  34  52  81 120 179 213 238 280 340
#     4  10  22  34  50  81 122 173 217 242 276 338
#     4  11  23  37  57  87 126 165 209 247 290 360
#
# _framework density 19.333898000000001
#
# number of rings (size 3 to 8) (size 9 to 14) (size 15 to 20)
#    0.000    1.429    4.286    0.857   10.000    0.000 
#    0.000    2.143    0.000    5.143    0.000    0.000 
#    0.000    0.000    0.000    0.000    0.000    0.000 
#
# Total GULP energy -694373.433924 kJ/mol
# GULP energy per Si atom -12399.525606 kJ/mol
# Density = 1.928989 g / cm^3
# Si number density = 19.333898 Si / 1000 Ang^3
#
#
#
# Elastic Constant Matrix: (Units=GPa)
#
#
# Indices 1 2 3 4 5 6 
#
# 1 70.1245 18.3211 13.2759 0.0000 0.0000 0.0000
# 2 18.3211 112.8284 13.9967 0.0000 0.0000 0.0000
# 3 13.2759 13.9967 62.4985 0.0000 0.0000 0.0000
# 4 0.0000 0.0000 0.0000 16.4848 0.0000 0.0000
# 5 0.0000 0.0000 0.0000 0.0000 18.1748 0.0000
# 6 0.0000 0.0000 0.0000 0.0000 0.0000 46.1815
#
#
#
# Elastic Compliance Matrix: (Units=1/GPa)
#
#
# Indices 1 2 3 4 5 6 
#
# 1 0.015348 -0.002147 -0.002779 0.000000 0.000000 0.000000
# 2 -0.002147 0.009417 -0.001653 0.000000 0.000000 0.000000
# 3 -0.002779 -0.001653 0.016961 0.000000 0.000000 0.000000
# 4 0.000000 0.000000 0.000000 0.060662 0.000000 0.000000
# 5 0.000000 0.000000 0.000000 0.000000 0.055021 0.000000
# 6 0.000000 0.000000 0.000000 0.000000 0.000000 0.021654
#
#
# Mechanical properties :
#
#
# Convention : Reuss Voigt Hill
#
# Bulk Modulus (GPa) = 35.00603 37.40430 36.20517
# Shear Modulus (GPa) = 24.78401 29.49207 27.13804
#
# Velocity S-wave (km/s) = 3.58424 3.90988 3.75060
# Velocity P-wave (km/s) = 5.93922 6.30646 6.12559
#
# Compressibility (1/GPa) = 0.02856650
#
# Stress axis : x y z
#
# Youngs Moduli (GPa) = 65.15704 106.19394 58.95917
#
# Poissons Ratio (x) = 0.22804 0.16386
# Poissons Ratio (y) = 0.13992 0.09745
# Poissons Ratio (z) = 0.18108 0.17551
#
# Static dielectric constant tensor:
#      x y z
#    x 3.574080 0.000000 0.000000 
#    y 0.000000 3.677940 0.000000 
#    z 0.000000 0.000000 3.280190 
# 
# 
# High freq. dielectric constant tensor:
#      x y z
#    x 1.762200 0.000000 0.000000 
#    y 0.000000 1.771030 0.000000 
#    z 0.000000 0.000000 1.708880 
# 
# From -- ./inp_files/17679.got.cif
#   From: 2010.03.12/outbox.cif.g09.slc.cpg/sg55_9_cif.got.tgz:17679.got - 2010.04.16 15:19:21.
