data_PCOD8227638
_publ_section_title
;
Structure prediction by ZEFSAII (Michael W. Deem and Ramdas Pophale) SiO2 
 PCOD8227638
Probable space group: P B A M
;
_chemical_formula_sum "Si O2"
_cell_formula_units_Z 64
_cell_length_a 11.797453
_cell_length_b 22.548577
_cell_length_c 13.671355
_cell_angle_alpha 90.000000
_cell_angle_beta 90.000000
_cell_angle_gamma 90.000000
_cell_volume 3636.796128
_symmetry_space_group_name_H-M "P B A M"
_symmetry_group_IT_number 55
_symmetry_cell_setting 'orthorhombic'
loop_
_space_group_symop_operation_xyz
x,y,z
-x,-y,z
1/2+x,1/2-y,-z
1/2-x,1/2+y,-z
-x,-y,-z
x,y,-z
1/2-x,1/2+y,z
1/2+x,1/2-y,z
loop_
_atom_site_type_symbol
_atom_site_label
_atom_site_fract_x
_atom_site_fract_y
_atom_site_fract_z
Si Si1 0.967106 0.405198 0.608100
Si Si2 0.446069 0.847893 0.792553
Si Si3 0.177704 0.646405 0.113133
Si Si4 0.365625 0.732555 0.113472
Si Si5 0.232331 0.927662 0.209483
Si Si6 0.828261 0.954492 0.886326
Si Si7 0.816088 0.512131 0.392148
Si Si8 0.030983 0.876797 0.113234
O O1 0.947260 0.376921 0.500000
O O2 0.857924 0.445676 0.637751
O O3 0.991493 0.353007 0.686680
O O4 0.075303 0.446672 0.603664
O O5 0.544029 0.851745 0.872728
O O6 0.384613 0.785569 0.809514
O O7 0.357504 0.901440 0.807941
O O8 0.246007 0.704651 0.149574
O O9 0.230633 0.587068 0.162061
O O10 0.204720 0.644112 0.000000
O O11 0.466146 0.685132 0.125866
O O12 0.360789 0.754816 0.000000
O O13 0.226037 0.959612 0.315886
O O14 0.138529 0.876875 0.188136
O O15 0.201141 0.977630 0.131177
O O16 0.952010 0.931948 0.851157
O O17 0.829116 0.942766 0.000000
O O18 0.758834 0.510326 0.500000
O O19 0.070458 0.883714 0.000000
#
# Coordination Sequence:
#
# PCOD8227638 Si02
#       8
#     8   8   8   8   8   8   8   8
#     4   8  15  30  50  71  99 131 160 196 249 311
#     4  11  21  30  49  78  99 122 166 217 253 292
#     4   9  19  34  48  66  99 137 164 197 251 302
#     4   9  20  36  50  65  95 140 179 205 240 297
#     4  11  20  28  49  81 100 120 167 217 253 289
#     4   9  18  33  49  68 100 136 165 199 249 304
#     4   8  15  29  48  72 103 132 156 194 252 310
#     4   9  19  35  51  67  95 142 182 203 238 301
#
# _framework density 17.597906999999999
#
# number of rings (size 3 to 8) (size 9 to 14) (size 15 to 20)
#    0.000    2.750    0.000    4.125    1.750    4.500 
#    0.000    1.250    0.000    3.000    0.000    3.500 
#    0.000    0.000    0.000    0.000    0.000    0.000 
#
# Total GULP energy -792836.830577 kJ/mol
# GULP energy per Si atom -12388.075478 kJ/mol
# Density = 1.755785 g / cm^3
# Si number density = 17.597907 Si / 1000 Ang^3
#
#
#
# Elastic Constant Matrix: (Units=GPa)
#
#
# Indices 1 2 3 4 5 6 
#
# 1 84.1232 24.2184 31.3095 0.0000 0.0000 0.0000
# 2 24.2184 74.1256 36.6827 0.0000 0.0000 0.0000
# 3 31.3095 36.6827 65.6737 0.0000 0.0000 0.0000
# 4 0.0000 0.0000 0.0000 25.6303 0.0000 0.0000
# 5 0.0000 0.0000 0.0000 0.0000 16.9889 0.0000
# 6 0.0000 0.0000 0.0000 0.0000 0.0000 24.4669
#
#
#
# Elastic Compliance Matrix: (Units=1/GPa)
#
#
# Indices 1 2 3 4 5 6 
#
# 1 0.014630 -0.001836 -0.005949 0.000000 0.000000 0.000000
# 2 -0.001836 0.018875 -0.009667 0.000000 0.000000 0.000000
# 3 -0.005949 -0.009667 0.023463 0.000000 0.000000 0.000000
# 4 0.000000 0.000000 0.000000 0.039016 0.000000 0.000000
# 5 0.000000 0.000000 0.000000 0.000000 0.058862 0.000000
# 6 0.000000 0.000000 0.000000 0.000000 0.000000 0.040872
#
#
# Mechanical properties :
#
#
# Convention : Reuss Voigt Hill
#
# Bulk Modulus (GPa) = 45.32583 45.37152 45.34867
# Shear Modulus (GPa) = 21.01046 22.19801 21.60423
#
# Velocity S-wave (km/s) = 3.45906 3.55547 3.50760
# Velocity P-wave (km/s) = 6.46264 6.53403 6.49843
#
# Compressibility (1/GPa) = 0.02206248
#
# Stress axis : x y z
#
# Youngs Moduli (GPa) = 68.35216 52.98149 42.62042
#
# Poissons Ratio (x) = 0.09726 0.25357
# Poissons Ratio (y) = 0.12548 0.41203
# Poissons Ratio (z) = 0.40666 0.51219
#
# Static dielectric constant tensor:
#      x y z
#    x 3.260450 0.000000 0.000000 
#    y 0.000000 3.232360 0.000000 
#    z 0.000000 0.000000 3.317120 
# 
# 
# High freq. dielectric constant tensor:
#      x y z
#    x 1.673290 0.000000 0.000000 
#    y 0.000000 1.670910 0.000000 
#    z 0.000000 0.000000 1.652280 
# 
# From -- ./inp_files/13561.got.cif
#   From: 2010.03.12/outbox.cif.g09.slc.cpg/sg55_7_cif.got.tgz:13561.got - 2010.04.16 15:19:21.
