data_PCOD8227069
_publ_section_title
;
Structure prediction by ZEFSAII (Michael W. Deem and Ramdas Pophale) SiO2 
 PCOD8227069
Probable space group: P B A M
;
_chemical_formula_sum "Si O2"
_cell_formula_units_Z 64
_cell_length_a 11.853029
_cell_length_b 30.525746
_cell_length_c 9.104951
_cell_angle_alpha 90.000000
_cell_angle_beta 90.000000
_cell_angle_gamma 90.000000
_cell_volume 3294.376612
_symmetry_space_group_name_H-M "P B A M"
_symmetry_group_IT_number 55
_symmetry_cell_setting 'orthorhombic'
loop_
_space_group_symop_operation_xyz
x,y,z
-x,-y,z
1/2+x,1/2-y,-z
1/2-x,1/2+y,-z
-x,-y,-z
x,y,-z
1/2-x,1/2+y,z
1/2+x,1/2-y,z
loop_
_atom_site_type_symbol
_atom_site_label
_atom_site_fract_x
_atom_site_fract_y
_atom_site_fract_z
Si Si1 0.771881 0.957799 0.170395
Si Si2 0.731745 0.697975 0.672435
Si Si3 0.008620 0.830121 0.832100
Si Si4 0.240220 0.954918 0.326009
Si Si5 0.518353 0.569241 0.834856
Si Si6 0.797621 0.794820 0.670575
Si Si7 0.397626 0.876322 0.326567
Si Si8 0.348212 0.121592 0.327287
O O1 0.722830 0.914595 0.243448
O O2 0.907352 0.960128 0.191376
O O3 0.719838 0.000227 0.249685
O O4 0.738544 0.957970 0.000000
O O5 0.709604 0.693034 0.500000
O O6 0.625735 0.678562 0.754438
O O7 0.748493 0.748084 0.718671
O O8 0.840202 0.669372 0.721611
O O9 0.978080 0.880968 0.814829
O O10 0.911369 0.801686 0.759390
O O11 0.018716 0.815757 0.000000
O O12 0.245909 0.960690 0.500000
O O13 0.112876 0.942743 0.282603
O O14 0.324323 0.917215 0.267882
O O15 0.565997 0.561514 0.000000
O O16 0.830108 0.795236 0.500000
O O17 0.703929 0.831003 0.707913
O O18 0.403585 0.878846 0.500000
O O19 0.524430 0.878425 0.264081
O O20 0.343938 0.111269 0.500000
#
# Coordination Sequence:
#
# PCOD8227069 Si02
#       8
#     8   8   8   8   8   8   8   8
#     4  11  23  40  59  83 117 156 192 239 295 352
#     4  10  21  39  63  91 120 154 199 247 293 345
#     4  11  22  38  61  88 124 160 193 237 293 355
#     4  11  22  37  60  89 116 150 194 245 293 348
#     4  10  21  38  58  83 119 157 190 234 293 349
#     4  10  22  37  63  92 118 152 198 248 290 342
#     4   9  20  38  59  84 118 152 189 241 297 344
#     4  10  21  39  60  85 114 152 197 242 290 345
#
# _framework density 19.427045
#
# number of rings (size 3 to 8) (size 9 to 14) (size 15 to 20)
#    0.000    1.750    2.500    1.500    1.750    4.000 
#    0.000    4.375    0.000    0.000    0.000    0.000 
#    0.000    0.000    0.000    0.000    0.000    0.000 
#
# Total GULP energy -793835.195716 kJ/mol
# GULP energy per Si atom -12403.674933 kJ/mol
# Density = 1.938283 g / cm^3
# Si number density = 19.427045 Si / 1000 Ang^3
#
#
#
# Elastic Constant Matrix: (Units=GPa)
#
#
# Indices 1 2 3 4 5 6 
#
# 1 96.2442 28.3829 34.2258 0.0000 0.0000 0.0000
# 2 28.3829 111.4406 40.3825 0.0000 0.0000 0.0000
# 3 34.2258 40.3825 61.7542 0.0000 0.0000 0.0000
# 4 0.0000 0.0000 0.0000 14.9270 0.0000 0.0000
# 5 0.0000 0.0000 0.0000 0.0000 9.5298 0.0000
# 6 0.0000 0.0000 0.0000 0.0000 0.0000 256.9584
#
#
#
# Elastic Compliance Matrix: (Units=1/GPa)
#
#
# Indices 1 2 3 4 5 6 
#
# 1 0.013012 -0.000918 -0.006611 0.000000 0.000000 0.000000
# 2 -0.000918 0.011825 -0.007224 0.000000 0.000000 0.000000
# 3 -0.006611 -0.007224 0.024581 0.000000 0.000000 0.000000
# 4 0.000000 0.000000 0.000000 0.066993 0.000000 0.000000
# 5 0.000000 0.000000 0.000000 0.000000 0.104934 0.000000
# 6 0.000000 0.000000 0.000000 0.000000 0.000000 0.003892
#
#
# Mechanical properties :
#
#
# Convention : Reuss Voigt Hill
#
# Bulk Modulus (GPa) = 50.22149 52.82461 51.52305
# Shear Modulus (GPa) = 19.12925 67.37956 43.25441
#
# Velocity S-wave (km/s) = 3.14135 5.89565 4.72370
# Velocity P-wave (km/s) = 6.25019 8.57876 7.50534
#
# Compressibility (1/GPa) = 0.01991180
#
# Stress axis : x y z
#
# Youngs Moduli (GPa) = 76.85175 84.56733 40.68194
#
# Poissons Ratio (x) = 0.07767 0.26895
# Poissons Ratio (y) = 0.07058 0.29387
# Poissons Ratio (z) = 0.50807 0.61088
#
# Static dielectric constant tensor:
#      x y z
#    x 3.620830 0.000000 0.000000 
#    y 0.000000 3.827780 0.000000 
#    z 0.000000 0.000000 3.408740 
# 
# 
# High freq. dielectric constant tensor:
#      x y z
#    x 1.756500 0.000000 0.000000 
#    y 0.000000 1.772510 0.000000 
#    z 0.000000 0.000000 1.742020 
# 
# From -- ./inp_files/4477.got.cif
#   From: 2010.03.12/outbox.cif.g09.slc.cpg/sg55_3_cif.got.tgz:4477.got - 2010.04.16 15:19:21.
