data_PCOD8227451
_publ_section_title
;
Structure prediction by ZEFSAII (Michael W. Deem and Ramdas Pophale) SiO2 
 PCOD8227451
Probable space group: P B A M
;
_chemical_formula_sum "Si O2"
_cell_formula_units_Z 40
_cell_length_a 9.381614
_cell_length_b 13.986521
_cell_length_c 14.982799
_cell_angle_alpha 90.000000
_cell_angle_beta 90.000000
_cell_angle_gamma 90.000000
_cell_volume 1965.985070
_symmetry_space_group_name_H-M "P B A M"
_symmetry_group_IT_number 55
_symmetry_cell_setting 'orthorhombic'
loop_
_space_group_symop_operation_xyz
x,y,z
-x,-y,z
1/2+x,1/2-y,-z
1/2-x,1/2+y,-z
-x,-y,-z
x,y,-z
1/2-x,1/2+y,z
1/2+x,1/2-y,z
loop_
_atom_site_type_symbol
_atom_site_label
_atom_site_fract_x
_atom_site_fract_y
_atom_site_fract_z
Si Si1 0.377993 0.146689 0.000000
Si Si2 0.500000 0.500000 0.149824
Si Si3 0.731372 0.030292 0.267926
Si Si4 0.860148 0.366914 0.600747
Si Si5 0.458788 0.652295 0.000000
Si Si6 0.320267 0.813758 0.600753
Si Si7 0.500000 0.000000 0.137349
O O1 0.210485 0.169045 0.000000
O O2 0.417309 0.082054 0.084248
O O3 0.463627 0.245769 0.000000
O O4 0.632334 0.492691 0.215967
O O5 0.507386 0.594218 0.087950
O O6 0.660481 0.951351 0.330659
O O7 0.767174 0.120707 0.329905
O O8 0.613852 0.058941 0.195020
O O9 0.856892 0.408246 0.500000
O O10 0.731641 0.293625 0.615753
O O11 0.011144 0.316163 0.619490
O O12 0.284092 0.847307 0.500000
#
# Coordination Sequence:
#
# PCOD8227451 Si02
#       7
#     4   4   8   8   4   8   4
#     4  11  26  44  71  93 125 165 203 251 322 380
#     4  11  28  44  63  94 132 156 211 260 310 373
#     4  12  23  42  64  93 125 167 206 261 305 362
#     4  10  22  40  62  91 128 168 211 254 307 368
#     4  11  26  48  67  93 125 167 199 255 320 382
#     4  10  22  40  62  90 127 170 210 255 309 365
#     4  11  24  44  65  96 126 158 211 256 306 383
#
# _framework density 20.346035000000001
#
# number of rings (size 3 to 8) (size 9 to 14) (size 15 to 20)
#    0.000    1.200    4.000    0.600    5.600    4.800 
#    0.000    1.000    0.000    0.000    0.000    0.000 
#    0.000    0.000    0.000    0.000    0.000    0.000 
#
# Total GULP energy -496038.765646 kJ/mol
# GULP energy per Si atom -12400.969141 kJ/mol
# Density = 2.029973 g / cm^3
# Si number density = 20.346035 Si / 1000 Ang^3
#
#
#
# Elastic Constant Matrix: (Units=GPa)
#
#
# Indices 1 2 3 4 5 6 
#
# 1 83.3714 22.5724 34.6591 0.0000 0.0000 0.0000
# 2 22.5724 87.1713 37.1574 0.0000 0.0000 0.0000
# 3 34.6591 37.1574 107.9605 0.0000 0.0000 0.0000
# 4 0.0000 0.0000 0.0000 131.8142 0.0000 0.0000
# 5 0.0000 0.0000 0.0000 0.0000 25.5417 0.0000
# 6 0.0000 0.0000 0.0000 0.0000 0.0000 35.7746
#
#
#
# Elastic Compliance Matrix: (Units=1/GPa)
#
#
# Indices 1 2 3 4 5 6 
#
# 1 0.014140 -0.002023 -0.003843 0.000000 0.000000 0.000000
# 2 -0.002023 0.013734 -0.004077 0.000000 0.000000 0.000000
# 3 -0.003843 -0.004077 0.011900 0.000000 0.000000 0.000000
# 4 0.000000 0.000000 0.000000 0.007586 0.000000 0.000000
# 5 0.000000 0.000000 0.000000 0.000000 0.039152 0.000000
# 6 0.000000 0.000000 0.000000 0.000000 0.000000 0.027953
#
#
# Mechanical properties :
#
#
# Convention : Reuss Voigt Hill
#
# Bulk Modulus (GPa) = 50.28654 51.92011 51.10332
# Shear Modulus (GPa) = 35.46606 50.90039 43.18322
#
# Velocity S-wave (km/s) = 4.17963 5.00716 4.61199
# Velocity P-wave (km/s) = 6.93265 7.68133 7.31657
#
# Compressibility (1/GPa) = 0.01988604
#
# Stress axis : x y z
#
# Youngs Moduli (GPa) = 70.72164 72.81453 84.03599
#
# Poissons Ratio (x) = 0.14733 0.32295
# Poissons Ratio (y) = 0.14309 0.34263
# Poissons Ratio (z) = 0.27179 0.29688
#
# Static dielectric constant tensor:
#      x y z
#    x 3.950810 0.000000 0.000000 
#    y 0.000000 3.588450 0.000000 
#    z 0.000000 0.000000 4.055400 
# 
# 
# High freq. dielectric constant tensor:
#      x y z
#    x 1.804060 0.000000 0.000000 
#    y 0.000000 1.784950 0.000000 
#    z 0.000000 0.000000 1.814120 
# 
# From -- ./inp_files/17142.got.cif
#   From: 2010.03.12/outbox.cif.g09.slc.cpg/sg55_9_cif.got.tgz:17142.got - 2010.04.16 15:19:21.
