data_PCOD8227583
_publ_section_title
;
Structure prediction by ZEFSAII (Michael W. Deem and Ramdas Pophale) SiO2 
 PCOD8227583
Probable space group: P B A M
;
_chemical_formula_sum "Si O2"
_cell_formula_units_Z 56
_cell_length_a 20.756488
_cell_length_b 14.783445
_cell_length_c 8.584600
_cell_angle_alpha 90.000000
_cell_angle_beta 90.000000
_cell_angle_gamma 90.000000
_cell_volume 2634.205102
_symmetry_space_group_name_H-M "P B A M"
_symmetry_group_IT_number 55
_symmetry_cell_setting 'orthorhombic'
loop_
_space_group_symop_operation_xyz
x,y,z
-x,-y,z
1/2+x,1/2-y,-z
1/2-x,1/2+y,-z
-x,-y,-z
x,y,-z
1/2-x,1/2+y,z
1/2+x,1/2-y,z
loop_
_atom_site_type_symbol
_atom_site_label
_atom_site_fract_x
_atom_site_fract_y
_atom_site_fract_z
Si Si1 0.842825 0.322827 0.681254
Si Si2 0.053770 0.924193 0.676355
Si Si3 0.238635 0.315195 0.182638
Si Si4 0.025332 0.736704 0.181219
Si Si5 0.629849 0.431814 0.175542
Si Si6 0.393711 0.750663 0.680810
Si Si7 0.229122 0.519692 0.824877
O O1 0.852821 0.309858 0.500000
O O2 0.793008 0.245411 0.735503
O O3 0.911873 0.316257 0.762834
O O4 0.819370 0.424690 0.716080
O O5 0.066911 0.890455 0.500000
O O6 0.034380 0.842069 0.784847
O O7 0.116990 0.969418 0.751259
O O8 0.000000 0.000000 0.682906
O O9 0.166316 0.283908 0.218634
O O10 0.242661 0.419212 0.240852
O O11 0.252010 0.307740 0.000000
O O12 0.960442 0.700979 0.267892
O O13 0.015229 0.720117 0.000000
O O14 0.597909 0.356253 0.286049
O O15 0.706424 0.420239 0.172635
O O16 0.601783 0.423680 0.000000
O O17 0.380583 0.768504 0.500000
O O18 0.200737 0.513001 0.000000
#
# Coordination Sequence:
#
# PCOD8227583 Si02
#       7
#     8   8   8   8   8   8   8
#     4  12  25  42  67  98 134 170 212 270 330 386
#     4  11  22  35  55  87 127 162 203 258 316 381
#     4  11  23  43  69  98 131 172 221 267 319 386
#     4  12  25  42  64  89 126 172 217 266 323 391
#     4  11  21  36  61  90 123 167 211 255 315 383
#     4  12  24  40  62  93 129 167 212 265 322 380
#     4  10  23  42  66  94 127 166 217 269 316 381
#
# _framework density 21.258783999999999
#
# number of rings (size 3 to 8) (size 9 to 14) (size 15 to 20)
#    0.000    0.714    2.857    6.000    0.000    3.429 
#    0.000    0.714    0.000    4.286    0.000    0.000 
#    0.000    0.000    0.000    0.000    0.000    0.000 
#
# Total GULP energy -694500.510338 kJ/mol
# GULP energy per Si atom -12401.794827 kJ/mol
# Density = 2.121040 g / cm^3
# Si number density = 21.258784 Si / 1000 Ang^3
#
#
#
# Elastic Constant Matrix: (Units=GPa)
#
#
# Indices 1 2 3 4 5 6 
#
# 1 88.6773 2.7407 3.2183 0.0000 0.0000 0.0000
# 2 2.7407 57.7124 9.9771 0.0000 0.0000 0.0000
# 3 3.2183 9.9771 86.3967 0.0000 0.0000 0.0000
# 4 0.0000 0.0000 0.0000 12.8649 0.0000 0.0000
# 5 0.0000 0.0000 0.0000 0.0000 31.1646 0.0000
# 6 0.0000 0.0000 0.0000 0.0000 0.0000 28.2980
#
#
#
# Elastic Compliance Matrix: (Units=1/GPa)
#
#
# Indices 1 2 3 4 5 6 
#
# 1 0.011305 -0.000473 -0.000366 0.000000 0.000000 0.000000
# 2 -0.000473 0.017700 -0.002026 0.000000 0.000000 0.000000
# 3 -0.000366 -0.002026 0.011822 0.000000 0.000000 0.000000
# 4 0.000000 0.000000 0.000000 0.077731 0.000000 0.000000
# 5 0.000000 0.000000 0.000000 0.000000 0.032088 0.000000
# 6 0.000000 0.000000 0.000000 0.000000 0.000000 0.035338
#
#
# Mechanical properties :
#
#
# Convention : Reuss Voigt Hill
#
# Bulk Modulus (GPa) = 28.49454 29.40651 28.95053
# Shear Modulus (GPa) = 24.58036 28.92220 26.75128
#
# Velocity S-wave (km/s) = 3.40405 3.69247 3.55119
# Velocity P-wave (km/s) = 5.37427 5.66055 5.51927
#
# Compressibility (1/GPa) = 0.03509444
#
# Stress axis : x y z
#
# Youngs Moduli (GPa) = 88.45817 56.49685 84.58686
#
# Poissons Ratio (x) = 0.02675 0.03099
# Poissons Ratio (y) = 0.04188 0.17140
# Poissons Ratio (z) = 0.03241 0.11448
#
# Static dielectric constant tensor:
#      x y z
#    x 3.997130 0.000000 0.000000 
#    y 0.000000 3.813280 0.000000 
#    z 0.000000 0.000000 3.845530 
# 
# 
# High freq. dielectric constant tensor:
#      x y z
#    x 1.843240 0.000000 0.000000 
#    y 0.000000 1.816760 0.000000 
#    z 0.000000 0.000000 1.838910 
# 
# From -- ./inp_files/8755.got.cif
#   From: 2010.03.12/outbox.cif.g09.slc.cpg/sg55_5_cif.got.tgz:8755.got - 2010.04.16 15:19:21.
