data_PCOD8227073
_publ_section_title
;
Structure prediction by ZEFSAII (Michael W. Deem and Ramdas Pophale) SiO2 
 PCOD8227073
Probable space group: P B A M
;
_chemical_formula_sum "Si O2"
_cell_formula_units_Z 64
_cell_length_a 23.499713
_cell_length_b 14.984413
_cell_length_c 8.792300
_cell_angle_alpha 90.000000
_cell_angle_beta 90.000000
_cell_angle_gamma 90.000000
_cell_volume 3096.027367
_symmetry_space_group_name_H-M "P B A M"
_symmetry_group_IT_number 55
_symmetry_cell_setting 'orthorhombic'
loop_
_space_group_symop_operation_xyz
x,y,z
-x,-y,z
1/2+x,1/2-y,-z
1/2-x,1/2+y,-z
-x,-y,-z
x,y,-z
1/2-x,1/2+y,z
1/2+x,1/2-y,z
loop_
_atom_site_type_symbol
_atom_site_label
_atom_site_fract_x
_atom_site_fract_y
_atom_site_fract_z
Si Si1 0.371837 0.174127 0.674865
Si Si2 0.245584 0.229353 0.678901
Si Si3 0.514986 0.738877 0.327077
Si Si4 0.541319 0.424494 0.178425
Si Si5 0.641360 0.999874 0.829243
Si Si6 0.170574 0.073561 0.819368
Si Si7 0.971357 0.591925 0.171970
Si Si8 0.250775 0.932391 0.677673
O O1 0.373500 0.143273 0.500000
O O2 0.309663 0.205437 0.724253
O O3 0.416927 0.254358 0.700740
O O4 0.390139 0.091823 0.781987
O O5 0.234682 0.221296 0.500000
O O6 0.201720 0.162867 0.760009
O O7 0.238523 0.331435 0.735717
O O8 0.501344 0.711208 0.500000
O O9 0.487209 0.669723 0.212787
O O10 0.487677 0.834710 0.294685
O O11 0.500000 0.500000 0.251379
O O12 0.605639 0.427943 0.243545
O O13 0.544812 0.438539 0.000000
O O14 0.596865 0.080642 0.820915
O O15 0.692192 0.012789 0.710556
O O16 0.666051 0.991403 0.000000
O O17 0.199147 0.981863 0.762391
O O18 0.172515 0.076486 0.000000
O O19 0.000000 0.500000 0.221567
O O20 0.989981 0.618497 0.000000
O O21 0.236606 0.933922 0.500000
#
# Coordination Sequence:
#
# PCOD8227073 Si02
#       8
#     8   8   8   8   8   8   8   8
#     4  10  21  39  61  89 125 161 203 257 313 373
#     4  10  23  42  64  91 125 166 204 251 320 379
#     4  11  24  39  63  95 124 161 211 261 311 373
#     4  10  25  48  68  89 124 169 215 267 322 371
#     4  11  22  37  60  89 122 164 209 251 301 368
#     4  11  24  43  67  96 126 162 215 266 311 373
#     4  10  21  38  58  85 125 167 205 246 303 370
#     4  11  24  41  64  91 125 165 202 251 318 380
#
# _framework density 20.671651000000001
#
# number of rings (size 3 to 8) (size 9 to 14) (size 15 to 20)
#    0.000    1.500    2.500    1.500    3.500    4.000 
#    0.000    0.000    0.000    0.000    0.000    0.000 
#    0.000    0.000    0.000    0.000    0.000    0.000 
#
# Total GULP energy -793682.865300 kJ/mol
# GULP energy per Si atom -12401.294770 kJ/mol
# Density = 2.062460 g / cm^3
# Si number density = 20.671651 Si / 1000 Ang^3
#
#
#
# Elastic Constant Matrix: (Units=GPa)
#
#
# Indices 1 2 3 4 5 6 
#
# 1 145.9565 53.8822 35.9490 0.0000 0.0000 0.0000
# 2 53.8822 112.3311 30.7218 0.0000 0.0000 0.0000
# 3 35.9490 30.7218 46.4848 0.0000 0.0000 0.0000
# 4 0.0000 0.0000 0.0000 29.8974 0.0000 0.0000
# 5 0.0000 0.0000 0.0000 0.0000 25.6044 0.0000
# 6 0.0000 0.0000 0.0000 0.0000 0.0000 29.3269
#
#
#
# Elastic Compliance Matrix: (Units=1/GPa)
#
#
# Indices 1 2 3 4 5 6 
#
# 1 0.009234 -0.003023 -0.005143 0.000000 0.000000 0.000000
# 2 -0.003023 0.011856 -0.005498 0.000000 0.000000 0.000000
# 3 -0.005143 -0.005498 0.029124 0.000000 0.000000 0.000000
# 4 0.000000 0.000000 0.000000 0.033448 0.000000 0.000000
# 5 0.000000 0.000000 0.000000 0.000000 0.039056 0.000000
# 6 0.000000 0.000000 0.000000 0.000000 0.000000 0.034098
#
#
# Mechanical properties :
#
#
# Convention : Reuss Voigt Hill
#
# Bulk Modulus (GPa) = 43.69593 60.65315 52.17454
# Shear Modulus (GPa) = 26.07263 29.24704 27.65984
#
# Velocity S-wave (km/s) = 3.55530 3.76551 3.66191
# Velocity P-wave (km/s) = 6.16745 6.95057 6.57069
#
# Compressibility (1/GPa) = 0.02288543
#
# Stress axis : x y z
#
# Youngs Moduli (GPa) = 108.29495 84.34713 34.33629
#
# Poissons Ratio (x) = 0.25495 0.17661
# Poissons Ratio (y) = 0.32733 0.18878
# Poissons Ratio (z) = 0.55701 0.46374
#
# Static dielectric constant tensor:
#      x y z
#    x 3.967710 0.000000 0.000000 
#    y 0.000000 3.787120 0.000000 
#    z 0.000000 0.000000 3.562600 
# 
# 
# High freq. dielectric constant tensor:
#      x y z
#    x 1.821900 0.000000 0.000000 
#    y 0.000000 1.806400 0.000000 
#    z 0.000000 0.000000 1.800740 
# 
# From -- ./inp_files/9732.got.cif
#   From: 2010.03.12/outbox.cif.g09.slc.cpg/sg55_5_cif.got.tgz:9732.got - 2010.04.16 15:19:21.
