data_PCOD8227753
_publ_section_title
;
Structure prediction by ZEFSAII (Michael W. Deem and Ramdas Pophale) SiO2 
 PCOD8227753
Probable space group: P B A M
;
_chemical_formula_sum "Si O2"
_cell_formula_units_Z 48
_cell_length_a 8.914623
_cell_length_b 15.291663
_cell_length_c 16.708633
_cell_angle_alpha 90.000000
_cell_angle_beta 90.000000
_cell_angle_gamma 90.000000
_cell_volume 2277.711004
_symmetry_space_group_name_H-M "P B A M"
_symmetry_group_IT_number 55
_symmetry_cell_setting 'orthorhombic'
loop_
_space_group_symop_operation_xyz
x,y,z
-x,-y,z
1/2+x,1/2-y,-z
1/2-x,1/2+y,-z
-x,-y,-z
x,y,-z
1/2-x,1/2+y,z
1/2+x,1/2-y,z
loop_
_atom_site_type_symbol
_atom_site_label
_atom_site_fract_x
_atom_site_fract_y
_atom_site_fract_z
Si Si1 0.323129 0.488148 0.410360
Si Si2 0.008943 0.351216 0.000000
Si Si3 0.121693 0.932607 0.847022
Si Si4 0.269429 0.647622 0.697828
Si Si5 0.633152 0.665003 0.000000
Si Si6 0.875505 0.442111 0.844945
Si Si7 0.123538 0.829731 0.306348
O O1 0.500000 0.500000 0.411742
O O2 0.256304 0.488431 0.500000
O O3 0.240684 0.565599 0.361184
O O4 0.297829 0.393742 0.370462
O O5 0.186860 0.337178 0.000000
O O6 0.958853 0.398946 0.080524
O O7 0.918753 0.262725 0.000000
O O8 0.058084 0.880606 0.922817
O O9 0.177894 0.863822 0.780369
O O10 0.256321 0.990406 0.880817
O O11 0.000000 0.000000 0.808565
O O12 0.208307 0.625382 0.786319
O O13 0.444027 0.670695 0.696571
O O14 0.178945 0.733236 0.670492
O O15 0.000000 0.500000 0.797150
#
# Coordination Sequence:
#
# PCOD8227753 Si02
#       7
#     8   4   8   8   4   8   8
#     4   9  19  41  67  93 130 171 209 258 318 386
#     4  12  28  43  58  91 127 168 223 272 331 385
#     4  12  23  43  66  91 124 169 219 267 330 392
#     4  11  24  40  66  98 130 169 215 265 323 388
#     4  12  28  42  60  91 127 169 221 274 323 389
#     4  12  24  43  67  88 127 171 220 272 330 385
#     4  11  23  41  64  98 130 167 217 263 321 390
#
# _framework density 21.073789000000001
#
# number of rings (size 3 to 8) (size 9 to 14) (size 15 to 20)
#    0.000    0.833    5.000    2.500    4.667    3.333 
#    0.000    0.000    0.000    3.500    0.000    0.000 
#    0.000    0.000    0.000    0.000    0.000    0.000 
#
# Total GULP energy -595052.295286 kJ/mol
# GULP energy per Si atom -12396.922818 kJ/mol
# Density = 2.102582 g / cm^3
# Si number density = 21.073789 Si / 1000 Ang^3
#
#
#
# Elastic Constant Matrix: (Units=GPa)
#
#
# Indices 1 2 3 4 5 6 
#
# 1 73.9866 49.6517 17.3197 0.0000 0.0000 0.0000
# 2 49.6517 152.2371 54.7947 0.0000 0.0000 0.0000
# 3 17.3197 54.7947 130.3312 0.0000 0.0000 0.0000
# 4 0.0000 0.0000 0.0000 27.9344 0.0000 0.0000
# 5 0.0000 0.0000 0.0000 0.0000 17.4938 0.0000
# 6 0.0000 0.0000 0.0000 0.0000 0.0000 43.9873
#
#
#
# Elastic Compliance Matrix: (Units=1/GPa)
#
#
# Indices 1 2 3 4 5 6 
#
# 1 0.017304 -0.005675 0.000086 0.000000 0.000000 0.000000
# 2 -0.005675 0.009601 -0.003282 0.000000 0.000000 0.000000
# 3 0.000086 -0.003282 0.009041 0.000000 0.000000 0.000000
# 4 0.000000 0.000000 0.000000 0.035798 0.000000 0.000000
# 5 0.000000 0.000000 0.000000 0.000000 0.057163 0.000000
# 6 0.000000 0.000000 0.000000 0.000000 0.000000 0.022734
#
#
# Mechanical properties :
#
#
# Convention : Reuss Voigt Hill
#
# Bulk Modulus (GPa) = 54.93115 66.67635 60.80375
# Shear Modulus (GPa) = 28.49798 33.53568 31.01683
#
# Velocity S-wave (km/s) = 3.68135 3.99350 3.84059
# Velocity P-wave (km/s) = 6.64774 7.27820 6.97010
#
# Compressibility (1/GPa) = 0.01820461
#
# Stress axis : x y z
#
# Youngs Moduli (GPa) = 57.79008 104.15676 110.60367
#
# Poissons Ratio (x) = 0.59106 -0.00954
# Poissons Ratio (y) = 0.32794 0.36304
# Poissons Ratio (z) = -0.00499 0.34188
#
# Static dielectric constant tensor:
#      x y z
#    x 3.841070 0.000000 0.000000 
#    y 0.000000 4.020800 0.000000 
#    z 0.000000 0.000000 3.868250 
# 
# 
# High freq. dielectric constant tensor:
#      x y z
#    x 1.817750 0.000000 0.000000 
#    y 0.000000 1.841600 0.000000 
#    z 0.000000 0.000000 1.816530 
# 
# From -- ./inp_files/20815.got.cif
#   From: 2010.03.12/outbox.cif.g09.slc.cpg/sg55_11_cif.got.tgz:20815.got - 2010.04.16 15:19:21.
