data_PCOD8227813
_publ_section_title
;
Structure prediction by ZEFSAII (Michael W. Deem and Ramdas Pophale) SiO2 
 PCOD8227813
Probable space group: P B A M
;
_chemical_formula_sum "Si O2"
_cell_formula_units_Z 48
_cell_length_a 16.496617
_cell_length_b 9.054913
_cell_length_c 15.282171
_cell_angle_alpha 90.000000
_cell_angle_beta 90.000000
_cell_angle_gamma 90.000000
_cell_volume 2282.780891
_symmetry_space_group_name_H-M "P B A M"
_symmetry_group_IT_number 55
_symmetry_cell_setting 'orthorhombic'
loop_
_space_group_symop_operation_xyz
x,y,z
-x,-y,z
1/2+x,1/2-y,-z
1/2-x,1/2+y,-z
-x,-y,-z
x,y,-z
1/2-x,1/2+y,z
1/2+x,1/2-y,z
loop_
_atom_site_type_symbol
_atom_site_label
_atom_site_fract_x
_atom_site_fract_y
_atom_site_fract_z
Si Si1 0.711453 0.562083 0.684362
Si Si2 0.665525 0.847905 0.599972
Si Si3 0.570719 0.396901 0.783982
Si Si4 0.848625 0.358605 0.904327
Si Si5 0.539913 0.850734 0.255273
Si Si6 0.197951 0.318244 0.149883
O O1 0.682846 0.674907 0.610085
O O2 0.756135 0.431484 0.635276
O O3 0.630741 0.500080 0.729510
O O4 0.771024 0.644479 0.752309
O O5 0.647390 0.888635 0.500000
O O6 0.588090 0.892382 0.657308
O O7 0.500000 0.500000 0.827961
O O8 0.524403 0.277567 0.722287
O O9 0.622723 0.297766 0.851417
O O10 0.903278 0.297467 0.825123
O O11 0.767563 0.261573 0.904554
O O12 0.828417 0.531209 0.895578
O O13 0.889847 0.335874 0.000000
O O14 0.500000 0.000000 0.220193
#
# Coordination Sequence:
#
# PCOD8227813 Si02
#       6
#     8   8   8   8   8   8
#     4  12  21  44  71  95 132 182 225 273 328 403
#     4  12  25  43  69  99 130 174 230 280 331 399
#     4  12  22  39  71  97 131 178 216 271 341 402
#     4  12  25  43  70  99 133 177 230 279 325 396
#     4  12  24  43  67  95 135 179 216 274 344 403
#     4  12  21  44  70  96 132 176 228 271 331 394
#
# _framework density 21.026986000000001
#
# number of rings (size 3 to 8) (size 9 to 14) (size 15 to 20)
#    0.000    0.000   10.000    1.000    0.000    0.667 
#    0.000    2.500    0.000    3.500    0.000    0.000 
#    0.000    0.000    0.000    0.000    0.000    0.000 
#
# Total GULP energy -595071.877399 kJ/mol
# GULP energy per Si atom -12397.330779 kJ/mol
# Density = 2.097913 g / cm^3
# Si number density = 21.026986 Si / 1000 Ang^3
#
#
#
# Elastic Constant Matrix: (Units=GPa)
#
#
# Indices 1 2 3 4 5 6 
#
# 1 100.7445 32.4344 31.0601 0.0000 0.0000 0.0000
# 2 32.4344 99.9532 11.5541 0.0000 0.0000 0.0000
# 3 31.0601 11.5541 121.6591 0.0000 0.0000 0.0000
# 4 0.0000 0.0000 0.0000 20.1009 0.0000 0.0000
# 5 0.0000 0.0000 0.0000 0.0000 3.8008 0.0000
# 6 0.0000 0.0000 0.0000 0.0000 0.0000 51.8659
#
#
#
# Elastic Compliance Matrix: (Units=1/GPa)
#
#
# Indices 1 2 3 4 5 6 
#
# 1 0.011902 -0.003550 -0.002701 0.000000 0.000000 0.000000
# 2 -0.003550 0.011175 -0.000155 0.000000 0.000000 0.000000
# 3 -0.002701 -0.000155 0.008924 0.000000 0.000000 0.000000
# 4 0.000000 0.000000 0.000000 0.049749 0.000000 0.000000
# 5 0.000000 0.000000 0.000000 0.000000 0.263101 0.000000
# 6 0.000000 0.000000 0.000000 0.000000 0.000000 0.019280
#
#
# Mechanical properties :
#
#
# Convention : Reuss Voigt Hill
#
# Bulk Modulus (GPa) = 52.11608 52.49488 52.30548
# Shear Modulus (GPa) = 13.04328 31.64074 22.34201
#
# Velocity S-wave (km/s) = 2.49331 3.88334 3.26320
# Velocity P-wave (km/s) = 5.75568 6.71765 6.25519
#
# Compressibility (1/GPa) = 0.01918794
#
# Stress axis : x y z
#
# Youngs Moduli (GPa) = 84.02071 89.48945 112.05615
#
# Poissons Ratio (x) = 0.31767 0.30271
# Poissons Ratio (y) = 0.29826 0.01737
# Poissons Ratio (z) = 0.22698 0.01387
#
# Static dielectric constant tensor:
#      x y z
#    x 4.028910 0.000000 0.000000 
#    y 0.000000 4.125210 0.000000 
#    z 0.000000 0.000000 3.477970 
# 
# 
# High freq. dielectric constant tensor:
#      x y z
#    x 1.833540 0.000000 0.000000 
#    y 0.000000 1.852120 0.000000 
#    z 0.000000 0.000000 1.784180 
# 
# From -- ./inp_files/19346.got.cif
#   From: 2010.03.12/outbox.cif.g09.slc.cpg/sg55_10_cif.got.tgz:19346.got - 2010.04.16 15:19:21.
