data_PCOD8227497
_publ_section_title
;
Structure prediction by ZEFSAII (Michael W. Deem and Ramdas Pophale) SiO2 
 PCOD8227497
Probable space group: P B A M
;
_chemical_formula_sum "Si O2"
_cell_formula_units_Z 48
_cell_length_a 18.523028
_cell_length_b 14.580200
_cell_length_c 8.545251
_cell_angle_alpha 90.000000
_cell_angle_beta 90.000000
_cell_angle_gamma 90.000000
_cell_volume 2307.811262
_symmetry_space_group_name_H-M "P B A M"
_symmetry_group_IT_number 55
_symmetry_cell_setting 'orthorhombic'
loop_
_space_group_symop_operation_xyz
x,y,z
-x,-y,z
1/2+x,1/2-y,-z
1/2-x,1/2+y,-z
-x,-y,-z
x,y,-z
1/2-x,1/2+y,z
1/2+x,1/2-y,z
loop_
_atom_site_type_symbol
_atom_site_label
_atom_site_fract_x
_atom_site_fract_y
_atom_site_fract_z
Si Si1 0.975807 0.398189 0.817564
Si Si2 0.067153 0.062033 0.817752
Si Si3 0.762381 0.710190 0.819283
Si Si4 0.085691 0.259228 0.319007
Si Si5 0.310339 0.098955 0.181364
Si Si6 0.703117 0.534268 0.679830
O O1 0.892716 0.385416 0.771117
O O2 0.000000 0.500000 0.771742
O O3 0.018641 0.324733 0.715834
O O4 0.989533 0.378259 0.000000
O O5 0.064105 0.155686 0.721705
O O6 0.140459 0.007119 0.786941
O O7 0.062828 0.086894 0.000000
O O8 0.000000 0.000000 0.764248
O O9 0.846770 0.704744 0.780634
O O10 0.735199 0.811169 0.778548
O O11 0.714528 0.640878 0.717561
O O12 0.750757 0.685448 0.000000
O O13 0.106723 0.264429 0.500000
O O14 0.278345 0.016582 0.283709
O O15 0.304138 0.071433 0.000000
O O16 0.681393 0.522039 0.500000
#
# Coordination Sequence:
#
# PCOD8227497 Si02
#       6
#     8   8   8   8   8   8
#     4  10  22  41  66  95 128 170 217 263 314 384
#     4  11  25  45  68  92 126 175 226 268 315 389
#     4  11  23  41  66  92 126 173 222 263 311 386
#     4  12  25  42  66  99 135 169 210 269 335 385
#     4  10  22  41  66  94 125 170 221 262 311 384
#     4  12  25  41  66  98 134 166 208 272 334 382
#
# _framework density 20.798929999999999
#
# number of rings (size 3 to 8) (size 9 to 14) (size 15 to 20)
#    0.000    1.000    1.667    5.000    2.333    4.333 
#    0.000    0.000    0.000    0.000    0.000    0.000 
#    0.000    0.000    0.000    0.000    0.000    0.000 
#
# Total GULP energy -595634.272770 kJ/mol
# GULP energy per Si atom -12409.047349 kJ/mol
# Density = 2.075159 g / cm^3
# Si number density = 20.798930 Si / 1000 Ang^3
#
#
#
# Elastic Constant Matrix: (Units=GPa)
#
#
# Indices 1 2 3 4 5 6 
#
# 1 102.5551 23.1140 16.9423 0.0000 0.0000 0.0000
# 2 23.1140 73.7158 27.6780 0.0000 0.0000 0.0000
# 3 16.9423 27.6780 62.5796 0.0000 0.0000 0.0000
# 4 0.0000 0.0000 0.0000 27.0139 0.0000 0.0000
# 5 0.0000 0.0000 0.0000 0.0000 7.4609 0.0000
# 6 0.0000 0.0000 0.0000 0.0000 0.0000 39.1343
#
#
#
# Elastic Compliance Matrix: (Units=1/GPa)
#
#
# Indices 1 2 3 4 5 6 
#
# 1 0.010638 -0.002703 -0.001685 0.000000 0.000000 0.000000
# 2 -0.002703 0.016954 -0.006767 0.000000 0.000000 0.000000
# 3 -0.001685 -0.006767 0.019428 0.000000 0.000000 0.000000
# 4 0.000000 0.000000 0.000000 0.037018 0.000000 0.000000
# 5 0.000000 0.000000 0.000000 0.000000 0.134032 0.000000
# 6 0.000000 0.000000 0.000000 0.000000 0.000000 0.025553
#
#
# Mechanical properties :
#
#
# Convention : Reuss Voigt Hill
#
# Bulk Modulus (GPa) = 40.46615 41.59098 41.02857
# Shear Modulus (GPa) = 18.23686 26.12956 22.18321
#
# Velocity S-wave (km/s) = 2.96432 3.54827 3.26936
# Velocity P-wave (km/s) = 5.58698 6.06853 5.83273
#
# Compressibility (1/GPa) = 0.02471201
#
# Stress axis : x y z
#
# Youngs Moduli (GPa) = 93.99902 58.98359 51.47083
#
# Poissons Ratio (x) = 0.15945 0.08671
# Poissons Ratio (y) = 0.25410 0.34828
# Poissons Ratio (z) = 0.15835 0.39912
#
# Static dielectric constant tensor:
#      x y z
#    x 3.845710 0.000000 0.000000 
#    y 0.000000 3.838460 0.000000 
#    z 0.000000 0.000000 3.660800 
# 
# 
# High freq. dielectric constant tensor:
#      x y z
#    x 1.824350 0.000000 0.000000 
#    y 0.000000 1.826800 0.000000 
#    z 0.000000 0.000000 1.810020 
# 
# From -- ./inp_files/7433.got.cif
#   From: 2010.03.12/outbox.cif.g09.slc.cpg/sg55_4_cif.got.tgz:7433.got - 2010.04.16 15:19:21.
