data_PCOD8227783
_publ_section_title
;
Structure prediction by ZEFSAII (Michael W. Deem and Ramdas Pophale) SiO2 
 PCOD8227783
Probable space group: P B A M
;
_chemical_formula_sum "Si O2"
_cell_formula_units_Z 40
_cell_length_a 9.097920
_cell_length_b 9.497786
_cell_length_c 20.524583
_cell_angle_alpha 90.000000
_cell_angle_beta 90.000000
_cell_angle_gamma 90.000000
_cell_volume 1773.531212
_symmetry_space_group_name_H-M "P B A M"
_symmetry_group_IT_number 55
_symmetry_cell_setting 'orthorhombic'
loop_
_space_group_symop_operation_xyz
x,y,z
-x,-y,z
1/2+x,1/2-y,-z
1/2-x,1/2+y,-z
-x,-y,-z
x,y,-z
1/2-x,1/2+y,z
1/2+x,1/2-y,z
loop_
_atom_site_type_symbol
_atom_site_label
_atom_site_fract_x
_atom_site_fract_y
_atom_site_fract_z
Si Si1 0.712303 0.247568 0.153748
Si Si2 0.044529 0.659700 0.240862
Si Si3 0.391432 0.875618 0.574037
Si Si4 0.671780 0.501719 0.071175
Si Si5 0.928794 0.150398 0.366990
O O1 0.791360 0.324373 0.214257
O O2 0.550574 0.219044 0.180897
O O3 0.718543 0.344610 0.090227
O O4 0.779766 0.101050 0.130125
O O5 0.035410 0.753337 0.305009
O O6 0.000000 0.500000 0.258425
O O7 0.341091 0.904910 0.500000
O O8 0.483511 0.729516 0.575123
O O9 0.244890 0.866644 0.618560
O O10 0.500000 0.000000 0.598753
O O11 0.500000 0.500000 0.064734
O O12 0.742075 0.537886 0.000000
O O13 0.000000 0.000000 0.354679
#
# Coordination Sequence:
#
# PCOD8227783 Si02
#       5
#     8   8   8   8   8
#     4  12  24  44  68  99 131 184 227 287 354 418
#     4  12  27  45  68  96 140 179 233 287 347 416
#     4  11  25  48  75 107 148 188 232 289 356 425
#     4  11  24  43  68 101 138 175 227 290 355 427
#     4  12  27  44  71 107 140 190 242 296 352 420
#
# _framework density 22.553874
#
# number of rings (size 3 to 8) (size 9 to 14) (size 15 to 20)
#    0.000    0.400    4.000    4.200    2.800    6.400 
#    0.000    1.000    0.000    0.000    0.000    0.000 
#    0.000    0.000    0.000    0.000    0.000    0.000 
#
# Total GULP energy -495966.744873 kJ/mol
# GULP energy per Si atom -12399.168622 kJ/mol
# Density = 2.250254 g / cm^3
# Si number density = 22.553874 Si / 1000 Ang^3
#
#
#
# Elastic Constant Matrix: (Units=GPa)
#
#
# Indices 1 2 3 4 5 6 
#
# 1 109.7789 48.0983 27.1483 0.0000 0.0000 0.0000
# 2 48.0983 160.1208 47.7137 0.0000 0.0000 0.0000
# 3 27.1483 47.7137 100.7753 0.0000 0.0000 0.0000
# 4 0.0000 0.0000 0.0000 36.9486 0.0000 0.0000
# 5 0.0000 0.0000 0.0000 0.0000 36.8239 0.0000
# 6 0.0000 0.0000 0.0000 0.0000 0.0000 38.6126
#
#
#
# Elastic Compliance Matrix: (Units=1/GPa)
#
#
# Indices 1 2 3 4 5 6 
#
# 1 0.010703 -0.002743 -0.001585 0.000000 0.000000 0.000000
# 2 -0.002743 0.007974 -0.003037 0.000000 0.000000 0.000000
# 3 -0.001585 -0.003037 0.011788 0.000000 0.000000 0.000000
# 4 0.000000 0.000000 0.000000 0.027065 0.000000 0.000000
# 5 0.000000 0.000000 0.000000 0.000000 0.027156 0.000000
# 6 0.000000 0.000000 0.000000 0.000000 0.000000 0.025898
#
#
# Mechanical properties :
#
#
# Convention : Reuss Voigt Hill
#
# Bulk Modulus (GPa) = 63.54638 68.51061 66.02850
# Shear Modulus (GPa) = 38.29738 38.99133 38.64435
#
# Velocity S-wave (km/s) = 4.12520 4.16240 4.14384
# Velocity P-wave (km/s) = 7.13626 7.31732 7.22736
#
# Compressibility (1/GPa) = 0.01573654
#
# Stress axis : x y z
#
# Youngs Moduli (GPa) = 93.43322 125.40704 84.83444
#
# Poissons Ratio (x) = 0.34397 0.13443
# Poissons Ratio (y) = 0.25627 0.25760
# Poissons Ratio (z) = 0.14806 0.38080
#
# Static dielectric constant tensor:
#      x y z
#    x 4.105270 0.000000 0.000000 
#    y 0.000000 4.134980 0.000000 
#    z 0.000000 0.000000 4.373800 
# 
# 
# High freq. dielectric constant tensor:
#      x y z
#    x 1.891710 0.000000 0.000000 
#    y 0.000000 1.901100 0.000000 
#    z 0.000000 0.000000 1.899420 
# 
# From -- ./inp_files/23403.got.cif
#   From: 2010.03.12/outbox.cif.g09.slc.cpg/sg55_12_cif.got.tgz:23403.got - 2010.04.16 15:19:21.
