data_PCOD8227011
_publ_section_title
;
Structure prediction by ZEFSAII (Michael W. Deem and Ramdas Pophale) SiO2 
 PCOD8227011
Probable space group: P B A M
;
_chemical_formula_sum "Si O2"
_cell_formula_units_Z 64
_cell_length_a 12.940765
_cell_length_b 28.187897
_cell_length_c 8.665942
_cell_angle_alpha 90.000000
_cell_angle_beta 90.000000
_cell_angle_gamma 90.000000
_cell_volume 3161.101236
_symmetry_space_group_name_H-M "P B A M"
_symmetry_group_IT_number 55
_symmetry_cell_setting 'orthorhombic'
loop_
_space_group_symop_operation_xyz
x,y,z
-x,-y,z
1/2+x,1/2-y,-z
1/2-x,1/2+y,-z
-x,-y,-z
x,y,-z
1/2-x,1/2+y,z
1/2+x,1/2-y,z
loop_
_atom_site_type_symbol
_atom_site_label
_atom_site_fract_x
_atom_site_fract_y
_atom_site_fract_z
Si Si1 0.390131 0.013237 0.818713
Si Si2 0.752472 0.906363 0.182896
Si Si3 0.606022 0.626340 0.170362
Si Si4 0.460507 0.552146 0.319537
Si Si5 0.830373 0.585517 0.169531
Si Si6 0.721887 0.717267 0.182251
Si Si7 0.844500 0.315258 0.318835
Si Si8 0.421667 0.829774 0.679720
O O1 0.340342 0.060890 0.749842
O O2 0.500000 0.000000 0.743229
O O3 0.317469 0.968723 0.776738
O O4 0.401348 0.021191 0.000000
O O5 0.733233 0.853896 0.246599
O O6 0.857641 0.931426 0.234566
O O7 0.754324 0.903952 0.000000
O O8 0.542363 0.594390 0.289088
O O9 0.717584 0.604815 0.153510
O O10 0.629857 0.680074 0.228974
O O11 0.552380 0.626634 0.000000
O O12 0.500000 0.500000 0.260073
O O13 0.438867 0.549148 0.500000
O O14 0.900396 0.614628 0.289800
O O15 0.885052 0.587785 0.000000
O O16 0.700418 0.764631 0.275104
O O17 0.837140 0.700179 0.225714
O O18 0.719345 0.726381 0.000000
O O19 0.841752 0.322724 0.500000
O O20 0.962790 0.318714 0.259075
O O21 0.409998 0.817900 0.500000
#
# Coordination Sequence:
#
# PCOD8227011 Si02
#       8
#     8   8   8   8   8   8   8   8
#     4   9  17  30  52  82 111 141 181 228 278 330
#     4  11  23  39  61  86 115 154 197 243 293 348
#     4   9  19  36  58  84 112 147 196 247 292 344
#     4  11  24  40  59  86 124 166 203 246 302 363
#     4   9  17  32  55  82 112 144 185 236 278 325
#     4  10  22  40  63  89 115 149 198 251 297 350
#     4  11  24  41  60  85 120 156 191 237 294 354
#     4  10  21  37  58  85 118 154 188 230 289 350
#
# _framework density 20.246109000000001
#
# number of rings (size 3 to 8) (size 9 to 14) (size 15 to 20)
#    0.000    2.000    0.000    4.125    0.000    8.500 
#    0.000    3.750    0.000    3.375    0.000    0.000 
#    0.000    0.000    0.000    0.000    0.000    0.000 
#
# Total GULP energy -793183.275929 kJ/mol
# GULP energy per Si atom -12393.488686 kJ/mol
# Density = 2.020003 g / cm^3
# Si number density = 20.246109 Si / 1000 Ang^3
#
#
#
# Elastic Constant Matrix: (Units=GPa)
#
#
# Indices 1 2 3 4 5 6 
#
# 1 85.1437 52.7174 29.6136 0.0000 0.0000 0.0000
# 2 52.7174 143.8620 26.7619 0.0000 0.0000 0.0000
# 3 29.6136 26.7619 58.4888 0.0000 0.0000 0.0000
# 4 0.0000 0.0000 0.0000 32.9450 0.0000 0.0000
# 5 0.0000 0.0000 0.0000 0.0000 57.9404 0.0000
# 6 0.0000 0.0000 0.0000 0.0000 0.0000 29.0243
#
#
#
# Elastic Compliance Matrix: (Units=1/GPa)
#
#
# Indices 1 2 3 4 5 6 
#
# 1 0.017096 -0.005087 -0.006328 0.000000 0.000000 0.000000
# 2 -0.005087 0.009112 -0.001593 0.000000 0.000000 0.000000
# 3 -0.006328 -0.001593 0.021030 0.000000 0.000000 0.000000
# 4 0.000000 0.000000 0.000000 0.030354 0.000000 0.000000
# 5 0.000000 0.000000 0.000000 0.000000 0.017259 0.000000
# 6 0.000000 0.000000 0.000000 0.000000 0.000000 0.034454
#
#
# Mechanical properties :
#
#
# Convention : Reuss Voigt Hill
#
# Bulk Modulus (GPa) = 47.12479 56.18670 51.65574
# Shear Modulus (GPa) = 30.78909 35.87538 33.33224
#
# Velocity S-wave (km/s) = 3.90390 4.21404 4.06193
# Velocity P-wave (km/s) = 6.60659 7.17562 6.89698
#
# Compressibility (1/GPa) = 0.02122025
#
# Stress axis : x y z
#
# Youngs Moduli (GPa) = 58.49429 109.74825 47.55059
#
# Poissons Ratio (x) = 0.55834 0.30090
# Poissons Ratio (y) = 0.29759 0.07576
# Poissons Ratio (z) = 0.37015 0.17486
#
# Static dielectric constant tensor:
#      x y z
#    x 3.820740 0.000000 0.000000 
#    y 0.000000 4.210950 0.000000 
#    z 0.000000 0.000000 3.595970 
# 
# 
# High freq. dielectric constant tensor:
#      x y z
#    x 1.789970 0.000000 0.000000 
#    y 0.000000 1.804080 0.000000 
#    z 0.000000 0.000000 1.774760 
# 
# From -- ./inp_files/4623.got.cif
#   From: 2010.03.12/outbox.cif.g09.slc.cpg/sg55_3_cif.got.tgz:4623.got - 2010.04.16 15:19:21.
