data_PCOD8227949
_publ_section_title
;
Structure prediction by ZEFSAII (Michael W. Deem and Ramdas Pophale) SiO2 
 PCOD8227949
Probable space group: P C C N
;
_chemical_formula_sum "Si O2"
_cell_formula_units_Z 64
_cell_length_a 8.857179
_cell_length_b 15.353554
_cell_length_c 24.107592
_cell_angle_alpha 90.000000
_cell_angle_beta 90.000000
_cell_angle_gamma 90.000000
_cell_volume 3278.371573
_symmetry_space_group_name_H-M "P C C N"
_symmetry_group_IT_number 56
_symmetry_cell_setting 'orthorhombic'
loop_
_space_group_symop_operation_xyz
x,y,z
1/2-x,1/2-y,z
1/2+x,-y,1/2-z
-x,1/2+y,1/2-z
-x,-y,-z
1/2+x,1/2+y,-z
1/2-x,y,1/2+z
x,1/2-y,1/2+z
loop_
_atom_site_type_symbol
_atom_site_label
_atom_site_fract_x
_atom_site_fract_y
_atom_site_fract_z
Si Si1 0.430163 0.250000 0.196313
Si Si2 0.076297 0.147870 0.997537
Si Si3 0.428761 0.250000 0.821166
Si Si4 0.426808 0.099850 0.617854
Si Si5 0.073192 0.400150 0.117854
Si Si6 0.425900 0.595941 0.611692
Si Si7 0.925900 0.404059 0.388308
Si Si8 0.423703 0.147870 0.997537
O O1 0.250000 0.250000 0.198065
O O2 0.493893 0.250000 0.258720
O O3 0.493553 0.335725 0.164697
O O4 0.493553 0.164275 0.164697
O O5 0.006259 0.123218 0.057369
O O6 0.250000 0.117520 0.992180
O O7 0.061863 0.250000 0.986762
O O8 0.977079 0.098220 0.952072
O O9 0.250000 0.250000 0.822408
O O10 0.483146 0.163458 0.851410
O O11 0.483146 0.336542 0.851410
O O12 0.250000 0.117872 0.613329
O O13 0.461659 0.000589 0.634875
O O14 0.038341 0.499411 0.134875
O O15 0.006259 0.376782 0.057369
O O16 0.250000 0.618396 0.615207
O O17 0.477078 0.598220 0.547928
#
# Coordination Sequence:
#
# PCOD8227949 Si02
#       8
#     8   8   8   8   8   8   8   8
#     4   9  18  36  59  80 104 139 188 231 266 319
#     4  10  18  32  58  85 111 142 178 217 264 326
#     4  11  23  38  57  78 104 145 192 231 266 315
#     4   9  18  34  57  85 111 141 179 223 273 322
#     4   9  18  34  57  85 111 141 179 223 273 322
#     4  11  22  35  55  83 116 145 175 221 275 326
#     4  11  22  35  55  83 116 145 175 221 275 326
#     4  10  18  32  58  85 111 142 178 217 264 326
#
# _framework density 19.521888000000001
#
# number of rings (size 3 to 8) (size 9 to 14) (size 15 to 20)
#    0.000    2.000    2.500    1.875    0.000    1.000 
#    0.000    1.250    0.000    7.500    0.000    0.000 
#    0.000    0.000    0.000    0.000    0.000    0.000 
#
# Total GULP energy -793652.592796 kJ/mol
# GULP energy per Si atom -12400.821762 kJ/mol
# Density = 1.947745 g / cm^3
# Si number density = 19.521888 Si / 1000 Ang^3
#
#
#
# Elastic Constant Matrix: (Units=GPa)
#
#
# Indices 1 2 3 4 5 6 
#
# 1 49.3744 30.7640 27.3100 0.0000 0.0000 0.0000
# 2 30.7640 116.2265 61.6823 0.0000 0.0000 0.0000
# 3 27.3100 61.6823 154.8314 0.0000 0.0000 0.0000
# 4 0.0000 0.0000 0.0000 11.8647 0.0000 0.0000
# 5 0.0000 0.0000 0.0000 0.0000 11.7790 0.0000
# 6 0.0000 0.0000 0.0000 0.0000 0.0000 13.9018
#
#
#
# Elastic Compliance Matrix: (Units=1/GPa)
#
#
# Indices 1 2 3 4 5 6 
#
# 1 0.024849 -0.005391 -0.002235 0.000000 0.000000 0.000000
# 2 -0.005391 0.012080 -0.003862 0.000000 0.000000 0.000000
# 3 -0.002235 -0.003862 0.008391 0.000000 0.000000 0.000000
# 4 0.000000 0.000000 0.000000 0.084284 0.000000 0.000000
# 5 0.000000 0.000000 0.000000 0.000000 0.084897 0.000000
# 6 0.000000 0.000000 0.000000 0.000000 0.000000 0.071933
#
#
# Mechanical properties :
#
#
# Convention : Reuss Voigt Hill
#
# Bulk Modulus (GPa) = 44.75374 62.21610 53.48492
# Shear Modulus (GPa) = 15.77992 20.88749 18.33371
#
# Velocity S-wave (km/s) = 2.84618 3.27456 3.06786
# Velocity P-wave (km/s) = 5.81168 6.79971 6.32502
#
# Compressibility (1/GPa) = 0.02234450
#
# Stress axis : x y z
#
# Youngs Moduli (GPa) = 40.24348 82.77981 119.17041
#
# Poissons Ratio (x) = 0.44626 0.26638
# Poissons Ratio (y) = 0.21695 0.46020
# Poissons Ratio (z) = 0.08996 0.31967
#
# Static dielectric constant tensor:
#      x y z
#    x 3.188420 0.000000 0.000000 
#    y 0.000000 3.665650 0.000000 
#    z 0.000000 0.000000 3.773710 
# 
# 
# High freq. dielectric constant tensor:
#      x y z
#    x 1.721220 0.000000 0.000000 
#    y 0.000000 1.775090 0.000000 
#    z 0.000000 0.000000 1.763070 
# 
# From -- ./inp_files/20652.got.cif
#   From: 2010.03.12/outbox.cif.g09.slc.cpg/sg56_11_cif.got.tgz:20652.got - 2010.04.16 15:33:40.
