data_PCOD8227607
_publ_section_title
;
Structure prediction by ZEFSAII (Michael W. Deem and Ramdas Pophale) SiO2 
 PCOD8227607
Probable space group: P B A M
;
_chemical_formula_sum "Si O2"
_cell_formula_units_Z 56
_cell_length_a 12.719343
_cell_length_b 14.430778
_cell_length_c 13.937848
_cell_angle_alpha 90.000000
_cell_angle_beta 90.000000
_cell_angle_gamma 90.000000
_cell_volume 2558.292211
_symmetry_space_group_name_H-M "P B A M"
_symmetry_group_IT_number 55
_symmetry_cell_setting 'orthorhombic'
loop_
_space_group_symop_operation_xyz
x,y,z
-x,-y,z
1/2+x,1/2-y,-z
1/2-x,1/2+y,-z
-x,-y,-z
x,y,-z
1/2-x,1/2+y,z
1/2+x,1/2-y,z
loop_
_atom_site_type_symbol
_atom_site_label
_atom_site_fract_x
_atom_site_fract_y
_atom_site_fract_z
Si Si1 0.093166 0.072090 0.895370
Si Si2 0.598499 0.062053 0.272284
Si Si3 0.562139 0.719889 0.110023
Si Si4 0.246932 0.925870 0.890246
Si Si5 0.951483 0.285761 0.692462
Si Si6 0.779285 0.412985 0.387748
Si Si7 0.540300 0.399920 0.613340
O O1 0.042199 0.164184 0.849842
O O2 0.192129 0.020223 0.845877
O O3 0.133647 0.101620 0.000000
O O4 0.000000 0.000000 0.908095
O O5 0.653789 0.097457 0.175180
O O6 0.554226 0.151437 0.330219
O O7 0.500000 0.000000 0.241512
O O8 0.679026 0.006988 0.339303
O O9 0.665725 0.658046 0.112776
O O10 0.573950 0.797291 0.192498
O O11 0.546117 0.757066 0.000000
O O12 0.283513 0.941434 0.000000
O O13 0.850753 0.324261 0.636104
O O14 0.969647 0.179989 0.661154
O O15 0.780879 0.432924 0.500000
O O16 0.661013 0.390244 0.353684
O O17 0.500000 0.500000 0.650804
O O18 0.526470 0.391473 0.500000
#
# Coordination Sequence:
#
# PCOD8227607 Si02
#       7
#     8   8   8   8   8   8   8
#     4   7  12  26  49  80 113 154 203 249 303 363
#     4  10  24  41  59  90 124 170 221 261 324 388
#     4   9  19  34  56  91 130 166 210 263 317 379
#     4   9  18  34  59  87 123 169 213 258 316 382
#     4  11  24  39  67  97 128 173 214 265 326 395
#     4  10  24  46  68  93 130 171 215 266 328 391
#     4  10  24  43  67 103 132 161 211 273 330 381
#
# _framework density 21.889603000000001
#
# number of rings (size 3 to 8) (size 9 to 14) (size 15 to 20)
#    0.000    2.571    0.000    2.143    6.000    4.571 
#    0.000    5.000    0.000    0.000    0.000    0.000 
#    0.000    0.000    0.000    0.000    0.000    0.000 
#
# Total GULP energy -693816.756229 kJ/mol
# GULP energy per Si atom -12389.584933 kJ/mol
# Density = 2.183978 g / cm^3
# Si number density = 21.889603 Si / 1000 Ang^3
#
#
#
# Elastic Constant Matrix: (Units=GPa)
#
#
# Indices 1 2 3 4 5 6 
#
# 1 106.7888 33.5873 31.3618 0.0000 0.0000 0.0000
# 2 33.5873 91.9408 27.1087 0.0000 0.0000 0.0000
# 3 31.3618 27.1087 70.1784 0.0000 0.0000 0.0000
# 4 0.0000 0.0000 0.0000 26.9660 0.0000 0.0000
# 5 0.0000 0.0000 0.0000 0.0000 33.8237 0.0000
# 6 0.0000 0.0000 0.0000 0.0000 0.0000 18.6188
#
#
#
# Elastic Compliance Matrix: (Units=1/GPa)
#
#
# Indices 1 2 3 4 5 6 
#
# 1 0.011479 -0.003026 -0.003961 0.000000 0.000000 0.000000
# 2 -0.003026 0.013072 -0.003697 0.000000 0.000000 0.000000
# 3 -0.003961 -0.003697 0.017448 0.000000 0.000000 0.000000
# 4 0.000000 0.000000 0.000000 0.037084 0.000000 0.000000
# 5 0.000000 0.000000 0.000000 0.000000 0.029565 0.000000
# 6 0.000000 0.000000 0.000000 0.000000 0.000000 0.053709
#
#
# Mechanical properties :
#
#
# Convention : Reuss Voigt Hill
#
# Bulk Modulus (GPa) = 48.47135 50.33598 49.40366
# Shear Modulus (GPa) = 26.23266 27.67173 26.95219
#
# Velocity S-wave (km/s) = 3.46556 3.55935 3.51276
# Velocity P-wave (km/s) = 6.18102 6.31959 6.25069
#
# Compressibility (1/GPa) = 0.02063074
#
# Stress axis : x y z
#
# Youngs Moduli (GPa) = 87.11402 76.49924 57.31371
#
# Poissons Ratio (x) = 0.23145 0.22703
# Poissons Ratio (y) = 0.26357 0.21191
# Poissons Ratio (z) = 0.34507 0.28285
#
# Static dielectric constant tensor:
#      x y z
#    x 3.948110 0.000000 0.000000 
#    y 0.000000 3.887640 0.000000 
#    z 0.000000 0.000000 3.887230 
# 
# 
# High freq. dielectric constant tensor:
#      x y z
#    x 1.856100 0.000000 0.000000 
#    y 0.000000 1.843640 0.000000 
#    z 0.000000 0.000000 1.862170 
# 
# From -- ./inp_files/18397.got.cif
#   From: 2010.03.12/outbox.cif.g09.slc.cpg/sg55_10_cif.got.tgz:18397.got - 2010.04.16 15:19:21.
