data_PCOD8227105
_publ_section_title
;
Structure prediction by ZEFSAII (Michael W. Deem and Ramdas Pophale) SiO2 
 PCOD8227105
Probable space group: P B A M
;
_chemical_formula_sum "Si O2"
_cell_formula_units_Z 64
_cell_length_a 9.369252
_cell_length_b 26.096029
_cell_length_c 13.921983
_cell_angle_alpha 90.000000
_cell_angle_beta 90.000000
_cell_angle_gamma 90.000000
_cell_volume 3403.928629
_symmetry_space_group_name_H-M "P B A M"
_symmetry_group_IT_number 55
_symmetry_cell_setting 'orthorhombic'
loop_
_space_group_symop_operation_xyz
x,y,z
-x,-y,z
1/2+x,1/2-y,-z
1/2-x,1/2+y,-z
-x,-y,-z
x,y,-z
1/2-x,1/2+y,z
1/2+x,1/2-y,z
loop_
_atom_site_type_symbol
_atom_site_label
_atom_site_fract_x
_atom_site_fract_y
_atom_site_fract_z
Si Si1 0.443494 0.121118 0.888829
Si Si2 0.727294 0.796067 0.774454
Si Si3 0.268842 0.387021 0.110813
Si Si4 0.137298 0.971607 0.250577
Si Si5 0.112892 0.543419 0.729426
Si Si6 0.440650 0.308281 0.227661
Si Si7 0.033428 0.886149 0.609298
Si Si8 0.294491 0.130478 0.392850
O O1 0.346124 0.168049 0.853868
O O2 0.609809 0.134973 0.871375
O O3 0.403942 0.068455 0.834619
O O4 0.411185 0.111241 0.000000
O O5 0.896337 0.793148 0.795078
O O6 0.661597 0.740149 0.778018
O O7 0.696784 0.817701 0.668423
O O8 0.284289 0.440287 0.167086
O O9 0.388183 0.347291 0.145939
O O10 0.296567 0.398603 0.000000
O O11 0.102470 0.936051 0.342193
O O12 0.234570 0.018047 0.284645
O O13 0.000000 0.000000 0.207228
O O14 0.097170 0.588536 0.650765
O O15 0.000000 0.500000 0.707762
O O16 0.423800 0.335022 0.331779
O O17 0.090207 0.880784 0.500000
O O18 0.863685 0.892768 0.610600
O O19 0.343830 0.144230 0.500000
#
# Coordination Sequence:
#
# PCOD8227105 Si02
#       8
#     8   8   8   8   8   8   8   8
#     4  10  22  39  59  82 111 148 188 230 279 331
#     4  10  21  38  61  84 112 147 181 228 281 334
#     4  10  22  39  58  83 113 145 187 234 276 329
#     4  11  21  36  57  84 114 152 191 226 274 329
#     4  11  21  36  57  82 116 150 187 232 274 324
#     4  10  21  38  61  85 112 145 182 228 282 332
#     4   9  19  36  58  83 111 147 190 228 269 329
#     4   9  19  36  57  83 113 146 187 230 273 325
#
# _framework density 18.801804000000001
#
# number of rings (size 3 to 8) (size 9 to 14) (size 15 to 20)
#    0.000    2.000    2.500    0.750    1.750    3.500 
#    0.000    0.000    0.000    0.000    0.000    0.000 
#    0.000    0.000    0.000    0.000    0.000    0.000 
#
# Total GULP energy -793635.587220 kJ/mol
# GULP energy per Si atom -12400.556050 kJ/mol
# Density = 1.875901 g / cm^3
# Si number density = 18.801804 Si / 1000 Ang^3
#
#
#
# Elastic Constant Matrix: (Units=GPa)
#
#
# Indices 1 2 3 4 5 6 
#
# 1 77.8339 20.3432 16.9463 0.0000 0.0000 0.0000
# 2 20.3432 59.3683 -0.9001 0.0000 0.0000 0.0000
# 3 16.9463 -0.9001 79.1064 0.0000 0.0000 0.0000
# 4 0.0000 0.0000 0.0000 13.0813 0.0000 0.0000
# 5 0.0000 0.0000 0.0000 0.0000 25.1274 0.0000
# 6 0.0000 0.0000 0.0000 0.0000 0.0000 41.0561
#
#
#
# Elastic Compliance Matrix: (Units=1/GPa)
#
#
# Indices 1 2 3 4 5 6 
#
# 1 0.014903 -0.005156 -0.003251 0.000000 0.000000 0.000000
# 2 -0.005156 0.018631 0.001317 0.000000 0.000000 0.000000
# 3 -0.003251 0.001317 0.013353 0.000000 0.000000 0.000000
# 4 0.000000 0.000000 0.000000 0.076445 0.000000 0.000000
# 5 0.000000 0.000000 0.000000 0.000000 0.039797 0.000000
# 6 0.000000 0.000000 0.000000 0.000000 0.000000 0.024357
#
#
# Mechanical properties :
#
#
# Convention : Reuss Voigt Hill
#
# Bulk Modulus (GPa) = 30.57627 32.12082 31.34855
# Shear Modulus (GPa) = 23.52173 27.84756 25.68465
#
# Velocity S-wave (km/s) = 3.54084 3.85270 3.70005
# Velocity P-wave (km/s) = 5.74582 6.07553 5.91297
#
# Compressibility (1/GPa) = 0.03270510
#
# Stress axis : x y z
#
# Youngs Moduli (GPa) = 67.09891 53.67471 74.89137
#
# Poissons Ratio (x) = 0.27675 0.24349
# Poissons Ratio (y) = 0.34597 -0.09860
# Poissons Ratio (z) = 0.21816 -0.07066
#
# Static dielectric constant tensor:
#      x y z
#    x 3.426540 0.000000 0.000000 
#    y 0.000000 3.354650 0.000000 
#    z 0.000000 0.000000 3.468180 
# 
# 
# High freq. dielectric constant tensor:
#      x y z
#    x 1.733250 0.000000 0.000000 
#    y 0.000000 1.733910 0.000000 
#    z 0.000000 0.000000 1.725400 
# 
# From -- ./inp_files/17830.got.cif
#   From: 2010.03.12/outbox.cif.g09.slc.cpg/sg55_9_cif.got.tgz:17830.got - 2010.04.16 15:19:21.
