data_PCOD8227217
_publ_section_title
;
Structure prediction by ZEFSAII (Michael W. Deem and Ramdas Pophale) SiO2 
 PCOD8227217
Probable space group: P B A M
;
_chemical_formula_sum "Si O2"
_cell_formula_units_Z 64
_cell_length_a 15.370092
_cell_length_b 22.842759
_cell_length_c 8.489112
_cell_angle_alpha 90.000000
_cell_angle_beta 90.000000
_cell_angle_gamma 90.000000
_cell_volume 2980.487387
_symmetry_space_group_name_H-M "P B A M"
_symmetry_group_IT_number 55
_symmetry_cell_setting 'orthorhombic'
loop_
_space_group_symop_operation_xyz
x,y,z
-x,-y,z
1/2+x,1/2-y,-z
1/2-x,1/2+y,-z
-x,-y,-z
x,y,-z
1/2-x,1/2+y,z
1/2+x,1/2-y,z
loop_
_atom_site_type_symbol
_atom_site_label
_atom_site_fract_x
_atom_site_fract_y
_atom_site_fract_z
Si Si1 0.989761 0.161118 0.319070
Si Si2 0.311875 0.185455 0.181969
Si Si3 0.929101 0.952383 0.183751
Si Si4 0.653844 0.126850 0.320112
Si Si5 0.600791 0.009476 0.818131
Si Si6 0.744565 0.930073 0.683075
Si Si7 0.811706 0.183328 0.820077
Si Si8 0.494356 0.206757 0.683772
O O1 0.011475 0.146783 0.500000
O O2 0.037722 0.113388 0.212635
O O3 0.019776 0.226564 0.270514
O O4 0.886660 0.158371 0.291881
O O5 0.254371 0.139705 0.282621
O O6 0.282374 0.251098 0.228842
O O7 0.414348 0.181367 0.217332
O O8 0.294818 0.171530 0.000000
O O9 0.835362 0.960677 0.266691
O O10 0.914581 0.962739 0.000000
O O11 0.000000 0.000000 0.248059
O O12 0.680564 0.139556 0.500000
O O13 0.631884 0.059490 0.299556
O O14 0.731307 0.140702 0.201657
O O15 0.573691 0.166402 0.267739
O O16 0.500000 0.000000 0.778891
O O17 0.661340 0.953817 0.779945
O O18 0.612610 0.027195 0.000000
O O19 0.730418 0.941938 0.500000
O O20 0.844743 0.182387 0.000000
O O21 0.470020 0.202957 0.500000
#
# Coordination Sequence:
#
# PCOD8227217 Si02
#       8
#     8   8   8   8   8   8   8   8
#     4  10  21  40  65  93 126 164 209 261 317 378
#     4  10  21  39  63  93 127 165 209 257 315 377
#     4  11  26  46  67  91 125 169 216 271 325 384
#     4  11  23  38  61  92 127 164 207 258 312 376
#     4  11  25  45  68  95 129 170 215 264 318 383
#     4  12  26  43  68  97 130 171 216 269 323 383
#     4  10  22  39  61  91 126 167 208 256 313 376
#     4   9  20  38  61  93 129 166 204 255 317 377
#
# _framework density 21.472999000000002
#
# number of rings (size 3 to 8) (size 9 to 14) (size 15 to 20)
#    0.000    1.500    0.000    4.125    3.500    7.000 
#    0.000    0.000    0.000    0.000    0.000    0.000 
#    0.000    0.000    0.000    0.000    0.000    0.000 
#
# Total GULP energy -793848.935434 kJ/mol
# GULP energy per Si atom -12403.889616 kJ/mol
# Density = 2.142413 g / cm^3
# Si number density = 21.472999 Si / 1000 Ang^3
#
#
#
# Elastic Constant Matrix: (Units=GPa)
#
#
# Indices 1 2 3 4 5 6 
#
# 1 87.2280 38.5190 23.9029 0.0000 0.0000 0.0000
# 2 38.5190 84.2268 14.4245 0.0000 0.0000 0.0000
# 3 23.9029 14.4245 57.7620 0.0000 0.0000 0.0000
# 4 0.0000 0.0000 0.0000 28.7079 0.0000 0.0000
# 5 0.0000 0.0000 0.0000 0.0000 34.3980 0.0000
# 6 0.0000 0.0000 0.0000 0.0000 0.0000 31.7142
#
#
#
# Elastic Compliance Matrix: (Units=1/GPa)
#
#
# Indices 1 2 3 4 5 6 
#
# 1 0.015577 -0.006289 -0.004876 0.000000 0.000000 0.000000
# 2 -0.006289 0.014942 -0.001129 0.000000 0.000000 0.000000
# 3 -0.004876 -0.001129 0.019612 0.000000 0.000000 0.000000
# 4 0.000000 0.000000 0.000000 0.034834 0.000000 0.000000
# 5 0.000000 0.000000 0.000000 0.000000 0.029071 0.000000
# 6 0.000000 0.000000 0.000000 0.000000 0.000000 0.031532
#
#
# Mechanical properties :
#
#
# Convention : Reuss Voigt Hill
#
# Bulk Modulus (GPa) = 39.14754 42.54553 40.84653
# Shear Modulus (GPa) = 27.98453 29.12205 28.55329
#
# Velocity S-wave (km/s) = 3.61396 3.68668 3.65050
# Velocity P-wave (km/s) = 5.97369 6.16268 6.06892
#
# Compressibility (1/GPa) = 0.02554439
#
# Stress axis : x y z
#
# Youngs Moduli (GPa) = 64.19545 66.92493 50.98920
#
# Poissons Ratio (x) = 0.42089 0.24861
# Poissons Ratio (y) = 0.40372 0.05756
# Poissons Ratio (z) = 0.31300 0.07555
#
# Static dielectric constant tensor:
#      x y z
#    x 3.816740 0.000000 0.000000 
#    y 0.000000 3.938560 0.000000 
#    z 0.000000 0.000000 3.704600 
# 
# 
# High freq. dielectric constant tensor:
#      x y z
#    x 1.842570 0.000000 0.000000 
#    y 0.000000 1.848510 0.000000 
#    z 0.000000 0.000000 1.843350 
# 
# From -- ./inp_files/6696.got.cif
#   From: 2010.03.12/outbox.cif.g09.slc.cpg/sg55_4_cif.got.tgz:6696.got - 2010.04.16 15:19:21.
