data_PCOD8227772
_publ_section_title
;
Structure prediction by ZEFSAII (Michael W. Deem and Ramdas Pophale) SiO2 
 PCOD8227772
Probable space group: P B A M
;
_chemical_formula_sum "Si O2"
_cell_formula_units_Z 48
_cell_length_a 11.755958
_cell_length_b 23.151056
_cell_length_c 9.358392
_cell_angle_alpha 90.000000
_cell_angle_beta 90.000000
_cell_angle_gamma 90.000000
_cell_volume 2547.006563
_symmetry_space_group_name_H-M "P B A M"
_symmetry_group_IT_number 55
_symmetry_cell_setting 'orthorhombic'
loop_
_space_group_symop_operation_xyz
x,y,z
-x,-y,z
1/2+x,1/2-y,-z
1/2-x,1/2+y,-z
-x,-y,-z
x,y,-z
1/2-x,1/2+y,z
1/2+x,1/2-y,z
loop_
_atom_site_type_symbol
_atom_site_label
_atom_site_fract_x
_atom_site_fract_y
_atom_site_fract_z
Si Si1 0.592378 0.164060 0.164645
Si Si2 0.208132 0.922648 0.835313
Si Si3 0.998548 0.121949 0.664863
Si Si4 0.296481 0.538887 0.663697
Si Si5 0.660123 0.274046 0.335327
Si Si6 0.633398 0.856246 0.336526
O O1 0.671568 0.108483 0.184223
O O2 0.652423 0.218318 0.237616
O O3 0.472063 0.149372 0.232768
O O4 0.573268 0.179403 0.000000
O O5 0.111919 0.883913 0.761643
O O6 0.218902 0.985237 0.766589
O O7 0.175069 0.929958 0.000000
O O8 0.961109 0.122393 0.500000
O O9 0.082356 0.068403 0.693983
O O10 0.059712 0.181706 0.705276
O O11 0.291161 0.517762 0.500000
O O12 0.195839 0.583655 0.695910
O O13 0.648387 0.255559 0.500000
O O14 0.781633 0.303322 0.307421
O O15 0.591179 0.854498 0.500000
#
# Coordination Sequence:
#
# PCOD8227772 Si02
#       6
#     8   8   8   8   8   8
#     4  11  25  39  53  81 120 156 188 229 280 340
#     4  11  24  37  52  83 122 155 189 227 276 340
#     4   9  19  37  61  87 112 143 186 239 290 331
#     4   9  19  38  62  86 112 144 188 241 288 331
#     4   9  20  39  62  85 109 142 189 241 287 334
#     4   9  20  40  63  85 109 143 192 241 286 336
#
# _framework density 18.845652999999999
#
# number of rings (size 3 to 8) (size 9 to 14) (size 15 to 20)
#    0.000    2.333    0.000    3.500    2.333    8.000 
#    0.000    6.667    0.000    0.000    0.000    0.000 
#    0.000    0.000    0.000    0.000    0.000    0.000 
#
# Total GULP energy -595353.697714 kJ/mol
# GULP energy per Si atom -12403.202036 kJ/mol
# Density = 1.880276 g / cm^3
# Si number density = 18.845653 Si / 1000 Ang^3
#
#
#
# Elastic Constant Matrix: (Units=GPa)
#
#
# Indices 1 2 3 4 5 6 
#
# 1 90.2372 11.4114 50.9645 0.0000 0.0000 0.0000
# 2 11.4114 51.5700 34.3949 0.0000 0.0000 0.0000
# 3 50.9645 34.3949 101.4842 0.0000 0.0000 0.0000
# 4 0.0000 0.0000 0.0000 268.2764 0.0000 0.0000
# 5 0.0000 0.0000 0.0000 0.0000 159.3069 0.0000
# 6 0.0000 0.0000 0.0000 0.0000 0.0000 18.0278
#
#
#
# Elastic Compliance Matrix: (Units=1/GPa)
#
#
# Indices 1 2 3 4 5 6 
#
# 1 0.015678 0.002302 -0.008654 0.000000 0.000000 0.000000
# 2 0.002302 0.025393 -0.009762 0.000000 0.000000 0.000000
# 3 -0.008654 -0.009762 0.017508 0.000000 0.000000 0.000000
# 4 0.000000 0.000000 0.000000 0.003727 0.000000 0.000000
# 5 0.000000 0.000000 0.000000 0.000000 0.006277 0.000000
# 6 0.000000 0.000000 0.000000 0.000000 0.000000 0.055470
#
#
# Mechanical properties :
#
#
# Convention : Reuss Voigt Hill
#
# Bulk Modulus (GPa) = 37.94808 48.53700 43.24254
# Shear Modulus (GPa) = 30.29105 98.89027 64.59066
#
# Velocity S-wave (km/s) = 4.01349 7.25174 5.86071
# Velocity P-wave (km/s) = 6.45426 9.79428 8.29413
#
# Compressibility (1/GPa) = 0.02635179
#
# Stress axis : x y z
#
# Youngs Moduli (GPa) = 63.78249 39.38140 57.11584
#
# Poissons Ratio (x) = -0.09067 0.49427
# Poissons Ratio (y) = -0.14686 0.55758
# Poissons Ratio (z) = 0.55196 0.38445
#
# Static dielectric constant tensor:
#      x y z
#    x 3.415150 0.000000 0.000000 
#    y 0.000000 3.424550 0.000000 
#    z 0.000000 0.000000 3.418850 
# 
# 
# High freq. dielectric constant tensor:
#      x y z
#    x 1.736830 0.000000 0.000000 
#    y 0.000000 1.738960 0.000000 
#    z 0.000000 0.000000 1.729990 
# 
# From -- ./inp_files/4054.got.cif
#   From: 2010.03.12/outbox.cif.g09.slc.cpg/sg55_3_cif.got.tgz:4054.got - 2010.04.16 15:19:21.
