data_PCOD8227527
_publ_section_title
;
Structure prediction by ZEFSAII (Michael W. Deem and Ramdas Pophale) SiO2 
 PCOD8227527
Probable space group: P B A M
;
_chemical_formula_sum "Si O2"
_cell_formula_units_Z 28
_cell_length_a 12.624790
_cell_length_b 9.791626
_cell_length_c 9.793258
_cell_angle_alpha 90.000000
_cell_angle_beta 90.000000
_cell_angle_gamma 90.000000
_cell_volume 1210.615348
_symmetry_space_group_name_H-M "P B A M"
_symmetry_group_IT_number 55
_symmetry_cell_setting 'orthorhombic'
loop_
_space_group_symop_operation_xyz
x,y,z
-x,-y,z
1/2+x,1/2-y,-z
1/2-x,1/2+y,-z
-x,-y,-z
x,y,-z
1/2-x,1/2+y,z
1/2+x,1/2-y,z
loop_
_atom_site_type_symbol
_atom_site_label
_atom_site_fract_x
_atom_site_fract_y
_atom_site_fract_z
Si Si1 0.871173 0.675128 0.500000
Si Si2 0.788709 0.627259 0.000000
Si Si3 0.829129 0.985310 0.500000
Si Si4 0.543446 0.207213 0.790160
Si Si5 0.500000 0.500000 0.279129
Si Si6 0.624872 0.846936 0.000000
O O1 0.812176 0.821467 0.500000
O O2 0.785243 0.555388 0.500000
O O3 0.948261 0.663897 0.368409
O O4 0.846137 0.676187 0.862870
O O5 0.673026 0.694678 0.000000
O O6 0.782944 0.461771 0.000000
O O7 0.895710 0.031915 0.631230
O O8 0.521325 0.367845 0.812116
O O9 0.447448 0.128236 0.865351
#
# Coordination Sequence:
#
# PCOD8227527 Si02
#       6
#     4   4   4   8   4   4
#     4  10  22  42  71 104 131 184 220 280 337 405
#     4  11  27  46  67  97 133 182 227 274 348 404
#     4   9  20  40  62 102 141 168 227 268 343 391
#     4  10  23  44  69 100 140 169 233 276 343 392
#     4   9  20  39  68  98 136 178 212 288 330 402
#     4  11  27  48  69  95 143 175 226 291 331 411
#
# _framework density 23.128733
#
# number of rings (size 3 to 8) (size 9 to 14) (size 15 to 20)
#    0.000    2.000    0.000    2.571    8.000    3.429 
#    5.143    2.857    0.000    0.000    0.000    0.000 
#    0.000    0.000    0.000    0.000    0.000    0.000 
#
# Total GULP energy -347226.860902 kJ/mol
# GULP energy per Si atom -12400.959318 kJ/mol
# Density = 2.307609 g / cm^3
# Si number density = 23.128733 Si / 1000 Ang^3
#
#
#
# Elastic Constant Matrix: (Units=GPa)
#
#
# Indices 1 2 3 4 5 6 
#
# 1 106.7746 40.7740 44.8813 0.0000 0.0000 0.0000
# 2 40.7740 106.0859 31.4530 0.0000 0.0000 0.0000
# 3 44.8813 31.4530 145.6666 0.0000 0.0000 0.0000
# 4 0.0000 0.0000 0.0000 21.0025 0.0000 0.0000
# 5 0.0000 0.0000 0.0000 0.0000 33.2570 0.0000
# 6 0.0000 0.0000 0.0000 0.0000 0.0000 48.8736
#
#
#
# Elastic Compliance Matrix: (Units=1/GPa)
#
#
# Indices 1 2 3 4 5 6 
#
# 1 0.012017 -0.003762 -0.002890 0.000000 0.000000 0.000000
# 2 -0.003762 0.011249 -0.001270 0.000000 0.000000 0.000000
# 3 -0.002890 -0.001270 0.008030 0.000000 0.000000 0.000000
# 4 0.000000 0.000000 0.000000 0.047613 0.000000 0.000000
# 5 0.000000 0.000000 0.000000 0.000000 0.030069 0.000000
# 6 0.000000 0.000000 0.000000 0.000000 0.000000 0.020461
#
#
# Mechanical properties :
#
#
# Convention : Reuss Voigt Hill
#
# Bulk Modulus (GPa) = 64.71847 65.86041 65.28944
# Shear Modulus (GPa) = 33.23747 36.72120 34.97934
#
# Velocity S-wave (km/s) = 3.79498 3.98890 3.89315
# Velocity P-wave (km/s) = 6.87350 7.05355 6.96411
#
# Compressibility (1/GPa) = 0.01545154
#
# Stress axis : x y z
#
# Youngs Moduli (GPa) = 83.21607 88.89972 124.53772
#
# Poissons Ratio (x) = 0.33442 0.35995
# Poissons Ratio (y) = 0.31304 0.15814
# Poissons Ratio (z) = 0.24052 0.11289
#
# Static dielectric constant tensor:
#      x y z
#    x 3.811620 0.000000 0.000000 
#    y 0.000000 4.184980 0.000000 
#    z 0.000000 0.000000 4.148260 
# 
# 
# High freq. dielectric constant tensor:
#      x y z
#    x 1.894930 0.000000 0.000000 
#    y 0.000000 1.924480 0.000000 
#    z 0.000000 0.000000 1.914250 
# 
# From -- ./inp_files/13739.got.cif
#   From: 2010.03.12/outbox.cif.g09.slc.cpg/sg55_7_cif.got.tgz:13739.got - 2010.04.16 15:19:21.
