data_PCOD8227537
_publ_section_title
;
Structure prediction by ZEFSAII (Michael W. Deem and Ramdas Pophale) SiO2 
 PCOD8227537
Probable space group: P B A M
;
_chemical_formula_sum "Si O2"
_cell_formula_units_Z 56
_cell_length_a 14.379471
_cell_length_b 8.514209
_cell_length_c 19.469803
_cell_angle_alpha 90.000000
_cell_angle_beta 90.000000
_cell_angle_gamma 90.000000
_cell_volume 2383.684504
_symmetry_space_group_name_H-M "P B A M"
_symmetry_group_IT_number 55
_symmetry_cell_setting 'orthorhombic'
loop_
_space_group_symop_operation_xyz
x,y,z
-x,-y,z
1/2+x,1/2-y,-z
1/2-x,1/2+y,-z
-x,-y,-z
x,y,-z
1/2-x,1/2+y,z
1/2+x,1/2-y,z
loop_
_atom_site_type_symbol
_atom_site_label
_atom_site_fract_x
_atom_site_fract_y
_atom_site_fract_z
Si Si1 0.201626 0.151012 0.714407
Si Si2 0.462020 0.834155 0.647968
Si Si3 0.862886 0.643113 0.923248
Si Si4 0.941581 0.750052 0.500000
Si Si5 0.541671 0.666505 0.080652
Si Si6 0.849149 0.165373 0.646514
Si Si7 0.136402 0.925544 0.500000
Si Si8 0.286448 0.166183 0.863587
O O1 0.291576 0.181526 0.667399
O O2 0.234286 0.177693 0.791608
O O3 0.121324 0.277595 0.696841
O O4 0.167978 0.975225 0.700229
O O5 0.428725 0.855256 0.568509
O O6 0.541480 0.701395 0.649725
O O7 0.500000 0.000000 0.675942
O O8 0.793596 0.792722 0.918958
O O9 0.828014 0.506888 0.872832
O O10 0.966597 0.697463 0.904318
O O11 0.862159 0.574646 0.000000
O O12 0.038782 0.838482 0.500000
O O13 0.864959 0.886140 0.500000
O O14 0.500000 0.500000 0.104457
O O15 0.631200 0.705248 0.127378
O O16 0.568600 0.662105 0.000000
O O17 0.812362 0.122183 0.570277
#
# Coordination Sequence:
#
# PCOD8227537 Si02
#       8
#     8   8   8   4   8   8   4   8
#     4  12  26  44  66  98 142 189 232 276 349 431
#     4  11  23  43  73 104 140 184 235 301 360 416
#     4  11  23  42  72 104 136 178 229 289 348 405
#     4   9  17  37  69 106 133 171 234 295 363 409
#     4  10  22  43  74 109 141 177 229 291 353 411
#     4  11  24  44  68  99 137 181 236 295 350 416
#     4   9  18  37  69 100 131 176 228 294 356 405
#     4  12  25  43  67 101 144 184 229 280 341 421
#
# _framework density 23.493041999999999
#
# number of rings (size 3 to 8) (size 9 to 14) (size 15 to 20)
#    0.000    1.143    1.429    4.929    0.000    4.571 
#    0.000    5.714    0.000    0.000    0.000    0.000 
#    0.000    0.000    0.000    0.000    0.000    0.000 
#
# Total GULP energy -694460.289308 kJ/mol
# GULP energy per Si atom -12401.076595 kJ/mol
# Density = 2.343957 g / cm^3
# Si number density = 23.493042 Si / 1000 Ang^3
#
#
#
# Elastic Constant Matrix: (Units=GPa)
#
#
# Indices 1 2 3 4 5 6 
#
# 1 100.5691 15.5299 71.0534 0.0000 0.0000 0.0000
# 2 15.5299 89.7642 51.5546 0.0000 0.0000 0.0000
# 3 71.0534 51.5546 123.8667 0.0000 0.0000 0.0000
# 4 0.0000 0.0000 0.0000 25.8094 0.0000 0.0000
# 5 0.0000 0.0000 0.0000 0.0000 41.3516 0.0000
# 6 0.0000 0.0000 0.0000 0.0000 0.0000 45.1534
#
#
#
# Elastic Compliance Matrix: (Units=1/GPa)
#
#
# Indices 1 2 3 4 5 6 
#
# 1 0.017567 0.003612 -0.011580 0.000000 0.000000 0.000000
# 2 0.003612 0.015382 -0.008474 0.000000 0.000000 0.000000
# 3 -0.011580 -0.008474 0.018243 0.000000 0.000000 0.000000
# 4 0.000000 0.000000 0.000000 0.038746 0.000000 0.000000
# 5 0.000000 0.000000 0.000000 0.000000 0.024183 0.000000
# 6 0.000000 0.000000 0.000000 0.000000 0.000000 0.022147
#
#
# Mechanical properties :
#
#
# Convention : Reuss Voigt Hill
#
# Bulk Modulus (GPa) = 54.62308 65.60842 60.11575
# Shear Modulus (GPa) = 28.52975 34.20037 31.36506
#
# Velocity S-wave (km/s) = 3.48859 3.81959 3.65784
# Velocity P-wave (km/s) = 6.28715 6.88765 6.59424
#
# Compressibility (1/GPa) = 0.01830728
#
# Stress axis : x y z
#
# Youngs Moduli (GPa) = 56.92380 65.00947 54.81561
#
# Poissons Ratio (x) = -0.23479 0.63478
# Poissons Ratio (y) = -0.20559 0.46451
# Poissons Ratio (z) = 0.65920 0.55089
#
# Static dielectric constant tensor:
#      x y z
#    x 4.281700 0.000000 0.000000 
#    y 0.000000 4.113510 0.000000 
#    z 0.000000 0.000000 4.128420 
# 
# 
# High freq. dielectric constant tensor:
#      x y z
#    x 1.934150 0.000000 0.000000 
#    y 0.000000 1.933070 0.000000 
#    z 0.000000 0.000000 1.920690 
# 
# From -- ./inp_files/22991.got.cif
#   From: 2010.03.12/outbox.cif.g09.slc.cpg/sg55_12_cif.got.tgz:22991.got - 2010.04.16 15:19:21.
