data_PCOD8227725
_publ_section_title
;
Structure prediction by ZEFSAII (Michael W. Deem and Ramdas Pophale) SiO2 
 PCOD8227725
Probable space group: P B A M
;
_chemical_formula_sum "Si O2"
_cell_formula_units_Z 48
_cell_length_a 8.446218
_cell_length_b 14.316868
_cell_length_c 17.560360
_cell_angle_alpha 90.000000
_cell_angle_beta 90.000000
_cell_angle_gamma 90.000000
_cell_volume 2123.458229
_symmetry_space_group_name_H-M "P B A M"
_symmetry_group_IT_number 55
_symmetry_cell_setting 'orthorhombic'
loop_
_space_group_symop_operation_xyz
x,y,z
-x,-y,z
1/2+x,1/2-y,-z
1/2-x,1/2+y,-z
-x,-y,-z
x,y,-z
1/2-x,1/2+y,z
1/2+x,1/2-y,z
loop_
_atom_site_type_symbol
_atom_site_label
_atom_site_fract_x
_atom_site_fract_y
_atom_site_fract_z
Si Si1 0.740291 0.862023 0.586865
Si Si2 0.634292 0.294140 0.829886
Si Si3 0.825915 0.140278 0.088180
Si Si4 0.821234 0.534538 0.671959
Si Si5 0.444135 0.772329 0.337571
Si Si6 0.815084 0.478457 0.166387
O O1 0.682789 0.855374 0.500000
O O2 0.904624 0.807589 0.600351
O O3 0.617544 0.812780 0.645068
O O4 0.766356 0.970955 0.608579
O O5 0.498858 0.339911 0.880332
O O6 0.692850 0.198957 0.867454
O O7 0.564441 0.271544 0.746493
O O8 0.781470 0.367317 0.831225
O O9 0.781765 0.031019 0.099765
O O10 0.820813 0.166342 0.000000
O O11 0.815642 0.643920 0.651184
O O12 0.744904 0.520189 0.754786
O O13 0.000000 0.500000 0.676534
O O14 0.000000 0.500000 0.155640
#
# Coordination Sequence:
#
# PCOD8227725 Si02
#       6
#     8   8   8   8   8   8
#     4  11  23  40  64  97 133 167 214 275 333 387
#     4  12  24  43  71  96 134 180 227 278 331 410
#     4  12  27  44  67 101 137 174 224 285 346 394
#     4   9  20  38  64  91 122 167 218 257 317 392
#     4  11  22  40  66  93 126 171 220 263 323 400
#     4  11  23  43  70  98 131 177 228 276 332 407
#
# _framework density 22.604637
#
# number of rings (size 3 to 8) (size 9 to 14) (size 15 to 20)
#    0.000    1.000    3.333    3.500    2.333    6.000 
#    0.000    0.833    0.000    2.000    0.000    0.000 
#    0.000    0.000    0.000    0.000    0.000    0.000 
#
# Total GULP energy -595225.689748 kJ/mol
# GULP energy per Si atom -12400.535203 kJ/mol
# Density = 2.255319 g / cm^3
# Si number density = 22.604637 Si / 1000 Ang^3
#
#
#
# Elastic Constant Matrix: (Units=GPa)
#
#
# Indices 1 2 3 4 5 6 
#
# 1 44.2839 -3.1606 19.7081 0.0000 0.0000 0.0000
# 2 -3.1606 87.1980 24.1546 0.0000 0.0000 0.0000
# 3 19.7081 24.1546 123.3531 0.0000 0.0000 0.0000
# 4 0.0000 0.0000 0.0000 29.3669 0.0000 0.0000
# 5 0.0000 0.0000 0.0000 0.0000 21.6778 0.0000
# 6 0.0000 0.0000 0.0000 0.0000 0.0000 36.3965
#
#
#
# Elastic Compliance Matrix: (Units=1/GPa)
#
#
# Indices 1 2 3 4 5 6 
#
# 1 0.024668 0.002100 -0.004352 0.000000 0.000000 0.000000
# 2 0.002100 0.012305 -0.002745 0.000000 0.000000 0.000000
# 3 -0.004352 -0.002745 0.009340 0.000000 0.000000 0.000000
# 4 0.000000 0.000000 0.000000 0.034052 0.000000 0.000000
# 5 0.000000 0.000000 0.000000 0.000000 0.046130 0.000000
# 6 0.000000 0.000000 0.000000 0.000000 0.000000 0.027475
#
#
# Mechanical properties :
#
#
# Convention : Reuss Voigt Hill
#
# Bulk Modulus (GPa) = 27.53484 37.35992 32.44738
# Shear Modulus (GPa) = 28.39759 31.76374 30.08067
#
# Velocity S-wave (km/s) = 3.54824 3.75265 3.65187
# Velocity P-wave (km/s) = 5.38462 5.94474 5.67160
#
# Compressibility (1/GPa) = 0.03631763
#
# Stress axis : x y z
#
# Youngs Moduli (GPa) = 40.53756 81.27022 107.06969
#
# Poissons Ratio (x) = -0.17065 0.46602
# Poissons Ratio (y) = -0.08512 0.29390
# Poissons Ratio (z) = 0.17644 0.22308
#
# Static dielectric constant tensor:
#      x y z
#    x 3.745890 0.000000 0.000000 
#    y 0.000000 4.492460 0.000000 
#    z 0.000000 0.000000 3.933950 
# 
# 
# High freq. dielectric constant tensor:
#      x y z
#    x 1.873160 0.000000 0.000000 
#    y 0.000000 1.909610 0.000000 
#    z 0.000000 0.000000 1.880770 
# 
# From -- ./inp_files/20787.got.cif
#   From: 2010.03.12/outbox.cif.g09.slc.cpg/sg55_11_cif.got.tgz:20787.got - 2010.04.16 15:19:21.
