data_PCOD8227330
_publ_section_title
;
Structure prediction by ZEFSAII (Michael W. Deem and Ramdas Pophale) SiO2 
 PCOD8227330
Probable space group: P B A M
;
_chemical_formula_sum "Si O2"
_cell_formula_units_Z 40
_cell_length_a 10.285589
_cell_length_b 11.360389
_cell_length_c 15.227510
_cell_angle_alpha 90.000000
_cell_angle_beta 90.000000
_cell_angle_gamma 90.000000
_cell_volume 1779.308537
_symmetry_space_group_name_H-M "P B A M"
_symmetry_group_IT_number 55
_symmetry_cell_setting 'orthorhombic'
loop_
_space_group_symop_operation_xyz
x,y,z
-x,-y,z
1/2+x,1/2-y,-z
1/2-x,1/2+y,-z
-x,-y,-z
x,y,-z
1/2-x,1/2+y,z
1/2+x,1/2-y,z
loop_
_atom_site_type_symbol
_atom_site_label
_atom_site_fract_x
_atom_site_fract_y
_atom_site_fract_z
Si Si1 0.198789 0.977394 0.400163
Si Si2 0.607559 0.085963 0.262751
Si Si3 0.260225 0.805167 0.096723
Si Si4 0.020265 0.128279 0.869351
Si Si5 0.479806 0.665820 0.327484
O O1 0.244575 0.960664 0.500000
O O2 0.319959 0.990481 0.335821
O O3 0.121650 0.859366 0.368773
O O4 0.118549 0.098754 0.392795
O O5 0.695076 0.115185 0.178196
O O6 0.548395 0.196897 0.315220
O O7 0.500000 0.000000 0.223294
O O8 0.344107 0.684550 0.097553
O O9 0.103772 0.786346 0.108902
O O10 0.282475 0.862871 0.000000
O O11 0.031858 0.104908 0.766526
O O12 0.000000 0.000000 0.914314
#
# Coordination Sequence:
#
# PCOD8227330 Si02
#       5
#     8   8   8   8   8
#     4  11  23  43  69  98 132 178 225 278 347 416
#     4  11  26  43  68 100 138 179 227 288 349 416
#     4  11  25  43  68 104 139 186 242 293 350 424
#     4  11  22  44  72  97 142 185 235 291 362 423
#     4  10  21  42  68  95 130 176 223 276 345 411
#
# _framework density 22.480643000000001
#
# number of rings (size 3 to 8) (size 9 to 14) (size 15 to 20)
#    0.000    1.200    4.000    1.800    2.800    8.800 
#    0.000    0.000    0.000    0.000    0.000    0.000 
#    0.000    0.000    0.000    0.000    0.000    0.000 
#
# Total GULP energy -495656.603557 kJ/mol
# GULP energy per Si atom -12391.415089 kJ/mol
# Density = 2.242948 g / cm^3
# Si number density = 22.480643 Si / 1000 Ang^3
#
#
#
# Elastic Constant Matrix: (Units=GPa)
#
#
# Indices 1 2 3 4 5 6 
#
# 1 93.0303 35.3406 3.8730 0.0000 0.0000 0.0000
# 2 35.3406 81.9866 0.9126 0.0000 0.0000 0.0000
# 3 3.8730 0.9126 152.2362 0.0000 0.0000 0.0000
# 4 0.0000 0.0000 0.0000 -54.9145 0.0000 0.0000
# 5 0.0000 0.0000 0.0000 0.0000 -3.3929 0.0000
# 6 0.0000 0.0000 0.0000 0.0000 0.0000 25.8792
#
#
#
# Elastic Compliance Matrix: (Units=1/GPa)
#
#
# Indices 1 2 3 4 5 6 
#
# 1 0.012867 -0.005543 -0.000294 0.000000 0.000000 0.000000
# 2 -0.005543 0.014586 0.000054 0.000000 0.000000 0.000000
# 3 -0.000294 0.000054 0.006576 0.000000 0.000000 0.000000
# 4 0.000000 0.000000 0.000000 -0.018210 0.000000 0.000000
# 5 0.000000 0.000000 0.000000 0.000000 -0.294733 0.000000
# 6 0.000000 0.000000 0.000000 0.000000 0.000000 0.038641
#
#
# Mechanical properties :
#
#
# Convention : Reuss Voigt Hill
#
# Bulk Modulus (GPa) = 44.52043 45.27838 44.89940
# Shear Modulus (GPa) = -22.60209 12.65616 -4.97297
#
# Velocity S-wave (km/s) = -3.17425 2.37529 -1.48893
# Velocity P-wave (km/s) = 2.53228 5.26379 4.13037
#
# Compressibility (1/GPa) = 0.02246160
#
# Stress axis : x y z
#
# Youngs Moduli (GPa) = 77.71705 68.55927 152.07043
#
# Poissons Ratio (x) = 0.38004 0.04473
# Poissons Ratio (y) = 0.43080 -0.00815
# Poissons Ratio (z) = 0.02286 -0.00367
#
# Static dielectric constant tensor:
#      x y z
#    x 4.249180 0.000000 0.000000 
#    y 0.000000 3.758750 0.000000 
#    z 0.000000 0.000000 4.067050 
# 
# 
# High freq. dielectric constant tensor:
#      x y z
#    x 1.885690 0.000000 0.000000 
#    y 0.000000 1.862810 0.000000 
#    z 0.000000 0.000000 1.897290 
# 
# From -- ./inp_files/20608.got.cif
#   From: 2010.03.12/outbox.cif.g09.slc.cpg/sg55_11_cif.got.tgz:20608.got - 2010.04.16 15:19:21.
