data_PCOD8227891
_publ_section_title
;
Structure prediction by ZEFSAII (Michael W. Deem and Ramdas Pophale) SiO2 
 PCOD8227891
Probable space group: P C C N
;
_chemical_formula_sum "Si O2"
_cell_formula_units_Z 64
_cell_length_a 18.017026
_cell_length_b 9.599280
_cell_length_c 18.349042
_cell_angle_alpha 90.000000
_cell_angle_beta 90.000000
_cell_angle_gamma 90.000000
_cell_volume 3173.475573
_symmetry_space_group_name_H-M "P C C N"
_symmetry_group_IT_number 56
_symmetry_cell_setting 'orthorhombic'
loop_
_space_group_symop_operation_xyz
x,y,z
1/2-x,1/2-y,z
1/2+x,-y,1/2-z
-x,1/2+y,1/2-z
-x,-y,-z
1/2+x,1/2+y,-z
1/2-x,y,1/2+z
x,1/2-y,1/2+z
loop_
_atom_site_type_symbol
_atom_site_label
_atom_site_fract_x
_atom_site_fract_y
_atom_site_fract_z
Si Si1 0.778091 0.094423 0.207449
Si Si2 0.143776 0.492108 0.957808
Si Si3 0.936722 0.107860 0.224331
Si Si4 0.454927 0.295382 0.807915
Si Si5 0.808661 0.482216 0.544389
Si Si6 0.578283 0.782908 0.523077
Si Si7 0.185891 0.142608 0.306926
Si Si8 0.568017 0.222092 0.562100
O O1 0.750000 0.250000 0.192033
O O2 0.852348 0.099664 0.255292
O O3 0.800411 0.017122 0.131984
O O4 0.716835 0.988241 0.242500
O O5 0.225582 0.533193 0.989812
O O6 0.104153 0.370356 0.004090
O O7 0.152843 0.426667 0.878591
O O8 0.085441 0.617142 0.952701
O O9 0.936742 0.188198 0.147440
O O10 0.977900 0.197799 0.284386
O O11 0.969914 0.952585 0.218891
O O12 0.450754 0.293497 0.894659
O O13 0.380729 0.230002 0.769702
O O14 0.848922 0.620756 0.515081
O O15 0.863089 0.355994 0.523113
O O16 0.509780 0.827494 0.472155
O O17 0.250000 0.250000 0.327698
#
# Coordination Sequence:
#
# PCOD8227891 Si02
#       8
#     8   8   8   8   8   8   8   8
#     4  10  18  32  56  85 111 137 187 242 280 317
#     4  10  19  32  55  87 111 140 189 239 278 315
#     4  11  23  37  55  86 114 147 187 226 285 337
#     4  11  23  36  57  84 115 149 185 231 282 338
#     4  10  17  33  56  83 108 143 189 236 274 321
#     4  11  21  37  58  84 115 149 183 229 281 337
#     4  10  17  34  56  81 108 143 187 240 278 315
#     4  11  22  36  57  85 117 146 183 232 284 333
#
# _framework density 20.167164
#
# number of rings (size 3 to 8) (size 9 to 14) (size 15 to 20)
#    0.000    1.500    3.750    6.750    5.250    0.000 
#    0.000    0.000    0.000    4.500    0.000    0.000 
#    0.000    0.000    0.000    0.000    0.000    0.000 
#
# Total GULP energy -792988.658108 kJ/mol
# GULP energy per Si atom -12390.447783 kJ/mol
# Density = 2.012126 g / cm^3
# Si number density = 20.167164 Si / 1000 Ang^3
#
#
#
# Elastic Constant Matrix: (Units=GPa)
#
#
# Indices 1 2 3 4 5 6 
#
# 1 83.9411 12.2901 10.1410 0.0000 0.0000 0.0000
# 2 12.2901 118.7288 0.8181 0.0000 0.0000 0.0000
# 3 10.1410 0.8181 17.7121 0.0000 0.0000 0.0000
# 4 0.0000 0.0000 0.0000 12.6123 0.0000 0.0000
# 5 0.0000 0.0000 0.0000 0.0000 24.0808 0.0000
# 6 0.0000 0.0000 0.0000 0.0000 0.0000 51.9108
#
#
#
# Elastic Compliance Matrix: (Units=1/GPa)
#
#
# Indices 1 2 3 4 5 6 
#
# 1 0.012994 -0.001294 -0.007380 0.000000 0.000000 0.000000
# 2 -0.001294 0.008554 0.000346 0.000000 0.000000 0.000000
# 3 -0.007380 0.000346 0.060668 0.000000 0.000000 0.000000
# 4 0.000000 0.000000 0.000000 0.079287 0.000000 0.000000
# 5 0.000000 0.000000 0.000000 0.000000 0.041527 0.000000
# 6 0.000000 0.000000 0.000000 0.000000 0.000000 0.019264
#
#
# Mechanical properties :
#
#
# Convention : Reuss Voigt Hill
#
# Bulk Modulus (GPa) = 15.25326 29.65337 22.45332
# Shear Modulus (GPa) = 19.17145 30.86299 25.01722
#
# Velocity S-wave (km/s) = 3.08657 3.91622 3.52588
# Velocity P-wave (km/s) = 4.50360 5.93168 5.26627
#
# Compressibility (1/GPa) = 0.06555976
#
# Stress axis : x y z
#
# Youngs Moduli (GPa) = 76.95747 116.90244 16.48312
#
# Poissons Ratio (x) = 0.15130 0.12165
# Poissons Ratio (y) = 0.09960 -0.00570
# Poissons Ratio (z) = 0.56795 -0.04044
#
# Static dielectric constant tensor:
#      x y z
#    x 4.531070 0.000000 0.000000 
#    y 0.000000 4.418770 0.000000 
#    z 0.000000 0.000000 2.906690 
# 
# 
# High freq. dielectric constant tensor:
#      x y z
#    x 1.809730 0.000000 0.000000 
#    y 0.000000 1.818360 0.000000 
#    z 0.000000 0.000000 1.697180 
# 
# From -- ./inp_files/19342.got.cif
#   From: 2010.03.12/outbox.cif.g09.slc.cpg/sg56_10_cif.got.tgz:19342.got - 2010.04.16 15:33:40.
