data_PCOD8227961
_publ_section_title
;
Structure prediction by ZEFSAII (Michael W. Deem and Ramdas Pophale) SiO2 
 PCOD8227961
Probable space group: P C C N
;
_chemical_formula_sum "Si O2"
_cell_formula_units_Z 48
_cell_length_a 21.672849
_cell_length_b 6.399476
_cell_length_c 17.480242
_cell_angle_alpha 90.000000
_cell_angle_beta 90.000000
_cell_angle_gamma 90.000000
_cell_volume 2424.420015
_symmetry_space_group_name_H-M "P C C N"
_symmetry_group_IT_number 56
_symmetry_cell_setting 'orthorhombic'
loop_
_space_group_symop_operation_xyz
x,y,z
1/2-x,1/2-y,z
1/2+x,-y,1/2-z
-x,1/2+y,1/2-z
-x,-y,-z
1/2+x,1/2+y,-z
1/2-x,y,1/2+z
x,1/2-y,1/2+z
loop_
_atom_site_type_symbol
_atom_site_label
_atom_site_fract_x
_atom_site_fract_y
_atom_site_fract_z
Si Si1 0.173483 0.079131 0.324334
Si Si2 0.689558 0.641634 0.316944
Si Si3 0.437073 0.062541 0.924431
Si Si4 0.250000 0.250000 0.457050
Si Si5 0.750000 0.250000 0.266999
Si Si6 0.365831 0.343840 0.045610
Si Si7 0.042394 0.814994 0.027928
O O1 0.177691 0.284479 0.270655
O O2 0.101265 0.052829 0.345527
O O3 0.211461 0.095231 0.402959
O O4 0.201157 0.880841 0.281787
O O5 0.750000 0.750000 0.350481
O O6 0.704544 0.394709 0.317680
O O7 0.635495 0.710408 0.374978
O O8 0.505327 0.166437 0.911087
O O9 0.405743 0.209442 0.987403
O O10 0.440703 0.826329 0.954720
O O11 0.202321 0.379887 0.509938
O O12 0.396101 0.572935 0.062107
O O13 0.000000 0.000000 0.000000
#
# Coordination Sequence:
#
# PCOD8227961 Si02
#       7
#     8   8   8   4   4   8   8
#     4  10  20  34  55  82 118 151 192 231 288 365
#     4  10  20  37  52  82 122 154 184 228 291 362
#     4   9  20  35  58  89 105 147 202 241 290 346
#     4  10  18  34  52  88 116 138 188 230 284 362
#     4  10  20  32  54  78 124 158 184 222 300 366
#     4  10  20  34  58  83 116 149 186 240 290 346
#     4   9  19  37  59  79 113 144 187 250 293 331
#
# _framework density 19.798549000000001
#
# number of rings (size 3 to 8) (size 9 to 14) (size 15 to 20)
#    0.000    2.333    3.333    0.000    2.333    4.000 
#    0.000    0.000   11.000    0.000    0.000    0.000 
#    0.000    0.000    0.000    0.000    0.000    0.000 
#
# Total GULP energy -594650.188736 kJ/mol
# GULP energy per Si atom -12388.545599 kJ/mol
# Density = 1.975349 g / cm^3
# Si number density = 19.798549 Si / 1000 Ang^3
#
#
#
# Elastic Constant Matrix: (Units=GPa)
#
#
# Indices 1 2 3 4 5 6 
#
# 1 91.3188 45.3911 35.8083 0.0000 0.0000 0.0000
# 2 45.3911 131.1016 36.1328 0.0000 0.0000 0.0000
# 3 35.8083 36.1328 76.5209 0.0000 0.0000 0.0000
# 4 0.0000 0.0000 0.0000 10.6250 0.0000 0.0000
# 5 0.0000 0.0000 0.0000 0.0000 21.9107 0.0000
# 6 0.0000 0.0000 0.0000 0.0000 0.0000 37.6599
#
#
#
# Elastic Compliance Matrix: (Units=1/GPa)
#
#
# Indices 1 2 3 4 5 6 
#
# 1 0.014826 -0.003703 -0.005189 0.000000 0.000000 0.000000
# 2 -0.003703 0.009694 -0.002845 0.000000 0.000000 0.000000
# 3 -0.005189 -0.002845 0.016840 0.000000 0.000000 0.000000
# 4 0.000000 0.000000 0.000000 0.094118 0.000000 0.000000
# 5 0.000000 0.000000 0.000000 0.000000 0.045640 0.000000
# 6 0.000000 0.000000 0.000000 0.000000 0.000000 0.026553
#
#
# Mechanical properties :
#
#
# Convention : Reuss Voigt Hill
#
# Bulk Modulus (GPa) = 55.90984 59.28954 57.59969
# Shear Modulus (GPa) = 21.08755 26.14638 23.61697
#
# Velocity S-wave (km/s) = 3.26714 3.63798 3.45753
# Velocity P-wave (km/s) = 6.52173 6.90347 6.71531
#
# Compressibility (1/GPa) = 0.01788594
#
# Stress axis : x y z
#
# Youngs Moduli (GPa) = 67.44830 103.15947 59.38276
#
# Poissons Ratio (x) = 0.38200 0.30816
# Poissons Ratio (y) = 0.24976 0.16891
# Poissons Ratio (z) = 0.35002 0.29344
#
# Static dielectric constant tensor:
#      x y z
#    x 4.249610 0.000000 0.000000 
#    y 0.000000 3.790730 0.000000 
#    z 0.000000 0.000000 3.360260 
# 
# 
# High freq. dielectric constant tensor:
#      x y z
#    x 1.775490 0.000000 0.000000 
#    y 0.000000 1.770180 0.000000 
#    z 0.000000 0.000000 1.743760 
# 
# From -- ./inp_files/16954.got.cif
#   From: 2010.03.12/outbox.cif.g09.slc.cpg/sg56_9_cif.got.tgz:16954.got - 2010.04.16 15:33:40.
