data_PCOD8227140
_publ_section_title
;
Structure prediction by ZEFSAII (Michael W. Deem and Ramdas Pophale) SiO2 
 PCOD8227140
Probable space group: P B A M
;
_chemical_formula_sum "Si O2"
_cell_formula_units_Z 48
_cell_length_a 9.368833
_cell_length_b 28.829343
_cell_length_c 8.411606
_cell_angle_alpha 90.000000
_cell_angle_beta 90.000000
_cell_angle_gamma 90.000000
_cell_volume 2271.952070
_symmetry_space_group_name_H-M "P B A M"
_symmetry_group_IT_number 55
_symmetry_cell_setting 'orthorhombic'
loop_
_space_group_symop_operation_xyz
x,y,z
-x,-y,z
1/2+x,1/2-y,-z
1/2-x,1/2+y,-z
-x,-y,-z
x,y,-z
1/2-x,1/2+y,z
1/2+x,1/2-y,z
loop_
_atom_site_type_symbol
_atom_site_label
_atom_site_fract_x
_atom_site_fract_y
_atom_site_fract_z
Si Si1 0.702357 0.379454 0.188740
Si Si2 0.978491 0.635128 0.183855
Si Si3 0.658912 0.482835 0.178521
Si Si4 0.803111 0.717117 0.682720
Si Si5 0.607136 0.040353 0.318001
Si Si6 0.491195 0.703331 0.185191
O O1 0.858289 0.362287 0.246315
O O2 0.670884 0.431147 0.253681
O O3 0.580955 0.344103 0.250992
O O4 0.698972 0.379870 0.000000
O O5 0.880487 0.668380 0.288521
O O6 0.919646 0.583361 0.202934
O O7 0.967567 0.649771 0.000000
O O8 0.500000 0.500000 0.172547
O O9 0.736363 0.519875 0.290402
O O10 0.724380 0.482758 0.000000
O O11 0.819845 0.731494 0.500000
O O12 0.635942 0.713270 0.721105
O O13 0.877371 0.755711 0.791345
O O14 0.587457 0.055954 0.500000
O O15 0.500000 0.000000 0.267712
O O16 0.528641 0.699151 0.000000
#
# Coordination Sequence:
#
# PCOD8227140 Si02
#       6
#     8   8   8   8   8   8
#     4   9  20  38  62  93 123 158 211 266 310 363
#     4  11  22  40  67  93 122 166 217 266 314 377
#     4  10  21  38  62  91 123 164 214 263 311 369
#     4  12  26  44  65  97 133 166 205 263 330 385
#     4  11  23  39  59  90 129 169 209 257 317 378
#     4  11  23  43  69  96 127 168 216 260 312 386
#
# _framework density 21.127206000000001
#
# number of rings (size 3 to 8) (size 9 to 14) (size 15 to 20)
#    0.000    1.333    1.667    4.000    2.333    2.333 
#    0.000    4.167    0.000    0.000    0.000    0.000 
#    0.000    0.000    0.000    0.000    0.000    0.000 
#
# Total GULP energy -595401.493417 kJ/mol
# GULP energy per Si atom -12404.197780 kJ/mol
# Density = 2.107912 g / cm^3
# Si number density = 21.127206 Si / 1000 Ang^3
#
#
#
# Elastic Constant Matrix: (Units=GPa)
#
#
# Indices 1 2 3 4 5 6 
#
# 1 122.4564 38.9959 14.9683 0.0000 0.0000 0.0000
# 2 38.9959 88.9900 10.2402 0.0000 0.0000 0.0000
# 3 14.9683 10.2402 48.3977 0.0000 0.0000 0.0000
# 4 0.0000 0.0000 0.0000 22.6507 0.0000 0.0000
# 5 0.0000 0.0000 0.0000 0.0000 20.5076 0.0000
# 6 0.0000 0.0000 0.0000 0.0000 0.0000 42.6359
#
#
#
# Elastic Compliance Matrix: (Units=1/GPa)
#
#
# Indices 1 2 3 4 5 6 
#
# 1 0.009705 -0.004005 -0.002154 0.000000 0.000000 0.000000
# 2 -0.004005 0.013170 -0.001548 0.000000 0.000000 0.000000
# 3 -0.002154 -0.001548 0.021656 0.000000 0.000000 0.000000
# 4 0.000000 0.000000 0.000000 0.044149 0.000000 0.000000
# 5 0.000000 0.000000 0.000000 0.000000 0.048762 0.000000
# 6 0.000000 0.000000 0.000000 0.000000 0.000000 0.023454
#
#
# Mechanical properties :
#
#
# Convention : Reuss Voigt Hill
#
# Bulk Modulus (GPa) = 34.34412 43.13920 38.74166
# Shear Modulus (GPa) = 26.87940 30.20151 28.54045
#
# Velocity S-wave (km/s) = 3.57075 3.78499 3.67943
# Velocity P-wave (km/s) = 5.76988 6.29004 6.03557
#
# Compressibility (1/GPa) = 0.02911707
#
# Stress axis : x y z
#
# Youngs Moduli (GPa) = 103.04182 75.92856 46.17681
#
# Poissons Ratio (x) = 0.30408 0.09947
# Poissons Ratio (y) = 0.41266 0.07148
# Poissons Ratio (z) = 0.22196 0.11754
#
# Static dielectric constant tensor:
#      x y z
#    x 3.838140 0.000000 0.000000 
#    y 0.000000 3.899180 0.000000 
#    z 0.000000 0.000000 3.591010 
# 
# 
# High freq. dielectric constant tensor:
#      x y z
#    x 1.837380 0.000000 0.000000 
#    y 0.000000 1.839220 0.000000 
#    z 0.000000 0.000000 1.809300 
# 
# From -- ./inp_files/2800.got.cif
#   From: 2010.03.12/outbox.cif.g09.slc.cpg/sg55_2_cif.got.tgz:2800.got - 2010.04.16 15:19:21.
