data_PCOD8227209
_publ_section_title
;
Structure prediction by ZEFSAII (Michael W. Deem and Ramdas Pophale) SiO2 
 PCOD8227209
Probable space group: P B A M
;
_chemical_formula_sum "Si O2"
_cell_formula_units_Z 48
_cell_length_a 19.103917
_cell_length_b 15.659582
_cell_length_c 7.516133
_cell_angle_alpha 90.000000
_cell_angle_beta 90.000000
_cell_angle_gamma 90.000000
_cell_volume 2248.521499
_symmetry_space_group_name_H-M "P B A M"
_symmetry_group_IT_number 55
_symmetry_cell_setting 'orthorhombic'
loop_
_space_group_symop_operation_xyz
x,y,z
-x,-y,z
1/2+x,1/2-y,-z
1/2-x,1/2+y,-z
-x,-y,-z
x,y,-z
1/2-x,1/2+y,z
1/2+x,1/2-y,z
loop_
_atom_site_type_symbol
_atom_site_label
_atom_site_fract_x
_atom_site_fract_y
_atom_site_fract_z
Si Si1 0.885528 0.021597 0.500000
Si Si2 0.224926 0.271954 0.788974
Si Si3 0.773288 0.041524 0.791357
Si Si4 0.932790 0.747603 0.793891
Si Si5 0.679567 0.880452 0.208593
Si Si6 0.988869 0.864883 0.500000
Si Si7 0.473093 0.087842 0.206579
O O1 0.841230 0.016464 0.680416
O O2 0.930222 0.108253 0.500000
O O3 0.936919 0.943049 0.500000
O O4 0.247869 0.365736 0.724137
O O5 0.146481 0.253593 0.721342
O O6 0.275924 0.198599 0.708519
O O7 0.224336 0.270613 0.000000
O O8 0.713994 0.971773 0.748056
O O9 0.792794 0.041200 0.000000
O O10 0.977743 0.813009 0.680494
O O11 0.965502 0.654869 0.762897
O O12 0.937322 0.775082 0.000000
O O13 0.601052 0.881222 0.290819
O O14 0.677232 0.863624 0.000000
O O15 0.500000 0.000000 0.295787
O O16 0.457783 0.071047 0.000000
#
# Coordination Sequence:
#
# PCOD8227209 Si02
#       7
#     4   8   8   8   8   4   8
#     4  11  26  43  59  85 118 158 212 268 309 358
#     4   9  18  33  58  90 117 153 205 245 295 372
#     4  10  21  39  63  88 122 157 198 255 313 368
#     4  10  21  39  64  89 124 167 200 247 316 371
#     4   9  17  31  55  86 117 152 197 246 294 362
#     4  11  26  43  58  85 121 156 217 268 296 365
#     4   9  17  31  56  90 126 159 196 245 307 373
#
# _framework density 21.347359000000001
#
# number of rings (size 3 to 8) (size 9 to 14) (size 15 to 20)
#    0.000    2.333    0.000    2.000    2.333    7.333 
#    0.000    3.750    0.000    0.000    0.000    0.000 
#    0.000    0.000    0.000    0.000    0.000    0.000 
#
# Total GULP energy -595162.565481 kJ/mol
# GULP energy per Si atom -12399.220114 kJ/mol
# Density = 2.129877 g / cm^3
# Si number density = 21.347359 Si / 1000 Ang^3
#
#
#
# Elastic Constant Matrix: (Units=GPa)
#
#
# Indices 1 2 3 4 5 6 
#
# 1 140.0004 42.5642 20.5523 0.0000 0.0000 0.0000
# 2 42.5642 122.2901 15.7616 0.0000 0.0000 0.0000
# 3 20.5523 15.7616 62.2224 0.0000 0.0000 0.0000
# 4 0.0000 0.0000 0.0000 6.6897 0.0000 0.0000
# 5 0.0000 0.0000 0.0000 0.0000 25.2500 0.0000
# 6 0.0000 0.0000 0.0000 0.0000 0.0000 36.4930
#
#
#
# Elastic Compliance Matrix: (Units=1/GPa)
#
#
# Indices 1 2 3 4 5 6 
#
# 1 0.008236 -0.002601 -0.002062 0.000000 0.000000 0.000000
# 2 -0.002601 0.009275 -0.001490 0.000000 0.000000 0.000000
# 3 -0.002062 -0.001490 0.017130 0.000000 0.000000 0.000000
# 4 0.000000 0.000000 0.000000 0.149484 0.000000 0.000000
# 5 0.000000 0.000000 0.000000 0.000000 0.039604 0.000000
# 6 0.000000 0.000000 0.000000 0.000000 0.000000 0.027403
#
#
# Mechanical properties :
#
#
# Convention : Reuss Voigt Hill
#
# Bulk Modulus (GPa) = 44.77269 53.58545 49.17907
# Shear Modulus (GPa) = 18.45822 30.06219 24.26020
#
# Velocity S-wave (km/s) = 2.94370 3.75672 3.37478
# Velocity P-wave (km/s) = 5.70726 6.63125 6.18653
#
# Compressibility (1/GPa) = 0.02233504
#
# Stress axis : x y z
#
# Youngs Moduli (GPa) = 121.41432 107.82076 58.37767
#
# Poissons Ratio (x) = 0.28044 0.12035
# Poissons Ratio (y) = 0.31580 0.08700
# Poissons Ratio (z) = 0.25031 0.16068
#
# Static dielectric constant tensor:
#      x y z
#    x 4.082100 0.000000 0.000000 
#    y 0.000000 4.082660 0.000000 
#    z 0.000000 0.000000 3.536740 
# 
# 
# High freq. dielectric constant tensor:
#      x y z
#    x 1.846250 0.000000 0.000000 
#    y 0.000000 1.847400 0.000000 
#    z 0.000000 0.000000 1.813050 
# 
# From -- ./inp_files/7450.got.cif
#   From: 2010.03.12/outbox.cif.g09.slc.cpg/sg55_4_cif.got.tgz:7450.got - 2010.04.16 15:19:21.
