data_PCOD8227973
_publ_section_title
;
Structure prediction by ZEFSAII (Michael W. Deem and Ramdas Pophale) SiO2 
 PCOD8227973
Probable space group: P C C N
;
_chemical_formula_sum "Si O2"
_cell_formula_units_Z 56
_cell_length_a 8.700932
_cell_length_b 16.847154
_cell_length_c 19.378235
_cell_angle_alpha 90.000000
_cell_angle_beta 90.000000
_cell_angle_gamma 90.000000
_cell_volume 2840.576819
_symmetry_space_group_name_H-M "P C C N"
_symmetry_group_IT_number 56
_symmetry_cell_setting 'orthorhombic'
loop_
_space_group_symop_operation_xyz
x,y,z
1/2-x,1/2-y,z
1/2+x,-y,1/2-z
-x,1/2+y,1/2-z
-x,-y,-z
1/2+x,1/2+y,-z
1/2-x,y,1/2+z
x,1/2-y,1/2+z
loop_
_atom_site_type_symbol
_atom_site_label
_atom_site_fract_x
_atom_site_fract_y
_atom_site_fract_z
Si Si1 0.582879 0.278856 0.630388
Si Si2 0.600552 0.917711 0.808105
Si Si3 0.112052 0.040012 0.848510
Si Si4 0.425189 0.119536 0.625470
Si Si5 0.558851 0.531388 0.598876
Si Si6 0.480394 0.591001 0.017533
Si Si7 0.870268 0.116390 0.504908
O O1 0.750000 0.250000 0.652678
O O2 0.528792 0.352936 0.675470
O O3 0.475487 0.205826 0.650055
O O4 0.580010 0.307308 0.550017
O O5 0.578100 0.931145 0.727756
O O6 0.768508 0.893958 0.834101
O O7 0.569387 0.998750 0.849062
O O8 0.293412 0.051795 0.856277
O O9 0.036773 0.101222 0.903687
O O10 0.050940 0.949375 0.858320
O O11 0.411549 0.130411 0.541774
O O12 0.614003 0.466395 0.544266
O O13 0.482758 0.608484 0.561575
O O14 0.500000 0.500000 0.000000
O O15 0.308374 0.625577 0.014643
#
# Coordination Sequence:
#
# PCOD8227973 Si02
#       7
#     8   8   8   8   8   8   8
#     4  11  22  41  65  86 121 165 216 254 312 383
#     4  11  24  38  62  94 127 170 207 253 314 386
#     4  11  22  38  64  95 126 163 207 259 317 374
#     4  11  21  39  65  90 124 162 210 261 309 371
#     4  10  19  34  58  91 123 153 204 254 304 364
#     4  10  18  34  61  91 118 154 200 262 306 354
#     4  10  19  34  59  92 117 153 205 262 306 357
#
# _framework density 19.714305
#
# number of rings (size 3 to 8) (size 9 to 14) (size 15 to 20)
#    0.000    1.429    4.286    3.857    4.000    0.000 
#    0.000    1.429   12.571    0.000    0.000    0.000 
#    0.000    0.000    0.000    0.000    0.000    0.000 
#
# Total GULP energy -693864.710401 kJ/mol
# GULP energy per Si atom -12390.441257 kJ/mol
# Density = 1.966943 g / cm^3
# Si number density = 19.714305 Si / 1000 Ang^3
#
#
#
# Elastic Constant Matrix: (Units=GPa)
#
#
# Indices 1 2 3 4 5 6 
#
# 1 98.1334 44.0595 41.1847 0.0000 0.0000 0.0000
# 2 44.0595 55.7663 50.4595 0.0000 0.0000 0.0000
# 3 41.1847 50.4595 124.9268 0.0000 0.0000 0.0000
# 4 0.0000 0.0000 0.0000 11.3913 0.0000 0.0000
# 5 0.0000 0.0000 0.0000 0.0000 16.3544 0.0000
# 6 0.0000 0.0000 0.0000 0.0000 0.0000 25.1195
#
#
#
# Elastic Compliance Matrix: (Units=1/GPa)
#
#
# Indices 1 2 3 4 5 6 
#
# 1 0.015797 -0.012244 -0.000263 0.000000 0.000000 0.000000
# 2 -0.012244 0.037750 -0.011211 0.000000 0.000000 0.000000
# 3 -0.000263 -0.011211 0.012620 0.000000 0.000000 0.000000
# 4 0.000000 0.000000 0.000000 0.087786 0.000000 0.000000
# 5 0.000000 0.000000 0.000000 0.000000 0.061146 0.000000
# 6 0.000000 0.000000 0.000000 0.000000 0.000000 0.039810
#
#
# Mechanical properties :
#
#
# Convention : Reuss Voigt Hill
#
# Bulk Modulus (GPa) = 53.38474 61.13708 57.26091
# Shear Modulus (GPa) = 16.20290 20.11457 18.15874
#
# Velocity S-wave (km/s) = 2.86996 3.19768 3.03825
# Velocity P-wave (km/s) = 6.17416 6.68674 6.43555
#
# Compressibility (1/GPa) = 0.01873194
#
# Stress axis : x y z
#
# Youngs Moduli (GPa) = 63.30126 26.49037 79.24168
#
# Poissons Ratio (x) = 0.32433 0.02081
# Poissons Ratio (y) = 0.77503 0.88839
# Poissons Ratio (z) = 0.01663 0.29699
#
# Static dielectric constant tensor:
#      x y z
#    x 3.782250 0.000000 0.000000 
#    y 0.000000 3.750110 0.000000 
#    z 0.000000 0.000000 3.009140 
# 
# 
# High freq. dielectric constant tensor:
#      x y z
#    x 1.779020 0.000000 0.000000 
#    y 0.000000 1.740390 0.000000 
#    z 0.000000 0.000000 1.762280 
# 
# From -- ./inp_files/18311.got.cif
#   From: 2010.03.12/outbox.cif.g09.slc.cpg/sg56_10_cif.got.tgz:18311.got - 2010.04.16 15:33:40.
