data_PCOD8227574
_publ_section_title
;
Structure prediction by ZEFSAII (Michael W. Deem and Ramdas Pophale) SiO2 
 PCOD8227574
Probable space group: P B A M
;
_chemical_formula_sum "Si O2"
_cell_formula_units_Z 64
_cell_length_a 24.465216
_cell_length_b 15.079575
_cell_length_c 9.133708
_cell_angle_alpha 90.000000
_cell_angle_beta 90.000000
_cell_angle_gamma 90.000000
_cell_volume 3369.653768
_symmetry_space_group_name_H-M "P B A M"
_symmetry_group_IT_number 55
_symmetry_cell_setting 'orthorhombic'
loop_
_space_group_symop_operation_xyz
x,y,z
-x,-y,z
1/2+x,1/2-y,-z
1/2-x,1/2+y,-z
-x,-y,-z
x,y,-z
1/2-x,1/2+y,z
1/2+x,1/2-y,z
loop_
_atom_site_type_symbol
_atom_site_label
_atom_site_fract_x
_atom_site_fract_y
_atom_site_fract_z
Si Si1 0.389597 0.498471 0.830307
Si Si2 0.646125 0.795273 0.326409
Si Si3 0.858819 0.662665 0.828423
Si Si4 0.445426 0.340919 0.326118
Si Si5 0.784434 0.965641 0.334157
Si Si6 0.733922 0.261217 0.668129
Si Si7 0.840269 0.491234 0.328436
Si Si8 0.443660 0.686160 0.168836
O O1 0.431116 0.434851 0.745242
O O2 0.328065 0.486904 0.770986
O O3 0.408904 0.598204 0.801478
O O4 0.390733 0.472986 0.000000
O O5 0.649527 0.800328 0.500000
O O6 0.597449 0.733139 0.270580
O O7 0.703958 0.755821 0.271858
O O8 0.637753 0.896133 0.270048
O O9 0.801399 0.696073 0.766101
O O10 0.872797 0.567423 0.757958
O O11 0.907056 0.729918 0.787173
O O12 0.852549 0.651968 0.000000
O O13 0.444627 0.350730 0.500000
O O14 0.504530 0.310149 0.274027
O O15 0.799053 0.992821 0.500000
O O16 0.724217 0.999478 0.293537
O O17 0.788336 0.860421 0.315354
O O18 0.730100 0.229445 0.500000
O O19 0.851522 0.502338 0.500000
O O20 0.462516 0.690291 0.000000
#
# Coordination Sequence:
#
# PCOD8227574 Si02
#       8
#     8   8   8   8   8   8   8   8
#     4  11  22  37  56  80 116 157 186 224 285 344
#     4   8  18  38  59  82 113 145 183 236 290 332
#     4  11  22  36  55  84 117 150 190 234 278 335
#     4  11  23  38  60  86 110 143 195 247 284 336
#     4   9  18  33  55  83 113 146 187 229 271 332
#     4   9  17  33  57  81 110 148 184 225 282 338
#     4   9  19  37  59  82 113 151 186 229 284 338
#     4  10  23  42  57  76 115 157 190 231 285 339
#
# _framework density 18.993048999999999
#
# number of rings (size 3 to 8) (size 9 to 14) (size 15 to 20)
#    0.000    2.250    1.250    3.000    1.750    4.000 
#    0.000    4.375    0.000    3.750    0.000    0.000 
#    0.000    0.000    0.000    0.000    0.000    0.000 
#
# Total GULP energy -793716.587357 kJ/mol
# GULP energy per Si atom -12401.821677 kJ/mol
# Density = 1.894982 g / cm^3
# Si number density = 18.993049 Si / 1000 Ang^3
#
#
#
# Elastic Constant Matrix: (Units=GPa)
#
#
# Indices 1 2 3 4 5 6 
#
# 1 76.7059 32.4971 45.0968 0.0000 0.0000 0.0000
# 2 32.4971 68.0505 38.5200 0.0000 0.0000 0.0000
# 3 45.0968 38.5200 74.5442 0.0000 0.0000 0.0000
# 4 0.0000 0.0000 0.0000 26.7839 0.0000 0.0000
# 5 0.0000 0.0000 0.0000 0.0000 18.5391 0.0000
# 6 0.0000 0.0000 0.0000 0.0000 0.0000 25.7168
#
#
#
# Elastic Compliance Matrix: (Units=1/GPa)
#
#
# Indices 1 2 3 4 5 6 
#
# 1 0.020978 -0.004006 -0.010621 0.000000 0.000000 0.000000
# 2 -0.004006 0.021535 -0.008705 0.000000 0.000000 0.000000
# 3 -0.010621 -0.008705 0.024338 0.000000 0.000000 0.000000
# 4 0.000000 0.000000 0.000000 0.037336 0.000000 0.000000
# 5 0.000000 0.000000 0.000000 0.000000 0.053940 0.000000
# 6 0.000000 0.000000 0.000000 0.000000 0.000000 0.038885
#
#
# Mechanical properties :
#
#
# Convention : Reuss Voigt Hill
#
# Bulk Modulus (GPa) = 49.53342 50.16982 49.85162
# Shear Modulus (GPa) = 19.96755 21.08706 20.52731
#
# Velocity S-wave (km/s) = 3.24591 3.33566 3.29109
# Velocity P-wave (km/s) = 6.33911 6.42710 6.38326
#
# Compressibility (1/GPa) = 0.02018839
#
# Stress axis : x y z
#
# Youngs Moduli (GPa) = 47.66820 46.43542 41.08740
#
# Poissons Ratio (x) = 0.18602 0.43640
# Poissons Ratio (y) = 0.19096 0.35765
# Poissons Ratio (z) = 0.50629 0.40421
#
# Static dielectric constant tensor:
#      x y z
#    x 3.408930 0.000000 0.000000 
#    y 0.000000 3.608770 0.000000 
#    z 0.000000 0.000000 3.300150 
# 
# 
# High freq. dielectric constant tensor:
#      x y z
#    x 1.728600 0.000000 0.000000 
#    y 0.000000 1.745780 0.000000 
#    z 0.000000 0.000000 1.723400 
# 
# From -- ./inp_files/9828.got.cif
#   From: 2010.03.12/outbox.cif.g09.slc.cpg/sg55_5_cif.got.tgz:9828.got - 2010.04.16 15:19:21.
