data_PCOD8227442
_publ_section_title
;
Structure prediction by ZEFSAII (Michael W. Deem and Ramdas Pophale) SiO2 
 PCOD8227442
Probable space group: P B A M
;
_chemical_formula_sum "Si O2"
_cell_formula_units_Z 40
_cell_length_a 9.768712
_cell_length_b 13.611210
_cell_length_c 13.878219
_cell_angle_alpha 90.000000
_cell_angle_beta 90.000000
_cell_angle_gamma 90.000000
_cell_volume 1845.303379
_symmetry_space_group_name_H-M "P B A M"
_symmetry_group_IT_number 55
_symmetry_cell_setting 'orthorhombic'
loop_
_space_group_symop_operation_xyz
x,y,z
-x,-y,z
1/2+x,1/2-y,-z
1/2-x,1/2+y,-z
-x,-y,-z
x,y,-z
1/2-x,1/2+y,z
1/2+x,1/2-y,z
loop_
_atom_site_type_symbol
_atom_site_label
_atom_site_fract_x
_atom_site_fract_y
_atom_site_fract_z
Si Si1 0.974486 0.714259 0.388336
Si Si2 0.751909 0.837628 0.702094
Si Si3 0.179751 0.906984 0.106183
Si Si4 0.640131 0.044378 0.727536
Si Si5 0.879546 0.863470 0.105635
O O1 0.012236 0.712901 0.500000
O O2 0.880539 0.808026 0.364282
O O3 0.892181 0.614866 0.362411
O O4 0.115788 0.720698 0.328645
O O5 0.786386 0.810264 0.813732
O O6 0.735311 0.955371 0.689862
O O7 0.291219 0.887909 0.189712
O O8 0.040431 0.847330 0.128583
O O9 0.149946 0.021966 0.106194
O O10 0.236130 0.876882 0.000000
O O11 0.500000 0.000000 0.771384
O O12 0.843269 0.819401 0.000000
#
# Coordination Sequence:
#
# PCOD8227442 Si02
#       5
#     8   8   8   8   8
#     4  11  24  41  61  85 115 157 205 254 311 357
#     4  10  22  40  61  87 118 156 197 251 300 363
#     4   8  14  28  55  88 119 152 191 232 285 350
#     4   9  20  37  59  88 120 162 201 244 301 362
#     4   8  15  31  56  85 118 154 187 232 292 354
#
# _framework density 21.676651
#
# number of rings (size 3 to 8) (size 9 to 14) (size 15 to 20)
#    0.000    2.800    0.000    1.800    2.800    4.800 
#    0.000    5.000    0.000    2.400    0.000    0.000 
#    0.000    0.000    0.000    0.000    0.000    0.000 
#
# Total GULP energy -495831.511564 kJ/mol
# GULP energy per Si atom -12395.787789 kJ/mol
# Density = 2.162731 g / cm^3
# Si number density = 21.676651 Si / 1000 Ang^3
#
#
#
# Elastic Constant Matrix: (Units=GPa)
#
#
# Indices 1 2 3 4 5 6 
#
# 1 124.3449 43.6300 88.6494 0.0000 0.0000 0.0000
# 2 43.6300 49.0801 34.9855 0.0000 0.0000 0.0000
# 3 88.6494 34.9855 167.1427 0.0000 0.0000 0.0000
# 4 0.0000 0.0000 0.0000 -11.1643 0.0000 0.0000
# 5 0.0000 0.0000 0.0000 0.0000 38.0148 0.0000
# 6 0.0000 0.0000 0.0000 0.0000 0.0000 32.8070
#
#
#
# Elastic Compliance Matrix: (Units=1/GPa)
#
#
# Indices 1 2 3 4 5 6 
#
# 1 0.016059 -0.009643 -0.006499 0.000000 0.000000 0.000000
# 2 -0.009643 0.029739 -0.001110 0.000000 0.000000 0.000000
# 3 -0.006499 -0.001110 0.009662 0.000000 0.000000 0.000000
# 4 0.000000 0.000000 0.000000 -0.089571 0.000000 0.000000
# 5 0.000000 0.000000 0.000000 0.000000 0.026306 0.000000
# 6 0.000000 0.000000 0.000000 0.000000 0.000000 0.030481
#
#
# Mechanical properties :
#
#
# Convention : Reuss Voigt Hill
#
# Bulk Modulus (GPa) = 47.72079 75.01083 61.36581
# Shear Modulus (GPa) = 77.92365 23.48501 50.70433
#
# Velocity S-wave (km/s) = 6.00219 3.29511 4.84169
# Velocity P-wave (km/s) = 8.37243 7.01118 7.72186
#
# Compressibility (1/GPa) = 0.02095523
#
# Stress axis : x y z
#
# Youngs Moduli (GPa) = 62.27013 33.62638 103.49580
#
# Poissons Ratio (x) = 0.32426 0.67262
# Poissons Ratio (y) = 0.60048 0.11490
# Poissons Ratio (z) = 0.40469 0.03733
#
# Static dielectric constant tensor:
#      x y z
#    x 4.105130 0.000000 0.000000 
#    y 0.000000 3.627730 0.000000 
#    z 0.000000 0.000000 4.108580 
# 
# 
# High freq. dielectric constant tensor:
#      x y z
#    x 1.849390 0.000000 0.000000 
#    y 0.000000 1.836140 0.000000 
#    z 0.000000 0.000000 1.843100 
# 
# From -- ./inp_files/17094.got.cif
#   From: 2010.03.12/outbox.cif.g09.slc.cpg/sg55_9_cif.got.tgz:17094.got - 2010.04.16 15:19:21.
