data_PCOD8227113
_publ_section_title
;
Structure prediction by ZEFSAII (Michael W. Deem and Ramdas Pophale) SiO2 
 PCOD8227113
Probable space group: P B A M
;
_chemical_formula_sum "Si O2"
_cell_formula_units_Z 52
_cell_length_a 14.635425
_cell_length_b 19.250436
_cell_length_c 9.129409
_cell_angle_alpha 90.000000
_cell_angle_beta 90.000000
_cell_angle_gamma 90.000000
_cell_volume 2572.104284
_symmetry_space_group_name_H-M "P B A M"
_symmetry_group_IT_number 55
_symmetry_cell_setting 'orthorhombic'
loop_
_space_group_symop_operation_xyz
x,y,z
-x,-y,z
1/2+x,1/2-y,-z
1/2-x,1/2+y,-z
-x,-y,-z
x,y,-z
1/2-x,1/2+y,z
1/2+x,1/2-y,z
loop_
_atom_site_type_symbol
_atom_site_label
_atom_site_fract_x
_atom_site_fract_y
_atom_site_fract_z
Si Si1 0.181189 0.067793 0.338729
Si Si2 0.500000 0.500000 0.252072
Si Si3 0.598302 0.631140 0.163041
Si Si4 0.721463 0.297162 0.826369
Si Si5 0.090834 0.735870 0.670392
Si Si6 0.237795 0.428411 0.332885
Si Si7 0.398195 0.815384 0.666461
O O1 0.201140 0.099134 0.500000
O O2 0.180153 0.128422 0.219800
O O3 0.259693 0.010845 0.296845
O O4 0.084740 0.026928 0.348416
O O5 0.533500 0.564058 0.153391
O O6 0.556142 0.689708 0.268996
O O7 0.697952 0.613517 0.223200
O O8 0.609448 0.661672 0.000000
O O9 0.822004 0.290547 0.758816
O O10 0.655052 0.236520 0.772991
O O11 0.727624 0.294407 0.000000
O O12 0.116385 0.742234 0.500000
O O13 0.006537 0.683386 0.697845
O O14 0.272340 0.417542 0.500000
O O15 0.137403 0.394663 0.311991
O O16 0.380293 0.789811 0.500000
#
# Coordination Sequence:
#
# PCOD8227113 Si02
#       7
#     8   4   8   8   8   8   8
#     4  10  21  38  61  87 119 158 202 253 306 365
#     4  10  22  36  58  92 128 160 202 246 310 382
#     4  11  21  34  54  84 121 160 194 240 302 365
#     4  12  25  40  60  90 126 164 203 252 312 374
#     4  11  23  39  61  87 118 159 207 257 305 363
#     4   9  19  37  60  84 112 150 195 244 298 356
#     4  10  21  39  64  89 115 153 203 255 305 359
#
# _framework density 20.216911
#
# number of rings (size 3 to 8) (size 9 to 14) (size 15 to 20)
#    0.000    1.538    1.538    3.692    0.000    8.615 
#    0.000    0.769    0.000    4.615    0.000    0.000 
#    0.000    0.000    0.000    0.000    0.000    0.000 
#
# Total GULP energy -644662.327259 kJ/mol
# GULP energy per Si atom -12397.352447 kJ/mol
# Density = 2.017090 g / cm^3
# Si number density = 20.216911 Si / 1000 Ang^3
#
#
#
# Elastic Constant Matrix: (Units=GPa)
#
#
# Indices 1 2 3 4 5 6 
#
# 1 85.5192 25.1261 32.7684 0.0000 0.0000 0.0000
# 2 25.1261 78.2928 26.6427 0.0000 0.0000 0.0000
# 3 32.7684 26.6427 124.4885 0.0000 0.0000 0.0000
# 4 0.0000 0.0000 0.0000 18.8448 0.0000 0.0000
# 5 0.0000 0.0000 0.0000 0.0000 17.1839 0.0000
# 6 0.0000 0.0000 0.0000 0.0000 0.0000 30.4059
#
#
#
# Elastic Compliance Matrix: (Units=1/GPa)
#
#
# Indices 1 2 3 4 5 6 
#
# 1 0.013817 -0.003448 -0.002899 0.000000 0.000000 0.000000
# 2 -0.003448 0.014636 -0.002225 0.000000 0.000000 0.000000
# 3 -0.002899 -0.002225 0.009272 0.000000 0.000000 0.000000
# 4 0.000000 0.000000 0.000000 0.053065 0.000000 0.000000
# 5 0.000000 0.000000 0.000000 0.000000 0.058194 0.000000
# 6 0.000000 0.000000 0.000000 0.000000 0.000000 0.032888
#
#
# Mechanical properties :
#
#
# Convention : Reuss Voigt Hill
#
# Bulk Modulus (GPa) = 48.58612 50.81941 49.70276
# Shear Modulus (GPa) = 24.28636 26.87114 25.57875
#
# Velocity S-wave (km/s) = 3.46972 3.64969 3.56085
# Velocity P-wave (km/s) = 6.33534 6.55378 6.44549
#
# Compressibility (1/GPa) = 0.02058201
#
# Stress axis : x y z
#
# Youngs Moduli (GPa) = 72.37415 68.32406 107.84988
#
# Poissons Ratio (x) = 0.23556 0.31267
# Poissons Ratio (y) = 0.24952 0.23995
# Poissons Ratio (z) = 0.20982 0.15201
#
# Static dielectric constant tensor:
#      x y z
#    x 3.624060 0.000000 0.000000 
#    y 0.000000 3.803650 0.000000 
#    z 0.000000 0.000000 3.583650 
# 
# 
# High freq. dielectric constant tensor:
#      x y z
#    x 1.779390 0.000000 0.000000 
#    y 0.000000 1.786020 0.000000 
#    z 0.000000 0.000000 1.787290 
# 
# From -- ./inp_files/5906.got.cif
#   From: 2010.03.12/outbox.cif.g09.slc.cpg/sg55_3_cif.got.tgz:5906.got - 2010.04.16 15:19:21.
