data_PCOD8227769
_publ_section_title
;
Structure prediction by ZEFSAII (Michael W. Deem and Ramdas Pophale) SiO2 
 PCOD8227769
Probable space group: P B A M
;
_chemical_formula_sum "Si O2"
_cell_formula_units_Z 40
_cell_length_a 13.412300
_cell_length_b 8.568553
_cell_length_c 14.509685
_cell_angle_alpha 90.000000
_cell_angle_beta 90.000000
_cell_angle_gamma 90.000000
_cell_volume 1667.511088
_symmetry_space_group_name_H-M "P B A M"
_symmetry_group_IT_number 55
_symmetry_cell_setting 'orthorhombic'
loop_
_space_group_symop_operation_xyz
x,y,z
-x,-y,z
1/2+x,1/2-y,-z
1/2-x,1/2+y,-z
-x,-y,-z
x,y,-z
1/2-x,1/2+y,z
1/2+x,1/2-y,z
loop_
_atom_site_type_symbol
_atom_site_label
_atom_site_fract_x
_atom_site_fract_y
_atom_site_fract_z
Si Si1 0.050142 0.645549 0.837819
Si Si2 0.110371 0.542384 0.642121
Si Si3 0.209863 0.866782 0.103514
Si Si4 0.786437 0.772870 0.398676
Si Si5 0.637491 0.331766 0.206665
O O1 0.103481 0.561920 0.751367
O O2 0.131838 0.723817 0.902546
O O3 0.000000 0.500000 0.892902
O O4 0.977212 0.781463 0.801268
O O5 0.165382 0.697840 0.602985
O O6 0.189472 0.408376 0.616497
O O7 0.000000 0.500000 0.600767
O O8 0.300575 0.815684 0.167944
O O9 0.156422 0.017214 0.145351
O O10 0.246417 0.903880 0.000000
O O11 0.827081 0.823941 0.500000
O O12 0.838243 0.866764 0.314144
#
# Coordination Sequence:
#
# PCOD8227769 Si02
#       5
#     8   8   8   8   8
#     4  11  23  45  73 101 140 196 238 306 386 441
#     4  11  24  48  71 108 145 197 245 309 377 442
#     4  12  27  45  74 105 143 195 247 311 379 453
#     4  12  25  44  76 109 145 198 250 304 374 457
#     4  12  24  46  70 105 149 186 246 308 375 444
#
# _framework density 23.987846000000001
#
# number of rings (size 3 to 8) (size 9 to 14) (size 15 to 20)
#    0.000    0.400    6.000    4.200    0.000    4.400 
#    0.000    1.000    0.000    3.600    0.000    0.000 
#    0.000    0.000    0.000    0.000    0.000    0.000 
#
# Total GULP energy -495695.487549 kJ/mol
# GULP energy per Si atom -12392.387189 kJ/mol
# Density = 2.393325 g / cm^3
# Si number density = 23.987846 Si / 1000 Ang^3
#
#
#
# Elastic Constant Matrix: (Units=GPa)
#
#
# Indices 1 2 3 4 5 6 
#
# 1 124.5893 43.0497 22.5582 0.0000 0.0000 0.0000
# 2 43.0497 92.6193 22.2636 0.0000 0.0000 0.0000
# 3 22.5582 22.2636 148.0357 0.0000 0.0000 0.0000
# 4 0.0000 0.0000 0.0000 23.0589 0.0000 0.0000
# 5 0.0000 0.0000 0.0000 0.0000 10.1571 0.0000
# 6 0.0000 0.0000 0.0000 0.0000 0.0000 61.4141
#
#
#
# Elastic Compliance Matrix: (Units=1/GPa)
#
#
# Indices 1 2 3 4 5 6 
#
# 1 0.009659 -0.004291 -0.000827 0.000000 0.000000 0.000000
# 2 -0.004291 0.013108 -0.001318 0.000000 0.000000 0.000000
# 3 -0.000827 -0.001318 0.007079 0.000000 0.000000 0.000000
# 4 0.000000 0.000000 0.000000 0.043367 0.000000 0.000000
# 5 0.000000 0.000000 0.000000 0.000000 0.098454 0.000000
# 6 0.000000 0.000000 0.000000 0.000000 0.000000 0.016283
#
#
# Mechanical properties :
#
#
# Convention : Reuss Voigt Hill
#
# Bulk Modulus (GPa) = 58.90564 60.10972 59.50768
# Shear Modulus (GPa) = 24.21570 37.41753 30.81661
#
# Velocity S-wave (km/s) = 3.18071 3.95378 3.58813
# Velocity P-wave (km/s) = 6.17244 6.77909 6.48286
#
# Compressibility (1/GPa) = 0.01697630
#
# Stress axis : x y z
#
# Youngs Moduli (GPa) = 103.53477 76.28985 141.25845
#
# Poissons Ratio (x) = 0.32733 0.11675
# Poissons Ratio (y) = 0.44423 0.18611
# Poissons Ratio (z) = 0.08557 0.10051
#
# Static dielectric constant tensor:
#      x y z
#    x 4.610620 0.000000 0.000000 
#    y 0.000000 4.450560 0.000000 
#    z 0.000000 0.000000 4.242460 
# 
# 
# High freq. dielectric constant tensor:
#      x y z
#    x 1.948880 0.000000 0.000000 
#    y 0.000000 1.955390 0.000000 
#    z 0.000000 0.000000 1.944810 
# 
# From -- ./inp_files/18743.got.cif
#   From: 2010.03.12/outbox.cif.g09.slc.cpg/sg55_10_cif.got.tgz:18743.got - 2010.04.16 15:19:21.
