data_PCOD8227846
_publ_section_title
;
Structure prediction by ZEFSAII (Michael W. Deem and Ramdas Pophale) SiO2 
 PCOD8227846
Probable space group: P C C N
;
_chemical_formula_sum "Si O2"
_cell_formula_units_Z 56
_cell_length_a 32.569219
_cell_length_b 17.896838
_cell_length_c 5.234979
_cell_angle_alpha 90.000000
_cell_angle_beta 90.000000
_cell_angle_gamma 90.000000
_cell_volume 3051.396159
_symmetry_space_group_name_H-M "P C C N"
_symmetry_group_IT_number 56
_symmetry_cell_setting 'orthorhombic'
loop_
_space_group_symop_operation_xyz
x,y,z
1/2-x,1/2-y,z
1/2+x,-y,1/2-z
-x,1/2+y,1/2-z
-x,-y,-z
1/2+x,1/2+y,-z
1/2-x,y,1/2+z
x,1/2-y,1/2+z
loop_
_atom_site_type_symbol
_atom_site_label
_atom_site_fract_x
_atom_site_fract_y
_atom_site_fract_z
Si Si1 0.060516 0.296520 0.718655
Si Si2 0.938706 0.172087 0.779658
Si Si3 0.151162 0.298919 0.775877
Si Si4 0.026436 0.661560 0.219986
Si Si5 0.843002 0.203770 0.770142
Si Si6 0.724588 0.909797 0.248223
Si Si7 0.224604 0.915863 0.253975
O O1 0.056639 0.269406 0.426933
O O2 0.105184 0.334025 0.758452
O O3 0.022588 0.353064 0.765883
O O4 0.954751 0.124668 0.536016
O O5 0.963272 0.250075 0.793149
O O6 0.890698 0.185083 0.759084
O O7 0.950380 0.125983 0.035222
O O8 0.158238 0.239541 0.549671
O O9 0.181721 0.367415 0.746432
O O10 0.830963 0.255457 0.531818
O O11 0.818389 0.126802 0.754076
O O12 0.750327 0.886391 0.497000
O O13 0.714015 0.996935 0.249285
O O14 0.248427 0.892919 0.510108
#
# Coordination Sequence:
#
# PCOD8227846 Si02
#       7
#     8   8   8   8   8   8   8
#     4  10  16  25  41  66 102 129 153 195 237 286
#     4  10  16  25  41  67  95 125 162 195 244 287
#     4  10  21  32  50  84 108 123 165 209 259 288
#     4  10  14  25  41  61  97 131 159 184 244 294
#     4  12  21  32  51  77 106 125 166 223 257 283
#     4  10  21  39  58  71  99 138 172 203 244 313
#     4  10  23  40  54  72  96 138 177 199 251 314
#
# _framework density 18.352256000000001
#
# number of rings (size 3 to 8) (size 9 to 14) (size 15 to 20)
#    0.000    1.714    5.714    1.714    0.000    3.429 
#    0.000    0.000    0.000    0.000    0.000    2.000 
#    0.000    0.000    0.000    0.000    0.000    0.000 
#
# Total GULP energy -694128.263904 kJ/mol
# GULP energy per Si atom -12395.147570 kJ/mol
# Density = 1.831049 g / cm^3
# Si number density = 18.352256 Si / 1000 Ang^3
#
#
#
# Elastic Constant Matrix: (Units=GPa)
#
#
# Indices 1 2 3 4 5 6 
#
# 1 113.6788 41.5651 20.6702 0.0000 0.0000 0.0000
# 2 41.5651 27.6107 6.9246 0.0000 0.0000 0.0000
# 3 20.6702 6.9246 124.3255 0.0000 0.0000 0.0000
# 4 0.0000 0.0000 0.0000 5.3951 0.0000 0.0000
# 5 0.0000 0.0000 0.0000 0.0000 23.7772 0.0000
# 6 0.0000 0.0000 0.0000 0.0000 0.0000 1.4480
#
#
#
# Elastic Compliance Matrix: (Units=1/GPa)
#
#
# Indices 1 2 3 4 5 6 
#
# 1 0.019900 -0.029541 -0.001663 0.000000 0.000000 0.000000
# 2 -0.029541 0.080583 0.000423 0.000000 0.000000 0.000000
# 3 -0.001663 0.000423 0.008296 0.000000 0.000000 0.000000
# 4 0.000000 0.000000 0.000000 0.185354 0.000000 0.000000
# 5 0.000000 0.000000 0.000000 0.000000 0.042057 0.000000
# 6 0.000000 0.000000 0.000000 0.000000 0.000000 0.690628
#
#
# Mechanical properties :
#
#
# Convention : Reuss Voigt Hill
#
# Bulk Modulus (GPa) = 21.17863 44.88167 33.03015
# Shear Modulus (GPa) = 4.52849 19.22105 11.87477
#
# Velocity S-wave (km/s) = 1.57254 3.23977 2.54647
# Velocity P-wave (km/s) = 3.85517 6.20513 5.16556
#
# Compressibility (1/GPa) = 0.04721740
#
# Stress axis : x y z
#
# Youngs Moduli (GPa) = 50.25030 12.40962 120.53479
#
# Poissons Ratio (x) = 0.36659 0.20048
# Poissons Ratio (y) = 1.48444 -0.05101
# Poissons Ratio (z) = 0.08358 -0.00525
#
# Static dielectric constant tensor:
#      x y z
#    x 3.538110 0.000000 0.000000 
#    y 0.000000 2.714480 0.000000 
#    z 0.000000 0.000000 5.472950 
# 
# 
# High freq. dielectric constant tensor:
#      x y z
#    x 1.728730 0.000000 0.000000 
#    y 0.000000 1.629940 0.000000 
#    z 0.000000 0.000000 1.750870 
# 
# From -- ./inp_files/1346.got.cif
#   From: 2010.03.12/outbox.cif.g09.slc.cpg/sg56_1_cif.got.tgz:1346.got - 2010.04.16 15:33:40.
