data_PCOD8227296
_publ_section_title
;
Structure prediction by ZEFSAII (Michael W. Deem and Ramdas Pophale) SiO2 
 PCOD8227296
Probable space group: P B A M
;
_chemical_formula_sum "Si O2"
_cell_formula_units_Z 64
_cell_length_a 10.936748
_cell_length_b 17.993130
_cell_length_c 15.304319
_cell_angle_alpha 90.000000
_cell_angle_beta 90.000000
_cell_angle_gamma 90.000000
_cell_volume 3011.680747
_symmetry_space_group_name_H-M "P B A M"
_symmetry_group_IT_number 55
_symmetry_cell_setting 'orthorhombic'
loop_
_space_group_symop_operation_xyz
x,y,z
-x,-y,z
1/2+x,1/2-y,-z
1/2-x,1/2+y,-z
-x,-y,-z
x,y,-z
1/2-x,1/2+y,z
1/2+x,1/2-y,z
loop_
_atom_site_type_symbol
_atom_site_label
_atom_site_fract_x
_atom_site_fract_y
_atom_site_fract_z
Si Si1 0.630717 0.815059 0.403373
Si Si2 0.185414 0.107876 0.275765
Si Si3 0.791211 0.811077 0.094555
Si Si4 0.076719 0.428684 0.597026
Si Si5 0.553931 0.684350 0.699552
Si Si6 0.525771 0.778061 0.138372
Si Si7 0.734605 0.560360 0.254328
Si Si8 0.415335 0.929439 0.901381
O O1 0.692017 0.820278 0.500000
O O2 0.701697 0.861473 0.330325
O O3 0.498472 0.852657 0.406714
O O4 0.618361 0.726620 0.381463
O O5 0.195317 0.132181 0.174550
O O6 0.068812 0.141129 0.326679
O O7 0.176127 0.019170 0.276517
O O8 0.664410 0.763056 0.102811
O O9 0.912622 0.759976 0.087603
O O10 0.784308 0.852911 0.000000
O O11 0.129949 0.446166 0.500000
O O12 0.182467 0.414823 0.665475
O O13 0.000000 0.500000 0.629519
O O14 0.518684 0.752349 0.762312
O O15 0.634565 0.624746 0.751491
O O16 0.503352 0.865594 0.135059
O O17 0.799838 0.558532 0.160939
O O18 0.500000 0.000000 0.898794
O O19 0.368771 0.913267 0.000000
#
# Coordination Sequence:
#
# PCOD8227296 Si02
#       8
#     8   8   8   8   8   8   8   8
#     4  11  24  44  69  98 130 168 218 278 335 396
#     4  11  25  44  66  94 135 178 219 273 333 402
#     4  11  22  38  65  95 130 175 222 274 338 396
#     4  10  21  40  67  98 126 161 215 272 332 393
#     4  11  26  43  65  96 133 178 222 269 334 409
#     4  11  22  41  63  92 132 175 224 281 333 394
#     4  12  24  42  69  95 135 177 221 274 334 397
#     4  11  24  39  63  99 135 176 227 279 333 388
#
# _framework density 21.250592000000001
#
# number of rings (size 3 to 8) (size 9 to 14) (size 15 to 20)
#    0.000    1.000    2.500    4.125    3.500    2.500 
#    0.000    3.125    0.000    6.000    0.000    0.000 
#    0.000    0.000    0.000    0.000    0.000    0.000 
#
# Total GULP energy -793335.374486 kJ/mol
# GULP energy per Si atom -12395.865226 kJ/mol
# Density = 2.120222 g / cm^3
# Si number density = 21.250592 Si / 1000 Ang^3
#
#
#
# Elastic Constant Matrix: (Units=GPa)
#
#
# Indices 1 2 3 4 5 6 
#
# 1 77.3530 30.2500 21.5410 0.0000 0.0000 0.0000
# 2 30.2500 127.2108 39.2712 0.0000 0.0000 0.0000
# 3 21.5410 39.2712 109.3194 0.0000 0.0000 0.0000
# 4 0.0000 0.0000 0.0000 22.1795 0.0000 0.0000
# 5 0.0000 0.0000 0.0000 0.0000 -4.3485 0.0000
# 6 0.0000 0.0000 0.0000 0.0000 0.0000 27.1869
#
#
#
# Elastic Compliance Matrix: (Units=1/GPa)
#
#
# Indices 1 2 3 4 5 6 
#
# 1 0.014571 -0.002900 -0.001829 0.000000 0.000000 0.000000
# 2 -0.002900 0.009419 -0.002812 0.000000 0.000000 0.000000
# 3 -0.001829 -0.002812 0.010518 0.000000 0.000000 0.000000
# 4 0.000000 0.000000 0.000000 0.045087 0.000000 0.000000
# 5 0.000000 0.000000 0.000000 0.000000 -0.229962 0.000000
# 6 0.000000 0.000000 0.000000 0.000000 0.000000 0.036782
#
#
# Mechanical properties :
#
#
# Convention : Reuss Voigt Hill
#
# Bulk Modulus (GPa) = 51.48021 55.11197 53.29609
# Shear Modulus (GPa) = -54.33215 23.85828 -15.23693
#
# Velocity S-wave (km/s) = -5.06190 3.35432 -2.68061
# Velocity P-wave (km/s) = 3.14419 6.40255 3.94377
#
# Compressibility (1/GPa) = 0.01942494
#
# Stress axis : x y z
#
# Youngs Moduli (GPa) = 68.62769 106.17132 95.07361
#
# Poissons Ratio (x) = 0.30792 0.17393
# Poissons Ratio (y) = 0.19904 0.26735
# Poissons Ratio (z) = 0.12555 0.29856
#
# Static dielectric constant tensor:
#      x y z
#    x 4.112730 0.000000 0.000000 
#    y 0.000000 3.861850 0.000000 
#    z 0.000000 0.000000 4.032220 
# 
# 
# High freq. dielectric constant tensor:
#      x y z
#    x 1.826540 0.000000 0.000000 
#    y 0.000000 1.833570 0.000000 
#    z 0.000000 0.000000 1.841230 
# 
# From -- ./inp_files/18586.got.cif
#   From: 2010.03.12/outbox.cif.g09.slc.cpg/sg55_10_cif.got.tgz:18586.got - 2010.04.16 15:19:21.
