data_PCOD8227925
_publ_section_title
;
Structure prediction by ZEFSAII (Michael W. Deem and Ramdas Pophale) SiO2 
 PCOD8227925
Probable space group: P C C N
;
_chemical_formula_sum "Si O2"
_cell_formula_units_Z 56
_cell_length_a 8.934451
_cell_length_b 17.381042
_cell_length_c 19.187361
_cell_angle_alpha 90.000000
_cell_angle_beta 90.000000
_cell_angle_gamma 90.000000
_cell_volume 2979.606596
_symmetry_space_group_name_H-M "P C C N"
_symmetry_group_IT_number 56
_symmetry_cell_setting 'orthorhombic'
loop_
_space_group_symop_operation_xyz
x,y,z
1/2-x,1/2-y,z
1/2+x,-y,1/2-z
-x,1/2+y,1/2-z
-x,-y,-z
1/2+x,1/2+y,-z
1/2-x,y,1/2+z
x,1/2-y,1/2+z
loop_
_atom_site_type_symbol
_atom_site_label
_atom_site_fract_x
_atom_site_fract_y
_atom_site_fract_z
Si Si1 0.445263 0.008658 0.333118
Si Si2 0.373233 0.352689 0.931566
Si Si3 0.383143 0.017561 0.800098
Si Si4 0.346788 0.315755 0.313437
Si Si5 0.619736 0.538868 0.950287
Si Si6 0.915942 0.280570 0.909693
Si Si7 0.924337 0.455275 0.937130
O O1 0.451512 0.085749 0.379562
O O2 0.276362 0.978508 0.318252
O O3 0.531143 0.027163 0.260928
O O4 0.533416 0.942686 0.377369
O O5 0.224479 0.326097 0.891404
O O6 0.486992 0.283806 0.949917
O O7 0.322956 0.386686 0.006894
O O8 0.346370 0.104306 0.771925
O O9 0.486617 0.021571 0.867693
O O10 0.250000 0.250000 0.272909
O O11 0.515638 0.288404 0.330826
O O12 0.754281 0.482273 0.930749
O O13 0.500000 0.500000 0.000000
O O14 0.750000 0.250000 0.902103
O O15 0.922447 0.363136 0.948824
O O16 0.000000 0.500000 0.000000
#
# Coordination Sequence:
#
# PCOD8227925 Si02
#       7
#     8   8   8   8   8   8   8
#     4  10  19  32  50  76 105 137 176 217 263 318
#     4   9  18  33  52  75 104 140 175 213 264 318
#     4  10  20  33  52  77 105 139 175 217 264 317
#     4   8  16  31  49  70 101 136 173 214 260 317
#     4  10  18  31  51  76 106 139 174 218 266 316
#     4  10  18  29  51  80 106 134 177 225 265 306
#     4  11  21  35  55  82 110 141 181 224 268 320
#
# _framework density 18.794426000000001
#
# number of rings (size 3 to 8) (size 9 to 14) (size 15 to 20)
#    0.000    2.286    0.000    6.000    0.000    1.143 
#    0.000    0.000    0.000   11.143    0.000   21.000 
#    0.000    0.000    0.000    0.000    0.000    0.000 
#
# Total GULP energy -693757.937823 kJ/mol
# GULP energy per Si atom -12388.534604 kJ/mol
# Density = 1.875165 g / cm^3
# Si number density = 18.794426 Si / 1000 Ang^3
#
#
#
# Elastic Constant Matrix: (Units=GPa)
#
#
# Indices 1 2 3 4 5 6 
#
# 1 127.1314 32.9412 42.0113 0.0000 0.0000 0.0000
# 2 32.9412 82.1523 32.5731 0.0000 0.0000 0.0000
# 3 42.0113 32.5731 98.2047 0.0000 0.0000 0.0000
# 4 0.0000 0.0000 0.0000 19.2015 0.0000 0.0000
# 5 0.0000 0.0000 0.0000 0.0000 30.0930 0.0000
# 6 0.0000 0.0000 0.0000 0.0000 0.0000 28.7528
#
#
#
# Elastic Compliance Matrix: (Units=1/GPa)
#
#
# Indices 1 2 3 4 5 6 
#
# 1 0.009607 -0.002559 -0.003261 0.000000 0.000000 0.000000
# 2 -0.002559 0.014697 -0.003780 0.000000 0.000000 0.000000
# 3 -0.003261 -0.003780 0.012832 0.000000 0.000000 0.000000
# 4 0.000000 0.000000 0.000000 0.052079 0.000000 0.000000
# 5 0.000000 0.000000 0.000000 0.000000 0.033230 0.000000
# 6 0.000000 0.000000 0.000000 0.000000 0.000000 0.034779
#
#
# Mechanical properties :
#
#
# Convention : Reuss Voigt Hill
#
# Bulk Modulus (GPa) = 55.75551 58.05996 56.90774
# Shear Modulus (GPa) = 27.41185 28.94033 28.17609
#
# Velocity S-wave (km/s) = 3.82319 3.92833 3.87612
# Velocity P-wave (km/s) = 7.01565 7.17878 7.09769
#
# Compressibility (1/GPa) = 0.01793545
#
# Stress axis : x y z
#
# Youngs Moduli (GPa) = 104.09607 68.03879 77.93274
#
# Poissons Ratio (x) = 0.17412 0.25412
# Poissons Ratio (y) = 0.26639 0.29460
# Poissons Ratio (z) = 0.33943 0.25720
#
# Static dielectric constant tensor:
#      x y z
#    x 3.834230 0.000000 0.000000 
#    y 0.000000 3.881750 0.000000 
#    z 0.000000 0.000000 3.384680 
# 
# 
# High freq. dielectric constant tensor:
#      x y z
#    x 1.754470 0.000000 0.000000 
#    y 0.000000 1.714880 0.000000 
#    z 0.000000 0.000000 1.692170 
# 
# From -- ./inp_files/15172.got.cif
#   From: 2010.03.12/outbox.cif.g09.slc.cpg/sg56_8_cif.got.tgz:15172.got - 2010.04.16 15:33:40.
