data_PCOD8227009
_publ_section_title
;
Structure prediction by ZEFSAII (Michael W. Deem and Ramdas Pophale) SiO2 
 PCOD8227009
Probable space group: P B A M
;
_chemical_formula_sum "Si O2"
_cell_formula_units_Z 36
_cell_length_a 11.632061
_cell_length_b 4.949878
_cell_length_c 26.591945
_cell_angle_alpha 90.000000
_cell_angle_beta 90.000000
_cell_angle_gamma 90.000000
_cell_volume 1531.091938
_symmetry_space_group_name_H-M "P B A M"
_symmetry_group_IT_number 55
_symmetry_cell_setting 'orthorhombic'
loop_
_space_group_symop_operation_xyz
x,y,z
-x,-y,z
1/2+x,1/2-y,-z
1/2-x,1/2+y,-z
-x,-y,-z
x,y,-z
1/2-x,1/2+y,z
1/2+x,1/2-y,z
loop_
_atom_site_type_symbol
_atom_site_label
_atom_site_fract_x
_atom_site_fract_y
_atom_site_fract_z
Si Si1 0.500000 0.500000 0.680510
Si Si2 0.677606 0.663164 0.500000
Si Si3 0.330551 0.232881 0.608236
Si Si4 0.827039 0.913555 0.763382
Si Si5 0.175815 0.457195 0.000000
Si Si6 0.000000 0.000000 0.848671
Si Si7 0.500000 0.000000 0.915398
O O1 0.434681 0.277879 0.646746
O O2 0.591318 0.346944 0.716050
O O3 0.705783 0.344839 0.500000
O O4 0.612954 0.736012 0.552147
O O5 0.223741 0.438354 0.616336
O O6 0.782026 0.219292 0.760838
O O7 0.896579 0.881479 0.815082
O O8 0.103563 0.394244 0.049977
O O9 0.287650 0.269604 0.000000
O O10 0.043921 0.750701 0.882130
#
# Coordination Sequence:
#
# PCOD8227009 Si02
#       7
#     4   4   8   8   4   4   4
#     4  11  24  39  62  86 116 155 196 241 300 360
#     4   8  16  33  54  79 112 146 186 235 286 345
#     4  10  21  37  58  84 115 151 191 239 292 352
#     4  11  25  43  62  88 120 155 199 251 304 358
#     4  11  24  41  64  94 134 173 200 243 300 346
#     4  11  24  41  66  92 120 161 206 255 300 344
#     4  11  24  42  64  98 128 158 214 251 282 358
#
# _framework density 23.512632
#
# number of rings (size 3 to 8) (size 9 to 14) (size 15 to 20)
#    0.000    1.556    0.000    4.000    0.000   12.889 
#    0.000    0.000    0.000    8.000    0.000    0.000 
#    0.000    0.000    0.000    0.000    0.000    0.000 
#
# Total GULP energy -446488.282611 kJ/mol
# GULP energy per Si atom -12402.452295 kJ/mol
# Density = 2.345912 g / cm^3
# Si number density = 23.512632 Si / 1000 Ang^3
#
#
#
# Elastic Constant Matrix: (Units=GPa)
#
#
# Indices 1 2 3 4 5 6 
#
# 1 85.4237 10.2257 49.2226 0.0000 0.0000 0.0000
# 2 10.2257 85.9087 25.9540 0.0000 0.0000 0.0000
# 3 49.2226 25.9540 162.8349 0.0000 0.0000 0.0000
# 4 0.0000 0.0000 0.0000 17.9937 0.0000 0.0000
# 5 0.0000 0.0000 0.0000 0.0000 10.1683 0.0000
# 6 0.0000 0.0000 0.0000 0.0000 0.0000 24.9783
#
#
#
# Elastic Compliance Matrix: (Units=1/GPa)
#
#
# Indices 1 2 3 4 5 6 
#
# 1 0.014189 -0.000413 -0.004223 0.000000 0.000000 0.000000
# 2 -0.000413 0.012241 -0.001826 0.000000 0.000000 0.000000
# 3 -0.004223 -0.001826 0.007709 0.000000 0.000000 0.000000
# 4 0.000000 0.000000 0.000000 0.055575 0.000000 0.000000
# 5 0.000000 0.000000 0.000000 0.000000 0.098345 0.000000
# 6 0.000000 0.000000 0.000000 0.000000 0.000000 0.040035
#
#
# Mechanical properties :
#
#
# Convention : Reuss Voigt Hill
#
# Bulk Modulus (GPa) = 47.13838 56.10799 51.62319
# Shear Modulus (GPa) = 20.15388 27.21239 23.68313
#
# Velocity S-wave (km/s) = 2.93089 3.40568 3.17717
# Velocity P-wave (km/s) = 5.61650 6.27531 5.95503
#
# Compressibility (1/GPa) = 0.02121414
#
# Stress axis : x y z
#
# Youngs Moduli (GPa) = 70.47513 81.69163 129.71935
#
# Poissons Ratio (x) = 0.03374 0.54786
# Poissons Ratio (y) = 0.02911 0.23690
# Poissons Ratio (z) = 0.29765 0.14919
#
# Static dielectric constant tensor:
#      x y z
#    x 3.881100 0.000000 0.000000 
#    y 0.000000 3.945090 0.000000 
#    z 0.000000 0.000000 4.593240 
# 
# 
# High freq. dielectric constant tensor:
#      x y z
#    x 1.908020 0.000000 0.000000 
#    y 0.000000 1.929590 0.000000 
#    z 0.000000 0.000000 1.954920 
# 
# From -- ./inp_files/23540.got.cif
#   From: 2010.03.12/outbox.cif.g09.slc.cpg/sg55_12_cif.got.tgz:23540.got - 2010.04.16 15:19:21.
