data_PCOD8227079
_publ_section_title
;
Structure prediction by ZEFSAII (Michael W. Deem and Ramdas Pophale) SiO2 
 PCOD8227079
Probable space group: P B A M
;
_chemical_formula_sum "Si O2"
_cell_formula_units_Z 48
_cell_length_a 17.004765
_cell_length_b 16.380569
_cell_length_c 9.154908
_cell_angle_alpha 90.000000
_cell_angle_beta 90.000000
_cell_angle_gamma 90.000000
_cell_volume 2550.078809
_symmetry_space_group_name_H-M "P B A M"
_symmetry_group_IT_number 55
_symmetry_cell_setting 'orthorhombic'
loop_
_space_group_symop_operation_xyz
x,y,z
-x,-y,z
1/2+x,1/2-y,-z
1/2-x,1/2+y,-z
-x,-y,-z
x,y,-z
1/2-x,1/2+y,z
1/2+x,1/2-y,z
loop_
_atom_site_type_symbol
_atom_site_label
_atom_site_fract_x
_atom_site_fract_y
_atom_site_fract_z
Si Si1 0.908605 0.993871 0.668846
Si Si2 0.155093 0.668996 0.327650
Si Si3 0.307312 0.351325 0.669274
Si Si4 0.345640 0.824032 0.169606
Si Si5 0.492959 0.095800 0.830938
Si Si6 0.689084 0.360947 0.828976
O O1 0.892792 0.971487 0.500000
O O2 0.870201 0.080146 0.711290
O O3 0.874599 0.924204 0.771625
O O4 0.000000 0.000000 0.703141
O O5 0.159959 0.655286 0.500000
O O6 0.156079 0.764448 0.284126
O O7 0.076035 0.630107 0.268020
O O8 0.228885 0.623800 0.253641
O O9 0.286572 0.351689 0.500000
O O10 0.226067 0.369762 0.751661
O O11 0.427278 0.861699 0.225069
O O12 0.344926 0.728315 0.206886
O O13 0.334439 0.841405 0.000000
O O14 0.500000 0.000000 0.806125
O O15 0.476180 0.117013 0.000000
O O16 0.703416 0.373715 0.000000
#
# Coordination Sequence:
#
# PCOD8227079 Si02
#       6
#     8   8   8   8   8   8
#     4  10  22  38  58  85 118 150 186 234 285 334
#     4  10  21  38  60  85 113 148 190 232 283 339
#     4   9  20  38  58  83 112 148 188 230 282 338
#     4   9  20  38  58  82 112 150 188 230 283 336
#     4  10  22  38  57  84 117 149 186 233 284 334
#     4  10  21  38  59  83 113 150 192 233 281 337
#
# _framework density 18.822949000000001
#
# number of rings (size 3 to 8) (size 9 to 14) (size 15 to 20)
#    0.000    2.333    0.000    1.000    4.667    3.333 
#    0.000    0.000    0.000    0.000    0.000    0.000 
#    0.000    0.000    0.000    0.000    0.000    0.000 
#
# Total GULP energy -595423.823650 kJ/mol
# GULP energy per Si atom -12404.662993 kJ/mol
# Density = 1.878011 g / cm^3
# Si number density = 18.822949 Si / 1000 Ang^3
#
#
#
# Elastic Constant Matrix: (Units=GPa)
#
#
# Indices 1 2 3 4 5 6 
#
# 1 165.0433 72.2764 69.4542 0.0000 0.0000 0.0000
# 2 72.2764 86.2001 48.4750 0.0000 0.0000 0.0000
# 3 69.4542 48.4750 77.0286 0.0000 0.0000 0.0000
# 4 0.0000 0.0000 0.0000 24.0395 0.0000 0.0000
# 5 0.0000 0.0000 0.0000 0.0000 38.4433 0.0000
# 6 0.0000 0.0000 0.0000 0.0000 0.0000 33.4873
#
#
#
# Elastic Compliance Matrix: (Units=1/GPa)
#
#
# Indices 1 2 3 4 5 6 
#
# 1 0.011394 -0.005845 -0.006596 0.000000 0.000000 0.000000
# 2 -0.005845 0.020953 -0.007916 0.000000 0.000000 0.000000
# 3 -0.006596 -0.007916 0.023911 0.000000 0.000000 0.000000
# 4 0.000000 0.000000 0.000000 0.041598 0.000000 0.000000
# 5 0.000000 0.000000 0.000000 0.000000 0.026012 0.000000
# 6 0.000000 0.000000 0.000000 0.000000 0.000000 0.029862
#
#
# Mechanical properties :
#
#
# Convention : Reuss Voigt Hill
#
# Bulk Modulus (GPa) = 64.32749 78.74259 71.53504
# Shear Modulus (GPa) = 25.04691 28.39844 26.72268
#
# Velocity S-wave (km/s) = 3.65178 3.88843 3.77196
# Velocity P-wave (km/s) = 7.21317 7.87934 7.55360
#
# Compressibility (1/GPa) = 0.01554545
#
# Stress axis : x y z
#
# Youngs Moduli (GPa) = 87.76487 47.72566 41.82166
#
# Poissons Ratio (x) = 0.27893 0.27584
# Poissons Ratio (y) = 0.51294 0.33107
# Poissons Ratio (z) = 0.57887 0.37781
#
# Static dielectric constant tensor:
#      x y z
#    x 3.535590 0.000000 0.000000 
#    y 0.000000 3.554080 0.000000 
#    z 0.000000 0.000000 3.428070 
# 
# 
# High freq. dielectric constant tensor:
#      x y z
#    x 1.739210 0.000000 0.000000 
#    y 0.000000 1.735470 0.000000 
#    z 0.000000 0.000000 1.730430 
# 
# From -- ./inp_files/5646.got.cif
#   From: 2010.03.12/outbox.cif.g09.slc.cpg/sg55_3_cif.got.tgz:5646.got - 2010.04.16 15:19:21.
