data_PCOD8227241
_publ_section_title
;
Structure prediction by ZEFSAII (Michael W. Deem and Ramdas Pophale) SiO2 
 PCOD8227241
Probable space group: P B A M
;
_chemical_formula_sum "Si O2"
_cell_formula_units_Z 48
_cell_length_a 8.691732
_cell_length_b 14.720974
_cell_length_c 15.584228
_cell_angle_alpha 90.000000
_cell_angle_beta 90.000000
_cell_angle_gamma 90.000000
_cell_volume 1994.013829
_symmetry_space_group_name_H-M "P B A M"
_symmetry_group_IT_number 55
_symmetry_cell_setting 'orthorhombic'
loop_
_space_group_symop_operation_xyz
x,y,z
-x,-y,z
1/2+x,1/2-y,-z
1/2-x,1/2+y,-z
-x,-y,-z
x,y,-z
1/2-x,1/2+y,z
1/2+x,1/2-y,z
loop_
_atom_site_type_symbol
_atom_site_label
_atom_site_fract_x
_atom_site_fract_y
_atom_site_fract_z
Si Si1 0.167832 0.129167 0.655128
Si Si2 0.348936 0.198714 0.096389
Si Si3 0.842622 0.533188 0.596353
Si Si4 0.670767 0.129368 0.896404
Si Si5 0.160801 0.042414 0.158403
Si Si6 0.658858 0.702796 0.601771
O O1 0.148063 0.083991 0.747481
O O2 0.301350 0.205577 0.653694
O O3 0.015247 0.175935 0.620661
O O4 0.216613 0.046788 0.593636
O O5 0.291568 0.294036 0.136131
O O6 0.503523 0.159870 0.140093
O O7 0.210913 0.125305 0.097696
O O8 0.394107 0.220800 0.000000
O O9 0.886563 0.560790 0.500000
O O10 0.769765 0.623242 0.638675
O O11 0.000000 0.500000 0.644138
O O12 0.710916 0.036103 0.848365
O O13 0.671167 0.115784 0.000000
O O14 0.000000 0.000000 0.126538
O O15 0.679138 0.718556 0.500000
#
# Coordination Sequence:
#
# PCOD8227241 Si02
#       6
#     8   8   8   8   8   8
#     4  12  26  43  65  96 133 170 216 271 337 404
#     4  10  22  42  71 102 134 179 234 285 328 385
#     4  10  21  39  65  96 127 162 208 261 321 394
#     4  10  22  43  70 100 133 176 232 284 330 388
#     4  12  26  41  62  94 138 182 221 272 340 405
#     4  11  23  43  71  96 125 169 219 273 330 398
#
# _framework density 24.072049
#
# number of rings (size 3 to 8) (size 9 to 14) (size 15 to 20)
#    0.000    1.167    0.000    6.000    0.000   12.000 
#    0.000    1.667    0.000    0.000    0.000    0.000 
#    0.000    0.000    0.000    0.000    0.000    0.000 
#
# Total GULP energy -595130.875117 kJ/mol
# GULP energy per Si atom -12398.559898 kJ/mol
# Density = 2.401726 g / cm^3
# Si number density = 24.072049 Si / 1000 Ang^3
#
#
#
# Elastic Constant Matrix: (Units=GPa)
#
#
# Indices 1 2 3 4 5 6 
#
# 1 84.1217 12.3001 16.0727 0.0000 0.0000 0.0000
# 2 12.3001 139.4760 15.8079 0.0000 0.0000 0.0000
# 3 16.0727 15.8079 26.9302 0.0000 0.0000 0.0000
# 4 0.0000 0.0000 0.0000 50.9389 0.0000 0.0000
# 5 0.0000 0.0000 0.0000 0.0000 41.0938 0.0000
# 6 0.0000 0.0000 0.0000 0.0000 0.0000 55.0000
#
#
#
# Elastic Compliance Matrix: (Units=1/GPa)
#
#
# Indices 1 2 3 4 5 6 
#
# 1 0.013429 -0.000296 -0.007841 0.000000 0.000000 0.000000
# 2 -0.000296 0.007687 -0.004336 0.000000 0.000000 0.000000
# 3 -0.007841 -0.004336 0.044358 0.000000 0.000000 0.000000
# 4 0.000000 0.000000 0.000000 0.019631 0.000000 0.000000
# 5 0.000000 0.000000 0.000000 0.000000 0.024335 0.000000
# 6 0.000000 0.000000 0.000000 0.000000 0.000000 0.018182
#
#
# Mechanical properties :
#
#
# Convention : Reuss Voigt Hill
#
# Bulk Modulus (GPa) = 24.67388 37.65438 31.16413
# Shear Modulus (GPa) = 30.10648 43.16301 36.63475
#
# Velocity S-wave (km/s) = 3.54033 4.23907 3.90536
# Velocity P-wave (km/s) = 5.19463 6.29571 5.77149
#
# Compressibility (1/GPa) = 0.04052868
#
# Stress axis : x y z
#
# Youngs Moduli (GPa) = 74.46597 130.08667 22.54377
#
# Poissons Ratio (x) = 0.03845 0.17677
# Poissons Ratio (y) = 0.02201 0.09775
# Poissons Ratio (z) = 0.58391 0.56405
#
# Static dielectric constant tensor:
#      x y z
#    x 4.593660 0.000000 0.000000 
#    y 0.000000 4.619020 0.000000 
#    z 0.000000 0.000000 3.887820 
# 
# 
# High freq. dielectric constant tensor:
#      x y z
#    x 1.966160 0.000000 0.000000 
#    y 0.000000 1.977990 0.000000 
#    z 0.000000 0.000000 1.921860 
# 
# From -- ./inp_files/20794.got.cif
#   From: 2010.03.12/outbox.cif.g09.slc.cpg/sg55_11_cif.got.tgz:20794.got - 2010.04.16 15:19:21.
