data_PCOD8227057
_publ_section_title
;
Structure prediction by ZEFSAII (Michael W. Deem and Ramdas Pophale) SiO2 
 PCOD8227057
Probable space group: P B A M
;
_chemical_formula_sum "Si O2"
_cell_formula_units_Z 56
_cell_length_a 5.224792
_cell_length_b 16.673599
_cell_length_c 30.178108
_cell_angle_alpha 90.000000
_cell_angle_beta 90.000000
_cell_angle_gamma 90.000000
_cell_volume 2628.998672
_symmetry_space_group_name_H-M "P B A M"
_symmetry_group_IT_number 55
_symmetry_cell_setting 'orthorhombic'
loop_
_space_group_symop_operation_xyz
x,y,z
-x,-y,z
1/2+x,1/2-y,-z
1/2-x,1/2+y,-z
-x,-y,-z
x,y,-z
1/2-x,1/2+y,z
1/2+x,1/2-y,z
loop_
_atom_site_type_symbol
_atom_site_label
_atom_site_fract_x
_atom_site_fract_y
_atom_site_fract_z
Si Si1 0.249988 0.034400 0.680022
Si Si2 0.787205 0.300209 0.947973
Si Si3 0.694711 0.202182 0.551026
Si Si4 0.788389 0.801474 0.184350
Si Si5 0.809013 0.797053 0.286959
Si Si6 0.749972 0.444311 0.882603
Si Si7 0.749926 0.032466 0.419126
O O1 0.250745 0.129748 0.680703
O O2 0.500000 0.000000 0.704984
O O3 0.249910 0.004175 0.629820
O O4 0.000000 0.000000 0.705143
O O5 0.541495 0.247886 0.933265
O O6 0.780102 0.387349 0.925427
O O7 0.785980 0.316601 0.000000
O O8 0.717941 0.174769 0.500000
O O9 0.410736 0.232541 0.561934
O O10 0.749129 0.128014 0.583073
O O11 0.542649 0.747912 0.171177
O O12 0.784516 0.823440 0.236049
O O13 0.780678 0.886621 0.159820
O O14 0.595829 0.730781 0.297994
O O15 0.500000 0.500000 0.887768
O O16 0.000000 0.500000 0.877376
O O17 0.500000 0.000000 0.445009
O O18 0.000000 0.000000 0.444837
#
# Coordination Sequence:
#
# PCOD8227057 Si02
#       7
#     8   8   8   8   8   8   8
#     4  10  21  38  56  81 116 148 182 225 279 334
#     4  10  21  39  61  81 109 155 199 232 276 339
#     4  10  21  38  60  85 113 147 189 234 275 323
#     4  10  21  39  60  81 111 150 189 229 278 340
#     4  10  21  38  61  85 109 145 191 235 277 328
#     4  12  24  36  56  88 119 147 184 236 293 336
#     4  10  21  38  56  83 115 148 184 223 278 332
#
# _framework density 21.300888
#
# number of rings (size 3 to 8) (size 9 to 14) (size 15 to 20)
#    0.000    1.714    0.000    4.286    0.000    2.286 
#    0.000   17.143    0.000    0.000    0.000    0.000 
#    0.000    0.000    0.000    0.000    0.000    0.000 
#
# Total GULP energy -694302.113926 kJ/mol
# GULP energy per Si atom -12398.252034 kJ/mol
# Density = 2.125241 g / cm^3
# Si number density = 21.300888 Si / 1000 Ang^3
#
#
#
# Elastic Constant Matrix: (Units=GPa)
#
#
# Indices 1 2 3 4 5 6 
#
# 1 183.6528 43.9114 6.2951 0.0000 0.0000 0.0000
# 2 43.9114 136.3609 38.8440 0.0000 0.0000 0.0000
# 3 6.2951 38.8440 50.3596 0.0000 0.0000 0.0000
# 4 0.0000 0.0000 0.0000 31.9866 0.0000 0.0000
# 5 0.0000 0.0000 0.0000 0.0000 2.7250 0.0000
# 6 0.0000 0.0000 0.0000 0.0000 0.0000 43.4228
#
#
#
# Elastic Compliance Matrix: (Units=1/GPa)
#
#
# Indices 1 2 3 4 5 6 
#
# 1 0.005934 -0.002178 0.000938 0.000000 0.000000 0.000000
# 2 -0.002178 0.010198 -0.007594 0.000000 0.000000 0.000000
# 3 0.000938 -0.007594 0.025597 0.000000 0.000000 0.000000
# 4 0.000000 0.000000 0.000000 0.031263 0.000000 0.000000
# 5 0.000000 0.000000 0.000000 0.000000 0.366977 0.000000
# 6 0.000000 0.000000 0.000000 0.000000 0.000000 0.023029
#
#
# Mechanical properties :
#
#
# Convention : Reuss Voigt Hill
#
# Bulk Modulus (GPa) = 41.55968 60.94159 51.25064
# Shear Modulus (GPa) = 10.23151 34.38173 22.30662
#
# Velocity S-wave (km/s) = 2.19403 4.02194 3.23958
# Velocity P-wave (km/s) = 5.09622 7.08802 6.17299
#
# Compressibility (1/GPa) = 0.02406178
#
# Stress axis : x y z
#
# Youngs Moduli (GPa) = 168.52978 98.05798 39.06667
#
# Poissons Ratio (x) = 0.21358 -0.03666
# Poissons Ratio (y) = 0.36707 0.29667
# Poissons Ratio (z) = -0.15813 0.74463
#
# Static dielectric constant tensor:
#      x y z
#    x 3.881380 0.000000 0.000000 
#    y 0.000000 3.742420 0.000000 
#    z 0.000000 0.000000 3.591230 
# 
# 
# High freq. dielectric constant tensor:
#      x y z
#    x 1.870560 0.000000 0.000000 
#    y 0.000000 1.837080 0.000000 
#    z 0.000000 0.000000 1.815110 
# 
# From -- ./inp_files/24067.got.cif
#   From: 2010.03.12/outbox.cif.g09.slc.cpg/sg55_13_cif.got.tgz:24067.got - 2010.04.16 15:19:21.
