data_PCOD8227045
_publ_section_title
;
Structure prediction by ZEFSAII (Michael W. Deem and Ramdas Pophale) SiO2 
 PCOD8227045
Probable space group: P B A M
;
_chemical_formula_sum "Si O2"
_cell_formula_units_Z 64
_cell_length_a 15.239453
_cell_length_b 11.500221
_cell_length_c 17.506842
_cell_angle_alpha 90.000000
_cell_angle_beta 90.000000
_cell_angle_gamma 90.000000
_cell_volume 3068.197964
_symmetry_space_group_name_H-M "P B A M"
_symmetry_group_IT_number 55
_symmetry_cell_setting 'orthorhombic'
loop_
_space_group_symop_operation_xyz
x,y,z
-x,-y,z
1/2+x,1/2-y,-z
1/2-x,1/2+y,-z
-x,-y,-z
x,y,-z
1/2-x,1/2+y,z
1/2+x,1/2-y,z
loop_
_atom_site_type_symbol
_atom_site_label
_atom_site_fract_x
_atom_site_fract_y
_atom_site_fract_z
Si Si1 0.825272 0.757744 0.670662
Si Si2 0.097438 0.034622 0.414960
Si Si3 0.341128 0.269536 0.910826
Si Si4 0.863138 0.185019 0.652240
Si Si5 0.990653 0.629641 0.661015
Si Si6 0.493638 0.131051 0.157883
Si Si7 0.398950 0.465305 0.194497
Si Si8 0.658558 0.279765 0.839518
O O1 0.863260 0.884870 0.651371
O O2 0.726522 0.755161 0.642357
O O3 0.821765 0.720105 0.758883
O O4 0.893692 0.667337 0.633036
O O5 0.102998 0.090080 0.500000
O O6 0.146831 0.911510 0.413729
O O7 0.000000 0.000000 0.389240
O O8 0.398324 0.172123 0.868564
O O9 0.372931 0.394253 0.880925
O O10 0.238272 0.244704 0.896755
O O11 0.359790 0.264862 0.000000
O O12 0.939408 0.276333 0.630270
O O13 0.875518 0.116186 0.732721
O O14 0.003887 0.630989 0.751320
O O15 0.000000 0.500000 0.627288
O O16 0.569997 0.218819 0.126520
O O17 0.500000 0.000000 0.125597
O O18 0.500000 0.500000 0.197182
O O19 0.346285 0.584597 0.182948
#
# Coordination Sequence:
#
# PCOD8227045 Si02
#       8
#     8   8   8   8   8   8   8   8
#     4  11  22  38  69  97 125 172 217 268 324 395
#     4  11  24  43  68  98 134 175 219 273 331 392
#     4  12  27  43  61  94 131 172 220 277 344 406
#     4  12  22  39  71  99 132 169 221 277 329 393
#     4  10  21  37  62  99 128 160 218 271 324 383
#     4  10  22  42  64  87 126 167 212 270 335 400
#     4  12  22  43  71  96 128 169 229 283 334 403
#     4  11  23  41  67  97 125 169 223 278 330 396
#
# _framework density 20.859148999999999
#
# number of rings (size 3 to 8) (size 9 to 14) (size 15 to 20)
#    0.000    0.875    6.250    1.125    3.500    3.000 
#    0.000    0.000    0.000    0.750    0.000    0.000 
#    0.000    0.000    0.000    0.000    0.000    0.000 
#
# Total GULP energy -793093.934152 kJ/mol
# GULP energy per Si atom -12392.092721 kJ/mol
# Density = 2.081167 g / cm^3
# Si number density = 20.859149 Si / 1000 Ang^3
#
#
#
# Elastic Constant Matrix: (Units=GPa)
#
#
# Indices 1 2 3 4 5 6 
#
# 1 105.0916 23.9727 7.3986 0.0000 0.0000 0.0000
# 2 23.9727 118.8792 2.1088 0.0000 0.0000 0.0000
# 3 7.3986 2.1088 44.4192 0.0000 0.0000 0.0000
# 4 0.0000 0.0000 0.0000 17.7225 0.0000 0.0000
# 5 0.0000 0.0000 0.0000 0.0000 13.4889 0.0000
# 6 0.0000 0.0000 0.0000 0.0000 0.0000 34.7449
#
#
#
# Elastic Compliance Matrix: (Units=1/GPa)
#
#
# Indices 1 2 3 4 5 6 
#
# 1 0.010085 -0.002005 -0.001585 0.000000 0.000000 0.000000
# 2 -0.002005 0.008818 -0.000085 0.000000 0.000000 0.000000
# 3 -0.001585 -0.000085 0.022781 0.000000 0.000000 0.000000
# 4 0.000000 0.000000 0.000000 0.056425 0.000000 0.000000
# 5 0.000000 0.000000 0.000000 0.000000 0.074135 0.000000
# 6 0.000000 0.000000 0.000000 0.000000 0.000000 0.028781
#
#
# Mechanical properties :
#
#
# Convention : Reuss Voigt Hill
#
# Bulk Modulus (GPa) = 29.12571 37.26113 33.19342
# Shear Modulus (GPa) = 22.74604 28.85192 25.79898
#
# Velocity S-wave (km/s) = 3.30579 3.72315 3.52066
# Velocity P-wave (km/s) = 5.34456 6.03195 5.69863
#
# Compressibility (1/GPa) = 0.03433393
#
# Stress axis : x y z
#
# Youngs Moduli (GPa) = 99.16176 113.40676 43.89674
#
# Poissons Ratio (x) = 0.22744 0.06955
# Poissons Ratio (y) = 0.19887 0.00371
# Poissons Ratio (z) = 0.15712 0.00959
#
# Static dielectric constant tensor:
#      x y z
#    x 3.986700 0.000000 0.000000 
#    y 0.000000 4.191600 0.000000 
#    z 0.000000 0.000000 3.437250 
# 
# 
# High freq. dielectric constant tensor:
#      x y z
#    x 1.825200 0.000000 0.000000 
#    y 0.000000 1.829640 0.000000 
#    z 0.000000 0.000000 1.781880 
# 
# From -- ./inp_files/21327.got.cif
#   From: 2010.03.12/outbox.cif.g09.slc.cpg/sg55_11_cif.got.tgz:21327.got - 2010.04.16 15:19:21.
