data_PCOD8227432
_publ_section_title
;
Structure prediction by ZEFSAII (Michael W. Deem and Ramdas Pophale) SiO2 
 PCOD8227432
Probable space group: P B A M
;
_chemical_formula_sum "Si O2"
_cell_formula_units_Z 64
_cell_length_a 30.518267
_cell_length_b 11.918799
_cell_length_c 9.106516
_cell_angle_alpha 90.000000
_cell_angle_beta 90.000000
_cell_angle_gamma 90.000000
_cell_volume 3312.414058
_symmetry_space_group_name_H-M "P B A M"
_symmetry_group_IT_number 55
_symmetry_cell_setting 'orthorhombic'
loop_
_space_group_symop_operation_xyz
x,y,z
-x,-y,z
1/2+x,1/2-y,-z
1/2-x,1/2+y,-z
-x,-y,-z
x,y,-z
1/2-x,1/2+y,z
1/2+x,1/2-y,z
loop_
_atom_site_type_symbol
_atom_site_label
_atom_site_fract_x
_atom_site_fract_y
_atom_site_fract_z
Si Si1 0.951055 0.510159 0.674376
Si Si2 0.626973 0.607283 0.172292
Si Si3 0.331233 0.764038 0.166133
Si Si4 0.047817 0.049562 0.832589
Si Si5 0.200231 0.483794 0.327305
Si Si6 0.712536 0.466837 0.165361
Si Si7 0.624408 0.845599 0.326576
Si Si8 0.081918 0.249036 0.673595
O O1 0.953153 0.508062 0.500000
O O2 0.919458 0.409980 0.729536
O O3 0.931444 0.627727 0.728301
O O4 0.000000 0.500000 0.740848
O O5 0.583918 0.539455 0.223882
O O6 0.670077 0.537069 0.215914
O O7 0.627740 0.725769 0.252314
O O8 0.625176 0.630264 0.000000
O O9 0.312686 0.869998 0.249355
O O10 0.295734 0.665685 0.167573
O O11 0.373048 0.715150 0.249663
O O12 0.343615 0.797220 0.000000
O O13 0.046684 0.158835 0.729147
O O14 0.058856 0.084185 0.000000
O O15 0.000000 0.000000 0.818927
O O16 0.198088 0.462871 0.500000
O O17 0.249130 0.513205 0.280546
O O18 0.166900 0.582116 0.280831
O O19 0.726390 0.503417 0.000000
O O20 0.622591 0.828458 0.500000
O O21 0.086776 0.243529 0.500000
#
# Coordination Sequence:
#
# PCOD8227432 Si02
#       8
#     8   8   8   8   8   8   8   8
#     4   9  19  37  59  84 119 157 190 237 297 351
#     4  10  22  41  60  84 119 157 198 242 290 353
#     4  11  22  41  66  88 118 159 202 246 300 359
#     4  10  22  41  62  86 122 162 198 246 306 360
#     4  11  24  41  61  90 123 153 195 248 301 350
#     4  10  23  42  62  86 117 157 201 242 293 355
#     4  10  22  40  59  85 121 157 194 241 296 351
#     4  11  21  37  63  91 119 153 202 254 300 352
#
# _framework density 19.321256000000002
#
# number of rings (size 3 to 8) (size 9 to 14) (size 15 to 20)
#    0.000    1.750    2.500    1.125    3.500    3.250 
#    0.000    0.000    0.000    1.875    0.000    0.000 
#    0.000    0.000    0.000    0.000    0.000    0.000 
#
# Total GULP energy -793737.637580 kJ/mol
# GULP energy per Si atom -12402.150587 kJ/mol
# Density = 1.927728 g / cm^3
# Si number density = 19.321256 Si / 1000 Ang^3
#
#
#
# Elastic Constant Matrix: (Units=GPa)
#
#
# Indices 1 2 3 4 5 6 
#
# 1 118.2858 47.0285 37.3955 0.0000 0.0000 0.0000
# 2 47.0285 131.3032 47.7029 0.0000 0.0000 0.0000
# 3 37.3955 47.7029 68.4484 0.0000 0.0000 0.0000
# 4 0.0000 0.0000 0.0000 37.3539 0.0000 0.0000
# 5 0.0000 0.0000 0.0000 0.0000 38.7015 0.0000
# 6 0.0000 0.0000 0.0000 0.0000 0.0000 24.9732
#
#
#
# Elastic Compliance Matrix: (Units=1/GPa)
#
#
# Indices 1 2 3 4 5 6 
#
# 1 0.010710 -0.002290 -0.004255 0.000000 0.000000 0.000000
# 2 -0.002290 0.010688 -0.006197 0.000000 0.000000 0.000000
# 3 -0.004255 -0.006197 0.021253 0.000000 0.000000 0.000000
# 4 0.000000 0.000000 0.000000 0.026771 0.000000 0.000000
# 5 0.000000 0.000000 0.000000 0.000000 0.025839 0.000000
# 6 0.000000 0.000000 0.000000 0.000000 0.000000 0.040043
#
#
# Mechanical properties :
#
#
# Convention : Reuss Voigt Hill
#
# Bulk Modulus (GPa) = 58.25534 64.69902 61.47718
# Shear Modulus (GPa) = 30.02815 32.59975 31.31395
#
# Velocity S-wave (km/s) = 3.94655 4.11207 4.03016
# Velocity P-wave (km/s) = 7.14026 7.49027 7.31736
#
# Compressibility (1/GPa) = 0.01716581
#
# Stress axis : x y z
#
# Youngs Moduli (GPa) = 93.37231 93.56579 47.05147
#
# Poissons Ratio (x) = 0.21426 0.20021
# Poissons Ratio (y) = 0.21382 0.29159
# Poissons Ratio (z) = 0.39732 0.57986
#
# Static dielectric constant tensor:
#      x y z
#    x 4.287860 0.000000 0.000000 
#    y 0.000000 3.662380 0.000000 
#    z 0.000000 0.000000 3.442450 
# 
# 
# High freq. dielectric constant tensor:
#      x y z
#    x 1.761140 0.000000 0.000000 
#    y 0.000000 1.763280 0.000000 
#    z 0.000000 0.000000 1.739530 
# 
# From -- ./inp_files/10763.got.cif
#   From: 2010.03.12/outbox.cif.g09.slc.cpg/sg55_6_cif.got.tgz:10763.got - 2010.04.16 15:19:21.
