data_PCOD8227510
_publ_section_title
;
Structure prediction by ZEFSAII (Michael W. Deem and Ramdas Pophale) SiO2 
 PCOD8227510
Probable space group: P B A M
;
_chemical_formula_sum "Si O2"
_cell_formula_units_Z 40
_cell_length_a 8.592500
_cell_length_b 16.229918
_cell_length_c 13.265878
_cell_angle_alpha 90.000000
_cell_angle_beta 90.000000
_cell_angle_gamma 90.000000
_cell_volume 1850.000584
_symmetry_space_group_name_H-M "P B A M"
_symmetry_group_IT_number 55
_symmetry_cell_setting 'orthorhombic'
loop_
_space_group_symop_operation_xyz
x,y,z
-x,-y,z
1/2+x,1/2-y,-z
1/2-x,1/2+y,-z
-x,-y,-z
x,y,-z
1/2-x,1/2+y,z
1/2+x,1/2-y,z
loop_
_atom_site_type_symbol
_atom_site_label
_atom_site_fract_x
_atom_site_fract_y
_atom_site_fract_z
Si Si1 0.177042 0.523699 0.697182
Si Si2 0.895969 0.711994 0.500000
Si Si3 0.492806 0.743835 0.816748
Si Si4 0.744554 0.655787 0.298529
Si Si5 0.728125 0.871599 0.500000
Si Si6 0.267381 0.135496 0.889578
O O1 0.280355 0.442160 0.713467
O O2 0.239037 0.574267 0.601124
O O3 0.187785 0.574534 0.800067
O O4 0.000000 0.500000 0.673955
O O5 0.804597 0.672870 0.408403
O O6 0.878189 0.811348 0.500000
O O7 0.075411 0.685828 0.500000
O O8 0.373618 0.813003 0.779837
O O9 0.582556 0.703343 0.721085
O O10 0.614234 0.787541 0.890803
O O11 0.406570 0.670276 0.875126
O O12 0.276217 0.092308 0.000000
#
# Coordination Sequence:
#
# PCOD8227510 Si02
#       6
#     8   4   8   8   4   8
#     4  12  23  41  63  97 130 172 207 263 325 376
#     4  12  21  36  63  94 120 172 214 258 307 378
#     4  10  22  42  63  91 126 167 215 265 316 381
#     4  11  22  40  64  91 129 168 213 263 321 381
#     4  12  24  41  68  93 136 168 216 260 318 382
#     4  11  23  42  67  94 127 167 217 266 320 382
#
# _framework density 21.621616
#
# number of rings (size 3 to 8) (size 9 to 14) (size 15 to 20)
#    0.000    0.800    4.000    5.100    0.000    1.200 
#    0.000    3.000    0.000    4.800    0.000    0.000 
#    0.000    0.000    0.000    0.000    0.000    0.000 
#
# Total GULP energy -496043.107459 kJ/mol
# GULP energy per Si atom -12401.077686 kJ/mol
# Density = 2.157240 g / cm^3
# Si number density = 21.621616 Si / 1000 Ang^3
#
#
#
# Elastic Constant Matrix: (Units=GPa)
#
#
# Indices 1 2 3 4 5 6 
#
# 1 59.0627 27.7061 4.9801 0.0000 0.0000 0.0000
# 2 27.7061 129.9847 35.4297 0.0000 0.0000 0.0000
# 3 4.9801 35.4297 136.1056 0.0000 0.0000 0.0000
# 4 0.0000 0.0000 0.0000 16.7503 0.0000 0.0000
# 5 0.0000 0.0000 0.0000 0.0000 17.5457 0.0000
# 6 0.0000 0.0000 0.0000 0.0000 0.0000 22.1702
#
#
#
# Elastic Compliance Matrix: (Units=1/GPa)
#
#
# Indices 1 2 3 4 5 6 
#
# 1 0.018831 -0.004118 0.000383 0.000000 0.000000 0.000000
# 2 -0.004118 0.009181 -0.002239 0.000000 0.000000 0.000000
# 3 0.000383 -0.002239 0.007916 0.000000 0.000000 0.000000
# 4 0.000000 0.000000 0.000000 0.059700 0.000000 0.000000
# 5 0.000000 0.000000 0.000000 0.000000 0.056994 0.000000
# 6 0.000000 0.000000 0.000000 0.000000 0.000000 0.045106
#
#
# Mechanical properties :
#
#
# Convention : Reuss Voigt Hill
#
# Bulk Modulus (GPa) = 41.70278 51.26499 46.48388
# Shear Modulus (GPa) = 22.97055 28.42906 25.69980
#
# Velocity S-wave (km/s) = 3.26297 3.63001 3.45137
# Velocity P-wave (km/s) = 5.79011 6.42891 6.11785
#
# Compressibility (1/GPa) = 0.02397922
#
# Stress axis : x y z
#
# Youngs Moduli (GPa) = 53.10491 108.91647 126.32421
#
# Poissons Ratio (x) = 0.44853 -0.04838
# Poissons Ratio (y) = 0.21869 0.28288
# Poissons Ratio (z) = -0.02034 0.24390
#
# Static dielectric constant tensor:
#      x y z
#    x 4.070900 0.000000 0.000000 
#    y 0.000000 4.132970 0.000000 
#    z 0.000000 0.000000 3.853990 
# 
# 
# High freq. dielectric constant tensor:
#      x y z
#    x 1.847940 0.000000 0.000000 
#    y 0.000000 1.848860 0.000000 
#    z 0.000000 0.000000 1.851360 
# 
# From -- ./inp_files/17127.got.cif
#   From: 2010.03.12/outbox.cif.g09.slc.cpg/sg55_9_cif.got.tgz:17127.got - 2010.04.16 15:19:21.
