data_PCOD8227169
_publ_section_title
;
Structure prediction by ZEFSAII (Michael W. Deem and Ramdas Pophale) SiO2 
 PCOD8227169
Probable space group: P B A M
;
_chemical_formula_sum "Si O2"
_cell_formula_units_Z 64
_cell_length_a 29.419921
_cell_length_b 12.749654
_cell_length_c 8.973910
_cell_angle_alpha 90.000000
_cell_angle_beta 90.000000
_cell_angle_gamma 90.000000
_cell_volume 3366.058124
_symmetry_space_group_name_H-M "P B A M"
_symmetry_group_IT_number 55
_symmetry_cell_setting 'orthorhombic'
loop_
_space_group_symop_operation_xyz
x,y,z
-x,-y,z
1/2+x,1/2-y,-z
1/2-x,1/2+y,-z
-x,-y,-z
x,y,-z
1/2-x,1/2+y,z
1/2+x,1/2-y,z
loop_
_atom_site_type_symbol
_atom_site_label
_atom_site_fract_x
_atom_site_fract_y
_atom_site_fract_z
Si Si1 0.283378 0.775278 0.671783
Si Si2 0.124837 0.763737 0.326247
Si Si3 0.446301 0.113142 0.824037
Si Si4 0.150829 0.996673 0.674694
Si Si5 0.549961 0.120907 0.175563
Si Si6 0.291147 0.167513 0.834718
Si Si7 0.884119 0.779746 0.328683
Si Si8 0.243731 0.965525 0.168457
O O1 0.274919 0.745534 0.500000
O O2 0.259601 0.692564 0.779655
O O3 0.336549 0.776692 0.708174
O O4 0.258921 0.883255 0.708617
O O5 0.118942 0.746233 0.500000
O O6 0.084112 0.703709 0.246798
O O7 0.172281 0.712423 0.278499
O O8 0.124900 0.887768 0.286181
O O9 0.497850 0.135175 0.774500
O O10 0.432427 0.994725 0.770934
O O11 0.440281 0.121092 0.000000
O O12 0.164248 0.000122 0.500000
O O13 0.118317 0.096145 0.712903
O O14 0.195896 0.010881 0.773181
O O15 0.577696 0.218836 0.237915
O O16 0.553605 0.124903 0.000000
O O17 0.287335 0.042455 0.838188
O O18 0.301414 0.212126 0.000000
O O19 0.897100 0.766664 0.500000
O O20 0.236220 0.920772 0.000000
#
# Coordination Sequence:
#
# PCOD8227169 Si02
#       8
#     8   8   8   8   8   8   8   8
#     4  11  22  36  55  80 113 154 194 235 284 339
#     4  11  23  37  59  87 113 152 195 233 286 345
#     4   9  20  41  64  87 116 147 181 233 290 344
#     4  10  21  39  57  78 115 156 192 233 283 336
#     4   9  20  40  65  88 113 147 185 229 291 346
#     4  11  23  37  54  81 114 151 197 241 282 333
#     4  10  22  38  58  85 115 150 191 236 286 337
#     4  11  23  36  53  78 111 152 195 241 288 333
#
# _framework density 19.013338999999998
#
# number of rings (size 3 to 8) (size 9 to 14) (size 15 to 20)
#    0.000    1.750    2.500    2.250    1.750    4.500 
#    0.000    1.875    0.000    3.750    0.000    0.000 
#    0.000    0.000    0.000    0.000    0.000    0.000 
#
# Total GULP energy -793152.441459 kJ/mol
# GULP energy per Si atom -12393.006898 kJ/mol
# Density = 1.897006 g / cm^3
# Si number density = 19.013339 Si / 1000 Ang^3
#
#
#
# Elastic Constant Matrix: (Units=GPa)
#
#
# Indices 1 2 3 4 5 6 
#
# 1 92.0316 65.7234 34.6417 0.0000 0.0000 0.0000
# 2 65.7234 118.7312 32.0483 0.0000 0.0000 0.0000
# 3 34.6417 32.0483 44.7079 0.0000 0.0000 0.0000
# 4 0.0000 0.0000 0.0000 29.2379 0.0000 0.0000
# 5 0.0000 0.0000 0.0000 0.0000 33.0678 0.0000
# 6 0.0000 0.0000 0.0000 0.0000 0.0000 38.0339
#
#
#
# Elastic Compliance Matrix: (Units=1/GPa)
#
#
# Indices 1 2 3 4 5 6 
#
# 1 0.020952 -0.008947 -0.009821 0.000000 0.000000 0.000000
# 2 -0.008947 0.014264 -0.003292 0.000000 0.000000 0.000000
# 3 -0.009821 -0.003292 0.032337 0.000000 0.000000 0.000000
# 4 0.000000 0.000000 0.000000 0.034202 0.000000 0.000000
# 5 0.000000 0.000000 0.000000 0.000000 0.030241 0.000000
# 6 0.000000 0.000000 0.000000 0.000000 0.000000 0.026292
#
#
# Mechanical properties :
#
#
# Convention : Reuss Voigt Hill
#
# Bulk Modulus (GPa) = 42.67595 57.81082 50.24338
# Shear Modulus (GPa) = 23.78470 28.27175 26.02822
#
# Velocity S-wave (km/s) = 3.54071 3.86027 3.70394
# Velocity P-wave (km/s) = 6.26175 7.09509 6.69141
#
# Compressibility (1/GPa) = 0.02343240
#
# Stress axis : x y z
#
# Youngs Moduli (GPa) = 47.72815 70.10844 30.92423
#
# Poissons Ratio (x) = 0.62726 0.30371
# Poissons Ratio (y) = 0.42702 0.10181
# Poissons Ratio (z) = 0.46874 0.23081
#
# Static dielectric constant tensor:
#      x y z
#    x 3.370660 0.000000 0.000000 
#    y 0.000000 3.809880 0.000000 
#    z 0.000000 0.000000 3.443750 
# 
# 
# High freq. dielectric constant tensor:
#      x y z
#    x 1.721450 0.000000 0.000000 
#    y 0.000000 1.752300 0.000000 
#    z 0.000000 0.000000 1.740380 
# 
# From -- ./inp_files/10811.got.cif
#   From: 2010.03.12/outbox.cif.g09.slc.cpg/sg55_6_cif.got.tgz:10811.got - 2010.04.16 15:19:21.
