data_PCOD8227647
_publ_section_title
;
Structure prediction by ZEFSAII (Michael W. Deem and Ramdas Pophale) SiO2 
 PCOD8227647
Probable space group: P B A M
;
_chemical_formula_sum "Si O2"
_cell_formula_units_Z 48
_cell_length_a 12.984146
_cell_length_b 18.600213
_cell_length_c 10.150562
_cell_angle_alpha 90.000000
_cell_angle_beta 90.000000
_cell_angle_gamma 90.000000
_cell_volume 2451.440722
_symmetry_space_group_name_H-M "P B A M"
_symmetry_group_IT_number 55
_symmetry_cell_setting 'orthorhombic'
loop_
_space_group_symop_operation_xyz
x,y,z
-x,-y,z
1/2+x,1/2-y,-z
1/2-x,1/2+y,-z
-x,-y,-z
x,y,-z
1/2-x,1/2+y,z
1/2+x,1/2-y,z
loop_
_atom_site_type_symbol
_atom_site_label
_atom_site_fract_x
_atom_site_fract_y
_atom_site_fract_z
Si Si1 0.554157 0.886131 0.000000
Si Si2 0.873336 0.307683 0.260230
Si Si3 0.162216 0.460314 0.000000
Si Si4 0.167825 0.121101 0.654543
Si Si5 0.562517 0.656708 0.344682
Si Si6 0.159682 0.468958 0.500000
Si Si7 0.204547 0.964065 0.256966
Si Si8 0.948097 0.389415 0.500000
O O1 0.585490 0.838567 0.875908
O O2 0.432169 0.903524 0.000000
O O3 0.618211 0.959425 0.000000
O O4 0.754449 0.326645 0.286568
O O5 0.884104 0.222102 0.267316
O O6 0.946296 0.340390 0.372021
O O7 0.235504 0.447394 0.876372
O O8 0.183952 0.105730 0.500000
O O9 0.059584 0.160237 0.678379
O O10 0.169870 0.046562 0.734097
O O11 0.589863 0.657824 0.500000
O O12 0.603613 0.584611 0.274768
O O13 0.217368 0.442389 0.628390
O O14 0.148972 0.555877 0.500000
O O15 0.049686 0.434458 0.500000
#
# Coordination Sequence:
#
# PCOD8227647 Si02
#       8
#     4   8   4   8   8   4   8   4
#     4  11  24  43  66  95 137 175 215 267 339 396
#     4  12  22  43  63  93 132 177 216 270 340 391
#     4  11  24  41  69 100 131 174 216 275 331 383
#     4  11  21  41  68  94 129 174 220 279 334 382
#     4  11  25  41  66 100 131 173 225 276 332 394
#     4  11  20  33  65  94 121 162 222 281 317 375
#     4  12  21  42  64  98 129 174 220 271 324 391
#     4  11  20  35  60  95 123 159 225 273 325 384
#
# _framework density 19.580321000000001
#
# number of rings (size 3 to 8) (size 9 to 14) (size 15 to 20)
#    0.000    0.667    6.667    1.500    0.000    7.333 
#    0.000    4.167    0.000    0.000    0.000    0.000 
#    0.000    0.000    0.000    0.000    0.000    0.000 
#
# Total GULP energy -595363.099427 kJ/mol
# GULP energy per Si atom -12403.397905 kJ/mol
# Density = 1.953576 g / cm^3
# Si number density = 19.580321 Si / 1000 Ang^3
#
#
#
# Elastic Constant Matrix: (Units=GPa)
#
#
# Indices 1 2 3 4 5 6 
#
# 1 115.4403 57.9042 46.8434 0.0000 0.0000 0.0000
# 2 57.9042 92.2689 21.4281 0.0000 0.0000 0.0000
# 3 46.8434 21.4281 136.6661 0.0000 0.0000 0.0000
# 4 0.0000 0.0000 0.0000 12.1237 0.0000 0.0000
# 5 0.0000 0.0000 0.0000 0.0000 32.7508 0.0000
# 6 0.0000 0.0000 0.0000 0.0000 0.0000 28.6096
#
#
#
# Elastic Compliance Matrix: (Units=1/GPa)
#
#
# Indices 1 2 3 4 5 6 
#
# 1 0.014158 -0.008051 -0.003590 0.000000 0.000000 0.000000
# 2 -0.008051 0.015826 0.000278 0.000000 0.000000 0.000000
# 3 -0.003590 0.000278 0.008504 0.000000 0.000000 0.000000
# 4 0.000000 0.000000 0.000000 0.082483 0.000000 0.000000
# 5 0.000000 0.000000 0.000000 0.000000 0.030534 0.000000
# 6 0.000000 0.000000 0.000000 0.000000 0.000000 0.034953
#
#
# Mechanical properties :
#
#
# Convention : Reuss Voigt Hill
#
# Bulk Modulus (GPa) = 63.44657 66.30295 64.87476
# Shear Modulus (GPa) = 23.31682 29.24346 26.28014
#
# Velocity S-wave (km/s) = 3.45458 3.86879 3.66754
# Velocity P-wave (km/s) = 6.95599 7.34114 7.15116
#
# Compressibility (1/GPa) = 0.01576129
#
# Stress axis : x y z
#
# Youngs Moduli (GPa) = 70.63298 63.18813 117.59035
#
# Poissons Ratio (x) = 0.50873 0.42219
# Poissons Ratio (y) = 0.56867 -0.03271
# Poissons Ratio (z) = 0.25360 -0.01758
#
# Static dielectric constant tensor:
#      x y z
#    x 3.660000 0.000000 0.000000 
#    y 0.000000 3.589960 0.000000 
#    z 0.000000 0.000000 3.530590 
# 
# 
# High freq. dielectric constant tensor:
#      x y z
#    x 1.776480 0.000000 0.000000 
#    y 0.000000 1.761120 0.000000 
#    z 0.000000 0.000000 1.755760 
# 
# From -- ./inp_files/5747.got.cif
#   From: 2010.03.12/outbox.cif.g09.slc.cpg/sg55_3_cif.got.tgz:5747.got - 2010.04.16 15:19:21.
