data_PCOD8227737
_publ_section_title
;
Structure prediction by ZEFSAII (Michael W. Deem and Ramdas Pophale) SiO2 
 PCOD8227737
Probable space group: P B A M
;
_chemical_formula_sum "Si O2"
_cell_formula_units_Z 32
_cell_length_a 13.517545
_cell_length_b 9.360388
_cell_length_c 12.563352
_cell_angle_alpha 90.000000
_cell_angle_beta 90.000000
_cell_angle_gamma 90.000000
_cell_volume 1589.634220
_symmetry_space_group_name_H-M "P B A M"
_symmetry_group_IT_number 55
_symmetry_cell_setting 'orthorhombic'
loop_
_space_group_symop_operation_xyz
x,y,z
-x,-y,z
1/2+x,1/2-y,-z
1/2-x,1/2+y,-z
-x,-y,-z
x,y,-z
1/2-x,1/2+y,z
1/2+x,1/2-y,z
loop_
_atom_site_type_symbol
_atom_site_label
_atom_site_fract_x
_atom_site_fract_y
_atom_site_fract_z
Si Si1 0.176499 0.810269 0.500000
Si Si2 0.855452 0.874033 0.000000
Si Si3 0.348189 0.960727 0.000000
Si Si4 0.500000 0.000000 0.183058
Si Si5 0.000000 0.000000 0.167431
Si Si6 0.028594 0.771011 0.324508
Si Si7 0.625956 0.357076 0.500000
O O1 0.289293 0.762212 0.500000
O O2 0.124198 0.740913 0.396797
O O3 0.168693 0.982372 0.500000
O O4 0.756314 0.963581 0.000000
O O5 0.919928 0.911394 0.897782
O O6 0.830530 0.707885 0.000000
O O7 0.404646 0.009810 0.893274
O O8 0.492989 0.867492 0.262092
O O9 0.060843 0.888656 0.238602
O O10 0.939291 0.833605 0.395221
#
# Coordination Sequence:
#
# PCOD8227737 Si02
#       7
#     4   4   4   4   4   8   4
#     4  11  25  42  65  95 129 164 208 266 310 374
#     4  11  26  40  67  95 129 165 213 263 316 376
#     4  11  26  44  61  99 129 163 213 265 314 374
#     4  11  26  43  66  92 130 167 214 261 310 376
#     4  11  22  45  66  90 126 175 210 253 318 378
#     4  11  23  45  66  89 129 171 208 256 315 374
#     4  11  25  42  65  97 129 160 214 258 314 376
#
# _framework density 20.130419
#
# number of rings (size 3 to 8) (size 9 to 14) (size 15 to 20)
#    0.000    1.000    5.000    0.750    7.000    5.000 
#    0.000    0.000    0.000    0.000    0.000    0.000 
#    0.000    0.000    0.000    0.000    0.000    0.000 
#
# Total GULP energy -396873.128637 kJ/mol
# GULP energy per Si atom -12402.285270 kJ/mol
# Density = 2.008460 g / cm^3
# Si number density = 20.130419 Si / 1000 Ang^3
#
#
#
# Elastic Constant Matrix: (Units=GPa)
#
#
# Indices 1 2 3 4 5 6 
#
# 1 105.1834 27.4281 30.9990 0.0000 0.0000 0.0000
# 2 27.4281 91.5956 40.4971 0.0000 0.0000 0.0000
# 3 30.9990 40.4971 122.9952 0.0000 0.0000 0.0000
# 4 0.0000 0.0000 0.0000 33.4304 0.0000 0.0000
# 5 0.0000 0.0000 0.0000 0.0000 -18.6569 0.0000
# 6 0.0000 0.0000 0.0000 0.0000 0.0000 40.0375
#
#
#
# Elastic Compliance Matrix: (Units=1/GPa)
#
#
# Indices 1 2 3 4 5 6 
#
# 1 0.010686 -0.002351 -0.001919 0.000000 0.000000 0.000000
# 2 -0.002351 0.013295 -0.003785 0.000000 0.000000 0.000000
# 3 -0.001919 -0.003785 0.009860 0.000000 0.000000 0.000000
# 4 0.000000 0.000000 0.000000 0.029913 0.000000 0.000000
# 5 0.000000 0.000000 0.000000 0.000000 -0.053599 0.000000
# 6 0.000000 0.000000 0.000000 0.000000 0.000000 0.024977
#
#
# Mechanical properties :
#
#
# Convention : Reuss Voigt Hill
#
# Bulk Modulus (GPa) = 56.39942 57.51361 56.95652
# Shear Modulus (GPa) = 87.48570 25.68553 56.58561
#
# Velocity S-wave (km/s) = 6.59953 3.57593 5.30759
# Velocity P-wave (km/s) = 9.28168 6.75886 8.11886
#
# Compressibility (1/GPa) = 0.01773068
#
# Stress axis : x y z
#
# Youngs Moduli (GPa) = 93.58103 75.21572 101.41732
#
# Poissons Ratio (x) = 0.17687 0.19462
# Poissons Ratio (y) = 0.22005 0.38385
# Poissons Ratio (z) = 0.17958 0.28468
#
# Static dielectric constant tensor:
#      x y z
#    x 3.561940 0.000000 0.000000 
#    y 0.000000 3.957890 0.000000 
#    z 0.000000 0.000000 3.980220 
# 
# 
# High freq. dielectric constant tensor:
#      x y z
#    x 1.773860 0.000000 0.000000 
#    y 0.000000 1.801290 0.000000 
#    z 0.000000 0.000000 1.808670 
# 
# From -- ./inp_files/11702.got.cif
#   From: 2010.03.12/outbox.cif.g09.slc.cpg/sg55_6_cif.got.tgz:11702.got - 2010.04.16 15:19:21.
