data_PCOD8227282
_publ_section_title
;
Structure prediction by ZEFSAII (Michael W. Deem and Ramdas Pophale) SiO2 
 PCOD8227282
Probable space group: P B A M
;
_chemical_formula_sum "Si O2"
_cell_formula_units_Z 64
_cell_length_a 12.125834
_cell_length_b 14.195035
_cell_length_c 17.130470
_cell_angle_alpha 90.000000
_cell_angle_beta 90.000000
_cell_angle_gamma 90.000000
_cell_volume 2948.610209
_symmetry_space_group_name_H-M "P B A M"
_symmetry_group_IT_number 55
_symmetry_cell_setting 'orthorhombic'
loop_
_space_group_symop_operation_xyz
x,y,z
-x,-y,z
1/2+x,1/2-y,-z
1/2-x,1/2+y,-z
-x,-y,-z
x,y,-z
1/2-x,1/2+y,z
1/2+x,1/2-y,z
loop_
_atom_site_type_symbol
_atom_site_label
_atom_site_fract_x
_atom_site_fract_y
_atom_site_fract_z
Si Si1 0.980281 0.213037 0.908806
Si Si2 0.285798 0.420313 0.913412
Si Si3 0.253666 0.589277 0.655514
Si Si4 0.028253 0.098563 0.412649
Si Si5 0.903323 0.573594 0.677108
Si Si6 0.104738 0.065144 0.806801
Si Si7 0.441408 0.899648 0.848375
Si Si8 0.053615 0.704425 0.592853
O O1 0.068915 0.151903 0.860876
O O2 0.973780 0.318096 0.873231
O O3 0.859108 0.171126 0.894875
O O4 0.013173 0.213244 0.000000
O O5 0.307299 0.504395 0.854037
O O6 0.158652 0.391888 0.908910
O O7 0.314218 0.456982 0.000000
O O8 0.339047 0.608905 0.585643
O O9 0.208003 0.481770 0.652345
O O10 0.328417 0.605945 0.732623
O O11 0.153711 0.663258 0.644794
O O12 0.983583 0.092368 0.500000
O O13 0.965027 0.188769 0.376549
O O14 0.000000 0.000000 0.367961
O O15 0.891670 0.620788 0.762111
O O16 0.000000 0.500000 0.685250
O O17 0.939006 0.649456 0.611611
O O18 0.000000 0.000000 0.783231
O O19 0.500000 0.000000 0.854951
O O20 0.075976 0.696082 0.500000
#
# Coordination Sequence:
#
# PCOD8227282 Si02
#       8
#     8   8   8   8   8   8   8   8
#     4  10  23  41  62  93 131 174 222 269 326 393
#     4  10  21  41  66  91 125 173 221 268 328 392
#     4  11  21  40  66  95 127 169 213 266 332 382
#     4  10  23  42  62  92 131 167 212 263 315 386
#     4   9  21  40  62  94 128 160 207 266 318 388
#     4  10  21  40  64  96 130 169 218 271 328 392
#     4  11  23  42  64  94 134 169 218 277 328 380
#     4  10  23  43  68  98 129 169 216 262 319 388
#
# _framework density 21.705141000000001
#
# number of rings (size 3 to 8) (size 9 to 14) (size 15 to 20)
#    0.000    1.875    1.250    1.500    1.750    7.250 
#    0.000    3.750    0.000    0.000    0.000    0.000 
#    0.000    0.000    0.000    0.000    0.000    0.000 
#
# Total GULP energy -793273.847591 kJ/mol
# GULP energy per Si atom -12394.903869 kJ/mol
# Density = 2.165574 g / cm^3
# Si number density = 21.705141 Si / 1000 Ang^3
#
#
#
# Elastic Constant Matrix: (Units=GPa)
#
#
# Indices 1 2 3 4 5 6 
#
# 1 105.9039 58.4682 33.8256 0.0000 0.0000 0.0000
# 2 58.4682 156.1426 52.4888 0.0000 0.0000 0.0000
# 3 33.8256 52.4888 93.2161 0.0000 0.0000 0.0000
# 4 0.0000 0.0000 0.0000 30.0601 0.0000 0.0000
# 5 0.0000 0.0000 0.0000 0.0000 36.6167 0.0000
# 6 0.0000 0.0000 0.0000 0.0000 0.0000 30.6965
#
#
#
# Elastic Compliance Matrix: (Units=1/GPa)
#
#
# Indices 1 2 3 4 5 6 
#
# 1 0.012292 -0.003828 -0.002305 0.000000 0.000000 0.000000
# 2 -0.003828 0.009092 -0.003730 0.000000 0.000000 0.000000
# 3 -0.002305 -0.003730 0.013665 0.000000 0.000000 0.000000
# 4 0.000000 0.000000 0.000000 0.033267 0.000000 0.000000
# 5 0.000000 0.000000 0.000000 0.000000 0.027310 0.000000
# 6 0.000000 0.000000 0.000000 0.000000 0.000000 0.032577
#
#
# Mechanical properties :
#
#
# Convention : Reuss Voigt Hill
#
# Bulk Modulus (GPa) = 65.26611 71.64753 68.45682
# Shear Modulus (GPa) = 32.67196 33.50664 33.08930
#
# Velocity S-wave (km/s) = 3.88398 3.93328 3.90871
# Velocity P-wave (km/s) = 7.08861 7.32862 7.20962
#
# Compressibility (1/GPa) = 0.01532189
#
# Stress axis : x y z
#
# Youngs Moduli (GPa) = 81.35289 109.98891 73.18110
#
# Poissons Ratio (x) = 0.42104 0.16868
# Poissons Ratio (y) = 0.31142 0.27300
# Poissons Ratio (z) = 0.18752 0.41030
#
# Static dielectric constant tensor:
#      x y z
#    x 3.900870 0.000000 0.000000 
#    y 0.000000 4.096720 0.000000 
#    z 0.000000 0.000000 3.935720 
# 
# 
# High freq. dielectric constant tensor:
#      x y z
#    x 1.848170 0.000000 0.000000 
#    y 0.000000 1.851500 0.000000 
#    z 0.000000 0.000000 1.855420 
# 
# From -- ./inp_files/21344.got.cif
#   From: 2010.03.12/outbox.cif.g09.slc.cpg/sg55_11_cif.got.tgz:21344.got - 2010.04.16 15:19:21.
