data_PCOD8227403
_publ_section_title
;
Structure prediction by ZEFSAII (Michael W. Deem and Ramdas Pophale) SiO2 
 PCOD8227403
Probable space group: P B A M
;
_chemical_formula_sum "Si O2"
_cell_formula_units_Z 36
_cell_length_a 11.762716
_cell_length_b 4.902648
_cell_length_c 26.365416
_cell_angle_alpha 90.000000
_cell_angle_beta 90.000000
_cell_angle_gamma 90.000000
_cell_volume 1520.452834
_symmetry_space_group_name_H-M "P B A M"
_symmetry_group_IT_number 55
_symmetry_cell_setting 'orthorhombic'
loop_
_space_group_symop_operation_xyz
x,y,z
-x,-y,z
1/2+x,1/2-y,-z
1/2-x,1/2+y,-z
-x,-y,-z
x,y,-z
1/2-x,1/2+y,z
1/2+x,1/2-y,z
loop_
_atom_site_type_symbol
_atom_site_label
_atom_site_fract_x
_atom_site_fract_y
_atom_site_fract_z
Si Si1 0.328731 0.730397 0.657799
Si Si2 0.500000 0.500000 0.150498
Si Si3 0.175643 0.100420 0.767589
Si Si4 0.000000 0.500000 0.916262
Si Si5 0.674914 0.160542 0.000000
Si Si6 0.831461 0.207335 0.500000
Si Si7 0.000000 0.000000 0.582070
O O1 0.220456 0.532308 0.650560
O O2 0.383091 0.674207 0.713577
O O3 0.427815 0.704872 0.616698
O O4 0.592274 0.349455 0.185718
O O5 0.548387 0.746447 0.116369
O O6 0.211955 0.785418 0.771379
O O7 0.896381 0.608298 0.949590
O O8 0.712267 0.475138 0.000000
O O9 0.777345 0.507168 0.500000
O O10 0.911361 0.174449 0.548902
#
# Coordination Sequence:
#
# PCOD8227403 Si02
#       7
#     8   4   8   4   4   4   4
#     4  10  22  39  60  89 120 155 203 245 285 354
#     4  12  23  39  61  90 125 155 197 246 292 352
#     4  10  22  39  59  87 124 161 197 240 293 350
#     4  11  26  40  62  96 118 152 208 247 286 360
#     4  11  24  45  66  86 120 159 196 249 306 348
#     4  11  26  43  60  90 122 151 198 251 300 366
#     4  11  23  40  67  86 117 162 195 245 312 346
#
# _framework density 23.677159
#
# number of rings (size 3 to 8) (size 9 to 14) (size 15 to 20)
#    0.000    1.333    0.000    4.667    0.000   11.556 
#    0.000    6.667    0.000    0.000    0.000    0.000 
#    0.000    0.000    0.000    0.000    0.000    0.000 
#
# Total GULP energy -446526.543325 kJ/mol
# GULP energy per Si atom -12403.515092 kJ/mol
# Density = 2.362327 g / cm^3
# Si number density = 23.677159 Si / 1000 Ang^3
#
#
#
# Elastic Constant Matrix: (Units=GPa)
#
#
# Indices 1 2 3 4 5 6 
#
# 1 76.0622 -1.1895 45.1665 0.0000 0.0000 0.0000
# 2 -1.1895 70.0387 15.5126 0.0000 0.0000 0.0000
# 3 45.1665 15.5126 143.2459 0.0000 0.0000 0.0000
# 4 0.0000 0.0000 0.0000 3.5546 0.0000 0.0000
# 5 0.0000 0.0000 0.0000 0.0000 28.2718 0.0000
# 6 0.0000 0.0000 0.0000 0.0000 0.0000 24.3620
#
#
#
# Elastic Compliance Matrix: (Units=1/GPa)
#
#
# Indices 1 2 3 4 5 6 
#
# 1 0.016319 0.001452 -0.005303 0.000000 0.000000 0.000000
# 2 0.001452 0.014758 -0.002056 0.000000 0.000000 0.000000
# 3 -0.005303 -0.002056 0.008876 0.000000 0.000000 0.000000
# 4 0.000000 0.000000 0.000000 0.281322 0.000000 0.000000
# 5 0.000000 0.000000 0.000000 0.000000 0.035371 0.000000
# 6 0.000000 0.000000 0.000000 0.000000 0.000000 0.041048
#
#
# Mechanical properties :
#
#
# Convention : Reuss Voigt Hill
#
# Bulk Modulus (GPa) = 35.53882 45.36956 40.45419
# Shear Modulus (GPa) = 11.93643 26.56150 19.24897
#
# Velocity S-wave (km/s) = 2.24773 3.35299 2.85437
# Velocity P-wave (km/s) = 4.66677 5.84751 5.29018
#
# Compressibility (1/GPa) = 0.02813825
#
# Stress axis : x y z
#
# Youngs Moduli (GPa) = 61.27998 67.76072 112.66875
#
# Poissons Ratio (x) = -0.09836 0.59743
# Poissons Ratio (y) = -0.08895 0.23163
# Poissons Ratio (z) = 0.32494 0.13931
#
# Static dielectric constant tensor:
#      x y z
#    x 3.958090 0.000000 0.000000 
#    y 0.000000 4.074860 0.000000 
#    z 0.000000 0.000000 4.630340 
# 
# 
# High freq. dielectric constant tensor:
#      x y z
#    x 1.922880 0.000000 0.000000 
#    y 0.000000 1.942570 0.000000 
#    z 0.000000 0.000000 1.959320 
# 
# From -- ./inp_files/23541.got.cif
#   From: 2010.03.12/outbox.cif.g09.slc.cpg/sg55_12_cif.got.tgz:23541.got - 2010.04.16 15:19:21.
