data_PCOD8227207
_publ_section_title
;
Structure prediction by ZEFSAII (Michael W. Deem and Ramdas Pophale) SiO2 
 PCOD8227207
Probable space group: P B A M
;
_chemical_formula_sum "Si O2"
_cell_formula_units_Z 56
_cell_length_a 8.661467
_cell_length_b 19.653560
_cell_length_c 14.780493
_cell_angle_alpha 90.000000
_cell_angle_beta 90.000000
_cell_angle_gamma 90.000000
_cell_volume 2516.063538
_symmetry_space_group_name_H-M "P B A M"
_symmetry_group_IT_number 55
_symmetry_cell_setting 'orthorhombic'
loop_
_space_group_symop_operation_xyz
x,y,z
-x,-y,z
1/2+x,1/2-y,-z
1/2-x,1/2+y,-z
-x,-y,-z
x,y,-z
1/2-x,1/2+y,z
1/2+x,1/2-y,z
loop_
_atom_site_type_symbol
_atom_site_label
_atom_site_fract_x
_atom_site_fract_y
_atom_site_fract_z
Si Si1 0.743137 0.190137 0.401914
Si Si2 0.140797 0.345423 0.896558
Si Si3 0.581977 0.565897 0.646649
Si Si4 0.900082 0.326709 0.390785
Si Si5 0.304027 0.610421 0.758908
Si Si6 0.833486 0.522879 0.775704
Si Si7 0.690440 0.787050 0.104870
O O1 0.690208 0.215577 0.500000
O O2 0.866326 0.128557 0.416064
O O3 0.831476 0.253805 0.357785
O O4 0.579234 0.170391 0.355075
O O5 0.167407 0.414932 0.844401
O O6 0.281531 0.293318 0.877619
O O7 0.983301 0.307026 0.868500
O O8 0.132567 0.367317 0.000000
O O9 0.500000 0.500000 0.598301
O O10 0.477520 0.596226 0.726771
O O11 0.743762 0.541277 0.685381
O O12 0.884298 0.340600 0.500000
O O13 0.803123 0.380585 0.331608
O O14 0.246883 0.544845 0.816893
O O15 0.305440 0.672660 0.828665
O O16 0.000000 0.500000 0.743943
O O17 0.729692 0.803915 0.000000
#
# Coordination Sequence:
#
# PCOD8227207 Si02
#       7
#     8   8   8   8   8   8   8
#     4  10  21  39  62  93 128 166 216 272 328 393
#     4  10  23  41  65  94 129 169 214 272 327 388
#     4  10  24  40  59  89 126 167 218 264 329 392
#     4  10  22  39  65 100 133 169 217 269 327 388
#     4  11  23  40  65  95 129 177 212 270 324 388
#     4  11  22  41  62  91 126 166 221 266 322 395
#     4  10  23  41  63  96 128 167 215 265 323 385
#
# _framework density 22.256989000000001
#
# number of rings (size 3 to 8) (size 9 to 14) (size 15 to 20)
#    0.000    1.714    1.429    1.714    4.000    2.857 
#    0.000    2.143    0.000   10.286    0.000    0.000 
#    0.000    0.000    0.000    0.000    0.000    0.000 
#
# Total GULP energy -693836.245867 kJ/mol
# GULP energy per Si atom -12389.932962 kJ/mol
# Density = 2.220633 g / cm^3
# Si number density = 22.256989 Si / 1000 Ang^3
#
#
#
# Elastic Constant Matrix: (Units=GPa)
#
#
# Indices 1 2 3 4 5 6 
#
# 1 100.2525 43.9632 25.7609 0.0000 0.0000 0.0000
# 2 43.9632 140.2626 45.8598 0.0000 0.0000 0.0000
# 3 25.7609 45.8598 57.2738 0.0000 0.0000 0.0000
# 4 0.0000 0.0000 0.0000 24.0581 0.0000 0.0000
# 5 0.0000 0.0000 0.0000 0.0000 2.5807 0.0000
# 6 0.0000 0.0000 0.0000 0.0000 0.0000 44.5565
#
#
#
# Elastic Compliance Matrix: (Units=1/GPa)
#
#
# Indices 1 2 3 4 5 6 
#
# 1 0.011990 -0.002702 -0.003229 0.000000 0.000000 0.000000
# 2 -0.002702 0.010267 -0.007005 0.000000 0.000000 0.000000
# 3 -0.003229 -0.007005 0.024522 0.000000 0.000000 0.000000
# 4 0.000000 0.000000 0.000000 0.041566 0.000000 0.000000
# 5 0.000000 0.000000 0.000000 0.000000 0.387488 0.000000
# 6 0.000000 0.000000 0.000000 0.000000 0.000000 0.022443
#
#
# Mechanical properties :
#
#
# Convention : Reuss Voigt Hill
#
# Bulk Modulus (GPa) = 47.83585 58.77296 53.30440
# Shear Modulus (GPa) = 9.41411 26.38606 17.90009
#
# Velocity S-wave (km/s) = 2.05886 3.44687 2.83900
# Velocity P-wave (km/s) = 5.21450 6.50423 5.89475
#
# Compressibility (1/GPa) = 0.02090482
#
# Stress axis : x y z
#
# Youngs Moduli (GPa) = 83.40616 97.40022 40.78017
#
# Poissons Ratio (x) = 0.26319 0.13168
# Poissons Ratio (y) = 0.22538 0.28568
# Poissons Ratio (z) = 0.26932 0.68233
#
# Static dielectric constant tensor:
#      x y z
#    x 4.196030 0.000000 0.000000 
#    y 0.000000 4.350640 0.000000 
#    z 0.000000 0.000000 3.663720 
# 
# 
# High freq. dielectric constant tensor:
#      x y z
#    x 1.886070 0.000000 0.000000 
#    y 0.000000 1.889750 0.000000 
#    z 0.000000 0.000000 1.849550 
# 
# From -- ./inp_files/17627.got.cif
#   From: 2010.03.12/outbox.cif.g09.slc.cpg/sg55_9_cif.got.tgz:17627.got - 2010.04.16 15:19:21.
