data_PCOD8227914
_publ_section_title
;
Structure prediction by ZEFSAII (Michael W. Deem and Ramdas Pophale) SiO2 
 PCOD8227914
Probable space group: P C C N
;
_chemical_formula_sum "Si O2"
_cell_formula_units_Z 48
_cell_length_a 8.690755
_cell_length_b 15.397762
_cell_length_c 18.492086
_cell_angle_alpha 90.000000
_cell_angle_beta 90.000000
_cell_angle_gamma 90.000000
_cell_volume 2474.577239
_symmetry_space_group_name_H-M "P C C N"
_symmetry_group_IT_number 56
_symmetry_cell_setting 'orthorhombic'
loop_
_space_group_symop_operation_xyz
x,y,z
1/2-x,1/2-y,z
1/2+x,-y,1/2-z
-x,1/2+y,1/2-z
-x,-y,-z
1/2+x,1/2+y,-z
1/2-x,y,1/2+z
x,1/2-y,1/2+z
loop_
_atom_site_type_symbol
_atom_site_label
_atom_site_fract_x
_atom_site_fract_y
_atom_site_fract_z
Si Si1 0.341889 0.161402 0.817532
Si Si2 0.880562 0.570502 0.576562
Si Si3 0.298111 0.001016 0.572799
Si Si4 0.875441 0.323393 0.918604
Si Si5 0.160494 0.338567 0.657298
Si Si6 0.069642 0.227247 0.019154
O O1 0.250000 0.250000 0.815875
O O2 0.238020 0.088438 0.857979
O O3 0.499844 0.181435 0.856342
O O4 0.389403 0.129047 0.736794
O O5 0.790149 0.521417 0.512490
O O6 0.956948 0.657895 0.544464
O O7 0.026801 0.513868 0.602022
O O8 0.191662 0.919162 0.585425
O O9 0.238948 0.084370 0.619276
O O10 0.750000 0.250000 0.903399
O O11 0.959085 0.307295 0.996930
O O12 0.250000 0.250000 0.670497
O O13 0.025900 0.313088 0.598304
O O14 0.250000 0.250000 0.020298
#
# Coordination Sequence:
#
# PCOD8227914 Si02
#       6
#     8   8   8   8   8   8
#     4  11  20  38  62  82 117 166 192 233 300 361
#     4  10  18  37  60  82 114 154 196 231 295 347
#     4  10  22  35  60  91 117 150 195 252 287 344
#     4  12  21  35  62  94 116 149 203 248 284 350
#     4   9  22  39  58  82 119 160 195 238 303 354
#     4  10  17  37  60  83 112 154 194 238 287 346
#
# _framework density 19.397251000000001
#
# number of rings (size 3 to 8) (size 9 to 14) (size 15 to 20)
#    0.000    1.667    5.000    0.000    0.000    2.000 
#    0.000    0.833    0.000    0.000    0.000    0.000 
#    0.000    0.000    0.000    0.000    0.000    0.000 
#
# Total GULP energy -594628.397195 kJ/mol
# GULP energy per Si atom -12388.091608 kJ/mol
# Density = 1.935310 g / cm^3
# Si number density = 19.397251 Si / 1000 Ang^3
#
#
#
# Elastic Constant Matrix: (Units=GPa)
#
#
# Indices 1 2 3 4 5 6 
#
# 1 84.4416 40.2633 53.1632 0.0000 0.0000 0.0000
# 2 40.2633 109.5800 45.9498 0.0000 0.0000 0.0000
# 3 53.1632 45.9498 161.8847 0.0000 0.0000 0.0000
# 4 0.0000 0.0000 0.0000 6.8028 0.0000 0.0000
# 5 0.0000 0.0000 0.0000 0.0000 204.1141 0.0000
# 6 0.0000 0.0000 0.0000 0.0000 0.0000 27.4112
#
#
#
# Elastic Compliance Matrix: (Units=1/GPa)
#
#
# Indices 1 2 3 4 5 6 
#
# 1 0.016551 -0.004316 -0.004210 0.000000 0.000000 0.000000
# 2 -0.004316 0.011484 -0.001842 0.000000 0.000000 0.000000
# 3 -0.004210 -0.001842 0.008083 0.000000 0.000000 0.000000
# 4 0.000000 0.000000 0.000000 0.146998 0.000000 0.000000
# 5 0.000000 0.000000 0.000000 0.000000 0.004899 0.000000
# 6 0.000000 0.000000 0.000000 0.000000 0.000000 0.036481
#
#
# Mechanical properties :
#
#
# Convention : Reuss Voigt Hill
#
# Bulk Modulus (GPa) = 65.01577 70.51766 67.76671
# Shear Modulus (GPa) = 19.97112 62.10095 41.03604
#
# Velocity S-wave (km/s) = 3.21220 5.66435 4.60451
# Velocity P-wave (km/s) = 6.88102 8.90018 7.95492
#
# Compressibility (1/GPa) = 0.01538088
#
# Stress axis : x y z
#
# Youngs Moduli (GPa) = 60.41850 87.07690 123.71843
#
# Poissons Ratio (x) = 0.37582 0.52091
# Poissons Ratio (y) = 0.26076 0.22793
# Poissons Ratio (z) = 0.25439 0.16042
#
# Static dielectric constant tensor:
#      x y z
#    x 3.334290 0.000000 0.000000 
#    y 0.000000 3.884070 0.000000 
#    z 0.000000 0.000000 4.205070 
# 
# 
# High freq. dielectric constant tensor:
#      x y z
#    x 1.722600 0.000000 0.000000 
#    y 0.000000 1.767310 0.000000 
#    z 0.000000 0.000000 1.751430 
# 
# From -- ./inp_files/18091.got.cif
#   From: 2010.03.12/outbox.cif.g09.slc.cpg/sg56_10_cif.got.tgz:18091.got - 2010.04.16 15:33:40.
