data_PCOD8227652
_publ_section_title
;
Structure prediction by ZEFSAII (Michael W. Deem and Ramdas Pophale) SiO2 
 PCOD8227652
Probable space group: P B A M
;
_chemical_formula_sum "Si O2"
_cell_formula_units_Z 60
_cell_length_a 10.016640
_cell_length_b 16.786756
_cell_length_c 17.650201
_cell_angle_alpha 90.000000
_cell_angle_beta 90.000000
_cell_angle_gamma 90.000000
_cell_volume 2967.826435
_symmetry_space_group_name_H-M "P B A M"
_symmetry_group_IT_number 55
_symmetry_cell_setting 'orthorhombic'
loop_
_space_group_symop_operation_xyz
x,y,z
-x,-y,z
1/2+x,1/2-y,-z
1/2-x,1/2+y,-z
-x,-y,-z
x,y,-z
1/2-x,1/2+y,z
1/2+x,1/2-y,z
loop_
_atom_site_type_symbol
_atom_site_label
_atom_site_fract_x
_atom_site_fract_y
_atom_site_fract_z
Si Si1 0.381622 0.201641 0.312038
Si Si2 0.259357 0.844418 0.145980
Si Si3 0.447225 0.911450 0.586372
Si Si4 0.695149 0.628782 0.678353
Si Si5 0.504503 0.263442 0.835098
Si Si6 0.193968 0.102886 0.205991
Si Si7 0.344725 0.008040 0.086086
Si Si8 0.500000 0.500000 0.289487
O O1 0.448463 0.147997 0.375535
O O2 0.326977 0.281562 0.352520
O O3 0.487836 0.229016 0.249313
O O4 0.263400 0.153577 0.271661
O O5 0.241306 0.864728 0.234321
O O6 0.398389 0.799900 0.123894
O O7 0.137632 0.783135 0.123679
O O8 0.262338 0.926260 0.099221
O O9 0.427745 0.884476 0.500000
O O10 0.307166 0.912704 0.628789
O O11 0.500000 0.000000 0.592477
O O12 0.558588 0.576627 0.665348
O O13 0.575642 0.348276 0.832056
O O14 0.298077 0.078348 0.141320
O O15 0.128844 0.023860 0.240355
O O16 0.500000 0.000000 0.104628
O O17 0.320300 0.035035 0.000000
#
# Coordination Sequence:
#
# PCOD8227652 Si02
#       8
#     8   8   8   8   8   8   8   4
#     4  11  21  37  68  97 125 166 218 273 320 374
#     4  11  21  39  64  95 127 163 215 269 321 388
#     4  11  25  43  61  92 131 172 217 263 330 399
#     4  11  22  38  66  97 126 166 215 268 325 383
#     4  11  20  36  63 101 122 157 223 269 316 377
#     4  12  20  36  65  93 128 165 214 271 320 383
#     4  11  26  43  61  92 132 173 215 267 336 403
#     4  12  22  36  62 104 128 156 220 268 316 384
#
# _framework density 20.216815
#
# number of rings (size 3 to 8) (size 9 to 14) (size 15 to 20)
#    0.000    0.800    8.000    1.600    0.000    0.533 
#    0.000    4.667    0.000    0.800    0.000    0.000 
#    0.000    0.000    0.000    0.000    0.000    0.000 
#
# Total GULP energy -743824.680969 kJ/mol
# GULP energy per Si atom -12397.078016 kJ/mol
# Density = 2.017080 g / cm^3
# Si number density = 20.216815 Si / 1000 Ang^3
#
#
#
# Elastic Constant Matrix: (Units=GPa)
#
#
# Indices 1 2 3 4 5 6 
#
# 1 117.5338 39.6678 40.8508 0.0000 0.0000 0.0000
# 2 39.6678 99.4680 30.2400 0.0000 0.0000 0.0000
# 3 40.8508 30.2400 56.8843 0.0000 0.0000 0.0000
# 4 0.0000 0.0000 0.0000 12.2233 0.0000 0.0000
# 5 0.0000 0.0000 0.0000 0.0000 16.7033 0.0000
# 6 0.0000 0.0000 0.0000 0.0000 0.0000 48.7030
#
#
#
# Elastic Compliance Matrix: (Units=1/GPa)
#
#
# Indices 1 2 3 4 5 6 
#
# 1 0.011858 -0.002553 -0.007159 0.000000 0.000000 0.000000
# 2 -0.002553 0.012541 -0.004834 0.000000 0.000000 0.000000
# 3 -0.007159 -0.004834 0.025290 0.000000 0.000000 0.000000
# 4 0.000000 0.000000 0.000000 0.081811 0.000000 0.000000
# 5 0.000000 0.000000 0.000000 0.000000 0.059868 0.000000
# 6 0.000000 0.000000 0.000000 0.000000 0.000000 0.020533
#
#
# Mechanical properties :
#
#
# Convention : Reuss Voigt Hill
#
# Bulk Modulus (GPa) = 48.54600 55.04480 51.79540
# Shear Modulus (GPa) = 20.17292 26.40109 23.28701
#
# Velocity S-wave (km/s) = 3.16227 3.61764 3.39759
# Velocity P-wave (km/s) = 6.11540 6.68851 6.40836
#
# Compressibility (1/GPa) = 0.02059902
#
# Stress axis : x y z
#
# Youngs Moduli (GPa) = 84.33305 79.73852 39.54126
#
# Poissons Ratio (x) = 0.20354 0.28306
# Poissons Ratio (y) = 0.21526 0.19113
# Poissons Ratio (z) = 0.60370 0.38544
#
# Static dielectric constant tensor:
#      x y z
#    x 3.898310 0.000000 0.000000 
#    y 0.000000 3.924990 0.000000 
#    z 0.000000 0.000000 3.270430 
# 
# 
# High freq. dielectric constant tensor:
#      x y z
#    x 1.805050 0.000000 0.000000 
#    y 0.000000 1.814690 0.000000 
#    z 0.000000 0.000000 1.736010 
# 
# From -- ./inp_files/21006.got.cif
#   From: 2010.03.12/outbox.cif.g09.slc.cpg/sg55_11_cif.got.tgz:21006.got - 2010.04.16 15:19:21.
