data_PCOD8227385
_publ_section_title
;
Structure prediction by ZEFSAII (Michael W. Deem and Ramdas Pophale) SiO2 
 PCOD8227385
Probable space group: P B A M
;
_chemical_formula_sum "Si O2"
_cell_formula_units_Z 48
_cell_length_a 14.167925
_cell_length_b 9.816452
_cell_length_c 17.952336
_cell_angle_alpha 90.000000
_cell_angle_beta 90.000000
_cell_angle_gamma 90.000000
_cell_volume 2496.788553
_symmetry_space_group_name_H-M "P B A M"
_symmetry_group_IT_number 55
_symmetry_cell_setting 'orthorhombic'
loop_
_space_group_symop_operation_xyz
x,y,z
-x,-y,z
1/2+x,1/2-y,-z
1/2-x,1/2+y,-z
-x,-y,-z
x,y,-z
1/2-x,1/2+y,z
1/2+x,1/2-y,z
loop_
_atom_site_type_symbol
_atom_site_label
_atom_site_fract_x
_atom_site_fract_y
_atom_site_fract_z
Si Si1 0.126644 0.849834 0.000000
Si Si2 0.585413 0.899587 0.500000
Si Si3 0.595107 0.331095 0.000000
Si Si4 0.753162 0.492263 0.773534
Si Si5 0.771681 0.736665 0.122083
Si Si6 0.912888 0.096353 0.500000
Si Si7 0.593715 0.589700 0.337331
Si Si8 0.091561 0.594496 0.659971
O O1 0.176954 0.786462 0.927116
O O2 0.016898 0.810540 0.000000
O O3 0.132669 0.013510 0.000000
O O4 0.543537 0.747360 0.500000
O O5 0.641341 0.920125 0.422293
O O6 0.500000 0.000000 0.500000
O O7 0.635956 0.255221 0.071813
O O8 0.733800 0.363576 0.823939
O O9 0.791053 0.607701 0.827449
O O10 0.661805 0.538602 0.727637
O O11 0.835296 0.461189 0.717456
O O12 0.858057 0.073385 0.579258
O O13 0.000000 0.000000 0.500000
O O14 0.500000 0.500000 0.332126
O O15 0.566792 0.747761 0.322965
O O16 0.000000 0.500000 0.664918
#
# Coordination Sequence:
#
# PCOD8227385 Si02
#       8
#     4   4   4   8   8   4   8   8
#     4  10  22  43  70  93 116 157 200 233 294 366
#     4   8  16  35  56  80 117 159 207 259 301 351
#     4  10  22  43  72  91 114 159 199 236 294 362
#     4  12  24  40  60  90 132 160 197 248 307 360
#     4  11  24  42  62  94 127 154 192 253 294 355
#     4   8  16  35  56  82 115 155 213 261 295 351
#     4  10  22  38  61  87 120 166 210 256 308 357
#     4  10  22  38  60  88 121 164 211 256 307 358
#
# _framework density 19.224696000000002
#
# number of rings (size 3 to 8) (size 9 to 14) (size 15 to 20)
#    0.000    1.833    3.333    0.000    2.333    3.333 
#    0.000    0.833    0.000    0.000    0.000    0.000 
#    0.000    0.000    0.000    0.000    0.000    0.000 
#
# Total GULP energy -594687.513694 kJ/mol
# GULP energy per Si atom -12389.323202 kJ/mol
# Density = 1.918094 g / cm^3
# Si number density = 19.224696 Si / 1000 Ang^3
#
#
#
# Elastic Constant Matrix: (Units=GPa)
#
#
# Indices 1 2 3 4 5 6 
#
# 1 95.9783 48.0351 64.9779 0.0000 0.0000 0.0000
# 2 48.0351 140.6885 81.0107 0.0000 0.0000 0.0000
# 3 64.9779 81.0107 168.0134 0.0000 0.0000 0.0000
# 4 0.0000 0.0000 0.0000 42.6556 0.0000 0.0000
# 5 0.0000 0.0000 0.0000 0.0000 32.3589 0.0000
# 6 0.0000 0.0000 0.0000 0.0000 0.0000 25.6491
#
#
#
# Elastic Compliance Matrix: (Units=1/GPa)
#
#
# Indices 1 2 3 4 5 6 
#
# 1 0.014684 -0.002414 -0.004515 0.000000 0.000000 0.000000
# 2 -0.002414 0.010237 -0.004002 0.000000 0.000000 0.000000
# 3 -0.004515 -0.004002 0.009628 0.000000 0.000000 0.000000
# 4 0.000000 0.000000 0.000000 0.023444 0.000000 0.000000
# 5 0.000000 0.000000 0.000000 0.000000 0.030903 0.000000
# 6 0.000000 0.000000 0.000000 0.000000 0.000000 0.038988
#
#
# Mechanical properties :
#
#
# Convention : Reuss Voigt Hill
#
# Bulk Modulus (GPa) = 78.82580 88.08088 83.45334
# Shear Modulus (GPa) = 32.47312 34.17647 33.32479
#
# Velocity S-wave (km/s) = 4.11437 4.22090 4.16797
# Velocity P-wave (km/s) = 7.97885 8.34689 8.16495
#
# Compressibility (1/GPa) = 0.01268620
#
# Stress axis : x y z
#
# Youngs Moduli (GPa) = 68.10278 97.68899 103.86537
#
# Poissons Ratio (x) = 0.23578 0.46896
# Poissons Ratio (y) = 0.16437 0.41570
# Poissons Ratio (z) = 0.30749 0.39098
#
# Static dielectric constant tensor:
#      x y z
#    x 3.455920 0.000000 0.000000 
#    y 0.000000 3.791950 0.000000 
#    z 0.000000 0.000000 4.422550 
# 
# 
# High freq. dielectric constant tensor:
#      x y z
#    x 1.713660 0.000000 0.000000 
#    y 0.000000 1.767640 0.000000 
#    z 0.000000 0.000000 1.779580 
# 
# From -- ./inp_files/20867.got.cif
#   From: 2010.03.12/outbox.cif.g09.slc.cpg/sg55_11_cif.got.tgz:20867.got - 2010.04.16 15:19:21.
