data_PCOD8227015
_publ_section_title
;
Structure prediction by ZEFSAII (Michael W. Deem and Ramdas Pophale) SiO2 
 PCOD8227015
Probable space group: P B A M
;
_chemical_formula_sum "Si O2"
_cell_formula_units_Z 56
_cell_length_a 9.130426
_cell_length_b 22.876779
_cell_length_c 13.708300
_cell_angle_alpha 90.000000
_cell_angle_beta 90.000000
_cell_angle_gamma 90.000000
_cell_volume 2863.317568
_symmetry_space_group_name_H-M "P B A M"
_symmetry_group_IT_number 55
_symmetry_cell_setting 'orthorhombic'
loop_
_space_group_symop_operation_xyz
x,y,z
-x,-y,z
1/2+x,1/2-y,-z
1/2-x,1/2+y,-z
-x,-y,-z
x,y,-z
1/2-x,1/2+y,z
1/2+x,1/2-y,z
loop_
_atom_site_type_symbol
_atom_site_label
_atom_site_fract_x
_atom_site_fract_y
_atom_site_fract_z
Si Si1 0.828065 0.007944 0.610070
Si Si2 0.197392 0.708443 0.109464
Si Si3 0.971735 0.797868 0.386640
Si Si4 0.991111 0.676729 0.723915
Si Si5 0.972894 0.174728 0.890985
Si Si6 0.183280 0.875148 0.280328
Si Si7 0.279520 0.114572 0.613947
O O1 0.769134 0.020679 0.500000
O O2 0.785614 0.059741 0.683146
O O3 0.759024 0.949165 0.657199
O O4 0.000000 0.000000 0.605547
O O5 0.098018 0.671261 0.183084
O O6 0.369375 0.702758 0.135605
O O7 0.151666 0.775924 0.116811
O O8 0.168056 0.684886 0.000000
O O9 0.964278 0.779517 0.500000
O O10 0.982045 0.741749 0.318393
O O11 0.115434 0.837506 0.369459
O O12 0.830904 0.834491 0.351183
O O13 0.057022 0.633247 0.642341
O O14 0.833413 0.653956 0.754352
O O15 0.928839 0.125283 0.812072
O O16 0.975547 0.147555 0.000000
O O17 0.261369 0.107901 0.500000
#
# Coordination Sequence:
#
# PCOD8227015 Si02
#       7
#     8   8   8   8   8   8   8
#     4  10  21  40  63  84 112 160 212 251 287 342
#     4  10  21  37  58  86 121 158 195 239 298 368
#     4  11  22  37  56  83 121 160 195 237 293 354
#     4  12  24  35  56  91 125 155 191 240 308 360
#     4  10  21  38  60  87 119 155 198 246 299 359
#     4  12  23  36  60  88 116 156 202 248 293 354
#     4  10  22  40  60  83 120 163 201 243 291 347
#
# _framework density 19.557732000000001
#
# number of rings (size 3 to 8) (size 9 to 14) (size 15 to 20)
#    0.000    1.286    2.857    3.429    0.000    5.714 
#    0.000    1.429    0.000    1.286    0.000    2.000 
#    0.000    0.000    0.000    0.000    0.000    0.000 
#
# Total GULP energy -694424.478840 kJ/mol
# GULP energy per Si atom -12400.437122 kJ/mol
# Density = 1.951322 g / cm^3
# Si number density = 19.557732 Si / 1000 Ang^3
#
#
#
# Elastic Constant Matrix: (Units=GPa)
#
#
# Indices 1 2 3 4 5 6 
#
# 1 101.0211 27.9594 41.0868 0.0000 0.0000 0.0000
# 2 27.9594 92.1268 45.9403 0.0000 0.0000 0.0000
# 3 41.0868 45.9403 88.0179 0.0000 0.0000 0.0000
# 4 0.0000 0.0000 0.0000 14.2443 0.0000 0.0000
# 5 0.0000 0.0000 0.0000 0.0000 31.5140 0.0000
# 6 0.0000 0.0000 0.0000 0.0000 0.0000 11.8489
#
#
#
# Elastic Compliance Matrix: (Units=1/GPa)
#
#
# Indices 1 2 3 4 5 6 
#
# 1 0.012312 -0.001177 -0.005133 0.000000 0.000000 0.000000
# 2 -0.001177 0.014786 -0.007168 0.000000 0.000000 0.000000
# 3 -0.005133 -0.007168 0.017499 0.000000 0.000000 0.000000
# 4 0.000000 0.000000 0.000000 0.070204 0.000000 0.000000
# 5 0.000000 0.000000 0.000000 0.000000 0.031732 0.000000
# 6 0.000000 0.000000 0.000000 0.000000 0.000000 0.084396
#
#
# Mechanical properties :
#
#
# Convention : Reuss Voigt Hill
#
# Bulk Modulus (GPa) = 56.68615 56.79319 56.73967
# Shear Modulus (GPa) = 18.95620 22.60006 20.77813
#
# Velocity S-wave (km/s) = 3.11664 3.40304 3.26298
# Velocity P-wave (km/s) = 6.48060 6.67403 6.57803
#
# Compressibility (1/GPa) = 0.01764099
#
# Stress axis : x y z
#
# Youngs Moduli (GPa) = 81.21897 67.63014 57.14657
#
# Poissons Ratio (x) = 0.07960 0.29334
# Poissons Ratio (y) = 0.09559 0.40964
# Poissons Ratio (z) = 0.41691 0.48479
#
# Static dielectric constant tensor:
#      x y z
#    x 3.608140 0.000000 0.000000 
#    y 0.000000 3.624910 0.000000 
#    z 0.000000 0.000000 3.717180 
# 
# 
# High freq. dielectric constant tensor:
#      x y z
#    x 1.768350 0.000000 0.000000 
#    y 0.000000 1.733350 0.000000 
#    z 0.000000 0.000000 1.763590 
# 
# From -- ./inp_files/17632.got.cif
#   From: 2010.03.12/outbox.cif.g09.slc.cpg/sg55_9_cif.got.tgz:17632.got - 2010.04.16 15:19:21.
