data_PCOD8227143
_publ_section_title
;
Structure prediction by ZEFSAII (Michael W. Deem and Ramdas Pophale) SiO2 
 PCOD8227143
Probable space group: P B A M
;
_chemical_formula_sum "Si O2"
_cell_formula_units_Z 48
_cell_length_a 11.835078
_cell_length_b 23.731299
_cell_length_c 8.350667
_cell_angle_alpha 90.000000
_cell_angle_beta 90.000000
_cell_angle_gamma 90.000000
_cell_volume 2345.383154
_symmetry_space_group_name_H-M "P B A M"
_symmetry_group_IT_number 55
_symmetry_cell_setting 'orthorhombic'
loop_
_space_group_symop_operation_xyz
x,y,z
-x,-y,z
1/2+x,1/2-y,-z
1/2-x,1/2+y,-z
-x,-y,-z
x,y,-z
1/2-x,1/2+y,z
1/2+x,1/2-y,z
loop_
_atom_site_type_symbol
_atom_site_label
_atom_site_fract_x
_atom_site_fract_y
_atom_site_fract_z
Si Si1 0.374658 0.641112 0.815322
Si Si2 0.173213 0.710179 0.686586
Si Si3 0.773255 0.455085 0.686267
Si Si4 0.527654 0.886162 0.188326
Si Si5 0.781895 0.575435 0.815179
Si Si6 0.385431 0.335688 0.684866
O O1 0.281094 0.688935 0.785184
O O2 0.326364 0.579902 0.770200
O O3 0.482444 0.653661 0.707082
O O4 0.410381 0.641755 0.000000
O O5 0.202331 0.707502 0.500000
O O6 0.065724 0.670618 0.722237
O O7 0.144058 0.772891 0.743140
O O8 0.774198 0.439826 0.500000
O O9 0.893620 0.438695 0.762845
O O10 0.750361 0.520832 0.711758
O O11 0.400905 0.899471 0.244206
O O12 0.536429 0.875864 0.000000
O O13 0.685262 0.621433 0.792192
O O14 0.789207 0.557663 0.000000
O O15 0.353542 0.344364 0.500000
#
# Coordination Sequence:
#
# PCOD8227143 Si02
#       6
#     8   8   8   8   8   8
#     4  11  23  41  65  89 120 159 202 249 302 362
#     4  10  22  40  63  89 121 159 201 250 301 358
#     4  11  22  39  64  91 122 161 204 249 302 361
#     4  10  21  38  62  92 124 160 202 251 302 356
#     4  11  24  40  60  91 126 160 203 252 302 358
#     4  11  25  42  61  89 123 161 204 251 302 359
#
# _framework density 20.465738999999999
#
# number of rings (size 3 to 8) (size 9 to 14) (size 15 to 20)
#    0.000    1.333    0.000    7.500    2.333    8.000 
#    0.000    3.333    0.000    0.000    0.000    0.000 
#    0.000    0.000    0.000    0.000    0.000    0.000 
#
# Total GULP energy -595566.582560 kJ/mol
# GULP energy per Si atom -12407.637137 kJ/mol
# Density = 2.041916 g / cm^3
# Si number density = 20.465739 Si / 1000 Ang^3
#
#
#
# Elastic Constant Matrix: (Units=GPa)
#
#
# Indices 1 2 3 4 5 6 
#
# 1 103.7431 62.1948 3.3287 0.0000 0.0000 0.0000
# 2 62.1948 136.4398 16.0254 0.0000 0.0000 0.0000
# 3 3.3287 16.0254 59.5307 0.0000 0.0000 0.0000
# 4 0.0000 0.0000 0.0000 30.3068 0.0000 0.0000
# 5 0.0000 0.0000 0.0000 0.0000 30.9293 0.0000
# 6 0.0000 0.0000 0.0000 0.0000 0.0000 15.8727
#
#
#
# Elastic Compliance Matrix: (Units=1/GPa)
#
#
# Indices 1 2 3 4 5 6 
#
# 1 0.013312 -0.006176 0.000918 0.000000 0.000000 0.000000
# 2 -0.006176 0.010434 -0.002463 0.000000 0.000000 0.000000
# 3 0.000918 -0.002463 0.017410 0.000000 0.000000 0.000000
# 4 0.000000 0.000000 0.000000 0.032996 0.000000 0.000000
# 5 0.000000 0.000000 0.000000 0.000000 0.032332 0.000000
# 6 0.000000 0.000000 0.000000 0.000000 0.000000 0.063001
#
#
# Mechanical properties :
#
#
# Convention : Reuss Voigt Hill
#
# Bulk Modulus (GPa) = 38.89017 51.42350 45.15683
# Shear Modulus (GPa) = 25.83990 29.96606 27.90298
#
# Velocity S-wave (km/s) = 3.55715 3.83065 3.69643
# Velocity P-wave (km/s) = 5.99291 6.68927 6.35064
#
# Compressibility (1/GPa) = 0.02571344
#
# Stress axis : x y z
#
# Youngs Moduli (GPa) = 75.11789 95.84106 57.43869
#
# Poissons Ratio (x) = 0.59193 -0.05274
# Poissons Ratio (y) = 0.46394 0.14150
# Poissons Ratio (z) = -0.06898 0.23610
#
# Static dielectric constant tensor:
#      x y z
#    x 3.641180 0.000000 0.000000 
#    y 0.000000 3.714520 0.000000 
#    z 0.000000 0.000000 3.650730 
# 
# 
# High freq. dielectric constant tensor:
#      x y z
#    x 1.799420 0.000000 0.000000 
#    y 0.000000 1.806350 0.000000 
#    z 0.000000 0.000000 1.810710 
# 
# From -- ./inp_files/4091.got.cif
#   From: 2010.03.12/outbox.cif.g09.slc.cpg/sg55_3_cif.got.tgz:4091.got - 2010.04.16 15:19:21.
