data_PCOD8227038
_publ_section_title
;
Structure prediction by ZEFSAII (Michael W. Deem and Ramdas Pophale) SiO2 
 PCOD8227038
Probable space group: P B A M
;
_chemical_formula_sum "Si O2"
_cell_formula_units_Z 48
_cell_length_a 22.804837
_cell_length_b 11.694782
_cell_length_c 8.881985
_cell_angle_alpha 90.000000
_cell_angle_beta 90.000000
_cell_angle_gamma 90.000000
_cell_volume 2368.804058
_symmetry_space_group_name_H-M "P B A M"
_symmetry_group_IT_number 55
_symmetry_cell_setting 'orthorhombic'
loop_
_space_group_symop_operation_xyz
x,y,z
-x,-y,z
1/2+x,1/2-y,-z
1/2-x,1/2+y,-z
-x,-y,-z
x,y,-z
1/2-x,1/2+y,z
1/2+x,1/2-y,z
loop_
_atom_site_type_symbol
_atom_site_label
_atom_site_fract_x
_atom_site_fract_y
_atom_site_fract_z
Si Si1 0.067190 0.990181 0.824757
Si Si2 0.270718 0.125022 0.330659
Si Si3 0.555865 0.933354 0.174980
Si Si4 0.157436 0.187290 0.826380
Si Si5 0.114959 0.767296 0.322861
Si Si6 0.351939 0.923104 0.331324
O O1 0.104932 0.893154 0.741902
O O2 0.100693 0.109048 0.794144
O O3 0.066551 0.958834 0.000000
O O4 0.000000 0.000000 0.764500
O O5 0.250546 0.159556 0.500000
O O6 0.217728 0.123279 0.212597
O O7 0.322065 0.213000 0.276683
O O8 0.291433 0.993331 0.331922
O O9 0.563151 0.813784 0.261214
O O10 0.500000 0.000000 0.238400
O O11 0.608882 0.018424 0.204919
O O12 0.549901 0.904853 0.000000
O O13 0.157102 0.293435 0.714421
O O14 0.158110 0.225771 0.000000
O O15 0.109293 0.772276 0.500000
O O16 0.379519 0.929212 0.500000
#
# Coordination Sequence:
#
# PCOD8227038 Si02
#       6
#     8   8   8   8   8   8
#     4  10  24  44  62  86 125 168 208 253 310 368
#     4   9  21  41  62  88 121 158 196 248 312 364
#     4  10  21  37  61  89 120 158 197 245 302 355
#     4  11  24  39  62  92 121 159 204 252 304 366
#     4  10  22  40  63  91 121 158 204 252 305 363
#     4  10  22  40  61  88 122 157 198 249 303 361
#
# _framework density 20.263389
#
# number of rings (size 3 to 8) (size 9 to 14) (size 15 to 20)
#    0.000    2.000    0.000    3.000    4.667    7.000 
#    0.000    0.000    0.000    0.000    0.000    0.000 
#    0.000    0.000    0.000    0.000    0.000    0.000 
#
# Total GULP energy -595140.625544 kJ/mol
# GULP energy per Si atom -12398.763032 kJ/mol
# Density = 2.021727 g / cm^3
# Si number density = 20.263389 Si / 1000 Ang^3
#
#
#
# Elastic Constant Matrix: (Units=GPa)
#
#
# Indices 1 2 3 4 5 6 
#
# 1 81.7874 31.8167 27.9212 0.0000 0.0000 0.0000
# 2 31.8167 105.4056 35.2658 0.0000 0.0000 0.0000
# 3 27.9212 35.2658 61.1740 0.0000 0.0000 0.0000
# 4 0.0000 0.0000 0.0000 30.5045 0.0000 0.0000
# 5 0.0000 0.0000 0.0000 0.0000 16.0378 0.0000
# 6 0.0000 0.0000 0.0000 0.0000 0.0000 18.8895
#
#
#
# Elastic Compliance Matrix: (Units=1/GPa)
#
#
# Indices 1 2 3 4 5 6 
#
# 1 0.015120 -0.002794 -0.005290 0.000000 0.000000 0.000000
# 2 -0.002794 0.012271 -0.005799 0.000000 0.000000 0.000000
# 3 -0.005290 -0.005799 0.022104 0.000000 0.000000 0.000000
# 4 0.000000 0.000000 0.000000 0.032782 0.000000 0.000000
# 5 0.000000 0.000000 0.000000 0.000000 0.062353 0.000000
# 6 0.000000 0.000000 0.000000 0.000000 0.000000 0.052939
#
#
# Mechanical properties :
#
#
# Convention : Reuss Voigt Hill
#
# Bulk Modulus (GPa) = 46.02169 48.70826 47.36497
# Shear Modulus (GPa) = 21.49821 23.31057 22.40439
#
# Velocity S-wave (km/s) = 3.26074 3.39540 3.32875
# Velocity P-wave (km/s) = 6.07763 6.28183 6.18058
#
# Compressibility (1/GPa) = 0.02172888
#
# Stress axis : x y z
#
# Youngs Moduli (GPa) = 66.13856 81.49599 45.24014
#
# Poissons Ratio (x) = 0.22769 0.23934
# Poissons Ratio (y) = 0.18478 0.26233
# Poissons Ratio (z) = 0.34990 0.47256
#
# Static dielectric constant tensor:
#      x y z
#    x 3.714990 0.000000 0.000000 
#    y 0.000000 3.742160 0.000000 
#    z 0.000000 0.000000 3.611040 
# 
# 
# High freq. dielectric constant tensor:
#      x y z
#    x 1.786000 0.000000 0.000000 
#    y 0.000000 1.797290 0.000000 
#    z 0.000000 0.000000 1.793670 
# 
# From -- ./inp_files/9433.got.cif
#   From: 2010.03.12/outbox.cif.g09.slc.cpg/sg55_5_cif.got.tgz:9433.got - 2010.04.16 15:19:21.
