data_PCOD8227730
_publ_section_title
;
Structure prediction by ZEFSAII (Michael W. Deem and Ramdas Pophale) SiO2 
 PCOD8227730
Probable space group: P B A M
;
_chemical_formula_sum "Si O2"
_cell_formula_units_Z 48
_cell_length_a 9.230770
_cell_length_b 13.604746
_cell_length_c 17.993657
_cell_angle_alpha 90.000000
_cell_angle_beta 90.000000
_cell_angle_gamma 90.000000
_cell_volume 2259.684494
_symmetry_space_group_name_H-M "P B A M"
_symmetry_group_IT_number 55
_symmetry_cell_setting 'orthorhombic'
loop_
_space_group_symop_operation_xyz
x,y,z
-x,-y,z
1/2+x,1/2-y,-z
1/2-x,1/2+y,-z
-x,-y,-z
x,y,-z
1/2-x,1/2+y,z
1/2+x,1/2-y,z
loop_
_atom_site_type_symbol
_atom_site_label
_atom_site_fract_x
_atom_site_fract_y
_atom_site_fract_z
Si Si1 0.545400 0.758005 0.201114
Si Si2 0.656899 0.046880 0.307753
Si Si3 0.147512 0.057301 0.586844
Si Si4 0.589524 0.095018 0.080030
Si Si5 0.850282 0.055669 0.168595
Si Si6 0.804666 0.777472 0.700307
O O1 0.483310 0.839465 0.145101
O O2 0.640720 0.674681 0.163063
O O3 0.414130 0.692742 0.234172
O O4 0.642867 0.802632 0.269538
O O5 0.773658 0.016721 0.244257
O O6 0.655108 0.163894 0.314692
O O7 0.500000 0.000000 0.288923
O O8 0.715696 0.006231 0.385932
O O9 0.161402 0.076652 0.500000
O O10 0.155996 0.163169 0.626209
O O11 0.000000 0.000000 0.606924
O O12 0.741676 0.043663 0.100644
O O13 0.500000 0.000000 0.065666
O O14 0.600577 0.152285 0.000000
O O15 0.000000 0.000000 0.154217
#
# Coordination Sequence:
#
# PCOD8227730 Si02
#       6
#     8   8   8   8   8   8
#     4  11  22  42  65  99 126 170 227 272 332 397
#     4  11  22  41  68  98 132 176 233 282 334 404
#     4  11  25  43  63  96 141 181 221 283 354 405
#     4  11  26  45  65  96 136 178 219 277 346 396
#     4  11  24  40  70  98 130 174 226 274 330 405
#     4  11  23  39  68  99 126 177 231 281 335 404
#
# _framework density 21.241904999999999
#
# number of rings (size 3 to 8) (size 9 to 14) (size 15 to 20)
#    0.000    1.000    3.333    5.000    4.667    2.000 
#    0.000    4.167    0.000    0.000    0.000    0.000 
#    0.000    0.000    0.000    0.000    0.000    0.000 
#
# Total GULP energy -594695.193887 kJ/mol
# GULP energy per Si atom -12389.483206 kJ/mol
# Density = 2.119356 g / cm^3
# Si number density = 21.241905 Si / 1000 Ang^3
#
#
#
# Elastic Constant Matrix: (Units=GPa)
#
#
# Indices 1 2 3 4 5 6 
#
# 1 150.2110 53.7241 71.8208 0.0000 0.0000 0.0000
# 2 53.7241 84.4172 59.1188 0.0000 0.0000 0.0000
# 3 71.8208 59.1188 141.1946 0.0000 0.0000 0.0000
# 4 0.0000 0.0000 0.0000 37.9655 0.0000 0.0000
# 5 0.0000 0.0000 0.0000 0.0000 42.3083 0.0000
# 6 0.0000 0.0000 0.0000 0.0000 0.0000 32.6227
#
#
#
# Elastic Compliance Matrix: (Units=1/GPa)
#
#
# Indices 1 2 3 4 5 6 
#
# 1 0.009588 -0.003801 -0.003285 0.000000 0.000000 0.000000
# 2 -0.003801 0.018267 -0.005715 0.000000 0.000000 0.000000
# 3 -0.003285 -0.005715 0.011147 0.000000 0.000000 0.000000
# 4 0.000000 0.000000 0.000000 0.026340 0.000000 0.000000
# 5 0.000000 0.000000 0.000000 0.000000 0.023636 0.000000
# 6 0.000000 0.000000 0.000000 0.000000 0.000000 0.030654
#
#
# Mechanical properties :
#
#
# Convention : Reuss Voigt Hill
#
# Bulk Modulus (GPa) = 74.63537 82.79446 78.71492
# Shear Modulus (GPa) = 33.40016 35.32324 34.36170
#
# Velocity S-wave (km/s) = 3.96962 4.08230 4.02635
# Velocity P-wave (km/s) = 7.49818 7.82827 7.66500
#
# Compressibility (1/GPa) = 0.01339847
#
# Stress axis : x y z
#
# Youngs Moduli (GPa) = 104.30172 54.74269 89.71317
#
# Poissons Ratio (x) = 0.20806 0.29475
# Poissons Ratio (y) = 0.39643 0.51273
# Poissons Ratio (z) = 0.34268 0.31287
#
# Static dielectric constant tensor:
#      x y z
#    x 4.264400 0.000000 0.000000 
#    y 0.000000 3.786920 0.000000 
#    z 0.000000 0.000000 3.798180 
# 
# 
# High freq. dielectric constant tensor:
#      x y z
#    x 1.856240 0.000000 0.000000 
#    y 0.000000 1.840440 0.000000 
#    z 0.000000 0.000000 1.813770 
# 
# From -- ./inp_files/20792.got.cif
#   From: 2010.03.12/outbox.cif.g09.slc.cpg/sg55_11_cif.got.tgz:20792.got - 2010.04.16 15:19:21.
