data_PCOD8227861
_publ_section_title
;
Structure prediction by ZEFSAII (Michael W. Deem and Ramdas Pophale) SiO2 
 PCOD8227861
Probable space group: P C C N
;
_chemical_formula_sum "Si O2"
_cell_formula_units_Z 64
_cell_length_a 28.151010
_cell_length_b 22.599461
_cell_length_c 5.309904
_cell_angle_alpha 90.000000
_cell_angle_beta 90.000000
_cell_angle_gamma 90.000000
_cell_volume 3378.148460
_symmetry_space_group_name_H-M "P C C N"
_symmetry_group_IT_number 56
_symmetry_cell_setting 'orthorhombic'
loop_
_space_group_symop_operation_xyz
x,y,z
1/2-x,1/2-y,z
1/2+x,-y,1/2-z
-x,1/2+y,1/2-z
-x,-y,-z
1/2+x,1/2+y,-z
1/2-x,y,1/2+z
x,1/2-y,1/2+z
loop_
_atom_site_type_symbol
_atom_site_label
_atom_site_fract_x
_atom_site_fract_y
_atom_site_fract_z
Si Si1 0.355435 0.513122 0.174643
Si Si2 0.803295 0.724538 0.333918
Si Si3 0.525234 0.088440 0.929875
Si Si4 0.280127 0.409560 0.153504
Si Si5 0.365705 0.780760 0.138586
Si Si6 0.041416 0.001580 0.194471
Si Si7 0.371159 0.582420 0.693029
Si Si8 0.022395 0.778289 0.614869
O O1 0.317137 0.461967 0.187796
O O2 0.405797 0.481233 0.107115
O O3 0.356359 0.545327 0.445811
O O4 0.344538 0.557728 0.942076
O O5 0.750000 0.750000 0.342544
O O6 0.829349 0.748784 0.586211
O O7 0.805612 0.653766 0.324316
O O8 0.571497 0.080166 0.746513
O O9 0.508279 0.155039 0.945586
O O10 0.477141 0.051372 0.886743
O O11 0.545456 0.065064 0.195513
O O12 0.242193 0.415311 0.376941
O O13 0.343617 0.747878 0.383900
O O14 0.354264 0.850386 0.149177
O O15 0.421583 0.768969 0.128657
O O16 0.000000 0.000000 0.000000
O O17 0.000313 0.740480 0.383823
#
# Coordination Sequence:
#
# PCOD8227861 Si02
#       8
#     8   8   8   8   8   8   8   8
#     4  11  23  35  53  81 113 146 180 224 282 337
#     4  10  16  31  56  83 103 132 183 229 276 323
#     4   9  19  31  52  74 101 143 185 226 266 315
#     4  12  22  37  58  84 114 143 181 233 283 340
#     4   9  16  27  46  72 102 136 177 221 264 296
#     4  10  19  34  54  75 105 144 194 226 262 323
#     4  10  19  34  50  77 115 144 176 226 273 326
#     4   9  18  28  44  70  96 131 175 220 269 316
#
# _framework density 18.945288999999999
#
# number of rings (size 3 to 8) (size 9 to 14) (size 15 to 20)
#    0.000    2.000    3.750    1.500    1.750    3.000 
#    0.000    0.000    0.000    1.500    0.000    0.000 
#    0.000   35.000    0.000    0.000    0.000    0.000 
#
# Total GULP energy -792944.409098 kJ/mol
# GULP energy per Si atom -12389.756392 kJ/mol
# Density = 1.890217 g / cm^3
# Si number density = 18.945289 Si / 1000 Ang^3
#
#
#
# Elastic Constant Matrix: (Units=GPa)
#
#
# Indices 1 2 3 4 5 6 
#
# 1 28.7737 31.4876 14.7469 0.0000 0.0000 0.0000
# 2 31.4876 146.5419 52.1218 0.0000 0.0000 0.0000
# 3 14.7469 52.1218 138.7250 0.0000 0.0000 0.0000
# 4 0.0000 0.0000 0.0000 28.7632 0.0000 0.0000
# 5 0.0000 0.0000 0.0000 0.0000 10.2823 0.0000
# 6 0.0000 0.0000 0.0000 0.0000 0.0000 20.6988
#
#
#
# Elastic Compliance Matrix: (Units=1/GPa)
#
#
# Indices 1 2 3 4 5 6 
#
# 1 0.045655 -0.009331 -0.001348 0.000000 0.000000 0.000000
# 2 -0.009331 0.009784 -0.002684 0.000000 0.000000 0.000000
# 3 -0.001348 -0.002684 0.008360 0.000000 0.000000 0.000000
# 4 0.000000 0.000000 0.000000 0.034767 0.000000 0.000000
# 5 0.000000 0.000000 0.000000 0.000000 0.097254 0.000000
# 6 0.000000 0.000000 0.000000 0.000000 0.000000 0.048312
#
#
# Mechanical properties :
#
#
# Convention : Reuss Voigt Hill
#
# Bulk Modulus (GPa) = 26.97269 56.75036 41.86152
# Shear Modulus (GPa) = 17.65445 26.32782 21.99114
#
# Velocity S-wave (km/s) = 3.05596 3.73188 3.41070
# Velocity P-wave (km/s) = 5.16913 6.97059 6.13633
#
# Compressibility (1/GPa) = 0.03707454
#
# Stress axis : x y z
#
# Youngs Moduli (GPa) = 21.90321 102.21270 119.61462
#
# Poissons Ratio (x) = 0.95372 0.16119
# Poissons Ratio (y) = 0.20437 0.32104
# Poissons Ratio (z) = 0.02952 0.27434
#
# Static dielectric constant tensor:
#      x y z
#    x 2.636280 0.000000 0.000000 
#    y 0.000000 3.460340 0.000000 
#    z 0.000000 0.000000 4.300080 
# 
# 
# High freq. dielectric constant tensor:
#      x y z
#    x 1.663660 0.000000 0.000000 
#    y 0.000000 1.743790 0.000000 
#    z 0.000000 0.000000 1.759690 
# 
# From -- ./inp_files/1259.got.cif
#   From: 2010.03.12/outbox.cif.g09.slc.cpg/sg56_1_cif.got.tgz:1259.got - 2010.04.16 15:33:40.
