data_PCOD8227880
_publ_section_title
;
Structure prediction by ZEFSAII (Michael W. Deem and Ramdas Pophale) SiO2 
 PCOD8227880
Probable space group: P C C N
;
_chemical_formula_sum "Si O2"
_cell_formula_units_Z 52
_cell_length_a 20.253688
_cell_length_b 15.688330
_cell_length_c 7.806528
_cell_angle_alpha 90.000000
_cell_angle_beta 90.000000
_cell_angle_gamma 90.000000
_cell_volume 2480.497270
_symmetry_space_group_name_H-M "P C C N"
_symmetry_group_IT_number 56
_symmetry_cell_setting 'orthorhombic'
loop_
_space_group_symop_operation_xyz
x,y,z
1/2-x,1/2-y,z
1/2+x,-y,1/2-z
-x,1/2+y,1/2-z
-x,-y,-z
1/2+x,1/2+y,-z
1/2-x,y,1/2+z
x,1/2-y,1/2+z
loop_
_atom_site_type_symbol
_atom_site_label
_atom_site_fract_x
_atom_site_fract_y
_atom_site_fract_z
Si Si1 0.822403 0.569820 0.697477
Si Si2 0.750000 0.250000 0.250000
Si Si3 0.914562 0.587852 0.000000
Si Si4 0.643729 0.122051 0.318726
Si Si5 0.439128 0.887324 0.000000
Si Si6 0.322403 0.430180 0.197477
Si Si7 0.643729 0.122051 0.681274
O O1 0.874762 0.613402 0.827356
O O2 0.838342 0.594646 0.500000
O O3 0.750000 0.602680 0.750000
O O4 0.824602 0.468674 0.728314
O O5 0.702542 0.188244 0.357392
O O6 0.797458 0.188244 0.142607
O O7 0.930288 0.488111 1.000000
O O8 0.874762 0.613402 0.172644
O O9 0.983893 0.638404 0.000000
O O10 0.604258 0.114421 0.500000
O O11 0.675398 0.031327 0.271687
O O12 0.595266 0.153345 0.167905
O O13 0.404734 0.846655 0.167904
#
# Coordination Sequence:
#
# PCOD8227880 Si02
#       7
#     8   4   8   8   8   8   8
#     4  10  17  28  46  70  96 123 158 204 244 288
#     4  12  22  32  50  74 100 138 172 212 234 264
#     4   9  18  32  48  64  90 125 162 203 252 291
#     4  10  22  31  45  67  95 128 171 206 236 276
#     4   9  20  35  46  62  90 129 167 204 243 296
#     4  10  17  28  46  70  96 123 158 204 244 288
#     4  10  22  31  45  67  95 128 171 206 236 276
#
# _framework density 20.963539999999998
#
# number of rings (size 3 to 8) (size 9 to 14) (size 15 to 20)
#    0.000    2.154    3.077    0.462    4.308    1.231 
#    0.000    6.154    0.000    0.000    0.000    0.000 
#    0.000    0.000    0.000    4.154    0.000    0.000 
#
# Total GULP energy -644256.416215 kJ/mol
# GULP energy per Si atom -12389.546466 kJ/mol
# Density = 2.091583 g / cm^3
# Si number density = 20.963540 Si / 1000 Ang^3
#
#
#
# Elastic Constant Matrix: (Units=GPa)
#
#
# Indices 1 2 3 4 5 6 
#
# 1 166.8045 9.6389 97.6915 0.0000 0.0000 0.0000
# 2 9.6389 10.9909 7.0451 0.0000 0.0000 0.0000
# 3 97.6915 7.0451 203.7903 0.0000 0.0000 0.0000
# 4 0.0000 0.0000 0.0000 -3.1279 0.0000 0.0000
# 5 0.0000 0.0000 0.0000 0.0000 17.8273 0.0000
# 6 0.0000 0.0000 0.0000 0.0000 0.0000 20.1978
#
#
#
# Elastic Compliance Matrix: (Units=1/GPa)
#
#
# Indices 1 2 3 4 5 6 
#
# 1 0.008597 -0.005009 -0.003948 0.000000 0.000000 0.000000
# 2 -0.005009 0.095964 -0.000917 0.000000 0.000000 0.000000
# 3 -0.003948 -0.000917 0.006831 0.000000 0.000000 0.000000
# 4 0.000000 0.000000 0.000000 -0.319704 0.000000 0.000000
# 5 0.000000 0.000000 0.000000 0.000000 0.056094 0.000000
# 6 0.000000 0.000000 0.000000 0.000000 0.000000 0.049510
#
#
# Mechanical properties :
#
#
# Convention : Reuss Voigt Hill
#
# Bulk Modulus (GPa) = 10.91153 67.81519 39.36336
# Shear Modulus (GPa) = -95.39495 24.79346 -35.30075
#
# Velocity S-wave (km/s) = -6.75307 3.44276 -4.10800
# Velocity P-wave (km/s) = 7.45580 6.94427 1.91913
#
# Compressibility (1/GPa) = 0.09164621
#
# Stress axis : x y z
#
# Youngs Moduli (GPa) = 116.32569 10.42054 146.38798
#
# Poissons Ratio (x) = 0.05219 0.57791
# Poissons Ratio (y) = 0.58262 0.13417
# Poissons Ratio (z) = 0.45923 0.00955
#
# Static dielectric constant tensor:
#      x y z
#    x 3.841620 0.000000 0.000000 
#    y 0.000000 3.135000 0.000000 
#    z 0.000000 0.000000 3.985960 
# 
# 
# High freq. dielectric constant tensor:
#      x y z
#    x 1.803850 0.000000 0.000000 
#    y 0.000000 1.754520 0.000000 
#    z 0.000000 0.000000 1.843360 
# 
# From -- ./inp_files/4081.got.cif
#   From: 2010.03.12/outbox.cif.g09.slc.cpg/sg56_3_cif.got.tgz:4081.got - 2010.04.16 15:33:40.
