data_PCOD8227999
_publ_section_title
;
Structure prediction by ZEFSAII (Michael W. Deem and Ramdas Pophale) SiO2 
 PCOD8227999
Probable space group: P C C N
;
_chemical_formula_sum "Si O2"
_cell_formula_units_Z 48
_cell_length_a 9.432199
_cell_length_b 12.566559
_cell_length_c 18.470698
_cell_angle_alpha 90.000000
_cell_angle_beta 90.000000
_cell_angle_gamma 90.000000
_cell_volume 2189.337102
_symmetry_space_group_name_H-M "P C C N"
_symmetry_group_IT_number 56
_symmetry_cell_setting 'orthorhombic'
loop_
_space_group_symop_operation_xyz
x,y,z
1/2-x,1/2-y,z
1/2+x,-y,1/2-z
-x,1/2+y,1/2-z
-x,-y,-z
1/2+x,1/2+y,-z
1/2-x,y,1/2+z
x,1/2-y,1/2+z
loop_
_atom_site_type_symbol
_atom_site_label
_atom_site_fract_x
_atom_site_fract_y
_atom_site_fract_z
Si Si1 0.063850 0.386605 0.721367
Si Si2 0.715414 0.998920 0.026750
Si Si3 0.532005 0.327320 0.471040
Si Si4 0.375724 0.333503 0.058621
Si Si5 0.801183 0.503912 0.686424
Si Si6 0.593712 0.775716 0.661106
O O1 0.105543 0.377640 0.638442
O O2 0.168542 0.468056 0.762629
O O3 0.078285 0.272663 0.759051
O O4 0.898304 0.418127 0.727410
O O5 0.587420 0.916620 0.022823
O O6 0.744545 0.035502 0.108991
O O7 0.849213 0.937783 0.991414
O O8 0.679494 0.109421 0.983985
O O9 0.512646 0.231497 0.529421
O O10 0.525677 0.272769 0.391713
O O11 0.250000 0.250000 0.055845
O O12 0.914039 0.598700 0.671337
O O13 0.750000 0.750000 0.627259
#
# Coordination Sequence:
#
# PCOD8227999 Si02
#       6
#     8   8   8   8   8   8
#     4  11  25  38  67  92 132 167 219 271 334 396
#     4  10  20  34  65  92 131 160 224 271 329 399
#     4  10  18  35  65  95 118 171 219 269 322 396
#     4  10  20  38  62  94 118 171 223 268 323 411
#     4  11  23  43  64  95 132 175 214 278 336 396
#     4  10  18  40  63  90 127 173 216 268 323 394
#
# _framework density 21.924444999999999
#
# number of rings (size 3 to 8) (size 9 to 14) (size 15 to 20)
#    0.000    1.667    5.000    2.000    2.333    3.333 
#    0.000    3.333    0.000    0.000    0.000    0.000 
#    0.000    0.000    0.000    0.000    0.000    0.000 
#
# Total GULP energy -594938.743928 kJ/mol
# GULP energy per Si atom -12394.557165 kJ/mol
# Density = 2.187454 g / cm^3
# Si number density = 21.924445 Si / 1000 Ang^3
#
#
#
# Elastic Constant Matrix: (Units=GPa)
#
#
# Indices 1 2 3 4 5 6 
#
# 1 58.9803 38.8678 37.4549 0.0000 0.0000 0.0000
# 2 38.8678 49.7781 10.7044 0.0000 0.0000 0.0000
# 3 37.4549 10.7044 119.8947 0.0000 0.0000 0.0000
# 4 0.0000 0.0000 0.0000 27.8968 0.0000 0.0000
# 5 0.0000 0.0000 0.0000 0.0000 27.5710 0.0000
# 6 0.0000 0.0000 0.0000 0.0000 0.0000 20.3619
#
#
#
# Elastic Compliance Matrix: (Units=1/GPa)
#
#
# Indices 1 2 3 4 5 6 
#
# 1 0.046660 -0.033950 -0.011545 0.000000 0.000000 0.000000
# 2 -0.033950 0.045185 0.006572 0.000000 0.000000 0.000000
# 3 -0.011545 0.006572 0.011361 0.000000 0.000000 0.000000
# 4 0.000000 0.000000 0.000000 0.035846 0.000000 0.000000
# 5 0.000000 0.000000 0.000000 0.000000 0.036270 0.000000
# 6 0.000000 0.000000 0.000000 0.000000 0.000000 0.049111
#
#
# Mechanical properties :
#
#
# Convention : Reuss Voigt Hill
#
# Bulk Modulus (GPa) = 39.43533 44.74527 42.09030
# Shear Modulus (GPa) = 16.09099 24.60766 20.34932
#
# Velocity S-wave (km/s) = 2.71205 3.35384 3.04987
# Velocity P-wave (km/s) = 5.27569 5.95406 5.62511
#
# Compressibility (1/GPa) = 0.02535797
#
# Stress axis : x y z
#
# Youngs Moduli (GPa) = 21.43180 22.13123 88.02320
#
# Poissons Ratio (x) = 0.75136 1.01625
# Poissons Ratio (y) = 0.72761 -0.57847
# Poissons Ratio (z) = 0.24744 -0.14544
#
# Static dielectric constant tensor:
#      x y z
#    x 3.843230 0.000000 0.000000 
#    y 0.000000 4.339770 0.000000 
#    z 0.000000 0.000000 3.904530 
# 
# 
# High freq. dielectric constant tensor:
#      x y z
#    x 1.831350 0.000000 0.000000 
#    y 0.000000 1.861050 0.000000 
#    z 0.000000 0.000000 1.866620 
# 
# From -- ./inp_files/14849.got.cif
#   From: 2010.03.12/outbox.cif.g09.slc.cpg/sg56_8_cif.got.tgz:14849.got - 2010.04.16 15:33:40.
