data_PCOD8227077
_publ_section_title
;
Structure prediction by ZEFSAII (Michael W. Deem and Ramdas Pophale) SiO2 
 PCOD8227077
Probable space group: P B A M
;
_chemical_formula_sum "Si O2"
_cell_formula_units_Z 48
_cell_length_a 15.279929
_cell_length_b 17.673889
_cell_length_c 9.038931
_cell_angle_alpha 90.000000
_cell_angle_beta 90.000000
_cell_angle_gamma 90.000000
_cell_volume 2441.015463
_symmetry_space_group_name_H-M "P B A M"
_symmetry_group_IT_number 55
_symmetry_cell_setting 'orthorhombic'
loop_
_space_group_symop_operation_xyz
x,y,z
-x,-y,z
1/2+x,1/2-y,-z
1/2-x,1/2+y,-z
-x,-y,-z
x,y,-z
1/2-x,1/2+y,z
1/2+x,1/2-y,z
loop_
_atom_site_type_symbol
_atom_site_label
_atom_site_fract_x
_atom_site_fract_y
_atom_site_fract_z
Si Si1 0.924411 0.794776 0.673428
Si Si2 0.239407 0.461183 0.830328
Si Si3 0.416041 0.043798 0.326007
Si Si4 0.083128 0.048459 0.829991
Si Si5 0.731656 0.211621 0.174962
Si Si6 0.103866 0.716193 0.672330
O O1 0.905525 0.787951 0.500000
O O2 0.908683 0.879910 0.724562
O O3 0.859070 0.739513 0.757806
O O4 0.023220 0.770684 0.712235
O O5 0.172010 0.508860 0.736103
O O6 0.334308 0.495493 0.804652
O O7 0.243367 0.374941 0.775725
O O8 0.210049 0.465599 0.000000
O O9 0.413059 0.032921 0.500000
O O10 0.422972 0.131452 0.281485
O O11 0.500000 0.000000 0.259274
O O12 0.075140 0.075655 0.000000
O O13 0.000000 0.000000 0.780950
O O14 0.812102 0.260396 0.234622
O O15 0.728957 0.221660 0.000000
O O16 0.128250 0.720801 0.500000
#
# Coordination Sequence:
#
# PCOD8227077 Si02
#       6
#     8   8   8   8   8   8
#     4  11  23  39  60  87 119 153 192 238 288 345
#     4  10  22  38  57  84 114 147 188 233 282 335
#     4  10  21  38  59  82 111 148 186 228 282 337
#     4  10  21  39  61  85 117 154 192 236 286 341
#     4  11  23  39  60  85 115 152 193 237 287 341
#     4  10  22  39  59  85 116 151 191 234 283 341
#
# _framework density 19.663948999999999
#
# number of rings (size 3 to 8) (size 9 to 14) (size 15 to 20)
#    0.000    1.667    0.000    4.000    0.000   10.000 
#    0.000    0.000    0.000    0.000    0.000    0.000 
#    0.000    0.000    0.000    0.000    0.000    0.000 
#
# Total GULP energy -595496.598965 kJ/mol
# GULP energy per Si atom -12406.179145 kJ/mol
# Density = 1.961919 g / cm^3
# Si number density = 19.663949 Si / 1000 Ang^3
#
#
#
# Elastic Constant Matrix: (Units=GPa)
#
#
# Indices 1 2 3 4 5 6 
#
# 1 83.4313 21.0266 29.2217 0.0000 0.0000 0.0000
# 2 21.0266 104.8267 35.7770 0.0000 0.0000 0.0000
# 3 29.2217 35.7770 53.6614 0.0000 0.0000 0.0000
# 4 0.0000 0.0000 0.0000 39.9601 0.0000 0.0000
# 5 0.0000 0.0000 0.0000 0.0000 45.6329 0.0000
# 6 0.0000 0.0000 0.0000 0.0000 0.0000 36.3790
#
#
#
# Elastic Compliance Matrix: (Units=1/GPa)
#
#
# Indices 1 2 3 4 5 6 
#
# 1 0.014817 -0.000283 -0.007880 0.000000 0.000000 0.000000
# 2 -0.000283 0.012355 -0.008084 0.000000 0.000000 0.000000
# 3 -0.007880 -0.008084 0.028316 0.000000 0.000000 0.000000
# 4 0.000000 0.000000 0.000000 0.025025 0.000000 0.000000
# 5 0.000000 0.000000 0.000000 0.000000 0.021914 0.000000
# 6 0.000000 0.000000 0.000000 0.000000 0.000000 0.027488
#
#
# Mechanical properties :
#
#
# Convention : Reuss Voigt Hill
#
# Bulk Modulus (GPa) = 43.48680 45.99666 44.74173
# Shear Modulus (GPa) = 29.39896 34.78734 32.09315
#
# Velocity S-wave (km/s) = 3.87081 4.21062 4.04428
# Velocity P-wave (km/s) = 6.49157 6.86158 6.67914
#
# Compressibility (1/GPa) = 0.02299548
#
# Stress axis : x y z
#
# Youngs Moduli (GPa) = 67.48899 80.93818 35.31553
#
# Poissons Ratio (x) = 0.02287 0.27830
# Poissons Ratio (y) = 0.01907 0.28547
# Poissons Ratio (z) = 0.53184 0.65427
#
# Static dielectric constant tensor:
#      x y z
#    x 3.694210 0.000000 0.000000 
#    y 0.000000 3.720070 0.000000 
#    z 0.000000 0.000000 3.565990 
# 
# 
# High freq. dielectric constant tensor:
#      x y z
#    x 1.782570 0.000000 0.000000 
#    y 0.000000 1.782660 0.000000 
#    z 0.000000 0.000000 1.762090 
# 
# From -- ./inp_files/5574.got.cif
#   From: 2010.03.12/outbox.cif.g09.slc.cpg/sg55_3_cif.got.tgz:5574.got - 2010.04.16 15:19:21.
