data_PCOD8227532
_publ_section_title
;
Structure prediction by ZEFSAII (Michael W. Deem and Ramdas Pophale) SiO2 
 PCOD8227532
Probable space group: P B A M
;
_chemical_formula_sum "Si O2"
_cell_formula_units_Z 40
_cell_length_a 8.680382
_cell_length_b 16.096690
_cell_length_c 13.270805
_cell_angle_alpha 90.000000
_cell_angle_beta 90.000000
_cell_angle_gamma 90.000000
_cell_volume 1854.268778
_symmetry_space_group_name_H-M "P B A M"
_symmetry_group_IT_number 55
_symmetry_cell_setting 'orthorhombic'
loop_
_space_group_symop_operation_xyz
x,y,z
-x,-y,z
1/2+x,1/2-y,-z
1/2-x,1/2+y,-z
-x,-y,-z
x,y,-z
1/2-x,1/2+y,z
1/2+x,1/2-y,z
loop_
_atom_site_type_symbol
_atom_site_label
_atom_site_fract_x
_atom_site_fract_y
_atom_site_fract_z
Si Si1 0.673640 0.021203 0.193164
Si Si2 0.429252 0.256401 0.318551
Si Si3 0.190760 0.156930 0.202355
Si Si4 0.549623 0.283475 0.000000
Si Si5 0.832123 0.632578 0.390042
Si Si6 0.268131 0.871150 0.000000
O O1 0.680889 0.068831 0.298756
O O2 0.500000 0.000000 0.162704
O O3 0.774324 0.940012 0.210905
O O4 0.744100 0.074164 0.101226
O O5 0.340737 0.213621 0.224481
O O6 0.555032 0.321818 0.279992
O O7 0.311055 0.304446 0.389498
O O8 0.509123 0.183373 0.381703
O O9 0.136129 0.175434 0.091964
O O10 0.573855 0.183048 0.000000
O O11 0.369847 0.304627 0.000000
O O12 0.832600 0.587781 0.500000
#
# Coordination Sequence:
#
# PCOD8227532 Si02
#       6
#     8   8   8   4   8   4
#     4  12  26  44  66 100 137 179 215 278 339 391
#     4  10  22  43  67  96 131 175 221 275 325 395
#     4  11  23  43  67  95 135 173 223 271 336 394
#     4  12  25  41  71  99 128 181 225 275 319 396
#     4  11  23  43  69  99 133 174 225 273 330 393
#     4  12  28  45  70  98 138 174 225 269 332 396
#
# _framework density 21.571845
#
# number of rings (size 3 to 8) (size 9 to 14) (size 15 to 20)
#    0.000    0.800    2.000    6.300    2.800    4.400 
#    0.000    3.000    0.000    0.000    0.000    0.000 
#    0.000    0.000    0.000    0.000    0.000    0.000 
#
# Total GULP energy -496099.715872 kJ/mol
# GULP energy per Si atom -12402.492897 kJ/mol
# Density = 2.152275 g / cm^3
# Si number density = 21.571845 Si / 1000 Ang^3
#
#
#
# Elastic Constant Matrix: (Units=GPa)
#
#
# Indices 1 2 3 4 5 6 
#
# 1 97.3258 39.6697 22.8382 0.0000 0.0000 0.0000
# 2 39.6697 115.6093 38.3712 0.0000 0.0000 0.0000
# 3 22.8382 38.3712 144.6514 0.0000 0.0000 0.0000
# 4 0.0000 0.0000 0.0000 12.1175 0.0000 0.0000
# 5 0.0000 0.0000 0.0000 0.0000-2316.5083 0.0000
# 6 0.0000 0.0000 0.0000 0.0000 0.0000 28.8179
#
#
#
# Elastic Compliance Matrix: (Units=1/GPa)
#
#
# Indices 1 2 3 4 5 6 
#
# 1 0.012048 -0.003841 -0.000883 0.000000 0.000000 0.000000
# 2 -0.003841 0.010709 -0.002234 0.000000 0.000000 0.000000
# 3 -0.000883 -0.002234 0.007645 0.000000 0.000000 0.000000
# 4 0.000000 0.000000 0.000000 0.082525 0.000000 0.000000
# 5 0.000000 0.000000 0.000000 0.000000 -0.000432 0.000000
# 6 0.000000 0.000000 0.000000 0.000000 0.000000 0.034701
#
#
# Mechanical properties :
#
#
# Convention : Reuss Voigt Hill
#
# Bulk Modulus (GPa) = 60.66033 62.14940 61.40487
# Shear Modulus (GPa) = 30.01048 -438.00077 -203.99515
#
# Velocity S-wave (km/s) = 3.73391 -14.26477 -9.73503
# Velocity P-wave (km/s) = 6.83891 15.57044 9.89110
#
# Compressibility (1/GPa) = 0.01648524
#
# Stress axis : x y z
#
# Youngs Moduli (GPa) = 83.00459 93.37635 130.79837
#
# Poissons Ratio (x) = 0.35864 0.11553
# Poissons Ratio (y) = 0.31880 0.29226
# Poissons Ratio (z) = 0.07332 0.20864
#
# Static dielectric constant tensor:
#      x y z
#    x 4.226060 0.000000 0.000000 
#    y 0.000000 3.976870 0.000000 
#    z 0.000000 0.000000 3.834450 
# 
# 
# High freq. dielectric constant tensor:
#      x y z
#    x 1.861670 0.000000 0.000000 
#    y 0.000000 1.844750 0.000000 
#    z 0.000000 0.000000 1.851790 
# 
# From -- ./inp_files/17131.got.cif
#   From: 2010.03.12/outbox.cif.g09.slc.cpg/sg55_9_cif.got.tgz:17131.got - 2010.04.16 15:19:21.
