data_PCOD8227975
_publ_section_title
;
Structure prediction by ZEFSAII (Michael W. Deem and Ramdas Pophale) SiO2 
 PCOD8227975
Probable space group: P C C N
;
_chemical_formula_sum "Si O2"
_cell_formula_units_Z 40
_cell_length_a 13.341152
_cell_length_b 9.454724
_cell_length_c 17.832799
_cell_angle_alpha 90.000000
_cell_angle_beta 90.000000
_cell_angle_gamma 90.000000
_cell_volume 2249.374163
_symmetry_space_group_name_H-M "P C C N"
_symmetry_group_IT_number 56
_symmetry_cell_setting 'orthorhombic'
loop_
_space_group_symop_operation_xyz
x,y,z
1/2-x,1/2-y,z
1/2+x,-y,1/2-z
-x,1/2+y,1/2-z
-x,-y,-z
1/2+x,1/2+y,-z
1/2-x,y,1/2+z
x,1/2-y,1/2+z
loop_
_atom_site_type_symbol
_atom_site_label
_atom_site_fract_x
_atom_site_fract_y
_atom_site_fract_z
Si Si1 0.750000 0.250000 0.851342
Si Si2 0.250000 0.250000 0.101471
Si Si3 0.067324 0.620763 0.237157
Si Si4 0.648179 0.480628 0.952007
Si Si5 0.950274 0.828078 0.325889
Si Si6 0.555927 0.097003 0.599976
O O1 0.838732 0.303225 0.799222
O O2 0.713440 0.376068 0.903048
O O3 0.295577 0.369100 0.046963
O O4 0.332905 0.185901 0.157138
O O5 0.024685 0.493383 0.185767
O O6 0.101277 0.556018 0.318402
O O7 0.978577 0.735480 0.251412
O O8 0.537419 0.493196 0.917051
O O9 0.640399 0.420045 0.036597
O O10 0.015632 0.761156 0.394978
#
# Coordination Sequence:
#
# PCOD8227975 Si02
#       6
#     4   4   8   8   8   8
#     4  12  22  32  64  86 120 154 202 242 302 344
#     4  10  18  34  62  80 118 158 198 232 292 366
#     4  10  20  35  57  90 113 157 192 251 292 351
#     4  10  19  38  58  85 114 165 192 244 297 355
#     4   9  19  35  59  84 115 151 194 244 295 348
#     4   8  20  36  61  76 122 152 196 240 299 346
#
# _framework density 17.782724000000002
#
# number of rings (size 3 to 8) (size 9 to 14) (size 15 to 20)
#    1.200    1.200    2.000    1.200    0.000    0.800 
#    0.000    2.000    4.400    0.000    0.000    0.000 
#    0.000    0.000    0.000    0.000    0.000    0.000 
#
# Total GULP energy -495578.391864 kJ/mol
# GULP energy per Si atom -12389.459797 kJ/mol
# Density = 1.774225 g / cm^3
# Si number density = 17.782724 Si / 1000 Ang^3
#
#
#
# Elastic Constant Matrix: (Units=GPa)
#
#
# Indices 1 2 3 4 5 6 
#
# 1 68.0775 27.0334 30.0365 0.0000 0.0000 0.0000
# 2 27.0334 91.4053 20.3207 0.0000 0.0000 0.0000
# 3 30.0365 20.3207 74.1488 0.0000 0.0000 0.0000
# 4 0.0000 0.0000 0.0000 12.9024 0.0000 0.0000
# 5 0.0000 0.0000 0.0000 0.0000 23.5019 0.0000
# 6 0.0000 0.0000 0.0000 0.0000 0.0000 24.4520
#
#
#
# Elastic Compliance Matrix: (Units=1/GPa)
#
#
# Indices 1 2 3 4 5 6 
#
# 1 0.019308 -0.004229 -0.006662 0.000000 0.000000 0.000000
# 2 -0.004229 0.012576 -0.001733 0.000000 0.000000 0.000000
# 3 -0.006662 -0.001733 0.016660 0.000000 0.000000 0.000000
# 4 0.000000 0.000000 0.000000 0.077505 0.000000 0.000000
# 5 0.000000 0.000000 0.000000 0.000000 0.042550 0.000000
# 6 0.000000 0.000000 0.000000 0.000000 0.000000 0.040896
#
#
# Mechanical properties :
#
#
# Convention : Reuss Voigt Hill
#
# Bulk Modulus (GPa) = 42.92816 43.15696 43.04256
# Shear Modulus (GPa) = 20.61762 22.58732 21.60247
#
# Velocity S-wave (km/s) = 3.40872 3.56783 3.48918
# Velocity P-wave (km/s) = 6.29962 6.42606 6.36316
#
# Compressibility (1/GPa) = 0.02329473
#
# Stress axis : x y z
#
# Youngs Moduli (GPa) = 51.79178 79.51358 60.02314
#
# Poissons Ratio (x) = 0.33629 0.39990
# Poissons Ratio (y) = 0.21904 0.10404
# Poissons Ratio (z) = 0.34505 0.13783
#
# Static dielectric constant tensor:
#      x y z
#    x 3.162680 0.000000 0.000000 
#    y 0.000000 3.304270 0.000000 
#    z 0.000000 0.000000 3.224360 
# 
# 
# High freq. dielectric constant tensor:
#      x y z
#    x 1.674460 0.000000 0.000000 
#    y 0.000000 1.689500 0.000000 
#    z 0.000000 0.000000 1.672780 
# 
# From -- ./inp_files/14654.got.cif
#   From: 2010.03.12/outbox.cif.g09.slc.cpg/sg56_8_cif.got.tgz:14654.got - 2010.04.16 15:33:40.
