data_PCOD8227842
_publ_section_title
;
Structure prediction by ZEFSAII (Michael W. Deem and Ramdas Pophale) SiO2 
 PCOD8227842
Probable space group: P B A M
;
_chemical_formula_sum "Si O2"
_cell_formula_units_Z 56
_cell_length_a 15.000000
_cell_length_b 21.000000
_cell_length_c 9.000000
_cell_angle_alpha 90.000000
_cell_angle_beta 90.000000
_cell_angle_gamma 90.000000
_cell_volume 2835.000000
_symmetry_space_group_name_H-M "P B A M"
_symmetry_group_IT_number 55
_symmetry_cell_setting 'orthorhombic'
loop_
_space_group_symop_operation_xyz
x,y,z
-x,-y,z
1/2+x,1/2-y,-z
1/2-x,1/2+y,-z
-x,-y,-z
x,y,-z
1/2-x,1/2+y,z
1/2+x,1/2-y,z
loop_
_atom_site_type_symbol
_atom_site_label
_atom_site_fract_x
_atom_site_fract_y
_atom_site_fract_z
Si Si1 0.196693 0.338613 0.675400
Si Si2 0.882372 0.208880 0.325289
Si Si3 0.017662 0.895317 0.837944
Si Si4 0.997524 0.679427 0.675239
Si Si5 0.134795 0.018923 0.836739
Si Si6 0.203521 0.481758 0.670961
Si Si7 0.936411 0.441017 0.837614
O O1 0.210937 0.344448 0.500000
O O2 0.282616 0.301039 0.742438
O O3 0.105155 0.301658 0.716146
O O4 0.191622 0.410743 0.738957
O O5 0.876609 0.216977 0.500000
O O6 0.944349 0.148984 0.290632
O O7 0.931454 0.270782 0.256422
O O8 0.914902 0.913871 0.804922
O O9 0.067343 0.961343 0.843048
O O10 0.025979 0.861359 0.000000
O O11 0.007528 0.675305 0.500000
O O12 0.014609 0.610529 0.738868
O O13 0.196452 0.004660 0.696218
O O14 0.182863 0.022904 0.000000
O O15 0.175803 0.483118 0.500000
O O16 0.151332 0.535926 0.757269
O O17 0.000000 0.500000 0.854684
O O18 0.913203 0.412801 0.000000
#
# Coordination Sequence:
#
# PCOD8227842 Si02
#       7
#     8   8   8   8   8   8   8
#     4   9  18  34  56  82 109 143 186 232 283 336
#     4  10  20  36  58  83 113 150 196 241 282 339
#     4   9  18  33  54  78 112 152 186 231 286 337
#     4  10  21  39  60  80 112 152 188 238 292 339
#     4   9  18  33  52  79 114 150 188 231 282 335
#     4  11  20  33  58  84 111 145 185 234 284 339
#     4  11  23  38  58  84 114 143 182 238 290 345
#
# _framework density 19.753086
#
# number of rings (size 3 to 8) (size 9 to 14) (size 15 to 20)
#    0.000    2.143    2.857    1.714    0.000    1.714 
#    2.571    2.143    0.000    0.000    0.000    0.000 
#    0.000    0.000    0.000    0.000    0.000    0.000 
#
# Total GULP energy -693778.924589 kJ/mol
# GULP energy per Si atom -12388.909368 kJ/mol
# Density = 1.970813 g / cm^3
# Si number density = 19.753086 Si / 1000 Ang^3
#
#
#
# Elastic Constant Matrix: (Units=GPa)
#
#
# Indices 1 2 3 4 5 6 
#
# 1 105.1939 61.3316 36.4783 0.0000 0.0000 0.0000
# 2 61.3316 77.7254 20.6003 0.0000 0.0000 0.0000
# 3 36.4783 20.6003 0.4295 0.0000 0.0000 0.0000
# 4 0.0000 0.0000 0.0000 18.5496 0.0000 0.0000
# 5 0.0000 0.0000 0.0000 0.0000 7.3900 0.0000
# 6 0.0000 0.0000 0.0000 0.0000 0.0000 23.8104
#
#
#
# Elastic Compliance Matrix: (Units=1/GPa)
#
#
# Indices 1 2 3 4 5 6 
#
# 1 0.007241 -0.013429 0.029111 0.000000 0.000000 0.000000
# 2 -0.013429 0.023808 -0.001301 0.000000 0.000000 0.000000
# 3 0.029111 -0.001301 -0.081761 0.000000 0.000000 0.000000
# 4 0.000000 0.000000 0.000000 0.053910 0.000000 0.000000
# 5 0.000000 0.000000 0.000000 0.000000 0.135318 0.000000
# 6 0.000000 0.000000 0.000000 0.000000 0.000000 0.041998
#
#
# Mechanical properties :
#
#
# Convention : Reuss Voigt Hill
#
# Bulk Modulus (GPa) = -45.55519 46.68545 0.56513
# Shear Modulus (GPa) = 34.61769 14.27926 24.44847
#
# Velocity S-wave (km/s) = 4.19085 2.69157 3.52192
# Velocity P-wave (km/s) = 0.55253 5.77453 4.10186
#
# Compressibility (1/GPa) = -0.02195140
#
# Stress axis : x y z
#
# Youngs Moduli (GPa) = 138.09890 42.00356 -12.23073
#
# Poissons Ratio (x) = 0.56408 0.35605
# Poissons Ratio (y) = 1.85459 -0.01591
# Poissons Ratio (z) = -4.02020 0.05465
#
# Static dielectric constant tensor:
#      x y z
#    x 4.131470 0.000000 0.000000 
#    y 0.000000 3.410100 0.000000 
#    z 0.000000 0.000000 3.403950 
# 
# 
# High freq. dielectric constant tensor:
#      x y z
#    x 1.769610 0.000000 0.000000 
#    y 0.000000 1.742540 0.000000 
#    z 0.000000 0.000000 1.743260 
# 
# From -- ./inp_files/6094.got.cif
#   From: 2010.03.12/outbox.ucp.g09.slc.cvg/sg55_4_cif.got.tgz:6094.got - 2010.05.04 19:23:19.
