data_PCOD8227672
_publ_section_title
;
Structure prediction by ZEFSAII (Michael W. Deem and Ramdas Pophale) SiO2 
 PCOD8227672
Probable space group: P B A M
;
_chemical_formula_sum "Si O2"
_cell_formula_units_Z 64
_cell_length_a 20.342742
_cell_length_b 19.542473
_cell_length_c 8.884882
_cell_angle_alpha 90.000000
_cell_angle_beta 90.000000
_cell_angle_gamma 90.000000
_cell_volume 3532.162505
_symmetry_space_group_name_H-M "P B A M"
_symmetry_group_IT_number 55
_symmetry_cell_setting 'orthorhombic'
loop_
_space_group_symop_operation_xyz
x,y,z
-x,-y,z
1/2+x,1/2-y,-z
1/2-x,1/2+y,-z
-x,-y,-z
x,y,-z
1/2-x,1/2+y,z
1/2+x,1/2-y,z
loop_
_atom_site_type_symbol
_atom_site_label
_atom_site_fract_x
_atom_site_fract_y
_atom_site_fract_z
Si Si1 0.732161 0.560901 0.175809
Si Si2 0.381102 0.076771 0.676893
Si Si3 0.732528 0.426302 0.674238
Si Si4 0.437181 0.220629 0.678254
Si Si5 0.618948 0.059157 0.823749
Si Si6 0.071295 0.294481 0.822589
Si Si7 0.306070 0.722647 0.323480
Si Si8 0.317616 0.292843 0.178280
O O1 0.700044 0.492601 0.247167
O O2 0.806675 0.570888 0.235789
O O3 0.690525 0.627427 0.220814
O O4 0.732263 0.549827 0.000000
O O5 0.384113 0.069121 0.500000
O O6 0.306483 0.085531 0.736041
O O7 0.421311 0.143161 0.729370
O O8 0.412688 0.008202 0.747945
O O9 0.735835 0.442978 0.500000
O O10 0.689733 0.358799 0.706054
O O11 0.429618 0.231101 0.500000
O O12 0.510805 0.237847 0.731319
O O13 0.389454 0.272160 0.765269
O O14 0.576665 0.125482 0.779560
O O15 0.618851 0.047309 0.000000
O O16 0.137364 0.256763 0.773874
O O17 0.061367 0.284189 0.000000
O O18 0.313885 0.739601 0.500000
O O19 0.235642 0.748634 0.267776
O O20 0.309340 0.280683 0.000000
#
# Coordination Sequence:
#
# PCOD8227672 Si02
#       8
#     8   8   8   8   8   8   8   8
#     4   9  18  33  53  81 111 140 178 223 272 325
#     4   9  18  33  51  75 109 145 184 224 265 322
#     4   9  18  33  53  81 111 140 178 223 272 325
#     4  11  23  39  55  79 112 148 189 230 277 330
#     4   9  18  33  51  75 109 145 184 224 265 322
#     4  11  23  39  55  79 112 148 189 230 277 330
#     4  11  21  36  58  84 112 145 185 230 275 325
#     4  11  21  36  58  84 112 145 185 230 275 325
#
# _framework density 18.119211
#
# number of rings (size 3 to 8) (size 9 to 14) (size 15 to 20)
#    0.000    2.000    2.500    1.500    0.000    4.500 
#    0.000    2.500    0.000    0.750    0.000    5.250 
#    0.000    0.000    0.000    0.000    0.000    0.000 
#
# Total GULP energy -793659.622359 kJ/mol
# GULP energy per Si atom -12400.931599 kJ/mol
# Density = 1.807797 g / cm^3
# Si number density = 18.119211 Si / 1000 Ang^3
#
#
#
# Elastic Constant Matrix: (Units=GPa)
#
#
# Indices 1 2 3 4 5 6 
#
# 1 41.2532 7.0145 6.7503 0.0000 0.0000 0.0000
# 2 7.0145 83.4554 33.0824 0.0000 0.0000 0.0000
# 3 6.7503 33.0824 43.5927 0.0000 0.0000 0.0000
# 4 0.0000 0.0000 0.0000 33.8118 0.0000 0.0000
# 5 0.0000 0.0000 0.0000 0.0000 26.4461 0.0000
# 6 0.0000 0.0000 0.0000 0.0000 0.0000 19.2550
#
#
#
# Elastic Compliance Matrix: (Units=1/GPa)
#
#
# Indices 1 2 3 4 5 6 
#
# 1 0.024909 -0.000808 -0.003244 0.000000 0.000000 0.000000
# 2 -0.000808 0.017164 -0.012901 0.000000 0.000000 0.000000
# 3 -0.003244 -0.012901 0.033232 0.000000 0.000000 0.000000
# 4 0.000000 0.000000 0.000000 0.029575 0.000000 0.000000
# 5 0.000000 0.000000 0.000000 0.000000 0.037813 0.000000
# 6 0.000000 0.000000 0.000000 0.000000 0.000000 0.051935
#
#
# Mechanical properties :
#
#
# Convention : Reuss Voigt Hill
#
# Bulk Modulus (GPa) = 24.15454 29.11062 26.63258
# Shear Modulus (GPa) = 20.63270 23.99952 22.31611
#
# Velocity S-wave (km/s) = 3.37815 3.64336 3.51326
# Velocity P-wave (km/s) = 5.34563 5.81376 5.58460
#
# Compressibility (1/GPa) = 0.04140009
#
# Stress axis : x y z
#
# Youngs Moduli (GPa) = 40.14663 58.26028 30.09109
#
# Poissons Ratio (x) = 0.04705 0.09762
# Poissons Ratio (y) = 0.03242 0.38820
# Poissons Ratio (z) = 0.13024 0.75161
#
# Static dielectric constant tensor:
#      x y z
#    x 3.120120 0.000000 0.000000 
#    y 0.000000 3.496090 0.000000 
#    z 0.000000 0.000000 3.289950 
# 
# 
# High freq. dielectric constant tensor:
#      x y z
#    x 1.673850 0.000000 0.000000 
#    y 0.000000 1.706030 0.000000 
#    z 0.000000 0.000000 1.705610 
# 
# From -- ./inp_files/9019.got.cif
#   From: 2010.03.12/outbox.cif.g09.slc.cpg/sg55_5_cif.got.tgz:9019.got - 2010.04.16 15:19:21.
