data_PCOD8227900
_publ_section_title
;
Structure prediction by ZEFSAII (Michael W. Deem and Ramdas Pophale) SiO2 
 PCOD8227900
Probable space group: P C C N
;
_chemical_formula_sum "Si O2"
_cell_formula_units_Z 64
_cell_length_a 19.415014
_cell_length_b 18.654179
_cell_length_c 9.781938
_cell_angle_alpha 90.000000
_cell_angle_beta 90.000000
_cell_angle_gamma 90.000000
_cell_volume 3542.735700
_symmetry_space_group_name_H-M "P C C N"
_symmetry_group_IT_number 56
_symmetry_cell_setting 'orthorhombic'
loop_
_space_group_symop_operation_xyz
x,y,z
1/2-x,1/2-y,z
1/2+x,-y,1/2-z
-x,1/2+y,1/2-z
-x,-y,-z
1/2+x,1/2+y,-z
1/2-x,y,1/2+z
x,1/2-y,1/2+z
loop_
_atom_site_type_symbol
_atom_site_label
_atom_site_fract_x
_atom_site_fract_y
_atom_site_fract_z
Si Si1 0.108955 0.675052 0.126981
Si Si2 0.964837 0.147889 0.634392
Si Si3 0.701261 0.029343 0.460442
Si Si4 0.385686 0.832784 0.588666
Si Si5 0.962584 0.528640 0.717246
Si Si6 0.075127 0.432560 0.582340
Si Si7 0.493819 0.805797 0.362896
Si Si8 0.677826 0.045574 0.767345
O O1 0.142569 0.751111 0.080699
O O2 0.040397 0.689471 0.214601
O O3 0.167099 0.631074 0.209896
O O4 0.084337 0.630368 0.994046
O O5 0.916270 0.154309 0.763727
O O6 0.005876 0.222207 0.602480
O O7 0.018567 0.084615 0.663174
O O8 0.674065 0.109133 0.429515
O O9 0.712638 0.025947 0.623133
O O10 0.773428 0.015104 0.386316
O O11 0.650757 0.966722 0.404788
O O12 0.442821 0.844899 0.471304
O O13 0.944837 0.567664 0.576427
O O14 0.898068 0.486947 0.778985
O O15 0.024997 0.475472 0.684132
O O16 0.066684 0.349280 0.630674
#
# Coordination Sequence:
#
# PCOD8227900 Si02
#       8
#     8   8   8   8   8   8   8   8
#     4  10  21  33  51  84 114 139 173 229 268 316
#     4  10  20  30  57  88 111 133 173 234 275 315
#     4  11  23  38  55  76 106 150 188 226 266 328
#     4  10  18  35  56  77 110 145 183 211 266 335
#     4  10  18  35  58  81 105 143 182 228 272 324
#     4  10  17  34  61  77 101 148 188 214 272 337
#     4  10  17  35  56  83 109 137 182 221 272 332
#     4  11  24  39  53  76 112 147 189 225 268 325
#
# _framework density 18.065135000000001
#
# number of rings (size 3 to 8) (size 9 to 14) (size 15 to 20)
#    0.000    1.750    5.000    0.750    1.750    1.000 
#    2.250    1.250    0.000    0.750    0.000    3.500 
#    0.000    0.000    0.000    0.000    0.000    0.000 
#
# Total GULP energy -793281.195408 kJ/mol
# GULP energy per Si atom -12395.018678 kJ/mol
# Density = 1.802402 g / cm^3
# Si number density = 18.065135 Si / 1000 Ang^3
#
#
#
# Elastic Constant Matrix: (Units=GPa)
#
#
# Indices 1 2 3 4 5 6 
#
# 1 56.8788 20.0214 25.5160 0.0000 0.0000 0.0000
# 2 20.0214 55.5300 15.6568 0.0000 0.0000 0.0000
# 3 25.5160 15.6568 86.3459 0.0000 0.0000 0.0000
# 4 0.0000 0.0000 0.0000 27.0504 0.0000 0.0000
# 5 0.0000 0.0000 0.0000 0.0000 29.0555 0.0000
# 6 0.0000 0.0000 0.0000 0.0000 0.0000 17.7589
#
#
#
# Elastic Compliance Matrix: (Units=1/GPa)
#
#
# Indices 1 2 3 4 5 6 
#
# 1 0.022301 -0.006516 -0.005409 0.000000 0.000000 0.000000
# 2 -0.006516 0.020882 -0.001861 0.000000 0.000000 0.000000
# 3 -0.005409 -0.001861 0.013517 0.000000 0.000000 0.000000
# 4 0.000000 0.000000 0.000000 0.036968 0.000000 0.000000
# 5 0.000000 0.000000 0.000000 0.000000 0.034417 0.000000
# 6 0.000000 0.000000 0.000000 0.000000 0.000000 0.056310
#
#
# Mechanical properties :
#
#
# Convention : Reuss Voigt Hill
#
# Bulk Modulus (GPa) = 34.32940 35.68256 35.00598
# Shear Modulus (GPa) = 22.55545 23.94367 23.24956
#
# Velocity S-wave (km/s) = 3.53733 3.64456 3.59135
# Velocity P-wave (km/s) = 5.97729 6.12417 6.05118
#
# Compressibility (1/GPa) = 0.02912955
#
# Stress axis : x y z
#
# Youngs Moduli (GPa) = 44.84071 47.88756 73.98032
#
# Poissons Ratio (x) = 0.31202 0.40014
# Poissons Ratio (y) = 0.29217 0.13768
# Poissons Ratio (z) = 0.24253 0.08912
#
# Static dielectric constant tensor:
#      x y z
#    x 2.988060 0.000000 0.000000 
#    y 0.000000 3.620760 0.000000 
#    z 0.000000 0.000000 3.511990 
# 
# 
# High freq. dielectric constant tensor:
#      x y z
#    x 1.652960 0.000000 0.000000 
#    y 0.000000 1.695830 0.000000 
#    z 0.000000 0.000000 1.712170 
# 
# From -- ./inp_files/4562.got.cif
#   From: 2010.03.12/outbox.cif.g09.slc.cpg/sg56_3_cif.got.tgz:4562.got - 2010.04.16 15:33:40.
