data_PCOD8227055
_publ_section_title
;
Structure prediction by ZEFSAII (Michael W. Deem and Ramdas Pophale) SiO2 
 PCOD8227055
Probable space group: P B A M
;
_chemical_formula_sum "Si O2"
_cell_formula_units_Z 64
_cell_length_a 33.792175
_cell_length_b 11.745408
_cell_length_c 9.134785
_cell_angle_alpha 90.000000
_cell_angle_beta 90.000000
_cell_angle_gamma 90.000000
_cell_volume 3625.622498
_symmetry_space_group_name_H-M "P B A M"
_symmetry_group_IT_number 55
_symmetry_cell_setting 'orthorhombic'
loop_
_space_group_symop_operation_xyz
x,y,z
-x,-y,z
1/2+x,1/2-y,-z
1/2-x,1/2+y,-z
-x,-y,-z
x,y,-z
1/2-x,1/2+y,z
1/2+x,1/2-y,z
loop_
_atom_site_type_symbol
_atom_site_label
_atom_site_fract_x
_atom_site_fract_y
_atom_site_fract_z
Si Si1 0.190843 0.353174 0.667230
Si Si2 0.268306 0.288445 0.827835
Si Si3 0.949136 0.889334 0.173195
Si Si4 0.628651 0.336684 0.668139
Si Si5 0.111799 0.742275 0.832823
Si Si6 0.323415 0.113287 0.328239
Si Si7 0.665550 0.540085 0.164969
Si Si8 0.464403 0.357917 0.172920
O O1 0.205893 0.344831 0.500000
O O2 0.223948 0.301583 0.772603
O O3 0.150765 0.282686 0.689681
O O4 0.181607 0.481861 0.711600
O O5 0.292477 0.403757 0.791209
O O6 0.288253 0.180948 0.749813
O O7 0.268946 0.263414 0.000000
O O8 0.912869 0.825250 0.248633
O O9 0.990528 0.827229 0.218289
O O10 0.951457 0.018501 0.233857
O O11 0.942235 0.885126 0.000000
O O12 0.619976 0.363231 0.500000
O O13 0.656673 0.436835 0.727517
O O14 0.133604 0.651719 0.730293
O O15 0.131782 0.865486 0.821459
O O16 0.066467 0.759887 0.776435
O O17 0.113507 0.697849 0.000000
O O18 0.321437 0.137143 0.500000
O O19 0.666980 0.491966 0.000000
O O20 0.462189 0.370058 0.000000
#
# Coordination Sequence:
#
# PCOD8227055 Si02
#       8
#     8   8   8   8   8   8   8   8
#     4  10  24  41  54  72 103 144 180 213 259 312
#     4  10  22  38  58  81 103 128 169 223 268 307
#     4   9  16  30  51  75 106 141 174 207 257 316
#     4  11  22  34  50  75 107 142 175 213 257 305
#     4   9  16  31  54  79 105 133 170 213 259 306
#     4  10  21  38  56  75 103 138 177 215 257 312
#     4   9  18  33  52  76 104 133 166 207 258 314
#     4   8  14  27  51  78 105 138 170 207 258 314
#
# _framework density 17.652142000000001
#
# number of rings (size 3 to 8) (size 9 to 14) (size 15 to 20)
#    0.000    2.500    1.250    2.625    1.750    4.500 
#    0.000    1.875    0.000    0.750    0.000    5.250 
#    0.000    0.000    0.000    0.000    0.000    0.000 
#
# Total GULP energy -793481.632208 kJ/mol
# GULP energy per Si atom -12398.150503 kJ/mol
# Density = 1.761197 g / cm^3
# Si number density = 17.652142 Si / 1000 Ang^3
#
#
#
# Elastic Constant Matrix: (Units=GPa)
#
#
# Indices 1 2 3 4 5 6 
#
# 1 130.6356 51.1966 53.0404 0.0000 0.0000 0.0000
# 2 51.1966 88.8439 49.5363 0.0000 0.0000 0.0000
# 3 53.0404 49.5363 82.7593 0.0000 0.0000 0.0000
# 4 0.0000 0.0000 0.0000 13.3023 0.0000 0.0000
# 5 0.0000 0.0000 0.0000 0.0000 22.4791 0.0000
# 6 0.0000 0.0000 0.0000 0.0000 0.0000 19.9340
#
#
#
# Elastic Compliance Matrix: (Units=1/GPa)
#
#
# Indices 1 2 3 4 5 6 
#
# 1 0.011080 -0.003641 -0.004922 0.000000 0.000000 0.000000
# 2 -0.003641 0.018090 -0.008495 0.000000 0.000000 0.000000
# 3 -0.004922 -0.008495 0.020322 0.000000 0.000000 0.000000
# 4 0.000000 0.000000 0.000000 0.075175 0.000000 0.000000
# 5 0.000000 0.000000 0.000000 0.000000 0.044486 0.000000
# 6 0.000000 0.000000 0.000000 0.000000 0.000000 0.050166
#
#
# Mechanical properties :
#
#
# Convention : Reuss Voigt Hill
#
# Bulk Modulus (GPa) = 65.02922 67.75395 66.39158
# Shear Modulus (GPa) = 19.33792 21.04076 20.18934
#
# Velocity S-wave (km/s) = 3.31342 3.45623 3.38558
# Velocity P-wave (km/s) = 7.18036 7.37520 7.27843
#
# Compressibility (1/GPa) = 0.01537770
#
# Stress axis : x y z
#
# Youngs Moduli (GPa) = 90.25184 55.27953 49.20681
#
# Poissons Ratio (x) = 0.20125 0.24220
# Poissons Ratio (y) = 0.32856 0.41799
# Poissons Ratio (z) = 0.44423 0.46958
#
# Static dielectric constant tensor:
#      x y z
#    x 3.558610 0.000000 0.000000 
#    y 0.000000 3.074470 0.000000 
#    z 0.000000 0.000000 3.171360 
# 
# 
# High freq. dielectric constant tensor:
#      x y z
#    x 1.692030 0.000000 0.000000 
#    y 0.000000 1.654410 0.000000 
#    z 0.000000 0.000000 1.672840 
# 
# From -- ./inp_files/10801.got.cif
#   From: 2010.03.12/outbox.cif.g09.slc.cpg/sg55_6_cif.got.tgz:10801.got - 2010.04.16 15:19:21.
