data_PCOD8227697
_publ_section_title
;
Structure prediction by ZEFSAII (Michael W. Deem and Ramdas Pophale) SiO2 
 PCOD8227697
Probable space group: P B A M
;
_chemical_formula_sum "Si O2"
_cell_formula_units_Z 64
_cell_length_a 11.489517
_cell_length_b 33.139635
_cell_length_c 9.020227
_cell_angle_alpha 90.000000
_cell_angle_beta 90.000000
_cell_angle_gamma 90.000000
_cell_volume 3434.527198
_symmetry_space_group_name_H-M "P B A M"
_symmetry_group_IT_number 55
_symmetry_cell_setting 'orthorhombic'
loop_
_space_group_symop_operation_xyz
x,y,z
-x,-y,z
1/2+x,1/2-y,-z
1/2-x,1/2+y,-z
-x,-y,-z
x,y,-z
1/2-x,1/2+y,z
1/2+x,1/2-y,z
loop_
_atom_site_type_symbol
_atom_site_label
_atom_site_fract_x
_atom_site_fract_y
_atom_site_fract_z
Si Si1 0.674727 0.828130 0.831318
Si Si2 0.313485 0.592205 0.827094
Si Si3 0.835454 0.469959 0.671767
Si Si4 0.468576 0.361273 0.824162
Si Si5 0.054009 0.302033 0.325222
Si Si6 0.089565 0.442455 0.326914
Si Si7 0.706454 0.132354 0.175891
Si Si8 0.408285 0.718793 0.170830
O O1 0.722663 0.872241 0.791196
O O2 0.571786 0.818876 0.718702
O O3 0.774832 0.794794 0.812413
O O4 0.627498 0.827374 0.000000
O O5 0.272480 0.550673 0.753727
O O6 0.440414 0.605155 0.763333
O O7 0.321573 0.584081 0.000000
O O8 0.819245 0.461908 0.500000
O O9 0.834157 0.517661 0.705631
O O10 0.957482 0.450661 0.723375
O O11 0.339583 0.371612 0.768536
O O12 0.506673 0.316704 0.771636
O O13 0.478751 0.361375 0.000000
O O14 0.068895 0.305692 0.500000
O O15 0.154638 0.327515 0.246836
O O16 0.066996 0.256104 0.276332
O O17 0.096067 0.430769 0.500000
O O18 0.136541 0.406632 0.227093
O O19 0.699381 0.136210 0.000000
O O20 0.435109 0.730310 0.000000
#
# Coordination Sequence:
#
# PCOD8227697 Si02
#       8
#     8   8   8   8   8   8   8   8
#     4   9  19  36  57  79 103 134 178 225 266 315
#     4   9  17  33  57  82 104 132 177 229 269 309
#     4   9  18  33  55  80 110 146 179 215 271 331
#     4   8  18  37  58  78 104 139 179 225 272 317
#     4  12  25  36  51  79 113 142 173 219 274 329
#     4   9  19  36  54  78 113 147 178 221 272 321
#     4  11  22  37  57  80 106 143 186 222 268 327
#     4   9  19  38  60  78 100 137 184 226 266 315
#
# _framework density 18.634297
#
# number of rings (size 3 to 8) (size 9 to 14) (size 15 to 20)
#    0.000    2.500    0.000    4.500    1.750    4.000 
#    0.000    5.625    0.000    3.750    0.000    0.000 
#    0.000    0.000    0.000    0.000    0.000    0.000 
#
# Total GULP energy -793601.268231 kJ/mol
# GULP energy per Si atom -12400.019816 kJ/mol
# Density = 1.859188 g / cm^3
# Si number density = 18.634297 Si / 1000 Ang^3
#
#
#
# Elastic Constant Matrix: (Units=GPa)
#
#
# Indices 1 2 3 4 5 6 
#
# 1 67.7449 12.8356 22.2869 0.0000 0.0000 0.0000
# 2 12.8356 57.2219 18.6974 0.0000 0.0000 0.0000
# 3 22.2869 18.6974 57.0280 0.0000 0.0000 0.0000
# 4 0.0000 0.0000 0.0000 20.3475 0.0000 0.0000
# 5 0.0000 0.0000 0.0000 0.0000 8.8227 0.0000
# 6 0.0000 0.0000 0.0000 0.0000 0.0000 15.9093
#
#
#
# Elastic Compliance Matrix: (Units=1/GPa)
#
#
# Indices 1 2 3 4 5 6 
#
# 1 0.017112 -0.001852 -0.006081 0.000000 0.000000 0.000000
# 2 -0.001852 0.019773 -0.005759 0.000000 0.000000 0.000000
# 3 -0.006081 -0.005759 0.021800 0.000000 0.000000 0.000000
# 4 0.000000 0.000000 0.000000 0.049146 0.000000 0.000000
# 5 0.000000 0.000000 0.000000 0.000000 0.113344 0.000000
# 6 0.000000 0.000000 0.000000 0.000000 0.000000 0.062856
#
#
# Mechanical properties :
#
#
# Convention : Reuss Voigt Hill
#
# Bulk Modulus (GPa) = 31.94643 32.18161 32.06402
# Shear Modulus (GPa) = 15.53522 17.56089 16.54806
#
# Velocity S-wave (km/s) = 2.89050 3.07318 2.98324
# Velocity P-wave (km/s) = 5.32176 5.46810 5.39543
#
# Compressibility (1/GPa) = 0.03130240
#
# Stress axis : x y z
#
# Youngs Moduli (GPa) = 58.43687 50.57397 45.87205
#
# Poissons Ratio (x) = 0.09365 0.27893
# Poissons Ratio (y) = 0.10821 0.26419
# Poissons Ratio (z) = 0.35533 0.29126
#
# Static dielectric constant tensor:
#      x y z
#    x 3.628980 0.000000 0.000000 
#    y 0.000000 3.452280 0.000000 
#    z 0.000000 0.000000 3.166980 
# 
# 
# High freq. dielectric constant tensor:
#      x y z
#    x 1.723670 0.000000 0.000000 
#    y 0.000000 1.726650 0.000000 
#    z 0.000000 0.000000 1.704280 
# 
# From -- ./inp_files/4608.got.cif
#   From: 2010.03.12/outbox.cif.g09.slc.cpg/sg55_3_cif.got.tgz:4608.got - 2010.04.16 15:19:21.
