data_PCOD8227225
_publ_section_title
;
Structure prediction by ZEFSAII (Michael W. Deem and Ramdas Pophale) SiO2 
 PCOD8227225
Probable space group: P B A M
;
_chemical_formula_sum "Si O2"
_cell_formula_units_Z 48
_cell_length_a 17.924937
_cell_length_b 8.784096
_cell_length_c 14.922200
_cell_angle_alpha 90.000000
_cell_angle_beta 90.000000
_cell_angle_gamma 90.000000
_cell_volume 2349.565561
_symmetry_space_group_name_H-M "P B A M"
_symmetry_group_IT_number 55
_symmetry_cell_setting 'orthorhombic'
loop_
_space_group_symop_operation_xyz
x,y,z
-x,-y,z
1/2+x,1/2-y,-z
1/2-x,1/2+y,-z
-x,-y,-z
x,y,-z
1/2-x,1/2+y,z
1/2+x,1/2-y,z
loop_
_atom_site_type_symbol
_atom_site_label
_atom_site_fract_x
_atom_site_fract_y
_atom_site_fract_z
Si Si1 0.568208 0.882821 0.500000
Si Si2 0.656759 0.392673 0.149598
Si Si3 0.188377 0.761579 0.150599
Si Si4 0.550296 0.359293 0.500000
Si Si5 0.823041 0.271442 0.644878
Si Si6 0.163360 0.080361 0.354296
Si Si7 0.562512 0.236945 0.000000
Si Si8 0.403047 0.117650 0.000000
O O1 0.522831 0.734851 0.500000
O O2 0.620789 0.880830 0.410834
O O3 0.500000 0.000000 0.500000
O O4 0.724941 0.276659 0.138537
O O5 0.678781 0.563484 0.120255
O O6 0.633377 0.401288 0.253355
O O7 0.590292 0.326905 0.088462
O O8 0.158644 0.723180 0.249846
O O9 0.142470 0.650082 0.088811
O O10 0.500000 0.500000 0.500000
O O11 0.601146 0.336639 0.586990
O O12 0.740290 0.333086 0.628379
O O13 0.827488 0.095099 0.614369
O O14 0.473317 0.232504 0.000000
O O15 0.584321 0.061244 0.000000
#
# Coordination Sequence:
#
# PCOD8227225 Si02
#       8
#     4   8   8   4   8   8   4   4
#     4  12  27  42  58  94 127 164 206 252 311 371
#     4  10  21  39  64  92 118 157 206 249 302 357
#     4  10  21  39  65  90 119 158 203 254 296 361
#     4  12  23  42  62  88 129 164 200 253 313 367
#     4  10  22  42  64  93 122 161 212 254 306 367
#     4  10  22  40  67  91 122 164 207 256 306 367
#     4  11  24  41  58  89 125 161 200 249 308 365
#     4  11  24  41  58  87 125 163 200 249 310 357
#
# _framework density 20.429309
#
# number of rings (size 3 to 8) (size 9 to 14) (size 15 to 20)
#    0.000    1.500    1.667    2.500    2.333    4.000 
#    3.000    0.000    0.000    0.000    0.000    0.000 
#    0.000    0.000    0.000    0.000    0.000    0.000 
#
# Total GULP energy -594802.335750 kJ/mol
# GULP energy per Si atom -12391.715328 kJ/mol
# Density = 2.038281 g / cm^3
# Si number density = 20.429309 Si / 1000 Ang^3
#
#
#
# Elastic Constant Matrix: (Units=GPa)
#
#
# Indices 1 2 3 4 5 6 
#
# 1 81.9630 7.9469 52.1022 0.0000 0.0000 0.0000
# 2 7.9469 59.4218 21.7361 0.0000 0.0000 0.0000
# 3 52.1022 21.7361 112.9191 0.0000 0.0000 0.0000
# 4 0.0000 0.0000 0.0000 29.7261 0.0000 0.0000
# 5 0.0000 0.0000 0.0000 0.0000 133.3829 0.0000
# 6 0.0000 0.0000 0.0000 0.0000 0.0000 42.1294
#
#
#
# Elastic Compliance Matrix: (Units=1/GPa)
#
#
# Indices 1 2 3 4 5 6 
#
# 1 0.017288 0.000652 -0.008102 0.000000 0.000000 0.000000
# 2 0.000652 0.018128 -0.003790 0.000000 0.000000 0.000000
# 3 -0.008102 -0.003790 0.013324 0.000000 0.000000 0.000000
# 4 0.000000 0.000000 0.000000 0.033640 0.000000 0.000000
# 5 0.000000 0.000000 0.000000 0.000000 0.007497 0.000000
# 6 0.000000 0.000000 0.000000 0.000000 0.000000 0.023736
#
#
# Mechanical properties :
#
#
# Convention : Reuss Voigt Hill
#
# Bulk Modulus (GPa) = 38.08306 46.43047 42.25677
# Shear Modulus (GPa) = 34.51884 52.54893 43.53388
#
# Velocity S-wave (km/s) = 4.11502 5.07722 4.62123
# Velocity P-wave (km/s) = 6.42337 7.55960 7.01453
#
# Compressibility (1/GPa) = 0.02625840
#
# Stress axis : x y z
#
# Youngs Moduli (GPa) = 57.84393 55.16291 75.05260
#
# Poissons Ratio (x) = -0.03595 0.60810
# Poissons Ratio (y) = -0.03770 0.28447
# Poissons Ratio (z) = 0.46867 0.20908
#
# Static dielectric constant tensor:
#      x y z
#    x 3.819680 0.000000 0.000000 
#    y 0.000000 3.742340 0.000000 
#    z 0.000000 0.000000 3.815680 
# 
# 
# High freq. dielectric constant tensor:
#      x y z
#    x 1.798240 0.000000 0.000000 
#    y 0.000000 1.810070 0.000000 
#    z 0.000000 0.000000 1.808910 
# 
# From -- ./inp_files/17434.got.cif
#   From: 2010.03.12/outbox.cif.g09.slc.cpg/sg55_9_cif.got.tgz:17434.got - 2010.04.16 15:19:21.
