data_PCOD8227112
_publ_section_title
;
Structure prediction by ZEFSAII (Michael W. Deem and Ramdas Pophale) SiO2 
 PCOD8227112
Probable space group: P B A M
;
_chemical_formula_sum "Si O2"
_cell_formula_units_Z 64
_cell_length_a 15.444471
_cell_length_b 24.124147
_cell_length_c 8.660694
_cell_angle_alpha 90.000000
_cell_angle_beta 90.000000
_cell_angle_gamma 90.000000
_cell_volume 3226.841978
_symmetry_space_group_name_H-M "P B A M"
_symmetry_group_IT_number 55
_symmetry_cell_setting 'orthorhombic'
loop_
_space_group_symop_operation_xyz
x,y,z
-x,-y,z
1/2+x,1/2-y,-z
1/2-x,1/2+y,-z
-x,-y,-z
x,y,-z
1/2-x,1/2+y,z
1/2+x,1/2-y,z
loop_
_atom_site_type_symbol
_atom_site_label
_atom_site_fract_x
_atom_site_fract_y
_atom_site_fract_z
Si Si1 0.250054 0.057288 0.683282
Si Si2 0.598040 0.743909 0.819836
Si Si3 0.163727 0.374765 0.823231
Si Si4 0.592566 0.515762 0.682639
Si Si5 0.341073 0.366427 0.677661
Si Si6 0.404069 0.978828 0.322848
Si Si7 0.247785 0.682910 0.682615
Si Si8 0.402789 0.753515 0.179165
O O1 0.244846 0.059324 0.500000
O O2 0.167763 0.023575 0.752390
O O3 0.249483 0.120098 0.748317
O O4 0.337230 0.025851 0.736208
O O5 0.634499 0.682984 0.790922
O O6 0.659324 0.788769 0.738989
O O7 0.499855 0.744760 0.755364
O O8 0.599571 0.757460 0.000000
O O9 0.241647 0.381500 0.703484
O O10 0.099502 0.424862 0.785075
O O11 0.116232 0.317445 0.790340
O O12 0.195698 0.377979 0.000000
O O13 0.500000 0.500000 0.754885
O O14 0.593134 0.507724 0.500000
O O15 0.604673 0.579854 0.725495
O O16 0.356555 0.349259 0.500000
O O17 0.383247 0.963130 0.500000
O O18 0.500000 0.000000 0.303429
O O19 0.246113 0.683208 0.500000
O O20 0.333795 0.715160 0.734414
O O21 0.397288 0.737742 0.000000
#
# Coordination Sequence:
#
# PCOD8227112 Si02
#       8
#     8   8   8   8   8   8   8   8
#     4   9  19  36  54  83 121 152 188 237 294 348
#     4  11  24  42  61  84 121 162 200 243 302 361
#     4  11  22  39  62  86 118 158 200 246 298 357
#     4   9  18  33  57  86 118 151 184 233 296 349
#     4  11  21  37  64  91 115 151 201 249 298 351
#     4  10  21  38  61  87 118 156 196 247 300 346
#     4  11  23  38  62  91 120 154 200 253 298 353
#     4  10  24  43  61  83 120 166 200 242 303 362
#
# _framework density 19.833632999999999
#
# number of rings (size 3 to 8) (size 9 to 14) (size 15 to 20)
#    0.000    1.750    2.500    1.500    3.500    1.750 
#    0.000    1.250    0.000    1.500    0.000    0.000 
#    0.000    0.000    0.000    0.000    0.000    0.000 
#
# Total GULP energy -793660.709708 kJ/mol
# GULP energy per Si atom -12400.948589 kJ/mol
# Density = 1.978849 g / cm^3
# Si number density = 19.833633 Si / 1000 Ang^3
#
#
#
# Elastic Constant Matrix: (Units=GPa)
#
#
# Indices 1 2 3 4 5 6 
#
# 1 134.7656 48.9201 23.5128 0.0000 0.0000 0.0000
# 2 48.9201 135.9568 31.1840 0.0000 0.0000 0.0000
# 3 23.5128 31.1840 37.4119 0.0000 0.0000 0.0000
# 4 0.0000 0.0000 0.0000 3.8576 0.0000 0.0000
# 5 0.0000 0.0000 0.0000 0.0000 14.6068 0.0000
# 6 0.0000 0.0000 0.0000 0.0000 0.0000 28.1968
#
#
#
# Elastic Compliance Matrix: (Units=1/GPa)
#
#
# Indices 1 2 3 4 5 6 
#
# 1 0.008915 -0.002377 -0.003622 0.000000 0.000000 0.000000
# 2 -0.002377 0.009728 -0.006614 0.000000 0.000000 0.000000
# 3 -0.003622 -0.006614 0.034519 0.000000 0.000000 0.000000
# 4 0.000000 0.000000 0.000000 0.259229 0.000000 0.000000
# 5 0.000000 0.000000 0.000000 0.000000 0.068461 0.000000
# 6 0.000000 0.000000 0.000000 0.000000 0.000000 0.035465
#
#
# Mechanical properties :
#
#
# Convention : Reuss Voigt Hill
#
# Bulk Modulus (GPa) = 35.79677 57.26312 46.52995
# Shear Modulus (GPa) = 11.09004 22.96674 17.02839
#
# Velocity S-wave (km/s) = 2.36721 3.40659 2.93330
# Velocity P-wave (km/s) = 5.05562 6.66390 5.91468
#
# Compressibility (1/GPa) = 0.02793548
#
# Stress axis : x y z
#
# Youngs Moduli (GPa) = 112.16970 102.79881 28.96972
#
# Poissons Ratio (x) = 0.24437 0.10492
# Poissons Ratio (y) = 0.26665 0.19162
# Poissons Ratio (z) = 0.40623 0.67995
#
# Static dielectric constant tensor:
#      x y z
#    x 3.850200 0.000000 0.000000 
#    y 0.000000 3.997610 0.000000 
#    z 0.000000 0.000000 3.346970 
# 
# 
# High freq. dielectric constant tensor:
#      x y z
#    x 1.784790 0.000000 0.000000 
#    y 0.000000 1.787180 0.000000 
#    z 0.000000 0.000000 1.746740 
# 
# From -- ./inp_files/6735.got.cif
#   From: 2010.03.12/outbox.cif.g09.slc.cpg/sg55_4_cif.got.tgz:6735.got - 2010.04.16 15:19:21.
