data_PCOD8227382
_publ_section_title
;
Structure prediction by ZEFSAII (Michael W. Deem and Ramdas Pophale) SiO2 
 PCOD8227382
Probable space group: P B A M
;
_chemical_formula_sum "Si O2"
_cell_formula_units_Z 64
_cell_length_a 9.408396
_cell_length_b 18.593218
_cell_length_c 19.576811
_cell_angle_alpha 90.000000
_cell_angle_beta 90.000000
_cell_angle_gamma 90.000000
_cell_volume 3424.617708
_symmetry_space_group_name_H-M "P B A M"
_symmetry_group_IT_number 55
_symmetry_cell_setting 'orthorhombic'
loop_
_space_group_symop_operation_xyz
x,y,z
-x,-y,z
1/2+x,1/2-y,-z
1/2-x,1/2+y,-z
-x,-y,-z
x,y,-z
1/2-x,1/2+y,z
1/2+x,1/2-y,z
loop_
_atom_site_type_symbol
_atom_site_label
_atom_site_fract_x
_atom_site_fract_y
_atom_site_fract_z
Si Si1 0.032148 0.206202 0.577396
Si Si2 0.510456 0.691946 0.920687
Si Si3 0.895751 0.903432 0.316098
Si Si4 0.607123 0.434282 0.832830
Si Si5 0.851185 0.535070 0.174297
Si Si6 0.782761 0.660257 0.576502
Si Si7 0.664223 0.171316 0.919861
Si Si8 0.281372 0.449687 0.682010
O O1 0.063813 0.178557 0.500000
O O2 0.127933 0.162274 0.632086
O O3 0.082576 0.287940 0.585300
O O4 0.864240 0.202323 0.593548
O O5 0.447455 0.618657 0.890608
O O6 0.436906 0.764512 0.892587
O O7 0.676287 0.696810 0.904016
O O8 0.477867 0.685992 0.000000
O O9 0.870496 0.886537 0.235786
O O10 0.057692 0.925524 0.325004
O O11 0.781821 0.965502 0.335461
O O12 0.500000 0.500000 0.816571
O O13 0.753058 0.471785 0.857599
O O14 0.872397 0.598674 0.120075
O O15 0.779492 0.566519 0.242783
O O16 0.000000 0.500000 0.193637
O O17 0.775248 0.629243 0.500000
O O18 0.810870 0.593600 0.626903
O O19 0.641066 0.155879 0.000000
#
# Coordination Sequence:
#
# PCOD8227382 Si02
#       8
#     8   8   8   8   8   8   8   8
#     4   9  18  32  51  77 105 136 175 218 263 317
#     4  10  22  38  59  84 113 146 184 225 273 329
#     4   9  16  32  56  75 100 136 178 219 258 314
#     4  11  19  38  60  79 108 147 183 226 274 327
#     4  11  23  38  57  83 114 144 185 234 276 324
#     4   9  18  33  53  76 105 138 174 217 264 316
#     4  10  22  40  58  83 115 146 182 227 273 326
#     4   9  17  34  53  75 105 136 173 219 266 313
#
# _framework density 18.688217000000002
#
# number of rings (size 3 to 8) (size 9 to 14) (size 15 to 20)
#    0.000    2.250    3.750    0.000    1.750    2.500 
#    4.500    2.500    0.000    0.375    0.000    0.000 
#    0.000    0.000    0.000    0.000    0.000    0.000 
#
# Total GULP energy -793310.113798 kJ/mol
# GULP energy per Si atom -12395.470528 kJ/mol
# Density = 1.864568 g / cm^3
# Si number density = 18.688217 Si / 1000 Ang^3
#
#
#
# Elastic Constant Matrix: (Units=GPa)
#
#
# Indices 1 2 3 4 5 6 
#
# 1 53.7329 16.6624 18.8972 0.0000 0.0000 0.0000
# 2 16.6624 53.0313 40.3443 0.0000 0.0000 0.0000
# 3 18.8972 40.3443 66.9367 0.0000 0.0000 0.0000
# 4 0.0000 0.0000 0.0000 38.2820 0.0000 0.0000
# 5 0.0000 0.0000 0.0000 0.0000 17.4167 0.0000
# 6 0.0000 0.0000 0.0000 0.0000 0.0000 28.8032
#
#
#
# Elastic Compliance Matrix: (Units=1/GPa)
#
#
# Indices 1 2 3 4 5 6 
#
# 1 0.021084 -0.003871 -0.003619 0.000000 0.000000 0.000000
# 2 -0.003871 0.035536 -0.020325 0.000000 0.000000 0.000000
# 3 -0.003619 -0.020325 0.028212 0.000000 0.000000 0.000000
# 4 0.000000 0.000000 0.000000 0.026122 0.000000 0.000000
# 5 0.000000 0.000000 0.000000 0.000000 0.057416 0.000000
# 6 0.000000 0.000000 0.000000 0.000000 0.000000 0.034718
#
#
# Mechanical properties :
#
#
# Convention : Reuss Voigt Hill
#
# Bulk Modulus (GPa) = 34.24640 36.16763 35.20701
# Shear Modulus (GPa) = 18.62525 23.42019 21.02272
#
# Velocity S-wave (km/s) = 3.16037 3.54391 3.35762
# Velocity P-wave (km/s) = 5.62869 6.01173 5.82336
#
# Compressibility (1/GPa) = 0.02920015
#
# Stress axis : x y z
#
# Youngs Moduli (GPa) = 47.42980 28.14045 35.44617
#
# Poissons Ratio (x) = 0.10894 0.12828
# Poissons Ratio (y) = 0.18362 0.72046
# Poissons Ratio (z) = 0.17164 0.57197
#
# Static dielectric constant tensor:
#      x y z
#    x 3.429850 0.000000 0.000000 
#    y 0.000000 3.514320 0.000000 
#    z 0.000000 0.000000 3.496090 
# 
# 
# High freq. dielectric constant tensor:
#      x y z
#    x 1.717740 0.000000 0.000000 
#    y 0.000000 1.714380 0.000000 
#    z 0.000000 0.000000 1.724460 
# 
# From -- ./inp_files/22712.got.cif
#   From: 2010.03.12/outbox.cif.g09.slc.cpg/sg55_12_cif.got.tgz:22712.got - 2010.04.16 15:19:21.
