data_PCOD8227454
_publ_section_title
;
Structure prediction by ZEFSAII (Michael W. Deem and Ramdas Pophale) SiO2 
 PCOD8227454
Probable space group: P B A M
;
_chemical_formula_sum "Si O2"
_cell_formula_units_Z 40
_cell_length_a 9.607806
_cell_length_b 13.427804
_cell_length_c 14.421856
_cell_angle_alpha 90.000000
_cell_angle_beta 90.000000
_cell_angle_gamma 90.000000
_cell_volume 1860.588677
_symmetry_space_group_name_H-M "P B A M"
_symmetry_group_IT_number 55
_symmetry_cell_setting 'orthorhombic'
loop_
_space_group_symop_operation_xyz
x,y,z
-x,-y,z
1/2+x,1/2-y,-z
1/2-x,1/2+y,-z
-x,-y,-z
x,y,-z
1/2-x,1/2+y,z
1/2+x,1/2-y,z
loop_
_atom_site_type_symbol
_atom_site_label
_atom_site_fract_x
_atom_site_fract_y
_atom_site_fract_z
Si Si1 0.029966 0.241991 0.847294
Si Si2 0.134985 0.951411 0.602039
Si Si3 0.935892 0.394779 0.000000
Si Si4 0.390193 0.591547 0.000000
Si Si5 0.893161 0.415432 0.396439
Si Si6 0.208569 0.769003 0.721997
O O1 0.134918 0.257427 0.760339
O O2 0.884173 0.201352 0.809527
O O3 0.088131 0.153907 0.908099
O O4 0.992118 0.338723 0.908340
O O5 0.089193 0.913232 0.500000
O O6 0.209699 0.860191 0.651823
O O7 0.241953 0.039889 0.593088
O O8 0.000000 0.000000 0.653242
O O9 0.000000 0.500000 0.000000
O O10 0.774150 0.426800 0.000000
O O11 0.500000 0.500000 0.000000
O O12 0.943823 0.379883 0.500000
O O13 0.870179 0.325197 0.324909
O O14 0.000000 0.500000 0.357680
#
# Coordination Sequence:
#
# PCOD8227454 Si02
#       6
#     8   8   4   4   8   8
#     4  11  26  44  66  98 135 161 223 277 326 409
#     4  10  22  40  63  93 132 177 225 273 330 400
#     4  11  26  48  71  95 129 177 213 269 342 412
#     4  11  26  48  73  97 129 177 213 265 344 408
#     4  10  22  40  62  93 134 180 227 271 328 403
#     4  12  23  41  66  98 134 177 217 288 339 385
#
# _framework density 21.498573
#
# number of rings (size 3 to 8) (size 9 to 14) (size 15 to 20)
#    0.000    1.200    2.000    3.000    2.800    4.800 
#    0.000    8.000    0.000    0.000    0.000    0.000 
#    0.000    0.000    0.000    0.000    0.000    0.000 
#
# Total GULP energy -495602.774301 kJ/mol
# GULP energy per Si atom -12390.069358 kJ/mol
# Density = 2.144964 g / cm^3
# Si number density = 21.498573 Si / 1000 Ang^3
#
#
#
# Elastic Constant Matrix: (Units=GPa)
#
#
# Indices 1 2 3 4 5 6 
#
# 1 120.9266 39.5340 22.3869 0.0000 0.0000 0.0000
# 2 39.5340 96.6248 35.6479 0.0000 0.0000 0.0000
# 3 22.3869 35.6479 80.8459 0.0000 0.0000 0.0000
# 4 0.0000 0.0000 0.0000 -16.6097 0.0000 0.0000
# 5 0.0000 0.0000 0.0000 0.0000 35.3147 0.0000
# 6 0.0000 0.0000 0.0000 0.0000 0.0000 40.9453
#
#
#
# Elastic Compliance Matrix: (Units=1/GPa)
#
#
# Indices 1 2 3 4 5 6 
#
# 1 0.009629 -0.003530 -0.001110 0.000000 0.000000 0.000000
# 2 -0.003530 0.013654 -0.005043 0.000000 0.000000 0.000000
# 3 -0.001110 -0.005043 0.014900 0.000000 0.000000 0.000000
# 4 0.000000 0.000000 0.000000 -0.060206 0.000000 0.000000
# 5 0.000000 0.000000 0.000000 0.000000 0.028317 0.000000
# 6 0.000000 0.000000 0.000000 0.000000 0.000000 0.024423
#
#
# Mechanical properties :
#
#
# Convention : Reuss Voigt Hill
#
# Bulk Modulus (GPa) = 53.14267 54.83720 53.98993
# Shear Modulus (GPa) = 88.72133 25.31861 57.01997
#
# Velocity S-wave (km/s) = 6.43102 3.43547 5.15560
# Velocity P-wave (km/s) = 8.93963 6.42646 7.78512
#
# Compressibility (1/GPa) = 0.01881727
#
# Stress axis : x y z
#
# Youngs Moduli (GPa) = 103.85212 73.23693 67.11316
#
# Poissons Ratio (x) = 0.25855 0.07448
# Poissons Ratio (y) = 0.36663 0.33846
# Poissons Ratio (z) = 0.11525 0.36934
#
# Static dielectric constant tensor:
#      x y z
#    x 9.861090 0.000000 0.000000 
#    y 0.000000 7.772270 0.000000 
#    z 0.000000 0.000000 4.058260 
# 
# 
# High freq. dielectric constant tensor:
#      x y z
#    x 1.867680 0.000000 0.000000 
#    y 0.000000 1.834520 0.000000 
#    z 0.000000 0.000000 1.848050 
# 
# From -- ./inp_files/17109.got.cif
#   From: 2010.03.12/outbox.cif.g09.slc.cpg/sg55_9_cif.got.tgz:17109.got - 2010.04.16 15:19:21.
