data_PCOD8227678
_publ_section_title
;
Structure prediction by ZEFSAII (Michael W. Deem and Ramdas Pophale) SiO2 
 PCOD8227678
Probable space group: P B A M
;
_chemical_formula_sum "Si O2"
_cell_formula_units_Z 64
_cell_length_a 14.085707
_cell_length_b 12.401893
_cell_length_c 17.874344
_cell_angle_alpha 90.000000
_cell_angle_beta 90.000000
_cell_angle_gamma 90.000000
_cell_volume 3122.458984
_symmetry_space_group_name_H-M "P B A M"
_symmetry_group_IT_number 55
_symmetry_cell_setting 'orthorhombic'
loop_
_space_group_symop_operation_xyz
x,y,z
-x,-y,z
1/2+x,1/2-y,-z
1/2-x,1/2+y,-z
-x,-y,-z
x,y,-z
1/2-x,1/2+y,z
1/2+x,1/2-y,z
loop_
_atom_site_type_symbol
_atom_site_label
_atom_site_fract_x
_atom_site_fract_y
_atom_site_fract_z
Si Si1 0.371310 0.273645 0.335499
Si Si2 0.911546 0.277255 0.830230
Si Si3 0.611431 0.242241 0.784721
Si Si4 0.725901 0.058242 0.708954
Si Si5 0.402741 0.442167 0.914474
Si Si6 0.550992 0.386455 0.653489
Si Si7 0.743926 0.406401 0.847598
Si Si8 0.745261 0.900466 0.414098
O O1 0.385165 0.209763 0.257599
O O2 0.323596 0.386308 0.313990
O O3 0.471871 0.300365 0.375888
O O4 0.303911 0.212128 0.393273
O O5 0.883971 0.160482 0.862471
O O6 0.851278 0.371804 0.872634
O O7 0.024665 0.297233 0.837732
O O8 0.645538 0.142613 0.733852
O O9 0.579743 0.344686 0.735589
O O10 0.695569 0.288423 0.835916
O O11 0.752455 0.973884 0.772177
O O12 0.693463 0.992473 0.635237
O O13 0.500000 0.500000 0.888735
O O14 0.313789 0.524862 0.908614
O O15 0.410989 0.403736 0.000000
O O16 0.500000 0.500000 0.661735
O O17 0.641644 0.390713 0.599548
O O18 0.727405 0.928463 0.500000
#
# Coordination Sequence:
#
# PCOD8227678 Si02
#       8
#     8   8   8   8   8   8   8   8
#     4  11  21  39  64  94 122 162 224 276 314 384
#     4  11  22  38  67  97 125 174 219 265 318 388
#     4  11  22  36  63  98 124 164 218 272 317 370
#     4  12  20  41  61  94 127 165 222 272 325 389
#     4  11  24  40  66 102 140 175 212 266 332 390
#     4  11  21  38  64  89 118 158 219 271 315 389
#     4  12  20  39  67  96 129 168 220 269 315 384
#     4  12  26  42  61  91 132 171 212 276 350 397
#
# _framework density 20.496666000000001
#
# number of rings (size 3 to 8) (size 9 to 14) (size 15 to 20)
#    0.000    0.625    8.750    0.000    1.750    2.250 
#    0.000    0.000    0.000    3.000    0.000    2.625 
#    0.000    0.000    0.000    0.000    0.000    0.000 
#
# Total GULP energy -793328.574384 kJ/mol
# GULP energy per Si atom -12395.758975 kJ/mol
# Density = 2.045002 g / cm^3
# Si number density = 20.496666 Si / 1000 Ang^3
#
#
#
# Elastic Constant Matrix: (Units=GPa)
#
#
# Indices 1 2 3 4 5 6 
#
# 1 102.1571 58.3880 30.1684 0.0000 0.0000 0.0000
# 2 58.3880 83.7363 21.6819 0.0000 0.0000 0.0000
# 3 30.1684 21.6819 58.5359 0.0000 0.0000 0.0000
# 4 0.0000 0.0000 0.0000 20.9483 0.0000 0.0000
# 5 0.0000 0.0000 0.0000 0.0000 15.7247 0.0000
# 6 0.0000 0.0000 0.0000 0.0000 0.0000 43.5030
#
#
#
# Elastic Compliance Matrix: (Units=1/GPa)
#
#
# Indices 1 2 3 4 5 6 
#
# 1 0.017493 -0.010910 -0.004975 0.000000 0.000000 0.000000
# 2 -0.010910 0.020013 -0.001790 0.000000 0.000000 0.000000
# 3 -0.004975 -0.001790 0.020311 0.000000 0.000000 0.000000
# 4 0.000000 0.000000 0.000000 0.047737 0.000000 0.000000
# 5 0.000000 0.000000 0.000000 0.000000 0.063594 0.000000
# 6 0.000000 0.000000 0.000000 0.000000 0.000000 0.022987
#
#
# Mechanical properties :
#
#
# Convention : Reuss Voigt Hill
#
# Bulk Modulus (GPa) = 44.50878 51.65622 48.08250
# Shear Modulus (GPa) = 21.27901 24.98127 23.13014
#
# Velocity S-wave (km/s) = 3.22556 3.49491 3.36293
# Velocity P-wave (km/s) = 5.96947 6.44538 6.21198
#
# Compressibility (1/GPa) = 0.02246748
#
# Stress axis : x y z
#
# Youngs Moduli (GPa) = 57.16415 49.96743 49.23552
#
# Poissons Ratio (x) = 0.54514 0.24494
# Poissons Ratio (y) = 0.62365 0.08814
# Poissons Ratio (z) = 0.28438 0.08945
#
# Static dielectric constant tensor:
#      x y z
#    x 4.089060 0.000000 0.000000 
#    y 0.000000 3.690990 0.000000 
#    z 0.000000 0.000000 3.284250 
# 
# 
# High freq. dielectric constant tensor:
#      x y z
#    x 1.815420 0.000000 0.000000 
#    y 0.000000 1.803430 0.000000 
#    z 0.000000 0.000000 1.756080 
# 
# From -- ./inp_files/21355.got.cif
#   From: 2010.03.12/outbox.cif.g09.slc.cpg/sg55_11_cif.got.tgz:21355.got - 2010.04.16 15:19:21.
