data_PCOD8227027
_publ_section_title
;
Structure prediction by ZEFSAII (Michael W. Deem and Ramdas Pophale) SiO2 
 PCOD8227027
Probable space group: P B A M
;
_chemical_formula_sum "Si O2"
_cell_formula_units_Z 32
_cell_length_a 17.201975
_cell_length_b 8.335298
_cell_length_c 10.356360
_cell_angle_alpha 90.000000
_cell_angle_beta 90.000000
_cell_angle_gamma 90.000000
_cell_volume 1484.932053
_symmetry_space_group_name_H-M "P B A M"
_symmetry_group_IT_number 55
_symmetry_cell_setting 'orthorhombic'
loop_
_space_group_symop_operation_xyz
x,y,z
-x,-y,z
1/2+x,1/2-y,-z
1/2-x,1/2+y,-z
-x,-y,-z
x,y,-z
1/2-x,1/2+y,z
1/2+x,1/2-y,z
loop_
_atom_site_type_symbol
_atom_site_label
_atom_site_fract_x
_atom_site_fract_y
_atom_site_fract_z
Si Si1 0.305798 0.578074 0.500000
Si Si2 0.888411 0.870446 0.757754
Si Si3 0.859751 0.367674 0.000000
Si Si4 0.141865 0.714806 0.500000
Si Si5 0.303052 0.771505 0.000000
Si Si6 0.559747 0.734291 0.757748
O O1 0.342474 0.662426 0.374596
O O2 0.212901 0.591101 0.500000
O O3 0.323748 0.391783 0.500000
O O4 0.966720 0.766672 0.755369
O O5 0.906964 0.056763 0.776164
O O6 0.834594 0.815867 0.873876
O O7 0.790111 0.239095 0.000000
O O8 0.913262 0.345316 0.874981
O O9 0.824385 0.543577 0.000000
O O10 0.089129 0.686247 0.374578
#
# Coordination Sequence:
#
# PCOD8227027 Si02
#       6
#     4   8   4   4   4   8
#     4  10  21  37  59  87 117 152 193 236 284 340
#     4  10  21  39  62  87 117 153 192 236 288 344
#     4  12  25  40  59  85 117 153 195 240 287 342
#     4  10  21  37  59  87 117 152 193 236 284 340
#     4  12  25  40  59  85 117 153 195 240 287 342
#     4  10  21  39  62  87 117 153 192 236 288 344
#
# _framework density 21.549807000000001
#
# number of rings (size 3 to 8) (size 9 to 14) (size 15 to 20)
#    0.000    1.500    0.000    5.250    0.000   13.000 
#    0.000    0.000    0.000    4.500    0.000    0.000 
#    0.000    0.000    0.000    0.000    0.000    0.000 
#
# Total GULP energy -397023.141864 kJ/mol
# GULP energy per Si atom -12406.973183 kJ/mol
# Density = 2.150076 g / cm^3
# Si number density = 21.549807 Si / 1000 Ang^3
#
#
#
# Elastic Constant Matrix: (Units=GPa)
#
#
# Indices 1 2 3 4 5 6 
#
# 1 57.6183 -16.0522 16.8836 0.0000 0.0000 0.0000
# 2 -16.0522 23.1386 13.0691 0.0000 0.0000 0.0000
# 3 16.8836 13.0691 168.9635 0.0000 0.0000 0.0000
# 4 0.0000 0.0000 0.0000 -3.9350 0.0000 0.0000
# 5 0.0000 0.0000 0.0000 0.0000 35.6942 0.0000
# 6 0.0000 0.0000 0.0000 0.0000 0.0000 33.4179
#
#
#
# Elastic Compliance Matrix: (Units=1/GPa)
#
#
# Indices 1 2 3 4 5 6 
#
# 1 0.023633 0.018539 -0.003795 0.000000 0.000000 0.000000
# 2 0.018539 0.059735 -0.006473 0.000000 0.000000 0.000000
# 3 -0.003795 -0.006473 0.006798 0.000000 0.000000 0.000000
# 4 0.000000 0.000000 0.000000 -0.254129 0.000000 0.000000
# 5 0.000000 0.000000 0.000000 0.000000 0.028016 0.000000
# 6 0.000000 0.000000 0.000000 0.000000 0.000000 0.029924
#
#
# Mechanical properties :
#
#
# Convention : Reuss Voigt Hill
#
# Bulk Modulus (GPa) = 9.37153 30.83570 20.10361
# Shear Modulus (GPa) = -57.47455 28.75674 -14.35890
#
# Velocity S-wave (km/s) = -5.16996 3.65695 -2.58410
# Velocity P-wave (km/s) = 5.59283 5.67196 0.66761
#
# Compressibility (1/GPa) = 0.10670617
#
# Stress axis : x y z
#
# Youngs Moduli (GPa) = 42.31460 16.74069 147.09449
#
# Poissons Ratio (x) = -0.31035 0.55828
# Poissons Ratio (y) = -0.78445 0.95212
# Poissons Ratio (z) = 0.16060 0.10836
#
# Static dielectric constant tensor:
#      x y z
#    x 4.021100 0.000000 0.000000 
#    y 0.000000 3.634020 0.000000 
#    z 0.000000 0.000000 4.019470 
# 
# 
# High freq. dielectric constant tensor:
#      x y z
#    x 1.858790 0.000000 0.000000 
#    y 0.000000 1.832830 0.000000 
#    z 0.000000 0.000000 1.864770 
# 
# From -- ./inp_files/11699.got.cif
#   From: 2010.03.12/outbox.cif.g09.slc.cpg/sg55_6_cif.got.tgz:11699.got - 2010.04.16 15:19:21.
