data_PCOD8227141
_publ_section_title
;
Structure prediction by ZEFSAII (Michael W. Deem and Ramdas Pophale) SiO2 
 PCOD8227141
Probable space group: P B A M
;
_chemical_formula_sum "Si O2"
_cell_formula_units_Z 64
_cell_length_a 13.505046
_cell_length_b 13.113542
_cell_length_c 17.667406
_cell_angle_alpha 90.000000
_cell_angle_beta 90.000000
_cell_angle_gamma 90.000000
_cell_volume 3128.879722
_symmetry_space_group_name_H-M "P B A M"
_symmetry_group_IT_number 55
_symmetry_cell_setting 'orthorhombic'
loop_
_space_group_symop_operation_xyz
x,y,z
-x,-y,z
1/2+x,1/2-y,-z
1/2-x,1/2+y,-z
-x,-y,-z
x,y,-z
1/2-x,1/2+y,z
1/2+x,1/2-y,z
loop_
_atom_site_type_symbol
_atom_site_label
_atom_site_fract_x
_atom_site_fract_y
_atom_site_fract_z
Si Si1 0.285547 0.096637 0.086756
Si Si2 0.685409 0.108629 0.835756
Si Si3 0.098795 0.727625 0.669778
Si Si4 0.798057 0.448750 0.412713
Si Si5 0.413218 0.705395 0.088567
Si Si6 0.073442 0.413509 0.685148
Si Si7 0.116341 0.779629 0.840819
Si Si8 0.596729 0.559561 0.412585
O O1 0.173419 0.126200 0.110525
O O2 0.356461 0.193471 0.097969
O O3 0.327926 0.007050 0.138428
O O4 0.289047 0.061950 0.000000
O O5 0.620352 0.180771 0.889395
O O6 0.649364 0.122045 0.749678
O O7 0.801891 0.132113 0.841658
O O8 0.182397 0.654716 0.633747
O O9 0.114102 0.727355 0.759259
O O10 0.110224 0.839889 0.636857
O O11 0.989159 0.682539 0.653643
O O12 0.820790 0.427020 0.500000
O O13 0.867860 0.541208 0.386092
O O14 0.685567 0.481185 0.398677
O O15 0.510722 0.672933 0.135506
O O16 0.436591 0.702065 0.000000
O O17 0.000000 0.500000 0.718907
O O18 0.500000 0.500000 0.385125
O O19 0.589273 0.592864 0.500000
#
# Coordination Sequence:
#
# PCOD8227141 Si02
#       8
#     8   8   8   8   8   8   8   8
#     4  10  22  39  62  89 118 160 205 253 312 370
#     4  11  22  39  62  89 121 160 204 253 304 368
#     4  11  22  40  64  89 125 169 203 251 317 364
#     4  10  22  40  63  93 125 162 207 256 304 363
#     4  10  22  40  60  87 121 156 201 256 310 368
#     4  10  21  38  62  91 124 155 207 258 301 368
#     4  11  23  40  58  89 125 158 203 255 302 368
#     4  10  23  42  62  93 129 163 209 254 299 367
#
# _framework density 20.454605999999998
#
# number of rings (size 3 to 8) (size 9 to 14) (size 15 to 20)
#    0.000    1.625    1.250    3.375    0.000    6.750 
#    4.500    5.000    0.000    0.000    0.000    0.000 
#    0.000    0.000    0.000    0.000    0.000    0.000 
#
# Total GULP energy -793894.087746 kJ/mol
# GULP energy per Si atom -12404.595121 kJ/mol
# Density = 2.040805 g / cm^3
# Si number density = 20.454606 Si / 1000 Ang^3
#
#
#
# Elastic Constant Matrix: (Units=GPa)
#
#
# Indices 1 2 3 4 5 6 
#
# 1 101.8290 20.2530 32.3625 0.0000 0.0000 0.0000
# 2 20.2530 71.5833 25.8000 0.0000 0.0000 0.0000
# 3 32.3625 25.8000 91.8296 0.0000 0.0000 0.0000
# 4 0.0000 0.0000 0.0000 26.9642 0.0000 0.0000
# 5 0.0000 0.0000 0.0000 0.0000 32.9799 0.0000
# 6 0.0000 0.0000 0.0000 0.0000 0.0000 22.6890
#
#
#
# Elastic Compliance Matrix: (Units=1/GPa)
#
#
# Indices 1 2 3 4 5 6 
#
# 1 0.011301 -0.001960 -0.003432 0.000000 0.000000 0.000000
# 2 -0.001960 0.015884 -0.003772 0.000000 0.000000 0.000000
# 3 -0.003432 -0.003772 0.013159 0.000000 0.000000 0.000000
# 4 0.000000 0.000000 0.000000 0.037086 0.000000 0.000000
# 5 0.000000 0.000000 0.000000 0.000000 0.030321 0.000000
# 6 0.000000 0.000000 0.000000 0.000000 0.000000 0.044074
#
#
# Mechanical properties :
#
#
# Convention : Reuss Voigt Hill
#
# Bulk Modulus (GPa) = 45.42247 46.89698 46.15972
# Shear Modulus (GPa) = 28.17025 28.98173 28.57599
#
# Velocity S-wave (km/s) = 3.71510 3.76823 3.74176
# Velocity P-wave (km/s) = 6.37631 6.47378 6.42523
#
# Compressibility (1/GPa) = 0.02201554
#
# Stress axis : x y z
#
# Youngs Moduli (GPa) = 88.48776 62.95722 75.99434
#
# Poissons Ratio (x) = 0.12343 0.26080
# Poissons Ratio (y) = 0.17348 0.28663
# Poissons Ratio (z) = 0.30368 0.23746
#
# Static dielectric constant tensor:
#      x y z
#    x 3.926490 0.000000 0.000000 
#    y 0.000000 3.547810 0.000000 
#    z 0.000000 0.000000 3.635980 
# 
# 
# High freq. dielectric constant tensor:
#      x y z
#    x 1.810560 0.000000 0.000000 
#    y 0.000000 1.791910 0.000000 
#    z 0.000000 0.000000 1.801570 
# 
# From -- ./inp_files/21331.got.cif
#   From: 2010.03.12/outbox.cif.g09.slc.cpg/sg55_11_cif.got.tgz:21331.got - 2010.04.16 15:19:21.
