data_PCOD8227445
_publ_section_title
;
Structure prediction by ZEFSAII (Michael W. Deem and Ramdas Pophale) SiO2 
 PCOD8227445
Probable space group: P B A M
;
_chemical_formula_sum "Si O2"
_cell_formula_units_Z 64
_cell_length_a 28.471011
_cell_length_b 12.692863
_cell_length_c 8.871220
_cell_angle_alpha 90.000000
_cell_angle_beta 90.000000
_cell_angle_gamma 90.000000
_cell_volume 3205.869437
_symmetry_space_group_name_H-M "P B A M"
_symmetry_group_IT_number 55
_symmetry_cell_setting 'orthorhombic'
loop_
_space_group_symop_operation_xyz
x,y,z
-x,-y,z
1/2+x,1/2-y,-z
1/2-x,1/2+y,-z
-x,-y,-z
x,y,-z
1/2-x,1/2+y,z
1/2+x,1/2-y,z
loop_
_atom_site_type_symbol
_atom_site_label
_atom_site_fract_x
_atom_site_fract_y
_atom_site_fract_z
Si Si1 0.388414 0.954564 0.322976
Si Si2 0.570097 0.398662 0.330236
Si Si3 0.205621 0.938797 0.325808
Si Si4 0.677218 0.331370 0.666077
Si Si5 0.700613 0.126600 0.825137
Si Si6 0.397051 0.382148 0.679266
Si Si7 0.942016 0.334730 0.322565
Si Si8 0.538053 0.199161 0.177608
O O1 0.390669 0.933696 0.500000
O O2 0.407902 0.069327 0.280511
O O3 0.334804 0.948936 0.266894
O O4 0.417539 0.862203 0.243844
O O5 0.549374 0.393745 0.500000
O O6 0.623123 0.360345 0.328054
O O7 0.570083 0.519346 0.267596
O O8 0.538921 0.322043 0.226534
O O9 0.212674 0.906185 0.500000
O O10 0.246285 0.891130 0.224613
O O11 0.156308 0.893409 0.261450
O O12 0.207847 0.064556 0.306916
O O13 0.688801 0.284009 0.500000
O O14 0.688917 0.248453 0.795204
O O15 0.694641 0.101749 0.000000
O O16 0.394709 0.387095 0.500000
O O17 0.418612 0.272910 0.738367
O O18 0.951689 0.328985 0.500000
O O19 0.990974 0.354991 0.239292
O O20 0.539362 0.190426 0.000000
#
# Coordination Sequence:
#
# PCOD8227445 Si02
#       8
#     8   8   8   8   8   8   8   8
#     4  11  23  40  61  84 113 154 205 251 292 344
#     4   9  17  34  62  87 111 146 193 243 285 336
#     4   9  19  37  61  87 114 150 198 244 288 345
#     4   9  18  35  59  82 108 148 196 243 285 333
#     4  12  24  36  56  88 122 155 190 237 301 361
#     4   8  17  37  63  89 113 147 197 248 293 338
#     4  10  22  40  62  86 116 154 197 245 294 350
#     4  12  24  37  57  87 120 155 194 242 300 357
#
# _framework density 19.963384000000001
#
# number of rings (size 3 to 8) (size 9 to 14) (size 15 to 20)
#    0.000    2.000    1.250    4.500    0.000    4.500 
#    0.000    8.125    0.000    0.000    0.000    0.000 
#    0.000    0.000    0.000    0.000    0.000    0.000 
#
# Total GULP energy -793673.100385 kJ/mol
# GULP energy per Si atom -12401.142194 kJ/mol
# Density = 1.991795 g / cm^3
# Si number density = 19.963384 Si / 1000 Ang^3
#
#
#
# Elastic Constant Matrix: (Units=GPa)
#
#
# Indices 1 2 3 4 5 6 
#
# 1 45.3292 8.6090 15.6104 0.0000 0.0000 0.0000
# 2 8.6090 95.5329 23.2116 0.0000 0.0000 0.0000
# 3 15.6104 23.2116 73.2958 0.0000 0.0000 0.0000
# 4 0.0000 0.0000 0.0000 5.6958 0.0000 0.0000
# 5 0.0000 0.0000 0.0000 0.0000 11.6093 0.0000
# 6 0.0000 0.0000 0.0000 0.0000 0.0000 21.4602
#
#
#
# Elastic Compliance Matrix: (Units=1/GPa)
#
#
# Indices 1 2 3 4 5 6 
#
# 1 0.023894 -0.000993 -0.004774 0.000000 0.000000 0.000000
# 2 -0.000993 0.011381 -0.003393 0.000000 0.000000 0.000000
# 3 -0.004774 -0.003393 0.015735 0.000000 0.000000 0.000000
# 4 0.000000 0.000000 0.000000 0.175569 0.000000 0.000000
# 5 0.000000 0.000000 0.000000 0.000000 0.086138 0.000000
# 6 0.000000 0.000000 0.000000 0.000000 0.000000 0.046598
#
#
# Mechanical properties :
#
#
# Convention : Reuss Voigt Hill
#
# Bulk Modulus (GPa) = 30.59119 34.33553 32.46336
# Shear Modulus (GPa) = 12.86898 18.86818 15.86858
#
# Velocity S-wave (km/s) = 2.54171 3.07765 2.82243
# Velocity P-wave (km/s) = 4.89598 5.46496 5.18828
#
# Compressibility (1/GPa) = 0.03268915
#
# Stress axis : x y z
#
# Youngs Moduli (GPa) = 41.85214 87.86231 63.55414
#
# Poissons Ratio (x) = 0.08726 0.30343
# Poissons Ratio (y) = 0.04157 0.21563
# Poissons Ratio (z) = 0.19982 0.29810
#
# Static dielectric constant tensor:
#      x y z
#    x 3.596880 0.000000 0.000000 
#    y 0.000000 4.039010 0.000000 
#    z 0.000000 0.000000 3.381510 
# 
# 
# High freq. dielectric constant tensor:
#      x y z
#    x 1.778920 0.000000 0.000000 
#    y 0.000000 1.786830 0.000000 
#    z 0.000000 0.000000 1.750450 
# 
# From -- ./inp_files/10789.got.cif
#   From: 2010.03.12/outbox.cif.g09.slc.cpg/sg55_6_cif.got.tgz:10789.got - 2010.04.16 15:19:21.
