data_PCOD8227347
_publ_section_title
;
Structure prediction by ZEFSAII (Michael W. Deem and Ramdas Pophale) SiO2 
 PCOD8227347
Probable space group: P B A M
;
_chemical_formula_sum "Si O2"
_cell_formula_units_Z 32
_cell_length_a 5.489321
_cell_length_b 17.113480
_cell_length_c 16.474168
_cell_angle_alpha 90.000000
_cell_angle_beta 90.000000
_cell_angle_gamma 90.000000
_cell_volume 1547.606161
_symmetry_space_group_name_H-M "P B A M"
_symmetry_group_IT_number 55
_symmetry_cell_setting 'orthorhombic'
loop_
_space_group_symop_operation_xyz
x,y,z
-x,-y,z
1/2+x,1/2-y,-z
1/2-x,1/2+y,-z
-x,-y,-z
x,y,-z
1/2-x,1/2+y,z
1/2+x,1/2-y,z
loop_
_atom_site_type_symbol
_atom_site_label
_atom_site_fract_x
_atom_site_fract_y
_atom_site_fract_z
Si Si1 0.500000 0.500000 0.207139
Si Si2 0.250665 0.548736 0.500000
Si Si3 0.147942 0.420915 0.090218
Si Si4 0.350583 0.078419 0.328526
Si Si5 0.999371 0.298458 0.210379
O O1 0.368291 0.437116 0.150543
O O2 0.353430 0.559649 0.262760
O O3 0.500000 0.500000 0.500000
O O4 0.254897 0.601381 0.582330
O O5 0.000000 0.500000 0.500000
O O6 0.000000 0.500000 0.084190
O O7 0.987990 0.351693 0.129223
O O8 0.236938 0.396060 0.000000
O O9 0.510451 0.148966 0.292388
O O10 0.500000 0.000000 0.340044
O O11 0.749558 0.249898 0.210416
#
# Coordination Sequence:
#
# PCOD8227347 Si02
#       5
#     4   4   8   8   8
#     4  12  17  39  72  94 132 166 232 281 345 404
#     4  10  22  36  66 106 130 164 225 296 337 384
#     4  11  24  41  65  96 127 173 230 288 340 401
#     4  11  22  41  68  98 131 175 232 283 340 408
#     4  12  26  43  65  95 136 181 220 269 344 414
#
# _framework density 20.677095999999999
#
# number of rings (size 3 to 8) (size 9 to 14) (size 15 to 20)
#    0.000    0.750    6.250    1.875    0.000    1.000 
#    0.000    1.250    0.000    0.000    0.000    0.000 
#    0.000    0.000    0.000    0.000    0.000    0.000 
#
# Total GULP energy -396535.183635 kJ/mol
# GULP energy per Si atom -12391.724489 kJ/mol
# Density = 2.063003 g / cm^3
# Si number density = 20.677096 Si / 1000 Ang^3
#
#
#
# Elastic Constant Matrix: (Units=GPa)
#
#
# Indices 1 2 3 4 5 6 
#
# 1 126.5524 45.3973 62.1307 0.0000 0.0000 0.0000
# 2 45.3973 104.0575 63.9480 0.0000 0.0000 0.0000
# 3 62.1307 63.9480 232.6534 0.0000 0.0000 0.0000
# 4 0.0000 0.0000 0.0000 -22.4731 0.0000 0.0000
# 5 0.0000 0.0000 0.0000 0.0000 88.6167 0.0000
# 6 0.0000 0.0000 0.0000 0.0000 0.0000 42.8136
#
#
#
# Elastic Compliance Matrix: (Units=1/GPa)
#
#
# Indices 1 2 3 4 5 6 
#
# 1 0.009932 -0.003252 -0.001758 0.000000 0.000000 0.000000
# 2 -0.003252 0.012628 -0.002603 0.000000 0.000000 0.000000
# 3 -0.001758 -0.002603 0.005483 0.000000 0.000000 0.000000
# 4 0.000000 0.000000 0.000000 -0.044498 0.000000 0.000000
# 5 0.000000 0.000000 0.000000 0.000000 0.011285 0.000000
# 6 0.000000 0.000000 0.000000 0.000000 0.000000 0.023357
#
#
# Mechanical properties :
#
#
# Convention : Reuss Voigt Hill
#
# Bulk Modulus (GPa) = 78.02249 89.57948 83.80099
# Shear Modulus (GPa) = 132.67464 41.24392 86.95928
#
# Velocity S-wave (km/s) = 8.01900 4.47101 6.49208
# Velocity P-wave (km/s) = 11.11552 8.37081 9.83934
#
# Compressibility (1/GPa) = 0.01281682
#
# Stress axis : x y z
#
# Youngs Moduli (GPa) = 100.68632 79.18688 182.37680
#
# Poissons Ratio (x) = 0.25755 0.32068
# Poissons Ratio (y) = 0.32747 0.47464
# Poissons Ratio (z) = 0.17704 0.20609
#
# Static dielectric constant tensor:
#      x y z
#    x 3.814400 0.000000 0.000000 
#    y 0.000000 3.811160 0.000000 
#    z 0.000000 0.000000 5.366790 
# 
# 
# High freq. dielectric constant tensor:
#      x y z
#    x 1.813390 0.000000 0.000000 
#    y 0.000000 1.785600 0.000000 
#    z 0.000000 0.000000 1.832440 
# 
# From -- ./inp_files/16456.got.cif
#   From: 2010.03.12/outbox.cif.g09.slc.cpg/sg55_9_cif.got.tgz:16456.got - 2010.04.16 15:19:21.
