data_PCOD8227927
_publ_section_title
;
Structure prediction by ZEFSAII (Michael W. Deem and Ramdas Pophale) SiO2 
 PCOD8227927
Probable space group: P C C N
;
_chemical_formula_sum "Si O2"
_cell_formula_units_Z 48
_cell_length_a 15.980984
_cell_length_b 8.715434
_cell_length_c 16.143529
_cell_angle_alpha 90.000000
_cell_angle_beta 90.000000
_cell_angle_gamma 90.000000
_cell_volume 2248.490274
_symmetry_space_group_name_H-M "P C C N"
_symmetry_group_IT_number 56
_symmetry_cell_setting 'orthorhombic'
loop_
_space_group_symop_operation_xyz
x,y,z
1/2-x,1/2-y,z
1/2+x,-y,1/2-z
-x,1/2+y,1/2-z
-x,-y,-z
1/2+x,1/2+y,-z
1/2-x,y,1/2+z
x,1/2-y,1/2+z
loop_
_atom_site_type_symbol
_atom_site_label
_atom_site_fract_x
_atom_site_fract_y
_atom_site_fract_z
Si Si1 0.896085 0.626569 0.546191
Si Si2 0.819281 0.626311 0.714664
Si Si3 0.056987 0.102981 0.556702
Si Si4 0.583052 0.424239 0.895453
Si Si5 0.125099 0.874793 0.683138
Si Si6 0.032012 0.299110 0.703866
O O1 0.824704 0.607565 0.615674
O O2 0.884387 0.788925 0.499750
O O3 0.880609 0.487937 0.481849
O O4 0.988461 0.630219 0.586595
O O5 0.750000 0.750000 0.740527
O O6 0.804767 0.457159 0.757615
O O7 0.909014 0.686650 0.744763
O O8 0.002074 0.210266 0.619749
O O9 0.116242 0.992916 0.608226
O O10 0.000000 0.000000 0.500000
O O11 0.643993 0.289030 0.860164
O O12 0.583326 0.550849 0.823363
O O13 0.043747 0.850924 0.739562
#
# Coordination Sequence:
#
# PCOD8227927 Si02
#       6
#     8   8   8   8   8   8
#     4  10  19  33  54  88 122 151 192 256 311 360
#     4  11  23  39  58  86 122 164 203 252 320 370
#     4  10  18  29  53  88 120 147 195 252 299 353
#     4  10  18  32  57  87 119 148 203 253 300 356
#     4  11  19  34  59  89 114 156 201 255 301 367
#     4  10  19  34  56  88 122 156 203 251 301 370
#
# _framework density 21.347657999999999
#
# number of rings (size 3 to 8) (size 9 to 14) (size 15 to 20)
#    0.000    1.667    5.000    1.000    0.000    0.000 
#    0.000    8.333    0.000    0.000    0.000    0.000 
#    0.000    0.000    0.000    0.000    0.000    0.000 
#
# Total GULP energy -594752.642182 kJ/mol
# GULP energy per Si atom -12390.680045 kJ/mol
# Density = 2.129907 g / cm^3
# Si number density = 21.347658 Si / 1000 Ang^3
#
#
#
# Elastic Constant Matrix: (Units=GPa)
#
#
# Indices 1 2 3 4 5 6 
#
# 1 26.8946 17.7861 17.1859 0.0000 0.0000 0.0000
# 2 17.7861 157.7448 69.6056 0.0000 0.0000 0.0000
# 3 17.1859 69.6056 132.1961 0.0000 0.0000 0.0000
# 4 0.0000 0.0000 0.0000 49.3977 0.0000 0.0000
# 5 0.0000 0.0000 0.0000 0.0000 14.4180 0.0000
# 6 0.0000 0.0000 0.0000 0.0000 0.0000 28.5946
#
#
#
# Elastic Compliance Matrix: (Units=1/GPa)
#
#
# Indices 1 2 3 4 5 6 
#
# 1 0.041615 -0.003003 -0.003829 0.000000 0.000000 0.000000
# 2 -0.003003 0.008475 -0.004072 0.000000 0.000000 0.000000
# 3 -0.003829 -0.004072 0.010206 0.000000 0.000000 0.000000
# 4 0.000000 0.000000 0.000000 0.020244 0.000000 0.000000
# 5 0.000000 0.000000 0.000000 0.000000 0.069358 0.000000
# 6 0.000000 0.000000 0.000000 0.000000 0.000000 0.034972
#
#
# Mechanical properties :
#
#
# Convention : Reuss Voigt Hill
#
# Bulk Modulus (GPa) = 25.98167 58.44340 42.21253
# Shear Modulus (GPa) = 22.77847 32.63258 27.70552
#
# Velocity S-wave (km/s) = 3.27008 3.91401 3.60644
# Velocity P-wave (km/s) = 5.14345 6.91826 6.09579
#
# Compressibility (1/GPa) = 0.03848868
#
# Stress axis : x y z
#
# Youngs Moduli (GPa) = 24.02994 117.99955 97.97912
#
# Poissons Ratio (x) = 0.35430 0.37517
# Poissons Ratio (y) = 0.07215 0.39895
# Poissons Ratio (z) = 0.09201 0.48047
#
# Static dielectric constant tensor:
#      x y z
#    x 3.143200 0.000000 0.000000 
#    y 0.000000 4.413470 0.000000 
#    z 0.000000 0.000000 4.568970 
# 
# 
# High freq. dielectric constant tensor:
#      x y z
#    x 1.755020 0.000000 0.000000 
#    y 0.000000 1.859340 0.000000 
#    z 0.000000 0.000000 1.865430 
# 
# From -- ./inp_files/10639.got.cif
#   From: 2010.03.12/outbox.cif.g09.slc.cpg/sg56_6_cif.got.tgz:10639.got - 2010.04.16 15:33:40.
