data_PCOD8227065
_publ_section_title
;
Structure prediction by ZEFSAII (Michael W. Deem and Ramdas Pophale) SiO2 
 PCOD8227065
Probable space group: P B A M
;
_chemical_formula_sum "Si O2"
_cell_formula_units_Z 36
_cell_length_a 32.081482
_cell_length_b 5.123006
_cell_length_c 10.360216
_cell_angle_alpha 90.000000
_cell_angle_beta 90.000000
_cell_angle_gamma 90.000000
_cell_volume 1702.739053
_symmetry_space_group_name_H-M "P B A M"
_symmetry_group_IT_number 55
_symmetry_cell_setting 'orthorhombic'
loop_
_space_group_symop_operation_xyz
x,y,z
-x,-y,z
1/2+x,1/2-y,-z
1/2-x,1/2+y,-z
-x,-y,-z
x,y,-z
1/2-x,1/2+y,z
1/2+x,1/2-y,z
loop_
_atom_site_type_symbol
_atom_site_label
_atom_site_fract_x
_atom_site_fract_y
_atom_site_fract_z
Si Si1 0.101647 0.721228 0.849807
Si Si2 0.727942 0.196162 0.648307
Si Si3 0.845593 0.778204 0.795069
Si Si4 0.724198 0.304446 0.000000
Si Si5 0.528128 0.752427 0.353598
O O1 0.118846 0.431536 0.825901
O O2 0.063529 0.767367 0.753698
O O3 0.136315 0.934070 0.814765
O O4 0.087889 0.749356 0.000000
O O5 0.739969 0.179919 0.500000
O O6 0.754108 0.432775 0.714318
O O7 0.677021 0.234104 0.657068
O O8 0.804560 0.735983 0.879421
O O9 0.736916 0.607538 0.000000
O O10 0.500000 0.500000 0.340469
O O11 0.546712 0.771853 0.500000
O O12 0.500000 0.000000 0.321891
#
# Coordination Sequence:
#
# PCOD8227065 Si02
#       5
#     8   8   8   4   8
#     4  12  24  41  62  91 131 161 197 254 310 364
#     4  10  21  38  58  82 114 156 208 260 305 361
#     4  12  23  39  58  87 124 159 204 256 306 363
#     4  12  22  36  58  80 114 164 208 248 298 344
#     4  10  23  44  69  96 124 159 205 250 301 377
#
# _framework density 21.142406000000001
#
# number of rings (size 3 to 8) (size 9 to 14) (size 15 to 20)
#    0.000    0.889    2.222    5.333    0.000    2.667 
#    0.000    0.000    0.000    0.000    0.000    0.000 
#    0.000    0.000    0.000    0.000    0.000    0.000 
#
# Total GULP energy -446265.448656 kJ/mol
# GULP energy per Si atom -12396.262463 kJ/mol
# Density = 2.109429 g / cm^3
# Si number density = 21.142406 Si / 1000 Ang^3
#
#
#
# Elastic Constant Matrix: (Units=GPa)
#
#
# Indices 1 2 3 4 5 6 
#
# 1 87.7719 19.5733 51.5347 0.0000 0.0000 0.0000
# 2 19.5733 121.4858 20.2087 0.0000 0.0000 0.0000
# 3 51.5347 20.2087 72.8003 0.0000 0.0000 0.0000
# 4 0.0000 0.0000 0.0000 11.8035 0.0000 0.0000
# 5 0.0000 0.0000 0.0000 0.0000 34.9358 0.0000
# 6 0.0000 0.0000 0.0000 0.0000 0.0000 33.6212
#
#
#
# Elastic Compliance Matrix: (Units=1/GPa)
#
#
# Indices 1 2 3 4 5 6 
#
# 1 0.019588 -0.000890 -0.013619 0.000000 0.000000 0.000000
# 2 -0.000890 0.008670 -0.001776 0.000000 0.000000 0.000000
# 3 -0.013619 -0.001776 0.023870 0.000000 0.000000 0.000000
# 4 0.000000 0.000000 0.000000 0.084721 0.000000 0.000000
# 5 0.000000 0.000000 0.000000 0.000000 0.028624 0.000000
# 6 0.000000 0.000000 0.000000 0.000000 0.000000 0.029743
#
#
# Mechanical properties :
#
#
# Convention : Reuss Voigt Hill
#
# Bulk Modulus (GPa) = 51.13350 51.63237 51.38294
# Shear Modulus (GPa) = 21.33951 28.78819 25.06385
#
# Velocity S-wave (km/s) = 3.18043 3.69403 3.44681
# Velocity P-wave (km/s) = 6.14204 6.53213 6.34009
#
# Compressibility (1/GPa) = 0.01955665
#
# Stress axis : x y z
#
# Youngs Moduli (GPa) = 51.05156 115.33506 41.89343
#
# Poissons Ratio (x) = 0.10270 0.57055
# Poissons Ratio (y) = 0.04546 0.07442
# Poissons Ratio (z) = 0.69527 0.20489
#
# Static dielectric constant tensor:
#      x y z
#    x 3.615270 0.000000 0.000000 
#    y 0.000000 4.229120 0.000000 
#    z 0.000000 0.000000 4.664230 
# 
# 
# High freq. dielectric constant tensor:
#      x y z
#    x 1.814390 0.000000 0.000000 
#    y 0.000000 1.853550 0.000000 
#    z 0.000000 0.000000 1.840790 
# 
# From -- ./inp_files/15526.got.cif
#   From: 2010.03.12/outbox.cif.g09.slc.cpg/sg55_8_cif.got.tgz:15526.got - 2010.04.16 15:19:21.
