data_PCOD8227310
_publ_section_title
;
Structure prediction by ZEFSAII (Michael W. Deem and Ramdas Pophale) SiO2 
 PCOD8227310
Probable space group: P B A M
;
_chemical_formula_sum "Si O2"
_cell_formula_units_Z 52
_cell_length_a 22.753389
_cell_length_b 14.736274
_cell_length_c 7.559836
_cell_angle_alpha 90.000000
_cell_angle_beta 90.000000
_cell_angle_gamma 90.000000
_cell_volume 2534.814332
_symmetry_space_group_name_H-M "P B A M"
_symmetry_group_IT_number 55
_symmetry_cell_setting 'orthorhombic'
loop_
_space_group_symop_operation_xyz
x,y,z
-x,-y,z
1/2+x,1/2-y,-z
1/2-x,1/2+y,-z
-x,-y,-z
x,y,-z
1/2-x,1/2+y,z
1/2+x,1/2-y,z
loop_
_atom_site_type_symbol
_atom_site_label
_atom_site_fract_x
_atom_site_fract_y
_atom_site_fract_z
Si Si1 0.564382 0.955163 0.000000
Si Si2 0.565779 0.267669 0.694371
Si Si3 0.559374 0.558612 0.000000
Si Si4 0.980490 0.262277 0.000000
Si Si5 0.878672 0.957022 0.294972
Si Si6 0.738762 0.363967 0.709017
Si Si7 0.342326 0.008172 0.288823
Si Si8 0.192515 0.317662 0.698027
O O1 0.597803 0.985857 0.178527
O O2 0.500000 0.000000 0.000000
O O3 0.564301 0.845884 0.000000
O O4 0.538006 0.257935 0.500000
O O5 0.520108 0.225225 0.827994
O O6 0.577435 0.372923 0.736236
O O7 0.625305 0.212070 0.705720
O O8 0.500000 0.500000 0.000000
O O9 0.551244 0.666057 0.000000
O O10 0.597204 0.538393 0.824220
O O11 0.878044 0.987824 0.500000
O O12 0.813758 0.929366 0.225720
O O13 0.729353 0.354700 0.500000
O O14 0.801773 0.405182 0.758584
O O15 0.731747 0.261665 0.792345
O O16 0.356221 0.002828 0.500000
O O17 0.305804 0.919067 0.221348
O O18 0.216266 0.326932 0.500000
#
# Coordination Sequence:
#
# PCOD8227310 Si02
#       8
#     4   8   4   4   8   8   8   8
#     4  12  28  45  60  84 117 155 208 255 290 348
#     4   9  17  32  56  81 108 148 198 241 275 323
#     4  12  22  35  53  83 119 157 195 235 293 355
#     4  12  24  38  53  79 116 150 195 242 284 342
#     4   9  18  34  56  84 117 153 193 239 285 341
#     4   8  16  34  61  91 117 144 189 241 291 351
#     4  10  21  41  65  89 119 154 193 243 302 356
#     4   8  15  31  59  89 111 142 190 236 283 344
#
# _framework density 20.514323000000001
#
# number of rings (size 3 to 8) (size 9 to 14) (size 15 to 20)
#    0.000    2.462    1.538    2.769    0.000    2.462 
#    2.769    1.538    0.000    0.000    0.000    0.000 
#    0.000    0.000    0.000    0.000    0.000    0.000 
#
# Total GULP energy -644371.500506 kJ/mol
# GULP energy per Si atom -12391.759625 kJ/mol
# Density = 2.046763 g / cm^3
# Si number density = 20.514323 Si / 1000 Ang^3
#
#
#
# Elastic Constant Matrix: (Units=GPa)
#
#
# Indices 1 2 3 4 5 6 
#
# 1 90.5038 50.1211 38.8413 0.0000 0.0000 0.0000
# 2 50.1211 141.0665 31.8010 0.0000 0.0000 0.0000
# 3 38.8413 31.8010 89.8470 0.0000 0.0000 0.0000
# 4 0.0000 0.0000 0.0000 22.6515 0.0000 0.0000
# 5 0.0000 0.0000 0.0000 0.0000 27.9747 0.0000
# 6 0.0000 0.0000 0.0000 0.0000 0.0000 28.2930
#
#
#
# Elastic Compliance Matrix: (Units=1/GPa)
#
#
# Indices 1 2 3 4 5 6 
#
# 1 0.015743 -0.004411 -0.005244 0.000000 0.000000 0.000000
# 2 -0.004411 0.008940 -0.001257 0.000000 0.000000 0.000000
# 3 -0.005244 -0.001257 0.013842 0.000000 0.000000 0.000000
# 4 0.000000 0.000000 0.000000 0.044147 0.000000 0.000000
# 5 0.000000 0.000000 0.000000 0.000000 0.035747 0.000000
# 6 0.000000 0.000000 0.000000 0.000000 0.000000 0.035344
#
#
# Mechanical properties :
#
#
# Convention : Reuss Voigt Hill
#
# Bulk Modulus (GPa) = 59.88333 62.54935 61.21634
# Shear Modulus (GPa) = 27.60070 29.16076 28.38073
#
# Velocity S-wave (km/s) = 3.67200 3.77435 3.72352
# Velocity P-wave (km/s) = 6.87259 7.03925 6.95642
#
# Compressibility (1/GPa) = 0.01669914
#
# Stress axis : x y z
#
# Youngs Moduli (GPa) = 63.52058 111.86229 72.24294
#
# Poissons Ratio (x) = 0.49345 0.37887
# Poissons Ratio (y) = 0.28020 0.09082
# Poissons Ratio (z) = 0.33313 0.14063
#
# Static dielectric constant tensor:
#      x y z
#    x 3.442820 0.000000 0.000000 
#    y 0.000000 3.932350 0.000000 
#    z 0.000000 0.000000 3.593610 
# 
# 
# High freq. dielectric constant tensor:
#      x y z
#    x 1.774400 0.000000 0.000000 
#    y 0.000000 1.804150 0.000000 
#    z 0.000000 0.000000 1.793830 
# 
# From -- ./inp_files/8652.got.cif
#   From: 2010.03.12/outbox.cif.g09.slc.cpg/sg55_5_cif.got.tgz:8652.got - 2010.04.16 15:19:21.
