data_PCOD8227278
_publ_section_title
;
Structure prediction by ZEFSAII (Michael W. Deem and Ramdas Pophale) SiO2 
 PCOD8227278
Probable space group: P B A M
;
_chemical_formula_sum "Si O2"
_cell_formula_units_Z 40
_cell_length_a 15.187722
_cell_length_b 11.480290
_cell_length_c 11.653618
_cell_angle_alpha 90.000000
_cell_angle_beta 90.000000
_cell_angle_gamma 90.000000
_cell_volume 2031.918460
_symmetry_space_group_name_H-M "P B A M"
_symmetry_group_IT_number 55
_symmetry_cell_setting 'orthorhombic'
loop_
_space_group_symop_operation_xyz
x,y,z
-x,-y,z
1/2+x,1/2-y,-z
1/2-x,1/2+y,-z
-x,-y,-z
x,y,-z
1/2-x,1/2+y,z
1/2+x,1/2-y,z
loop_
_atom_site_type_symbol
_atom_site_label
_atom_site_fract_x
_atom_site_fract_y
_atom_site_fract_z
Si Si1 0.141120 0.731343 0.249983
Si Si2 0.601862 0.019005 0.238473
Si Si3 0.310065 0.229689 0.000000
Si Si4 0.678974 0.223888 0.367269
Si Si5 0.485631 0.630736 0.633951
Si Si6 0.807643 0.538041 0.000000
O O1 0.146812 0.597384 0.287257
O O2 0.129776 0.738977 0.112690
O O3 0.233126 0.785377 0.291626
O O4 0.055220 0.790180 0.300944
O O5 0.620456 0.112928 0.336335
O O6 0.500000 0.000000 0.224755
O O7 0.635434 0.055589 0.113638
O O8 0.265391 0.096399 0.000000
O O9 0.253143 0.347512 0.000000
O O10 0.706390 0.221890 0.500000
O O11 0.615875 0.334446 0.339151
O O12 0.500000 0.500000 0.677272
O O13 0.505693 0.644181 0.500000
#
# Coordination Sequence:
#
# PCOD8227278 Si02
#       6
#     8   8   4   8   8   4
#     4  11  23  42  63  91 125 162 208 262 312 374
#     4  11  22  41  65  92 123 162 210 263 315 372
#     4  10  22  38  65  94 122 163 213 254 318 379
#     4  11  24  39  62  92 123 168 209 250 316 374
#     4  10  23  42  62  88 127 166 206 256 310 373
#     4  10  21  40  64  92 126 165 209 263 318 376
#
# _framework density 19.685829999999999
#
# number of rings (size 3 to 8) (size 9 to 14) (size 15 to 20)
#    0.000    1.400    4.000    0.900    2.800    2.000 
#    0.000    1.500    0.000    0.000    0.000    0.000 
#    0.000    0.000    0.000    0.000    0.000    0.000 
#
# Total GULP energy -495724.243934 kJ/mol
# GULP energy per Si atom -12393.106098 kJ/mol
# Density = 1.964102 g / cm^3
# Si number density = 19.685830 Si / 1000 Ang^3
#
#
#
# Elastic Constant Matrix: (Units=GPa)
#
#
# Indices 1 2 3 4 5 6 
#
# 1 65.6113 2.9538 27.2948 0.0000 0.0000 0.0000
# 2 2.9538 72.5452 21.8143 0.0000 0.0000 0.0000
# 3 27.2948 21.8143 79.4475 0.0000 0.0000 0.0000
# 4 0.0000 0.0000 0.0000 29.5591 0.0000 0.0000
# 5 0.0000 0.0000 0.0000 0.0000 27.0730 0.0000
# 6 0.0000 0.0000 0.0000 0.0000 0.0000 33.2710
#
#
#
# Elastic Compliance Matrix: (Units=1/GPa)
#
#
# Indices 1 2 3 4 5 6 
#
# 1 0.017881 0.001220 -0.006478 0.000000 0.000000 0.000000
# 2 0.001220 0.015108 -0.004567 0.000000 0.000000 0.000000
# 3 -0.006478 -0.004567 0.016067 0.000000 0.000000 0.000000
# 4 0.000000 0.000000 0.000000 0.033831 0.000000 0.000000
# 5 0.000000 0.000000 0.000000 0.000000 0.036937 0.000000
# 6 0.000000 0.000000 0.000000 0.000000 0.000000 0.030056
#
#
# Mechanical properties :
#
#
# Convention : Reuss Voigt Hill
#
# Bulk Modulus (GPa) = 34.00810 35.74775 34.87793
# Shear Modulus (GPa) = 27.88102 29.01668 28.44885
#
# Velocity S-wave (km/s) = 3.76746 3.84342 3.80563
# Velocity P-wave (km/s) = 6.01979 6.15584 6.08820
#
# Compressibility (1/GPa) = 0.02940476
#
# Stress axis : x y z
#
# Youngs Moduli (GPa) = 55.92416 66.18887 62.24052
#
# Poissons Ratio (x) = -0.08075 0.40321
# Poissons Ratio (y) = -0.06822 0.28428
# Poissons Ratio (z) = 0.36229 0.30232
#
# Static dielectric constant tensor:
#      x y z
#    x 3.553490 0.000000 0.000000 
#    y 0.000000 3.883250 0.000000 
#    z 0.000000 0.000000 3.678880 
# 
# 
# High freq. dielectric constant tensor:
#      x y z
#    x 1.756840 0.000000 0.000000 
#    y 0.000000 1.783960 0.000000 
#    z 0.000000 0.000000 1.774700 
# 
# From -- ./inp_files/13035.got.cif
#   From: 2010.03.12/outbox.cif.g09.slc.cpg/sg55_7_cif.got.tgz:13035.got - 2010.04.16 15:19:21.
