data_PCOD8227337
_publ_section_title
;
Structure prediction by ZEFSAII (Michael W. Deem and Ramdas Pophale) SiO2 
 PCOD8227337
Probable space group: P B A M
;
_chemical_formula_sum "Si O2"
_cell_formula_units_Z 40
_cell_length_a 18.067579
_cell_length_b 15.634717
_cell_length_c 7.317792
_cell_angle_alpha 90.000000
_cell_angle_beta 90.000000
_cell_angle_gamma 90.000000
_cell_volume 2067.140748
_symmetry_space_group_name_H-M "P B A M"
_symmetry_group_IT_number 55
_symmetry_cell_setting 'orthorhombic'
loop_
_space_group_symop_operation_xyz
x,y,z
-x,-y,z
1/2+x,1/2-y,-z
1/2-x,1/2+y,-z
-x,-y,-z
x,y,-z
1/2-x,1/2+y,z
1/2+x,1/2-y,z
loop_
_atom_site_type_symbol
_atom_site_label
_atom_site_fract_x
_atom_site_fract_y
_atom_site_fract_z
Si Si1 0.601077 0.678820 0.500000
Si Si2 0.394701 0.065667 0.790018
Si Si3 0.060122 0.382043 0.791402
Si Si4 0.947855 0.748607 0.500000
Si Si5 0.583801 0.532320 0.785496
Si Si6 0.803972 0.336642 0.500000
Si Si7 0.644569 0.409193 0.500000
O O1 0.536883 0.750281 0.500000
O O2 0.594821 0.623355 0.685677
O O3 0.676664 0.735186 0.500000
O O4 0.476637 0.094897 0.736449
O O5 0.334350 0.117212 0.679168
O O6 0.388122 0.963990 0.749771
O O7 0.378742 0.085048 0.000000
O O8 0.085194 0.300548 0.675261
O O9 0.066480 0.354384 0.000000
O O10 0.925128 0.846664 0.500000
O O11 0.500000 0.500000 0.760840
O O12 0.639166 0.466593 0.683596
O O13 0.604760 0.540272 0.000000
O O14 0.716270 0.349487 0.500000
#
# Coordination Sequence:
#
# PCOD8227337 Si02
#       7
#     4   8   8   4   8   4   4
#     4  11  21  37  62  96 116 148 200 246 290 356
#     4   9  18  34  55  82 114 155 196 225 276 353
#     4   9  18  32  55  85 114 146 192 241 280 334
#     4  12  19  34  58  86 117 145 192 248 293 332
#     4  10  21  43  70  87 109 150 202 257 300 340
#     4  12  23  37  58  84 124 160 186 238 306 356
#     4  11  25  41  57  86 119 150 195 244 295 360
#
# _framework density 19.3504
#
# number of rings (size 3 to 8) (size 9 to 14) (size 15 to 20)
#    0.000    1.800    4.000    2.400    0.000    4.800 
#    7.200    0.000    0.000    0.000    0.000    0.000 
#    0.000    0.000    0.000    0.000    0.000    0.000 
#
# Total GULP energy -495924.240672 kJ/mol
# GULP energy per Si atom -12398.106017 kJ/mol
# Density = 1.930636 g / cm^3
# Si number density = 19.350400 Si / 1000 Ang^3
#
#
#
# Elastic Constant Matrix: (Units=GPa)
#
#
# Indices 1 2 3 4 5 6 
#
# 1 61.0764 24.7874 26.2690 0.0000 0.0000 0.0000
# 2 24.7874 114.7181 64.6982 0.0000 0.0000 0.0000
# 3 26.2690 64.6982 141.0966 0.0000 0.0000 0.0000
# 4 0.0000 0.0000 0.0000 52.8991 0.0000 0.0000
# 5 0.0000 0.0000 0.0000 0.0000 17.4797 0.0000
# 6 0.0000 0.0000 0.0000 0.0000 0.0000 29.3820
#
#
#
# Elastic Compliance Matrix: (Units=1/GPa)
#
#
# Indices 1 2 3 4 5 6 
#
# 1 0.018424 -0.002760 -0.002164 0.000000 0.000000 0.000000
# 2 -0.002760 0.012171 -0.005067 0.000000 0.000000 0.000000
# 3 -0.002164 -0.005067 0.009814 0.000000 0.000000 0.000000
# 4 0.000000 0.000000 0.000000 0.018904 0.000000 0.000000
# 5 0.000000 0.000000 0.000000 0.000000 0.057209 0.000000
# 6 0.000000 0.000000 0.000000 0.000000 0.000000 0.034034
#
#
# Mechanical properties :
#
#
# Convention : Reuss Voigt Hill
#
# Bulk Modulus (GPa) = 48.95846 60.93337 54.94591
# Shear Modulus (GPa) = 28.19307 33.36125 30.77716
#
# Velocity S-wave (km/s) = 3.82118 4.15668 3.99246
# Velocity P-wave (km/s) = 6.69511 7.38886 7.05052
#
# Compressibility (1/GPa) = 0.02042548
#
# Stress axis : x y z
#
# Youngs Moduli (GPa) = 54.27678 82.16187 101.89785
#
# Poissons Ratio (x) = 0.22678 0.22056
# Poissons Ratio (y) = 0.14982 0.51632
# Poissons Ratio (z) = 0.11748 0.41632
#
# Static dielectric constant tensor:
#      x y z
#    x 3.117470 0.000000 0.000000 
#    y 0.000000 3.544870 0.000000 
#    z 0.000000 0.000000 3.608030 
# 
# 
# High freq. dielectric constant tensor:
#      x y z
#    x 1.711040 0.000000 0.000000 
#    y 0.000000 1.760970 0.000000 
#    z 0.000000 0.000000 1.763680 
# 
# From -- ./inp_files/7520.got.cif
#   From: 2010.03.12/outbox.cif.g09.slc.cpg/sg55_4_cif.got.tgz:7520.got - 2010.04.16 15:19:21.
