data_PCOD8227621
_publ_section_title
;
Structure prediction by ZEFSAII (Michael W. Deem and Ramdas Pophale) SiO2 
 PCOD8227621
Probable space group: P B A M
;
_chemical_formula_sum "Si O2"
_cell_formula_units_Z 48
_cell_length_a 17.672972
_cell_length_b 8.737906
_cell_length_c 14.748996
_cell_angle_alpha 90.000000
_cell_angle_beta 90.000000
_cell_angle_gamma 90.000000
_cell_volume 2277.610287
_symmetry_space_group_name_H-M "P B A M"
_symmetry_group_IT_number 55
_symmetry_cell_setting 'orthorhombic'
loop_
_space_group_symop_operation_xyz
x,y,z
-x,-y,z
1/2+x,1/2-y,-z
1/2-x,1/2+y,-z
-x,-y,-z
x,y,-z
1/2-x,1/2+y,z
1/2+x,1/2-y,z
loop_
_atom_site_type_symbol
_atom_site_label
_atom_site_fract_x
_atom_site_fract_y
_atom_site_fract_z
Si Si1 0.216889 0.022789 0.000000
Si Si2 0.346893 0.966443 0.393662
Si Si3 0.608152 0.921601 0.000000
Si Si4 0.000000 0.500000 0.289294
Si Si5 0.581493 0.270730 0.000000
Si Si6 0.332603 0.424248 0.190761
Si Si7 0.266640 0.691803 0.697619
Si Si8 0.974301 0.240455 0.847068
O O1 0.168036 0.179409 0.000000
O O2 0.195843 0.923012 0.087304
O O3 0.302419 0.072250 0.000000
O O4 0.358936 0.959546 0.500000
O O5 0.322273 0.799343 0.359392
O O6 0.425631 0.017978 0.349824
O O7 0.282721 0.090348 0.370842
O O8 0.582601 0.839246 0.908919
O O9 0.571339 0.089185 0.000000
O O10 0.010644 0.348041 0.229143
O O11 0.540303 0.334248 0.909208
O O12 0.288403 0.288050 0.239106
O O13 0.318292 0.585887 0.238686
O O14 0.422794 0.392671 0.197024
#
# Coordination Sequence:
#
# PCOD8227621 Si02
#       8
#     4   8   4   4   4   8   8   8
#     4  12  28  36  64  94 136 172 225 277 307 383
#     4  11  24  46  74 102 130 169 221 282 346 407
#     4  11  23  39  64  91 128 177 230 276 310 370
#     4  12  23  41  70 102 136 172 214 275 337 416
#     4  11  25  41  62  87 131 186 221 272 322 375
#     4  11  24  41  64 100 135 174 225 266 325 380
#     4  10  24  44  71 101 131 175 221 276 334 400
#     4  11  22  43  62  93 131 179 224 263 323 393
#
# _framework density 21.074719999999999
#
# number of rings (size 3 to 8) (size 9 to 14) (size 15 to 20)
#    0.000    1.000    3.333    3.250    9.333    1.333 
#    0.000    0.000    0.000    1.000    0.000    0.000 
#    0.000    0.000    0.000    0.000    0.000    0.000 
#
# Total GULP energy -595498.745448 kJ/mol
# GULP energy per Si atom -12406.223864 kJ/mol
# Density = 2.102675 g / cm^3
# Si number density = 21.074720 Si / 1000 Ang^3
#
#
#
# Elastic Constant Matrix: (Units=GPa)
#
#
# Indices 1 2 3 4 5 6 
#
# 1 83.4243 4.5683 20.8399 0.0000 0.0000 0.0000
# 2 4.5683 73.8273 23.7197 0.0000 0.0000 0.0000
# 3 20.8399 23.7197 130.5139 0.0000 0.0000 0.0000
# 4 0.0000 0.0000 0.0000 24.2885 0.0000 0.0000
# 5 0.0000 0.0000 0.0000 0.0000 -37.5247 0.0000
# 6 0.0000 0.0000 0.0000 0.0000 0.0000 33.7137
#
#
#
# Elastic Compliance Matrix: (Units=1/GPa)
#
#
# Indices 1 2 3 4 5 6 
#
# 1 0.012486 -0.000140 -0.001968 0.000000 0.000000 0.000000
# 2 -0.000140 0.014387 -0.002592 0.000000 0.000000 0.000000
# 3 -0.001968 -0.002592 0.008447 0.000000 0.000000 0.000000
# 4 0.000000 0.000000 0.000000 0.041172 0.000000 0.000000
# 5 0.000000 0.000000 0.000000 0.000000 -0.026649 0.000000
# 6 0.000000 0.000000 0.000000 0.000000 0.000000 0.029662
#
#
# Mechanical properties :
#
#
# Convention : Reuss Voigt Hill
#
# Bulk Modulus (GPa) = 38.58198 42.89124 40.73661
# Shear Modulus (GPa) = 51.25803 20.00467 35.63135
#
# Velocity S-wave (km/s) = 4.93709 3.08429 4.11629
# Velocity P-wave (km/s) = 7.13069 5.75152 6.47791
#
# Compressibility (1/GPa) = 0.02591883
#
# Stress axis : x y z
#
# Youngs Moduli (GPa) = 80.08790 69.50885 118.37937
#
# Poissons Ratio (x) = 0.00975 0.23300
# Poissons Ratio (y) = 0.01123 0.30687
# Poissons Ratio (z) = 0.15763 0.18018
#
# Static dielectric constant tensor:
#      x y z
#    x 3.878640 0.000000 0.000000 
#    y 0.000000 3.887070 0.000000 
#    z 0.000000 0.000000 3.746090 
# 
# 
# High freq. dielectric constant tensor:
#      x y z
#    x 1.839330 0.000000 0.000000 
#    y 0.000000 1.835450 0.000000 
#    z 0.000000 0.000000 1.814700 
# 
# From -- ./inp_files/17452.got.cif
#   From: 2010.03.12/outbox.cif.g09.slc.cpg/sg55_9_cif.got.tgz:17452.got - 2010.04.16 15:19:21.
