data_PCOD8227328
_publ_section_title
;
Structure prediction by ZEFSAII (Michael W. Deem and Ramdas Pophale) SiO2 
 PCOD8227328
Probable space group: P B A M
;
_chemical_formula_sum "Si O2"
_cell_formula_units_Z 48
_cell_length_a 26.786877
_cell_length_b 9.890843
_cell_length_c 8.510669
_cell_angle_alpha 90.000000
_cell_angle_beta 90.000000
_cell_angle_gamma 90.000000
_cell_volume 2254.857452
_symmetry_space_group_name_H-M "P B A M"
_symmetry_group_IT_number 55
_symmetry_cell_setting 'orthorhombic'
loop_
_space_group_symop_operation_xyz
x,y,z
-x,-y,z
1/2+x,1/2-y,-z
1/2-x,1/2+y,-z
-x,-y,-z
x,y,-z
1/2-x,1/2+y,z
1/2+x,1/2-y,z
loop_
_atom_site_type_symbol
_atom_site_label
_atom_site_fract_x
_atom_site_fract_y
_atom_site_fract_z
Si Si1 0.571552 0.751018 0.680576
Si Si2 0.116105 0.008502 0.815835
Si Si3 0.033794 0.228492 0.818154
Si Si4 0.219943 0.137966 0.182848
Si Si5 0.791473 0.577172 0.680866
Si Si6 0.103509 0.471872 0.180893
O O1 0.577940 0.792347 0.500000
O O2 0.608662 0.628811 0.719915
O O3 0.515004 0.706183 0.713914
O O4 0.586028 0.876534 0.789080
O O5 0.072663 0.112643 0.771899
O O6 0.168349 0.071247 0.760140
O O7 0.116582 0.975299 0.000000
O O8 0.057317 0.374113 0.779596
O O9 0.018349 0.217188 0.000000
O O10 0.229877 0.275942 0.276097
O O11 0.265196 0.036742 0.214576
O O12 0.217323 0.174079 0.000000
O O13 0.780143 0.547115 0.500000
O O14 0.850371 0.571085 0.711632
O O15 0.119565 0.453554 0.000000
#
# Coordination Sequence:
#
# PCOD8227328 Si02
#       6
#     8   8   8   8   8   8
#     4  12  26  39  59  97 136 171 211 263 329 383
#     4  10  22  43  68  93 124 169 221 266 311 376
#     4  10  21  42  68  93 122 165 222 269 315 381
#     4  11  24  46  72  97 127 173 222 262 314 391
#     4  12  26  44  68 101 136 167 207 271 334 382
#     4  11  23  44  69  93 125 172 222 266 316 385
#
# _framework density 21.287375999999998
#
# number of rings (size 3 to 8) (size 9 to 14) (size 15 to 20)
#    0.000    1.000    1.667    5.000    2.333    7.333 
#    0.000    0.000    0.000    0.000    0.000    0.000 
#    0.000    0.000    0.000    0.000    0.000    0.000 
#
# Total GULP energy -595651.239352 kJ/mol
# GULP energy per Si atom -12409.400820 kJ/mol
# Density = 2.123893 g / cm^3
# Si number density = 21.287376 Si / 1000 Ang^3
#
#
#
# Elastic Constant Matrix: (Units=GPa)
#
#
# Indices 1 2 3 4 5 6 
#
# 1 53.6206 0.3245 17.3939 0.0000 0.0000 0.0000
# 2 0.3245 90.6470 15.4124 0.0000 0.0000 0.0000
# 3 17.3939 15.4124 58.5781 0.0000 0.0000 0.0000
# 4 0.0000 0.0000 0.0000 28.9120 0.0000 0.0000
# 5 0.0000 0.0000 0.0000 0.0000 21.7224 0.0000
# 6 0.0000 0.0000 0.0000 0.0000 0.0000 37.6314
#
#
#
# Elastic Compliance Matrix: (Units=1/GPa)
#
#
# Indices 1 2 3 4 5 6 
#
# 1 0.020727 0.001018 -0.006422 0.000000 0.000000 0.000000
# 2 0.001018 0.011598 -0.003354 0.000000 0.000000 0.000000
# 3 -0.006422 -0.003354 0.019861 0.000000 0.000000 0.000000
# 4 0.000000 0.000000 0.000000 0.034588 0.000000 0.000000
# 5 0.000000 0.000000 0.000000 0.000000 0.046035 0.000000
# 6 0.000000 0.000000 0.000000 0.000000 0.000000 0.026574
#
#
# Mechanical properties :
#
#
# Convention : Reuss Voigt Hill
#
# Bulk Modulus (GPa) = 28.84417 29.90081 29.37249
# Shear Modulus (GPa) = 26.53144 28.96747 27.74946
#
# Velocity S-wave (km/s) = 3.53419 3.69288 3.61441
# Velocity P-wave (km/s) = 5.49849 5.67978 5.58987
#
# Compressibility (1/GPa) = 0.03466905
#
# Stress axis : x y z
#
# Youngs Moduli (GPa) = 48.24692 86.21878 50.35083
#
# Poissons Ratio (x) = -0.08775 0.32337
# Poissons Ratio (y) = -0.04910 0.16887
# Poissons Ratio (z) = 0.30985 0.28916
#
# Static dielectric constant tensor:
#      x y z
#    x 3.838060 0.000000 0.000000 
#    y 0.000000 3.925530 0.000000 
#    z 0.000000 0.000000 3.684460 
# 
# 
# High freq. dielectric constant tensor:
#      x y z
#    x 1.840080 0.000000 0.000000 
#    y 0.000000 1.850300 0.000000 
#    z 0.000000 0.000000 1.827400 
# 
# From -- ./inp_files/10500.got.cif
#   From: 2010.03.12/outbox.cif.g09.slc.cpg/sg55_6_cif.got.tgz:10500.got - 2010.04.16 15:19:21.
