data_PCOD8227408
_publ_section_title
;
Structure prediction by ZEFSAII (Michael W. Deem and Ramdas Pophale) SiO2 
 PCOD8227408
Probable space group: P B A M
;
_chemical_formula_sum "Si O2"
_cell_formula_units_Z 56
_cell_length_a 21.544390
_cell_length_b 14.502687
_cell_length_c 9.029566
_cell_angle_alpha 90.000000
_cell_angle_beta 90.000000
_cell_angle_gamma 90.000000
_cell_volume 2821.301845
_symmetry_space_group_name_H-M "P B A M"
_symmetry_group_IT_number 55
_symmetry_cell_setting 'orthorhombic'
loop_
_space_group_symop_operation_xyz
x,y,z
-x,-y,z
1/2+x,1/2-y,-z
1/2-x,1/2+y,-z
-x,-y,-z
x,y,-z
1/2-x,1/2+y,z
1/2+x,1/2-y,z
loop_
_atom_site_type_symbol
_atom_site_label
_atom_site_fract_x
_atom_site_fract_y
_atom_site_fract_z
Si Si1 0.548667 0.577738 0.829755
Si Si2 0.252618 0.616243 0.673108
Si Si3 0.481416 0.215401 0.169764
Si Si4 0.100324 0.399137 0.826671
Si Si5 0.677762 0.570441 0.673598
Si Si6 0.273855 0.802326 0.824591
Si Si7 0.611329 0.913207 0.325874
O O1 0.500000 0.500000 0.782738
O O2 0.515428 0.675514 0.804535
O O3 0.607065 0.567844 0.723365
O O4 0.569935 0.565520 0.000000
O O5 0.257200 0.639218 0.500000
O O6 0.290804 0.525787 0.716332
O O7 0.282231 0.699157 0.765343
O O8 0.182050 0.600950 0.723752
O O9 0.547947 0.174864 0.216359
O O10 0.427383 0.174117 0.270923
O O11 0.465935 0.190889 0.000000
O O12 0.166359 0.360256 0.772251
O O13 0.084277 0.493890 0.745002
O O14 0.101219 0.419413 0.000000
O O15 0.681905 0.590509 0.500000
O O16 0.712122 0.653474 0.756678
O O17 0.267844 0.799762 0.000000
O O18 0.604991 0.922211 0.500000
#
# Coordination Sequence:
#
# PCOD8227408 Si02
#       7
#     8   8   8   8   8   8   8
#     4  10  23  42  66  92 123 161 207 259 306 358
#     4  10  23  40  60  87 123 163 198 245 306 364
#     4  10  22  40  60  86 122 161 199 246 307 360
#     4  10  22  39  60  88 121 157 197 249 306 362
#     4  11  23  42  64  89 126 165 202 248 307 371
#     4  11  23  38  63  94 121 157 208 258 306 361
#     4  11  22  39  61  89 121 158 201 245 299 361
#
# _framework density 19.848991999999999
#
# number of rings (size 3 to 8) (size 9 to 14) (size 15 to 20)
#    0.000    1.571    1.429    2.571    2.000    8.286 
#    0.000    0.000    0.000    0.000    0.000    0.000 
#    0.000    0.000    0.000    0.000    0.000    0.000 
#
# Total GULP energy -694831.862182 kJ/mol
# GULP energy per Si atom -12407.711825 kJ/mol
# Density = 1.980382 g / cm^3
# Si number density = 19.848992 Si / 1000 Ang^3
#
#
#
# Elastic Constant Matrix: (Units=GPa)
#
#
# Indices 1 2 3 4 5 6 
#
# 1 86.1624 30.5501 21.4291 0.0000 0.0000 0.0000
# 2 30.5501 116.3379 32.7153 0.0000 0.0000 0.0000
# 3 21.4291 32.7153 49.8275 0.0000 0.0000 0.0000
# 4 0.0000 0.0000 0.0000 33.7268 0.0000 0.0000
# 5 0.0000 0.0000 0.0000 0.0000 31.0465 0.0000
# 6 0.0000 0.0000 0.0000 0.0000 0.0000 32.5659
#
#
#
# Elastic Compliance Matrix: (Units=1/GPa)
#
#
# Indices 1 2 3 4 5 6 
#
# 1 0.013498 -0.002345 -0.004265 0.000000 0.000000 0.000000
# 2 -0.002345 0.010950 -0.006181 0.000000 0.000000 0.000000
# 3 -0.004265 -0.006181 0.025962 0.000000 0.000000 0.000000
# 4 0.000000 0.000000 0.000000 0.029650 0.000000 0.000000
# 5 0.000000 0.000000 0.000000 0.000000 0.032210 0.000000
# 6 0.000000 0.000000 0.000000 0.000000 0.000000 0.030707
#
#
# Mechanical properties :
#
#
# Convention : Reuss Voigt Hill
#
# Bulk Modulus (GPa) = 40.27839 46.85742 43.56791
# Shear Modulus (GPa) = 28.27507 30.64339 29.45923
#
# Velocity S-wave (km/s) = 3.77836 3.93342 3.85667
# Velocity P-wave (km/s) = 6.27464 6.65487 6.46755
#
# Compressibility (1/GPa) = 0.02482721
#
# Stress axis : x y z
#
# Youngs Moduli (GPa) = 74.08327 91.32819 38.51841
#
# Poissons Ratio (x) = 0.21418 0.16430
# Poissons Ratio (y) = 0.17374 0.23807
# Poissons Ratio (z) = 0.31599 0.56446
#
# Static dielectric constant tensor:
#      x y z
#    x 3.665380 0.000000 0.000000 
#    y 0.000000 3.705590 0.000000 
#    z 0.000000 0.000000 3.523450 
# 
# 
# High freq. dielectric constant tensor:
#      x y z
#    x 1.780180 0.000000 0.000000 
#    y 0.000000 1.788270 0.000000 
#    z 0.000000 0.000000 1.770940 
# 
# From -- ./inp_files/6064.got.cif
#   From: 2010.03.12/outbox.cif.g09.slc.cpg/sg55_4_cif.got.tgz:6064.got - 2010.04.16 15:19:21.
