data_PCOD8227446
_publ_section_title
;
Structure prediction by ZEFSAII (Michael W. Deem and Ramdas Pophale) SiO2 
 PCOD8227446
Probable space group: P B A M
;
_chemical_formula_sum "Si O2"
_cell_formula_units_Z 48
_cell_length_a 27.723094
_cell_length_b 9.591219
_cell_length_c 8.859446
_cell_angle_alpha 90.000000
_cell_angle_beta 90.000000
_cell_angle_gamma 90.000000
_cell_volume 2355.711328
_symmetry_space_group_name_H-M "P B A M"
_symmetry_group_IT_number 55
_symmetry_cell_setting 'orthorhombic'
loop_
_space_group_symop_operation_xyz
x,y,z
-x,-y,z
1/2+x,1/2-y,-z
1/2-x,1/2+y,-z
-x,-y,-z
x,y,-z
1/2-x,1/2+y,z
1/2+x,1/2-y,z
loop_
_atom_site_type_symbol
_atom_site_label
_atom_site_fract_x
_atom_site_fract_y
_atom_site_fract_z
Si Si1 0.609763 0.699280 0.679814
Si Si2 0.393840 0.781024 0.671661
Si Si3 0.202509 0.351399 0.823942
Si Si4 0.553483 0.458276 0.821575
Si Si5 0.703327 0.826114 0.823513
Si Si6 0.951296 0.447407 0.328049
O O1 0.609667 0.692139 0.500000
O O2 0.595681 0.551506 0.749080
O O3 0.661822 0.748879 0.732097
O O4 0.569477 0.806618 0.745043
O O5 0.393678 0.726168 0.500000
O O6 0.340466 0.772428 0.738487
O O7 0.433714 0.696606 0.766926
O O8 0.408780 0.941393 0.681946
O O9 0.249041 0.260552 0.783670
O O10 0.209417 0.512470 0.771966
O O11 0.190582 0.346300 0.000000
O O12 0.500000 0.500000 0.763630
O O13 0.556469 0.469433 0.000000
O O14 0.691225 0.818001 0.000000
O O15 0.965309 0.412974 0.500000
O O16 0.000000 0.500000 0.243708
#
# Coordination Sequence:
#
# PCOD8227446 Si02
#       6
#     8   8   8   8   8   8
#     4  11  22  39  63  92 125 161 203 255 311 365
#     4  11  22  39  63  92 125 161 203 255 311 365
#     4  10  22  40  62  89 123 165 207 250 305 368
#     4  11  25  43  62  89 126 167 210 255 306 369
#     4  10  22  40  62  89 123 165 207 250 305 368
#     4   9  18  34  58  87 120 155 192 239 298 363
#
# _framework density 20.376010999999998
#
# number of rings (size 3 to 8) (size 9 to 14) (size 15 to 20)
#    0.000    1.667    1.667    2.500    2.333    3.333 
#    0.000    0.000    0.000    4.000    0.000    0.000 
#    0.000    0.000    0.000    0.000    0.000    0.000 
#
# Total GULP energy -595240.181839 kJ/mol
# GULP energy per Si atom -12400.837122 kJ/mol
# Density = 2.032963 g / cm^3
# Si number density = 20.376011 Si / 1000 Ang^3
#
#
#
# Elastic Constant Matrix: (Units=GPa)
#
#
# Indices 1 2 3 4 5 6 
#
# 1 105.1331 22.7383 42.6467 0.0000 0.0000 0.0000
# 2 22.7383 68.9869 21.1034 0.0000 0.0000 0.0000
# 3 42.6467 21.1034 62.5065 0.0000 0.0000 0.0000
# 4 0.0000 0.0000 0.0000 24.2915 0.0000 0.0000
# 5 0.0000 0.0000 0.0000 0.0000 27.2780 0.0000
# 6 0.0000 0.0000 0.0000 0.0000 0.0000 40.9441
#
#
#
# Elastic Compliance Matrix: (Units=1/GPa)
#
#
# Indices 1 2 3 4 5 6 
#
# 1 0.013349 -0.001800 -0.008500 0.000000 0.000000 0.000000
# 2 -0.001800 0.016408 -0.004312 0.000000 0.000000 0.000000
# 3 -0.008500 -0.004312 0.023253 0.000000 0.000000 0.000000
# 4 0.000000 0.000000 0.000000 0.041167 0.000000 0.000000
# 5 0.000000 0.000000 0.000000 0.000000 0.036660 0.000000
# 6 0.000000 0.000000 0.000000 0.000000 0.000000 0.024424
#
#
# Mechanical properties :
#
#
# Convention : Reuss Voigt Hill
#
# Bulk Modulus (GPa) = 42.03937 45.51148 43.77543
# Shear Modulus (GPa) = 25.98591 28.51192 27.24892
#
# Velocity S-wave (km/s) = 3.57504 3.74476 3.66088
# Velocity P-wave (km/s) = 6.14148 6.40952 6.27693
#
# Compressibility (1/GPa) = 0.02378722
#
# Stress axis : x y z
#
# Youngs Moduli (GPa) = 74.91193 60.94726 43.00435
#
# Poissons Ratio (x) = 0.10968 0.36554
# Poissons Ratio (y) = 0.13481 0.18542
# Poissons Ratio (z) = 0.63676 0.26278
#
# Static dielectric constant tensor:
#      x y z
#    x 3.771660 0.000000 0.000000 
#    y 0.000000 3.791280 0.000000 
#    z 0.000000 0.000000 3.495610 
# 
# 
# High freq. dielectric constant tensor:
#      x y z
#    x 1.807670 0.000000 0.000000 
#    y 0.000000 1.807470 0.000000 
#    z 0.000000 0.000000 1.777190 
# 
# From -- ./inp_files/10524.got.cif
#   From: 2010.03.12/outbox.cif.g09.slc.cpg/sg55_6_cif.got.tgz:10524.got - 2010.04.16 15:19:21.
