data_PCOD8227338
_publ_section_title
;
Structure prediction by ZEFSAII (Michael W. Deem and Ramdas Pophale) SiO2 
 PCOD8227338
Probable space group: P B A M
;
_chemical_formula_sum "Si O2"
_cell_formula_units_Z 48
_cell_length_a 19.814636
_cell_length_b 8.936672
_cell_length_c 13.045180
_cell_angle_alpha 90.000000
_cell_angle_beta 90.000000
_cell_angle_gamma 90.000000
_cell_volume 2310.000070
_symmetry_space_group_name_H-M "P B A M"
_symmetry_group_IT_number 55
_symmetry_cell_setting 'orthorhombic'
loop_
_space_group_symop_operation_xyz
x,y,z
-x,-y,z
1/2+x,1/2-y,-z
1/2-x,1/2+y,-z
-x,-y,-z
x,y,-z
1/2-x,1/2+y,z
1/2+x,1/2-y,z
loop_
_atom_site_type_symbol
_atom_site_label
_atom_site_fract_x
_atom_site_fract_y
_atom_site_fract_z
Si Si1 0.202862 0.548983 0.615781
Si Si2 0.047884 0.638701 0.383541
Si Si3 0.514436 0.675551 0.805921
Si Si4 0.117868 0.333245 0.880908
Si Si5 0.235238 0.273244 0.744041
Si Si6 0.357107 0.178959 0.884435
O O1 0.213327 0.490220 0.500000
O O2 0.125395 0.594130 0.634179
O O3 0.226060 0.440483 0.705798
O O4 0.255300 0.683474 0.637425
O O5 0.035723 0.691170 0.500000
O O6 0.000000 0.500000 0.355756
O O7 0.028315 0.777564 0.311741
O O8 0.500000 0.500000 0.810846
O O9 0.455296 0.774207 0.853478
O O10 0.578480 0.713727 0.875638
O O11 0.170176 0.234682 0.813289
O O12 0.123163 0.509392 0.853524
O O13 0.133751 0.305702 0.000000
O O14 0.301168 0.249959 0.811843
O O15 0.329588 0.183705 0.000000
#
# Coordination Sequence:
#
# PCOD8227338 Si02
#       6
#     8   8   8   8   8   8
#     4  11  24  41  67  97 130 173 217 270 330 392
#     4  10  21  43  71  96 129 178 226 267 324 401
#     4  12  25  41  65 100 136 170 215 277 336 388
#     4  11  25  44  68  94 131 179 227 270 327 399
#     4  12  22  43  65  97 130 170 219 274 329 388
#     4  11  24  44  67  92 128 178 224 266 327 396
#
# _framework density 20.779221
#
# number of rings (size 3 to 8) (size 9 to 14) (size 15 to 20)
#    0.000    0.833    3.333    4.000    2.333    3.000 
#    0.000    0.833    0.000    0.000    0.000    0.000 
#    0.000    0.000    0.000    0.000    0.000    0.000 
#
# Total GULP energy -595057.271186 kJ/mol
# GULP energy per Si atom -12397.026483 kJ/mol
# Density = 2.073193 g / cm^3
# Si number density = 20.779221 Si / 1000 Ang^3
#
#
#
# Elastic Constant Matrix: (Units=GPa)
#
#
# Indices 1 2 3 4 5 6 
#
# 1 78.3378 23.3718 29.7014 0.0000 0.0000 0.0000
# 2 23.3718 72.7917 40.6980 0.0000 0.0000 0.0000
# 3 29.7014 40.6980 111.8758 0.0000 0.0000 0.0000
# 4 0.0000 0.0000 0.0000 21.0350 0.0000 0.0000
# 5 0.0000 0.0000 0.0000 0.0000 35.1983 0.0000
# 6 0.0000 0.0000 0.0000 0.0000 0.0000 31.7271
#
#
#
# Elastic Compliance Matrix: (Units=1/GPa)
#
#
# Indices 1 2 3 4 5 6 
#
# 1 0.014765 -0.003200 -0.002756 0.000000 0.000000 0.000000
# 2 -0.003200 0.017939 -0.005676 0.000000 0.000000 0.000000
# 3 -0.002756 -0.005676 0.011735 0.000000 0.000000 0.000000
# 4 0.000000 0.000000 0.000000 0.047540 0.000000 0.000000
# 5 0.000000 0.000000 0.000000 0.000000 0.028410 0.000000
# 6 0.000000 0.000000 0.000000 0.000000 0.000000 0.031519
#
#
# Mechanical properties :
#
#
# Convention : Reuss Voigt Hill
#
# Bulk Modulus (GPa) = 47.22599 50.06088 48.64344
# Shear Modulus (GPa) = 27.43790 28.87435 28.15612
#
# Velocity S-wave (km/s) = 3.63774 3.73175 3.68504
# Velocity P-wave (km/s) = 6.35776 6.53544 6.44721
#
# Compressibility (1/GPa) = 0.02117478
#
# Stress axis : x y z
#
# Youngs Moduli (GPa) = 67.72889 55.74500 85.21521
#
# Poissons Ratio (x) = 0.17838 0.23483
# Poissons Ratio (y) = 0.21672 0.48370
# Poissons Ratio (z) = 0.18665 0.31642
#
# Static dielectric constant tensor:
#      x y z
#    x 3.937360 0.000000 0.000000 
#    y 0.000000 3.623600 0.000000 
#    z 0.000000 0.000000 4.045300 
# 
# 
# High freq. dielectric constant tensor:
#      x y z
#    x 1.821060 0.000000 0.000000 
#    y 0.000000 1.798100 0.000000 
#    z 0.000000 0.000000 1.839330 
# 
# From -- ./inp_files/19356.got.cif
#   From: 2010.03.12/outbox.cif.g09.slc.cpg/sg55_10_cif.got.tgz:19356.got - 2010.04.16 15:19:21.
