data_PCOD8227099
_publ_section_title
;
Structure prediction by ZEFSAII (Michael W. Deem and Ramdas Pophale) SiO2 
 PCOD8227099
Probable space group: P B A M
;
_chemical_formula_sum "Si O2"
_cell_formula_units_Z 64
_cell_length_a 28.567585
_cell_length_b 12.346446
_cell_length_c 9.082535
_cell_angle_alpha 90.000000
_cell_angle_beta 90.000000
_cell_angle_gamma 90.000000
_cell_volume 3203.484077
_symmetry_space_group_name_H-M "P B A M"
_symmetry_group_IT_number 55
_symmetry_cell_setting 'orthorhombic'
loop_
_space_group_symop_operation_xyz
x,y,z
-x,-y,z
1/2+x,1/2-y,-z
1/2-x,1/2+y,-z
-x,-y,-z
x,y,-z
1/2-x,1/2+y,z
1/2+x,1/2-y,z
loop_
_atom_site_type_symbol
_atom_site_label
_atom_site_fract_x
_atom_site_fract_y
_atom_site_fract_z
Si Si1 0.757556 0.095649 0.833439
Si Si2 0.419348 0.277452 0.327353
Si Si3 0.173028 0.706683 0.168755
Si Si4 0.944710 0.003654 0.167350
Si Si5 0.180135 0.295059 0.664779
Si Si6 0.992322 0.625455 0.671697
Si Si7 0.250684 0.596689 0.662840
Si Si8 0.085908 0.234855 0.824766
O O1 0.796657 0.185444 0.820070
O O2 0.708726 0.111212 0.746177
O O3 0.780085 0.990039 0.758027
O O4 0.743547 0.073214 0.000000
O O5 0.408983 0.285158 0.500000
O O6 0.376277 0.222682 0.245825
O O7 0.426606 0.399221 0.268950
O O8 0.462630 0.198709 0.292985
O O9 0.201255 0.615115 0.255492
O O10 0.165273 0.671687 0.000000
O O11 0.926301 0.887686 0.226044
O O12 0.927593 0.025028 0.000000
O O13 0.000000 0.000000 0.175162
O O14 0.164107 0.329438 0.500000
O O15 0.136502 0.262269 0.763002
O O16 0.217031 0.199606 0.654574
O O17 0.979401 0.630445 0.500000
O O18 0.000000 0.500000 0.719975
O O19 0.949962 0.676521 0.762939
O O20 0.239698 0.552509 0.500000
O O21 0.085482 0.243026 0.000000
#
# Coordination Sequence:
#
# PCOD8227099 Si02
#       8
#     8   8   8   8   8   8   8   8
#     4  10  21  38  60  85 115 155 199 243 295 352
#     4  11  23  38  61  90 119 155 202 251 302 361
#     4  10  22  39  59  85 119 157 197 244 295 354
#     4  10  21  39  61  87 122 159 195 246 306 360
#     4  10  22  39  59  86 120 156 196 244 294 351
#     4  10  23  43  63  85 118 158 199 246 299 355
#     4  10  21  38  60  86 118 156 197 245 298 349
#     4  11  23  39  62  90 121 157 200 247 299 360
#
# _framework density 19.978248000000001
#
# number of rings (size 3 to 8) (size 9 to 14) (size 15 to 20)
#    0.000    1.750    1.250    2.250    1.750    6.000 
#    0.000    3.750    0.000    0.000    0.000    0.000 
#    0.000    0.000    0.000    0.000    0.000    0.000 
#
# Total GULP energy -793515.177209 kJ/mol
# GULP energy per Si atom -12398.674644 kJ/mol
# Density = 1.993278 g / cm^3
# Si number density = 19.978248 Si / 1000 Ang^3
#
#
#
# Elastic Constant Matrix: (Units=GPa)
#
#
# Indices 1 2 3 4 5 6 
#
# 1 79.7532 4.1288 29.9821 0.0000 0.0000 0.0000
# 2 4.1288 73.1895 30.0852 0.0000 0.0000 0.0000
# 3 29.9821 30.0852 91.7411 0.0000 0.0000 0.0000
# 4 0.0000 0.0000 0.0000 33.4001 0.0000 0.0000
# 5 0.0000 0.0000 0.0000 0.0000 38.8397 0.0000
# 6 0.0000 0.0000 0.0000 0.0000 0.0000 -54.4934
#
#
#
# Elastic Compliance Matrix: (Units=1/GPa)
#
#
# Indices 1 2 3 4 5 6 
#
# 1 0.014401 0.001297 -0.005132 0.000000 0.000000 0.000000
# 2 0.001297 0.015909 -0.005641 0.000000 0.000000 0.000000
# 3 -0.005132 -0.005641 0.014427 0.000000 0.000000 0.000000
# 4 0.000000 0.000000 0.000000 0.029940 0.000000 0.000000
# 5 0.000000 0.000000 0.000000 0.000000 0.025747 0.000000
# 6 0.000000 0.000000 0.000000 0.000000 0.000000 -0.018351
#
#
# Mechanical properties :
#
#
# Convention : Reuss Voigt Hill
#
# Bulk Modulus (GPa) = 38.78148 41.45290 40.11719
# Shear Modulus (GPa) = 45.61254 15.58181 30.59718
#
# Velocity S-wave (km/s) = 4.78337 2.79577 3.91772
# Velocity P-wave (km/s) = 7.06835 5.58711 6.37092
#
# Compressibility (1/GPa) = 0.02578551
#
# Stress axis : x y z
#
# Youngs Moduli (GPa) = 69.44105 62.85846 69.31349
#
# Poissons Ratio (x) = -0.08153 0.35569
# Poissons Ratio (y) = -0.09007 0.39099
# Poissons Ratio (z) = 0.35635 0.35458
#
# Static dielectric constant tensor:
#      x y z
#    x 3.584350 0.000000 0.000000 
#    y 0.000000 4.191420 0.000000 
#    z 0.000000 0.000000 3.933460 
# 
# 
# High freq. dielectric constant tensor:
#      x y z
#    x 1.777570 0.000000 0.000000 
#    y 0.000000 1.787510 0.000000 
#    z 0.000000 0.000000 1.792950 
# 
# From -- ./inp_files/10776.got.cif
#   From: 2010.03.12/outbox.cif.g09.slc.cpg/sg55_6_cif.got.tgz:10776.got - 2010.04.16 15:19:21.
