data_PCOD8227968
_publ_section_title
;
Structure prediction by ZEFSAII (Michael W. Deem and Ramdas Pophale) SiO2 
 PCOD8227968
Probable space group: P C C N
;
_chemical_formula_sum "Si O2"
_cell_formula_units_Z 64
_cell_length_a 17.290507
_cell_length_b 8.262042
_cell_length_c 22.184559
_cell_angle_alpha 90.000000
_cell_angle_beta 90.000000
_cell_angle_gamma 90.000000
_cell_volume 3169.172847
_symmetry_space_group_name_H-M "P C C N"
_symmetry_group_IT_number 56
_symmetry_cell_setting 'orthorhombic'
loop_
_space_group_symop_operation_xyz
x,y,z
1/2-x,1/2-y,z
1/2+x,-y,1/2-z
-x,1/2+y,1/2-z
-x,-y,-z
1/2+x,1/2+y,-z
1/2-x,y,1/2+z
x,1/2-y,1/2+z
loop_
_atom_site_type_symbol
_atom_site_label
_atom_site_fract_x
_atom_site_fract_y
_atom_site_fract_z
Si Si1 0.393260 0.153632 0.907516
Si Si2 0.980708 0.019858 0.329561
Si Si3 0.006532 0.359801 0.701992
Si Si4 0.173484 0.350244 0.506322
Si Si5 0.682752 0.560428 0.318697
Si Si6 0.750369 0.432626 0.089097
Si Si7 0.842445 0.589473 0.362288
Si Si8 0.645385 0.561606 0.181878
O O1 0.363066 0.274383 0.855883
O O2 0.477192 0.081606 0.890207
O O3 0.336298 0.001728 0.910513
O O4 0.392449 0.238393 0.973737
O O5 0.994973 0.828841 0.316889
O O6 0.888648 0.056609 0.337732
O O7 0.013355 0.127130 0.274303
O O8 0.079813 0.455251 0.673649
O O9 0.931495 0.453530 0.679068
O O10 0.250000 0.250000 0.522816
O O11 0.193820 0.484716 0.458169
O O12 0.142586 0.438918 0.566433
O O13 0.768079 0.488690 0.335276
O O14 0.674323 0.721348 0.357155
O O15 0.671708 0.607780 0.248951
O O16 0.750000 0.250000 0.068839
O O17 0.714230 0.452884 0.155420
#
# Coordination Sequence:
#
# PCOD8227968 Si02
#       8
#     8   8   8   8   8   8   8   8
#     4  10  20  34  61  82 112 149 196 236 291 337
#     4  10  19  35  53  85 118 153 188 242 298 344
#     4  10  21  34  57  81 123 153 185 244 295 347
#     4   9  18  36  59  82 107 149 197 241 274 342
#     4   9  19  30  57  83 114 145 188 235 285 349
#     4  10  21  35  59  84 115 146 187 243 289 341
#     4  10  18  34  59  81 109 154 196 226 290 344
#     4  10  20  36  55  89 113 148 193 234 292 353
#
# _framework density 20.194544
#
# number of rings (size 3 to 8) (size 9 to 14) (size 15 to 20)
#    0.000    2.250    1.250    4.125    5.250    0.000 
#    0.000    5.000   11.000    0.000    0.000    0.000 
#    0.000    0.000    0.000    0.000    0.000    0.000 
#
# Total GULP energy -793193.294291 kJ/mol
# GULP energy per Si atom -12393.645223 kJ/mol
# Density = 2.014858 g / cm^3
# Si number density = 20.194544 Si / 1000 Ang^3
#
#
#
# Elastic Constant Matrix: (Units=GPa)
#
#
# Indices 1 2 3 4 5 6 
#
# 1 114.4222 18.3141 56.7511 0.0000 0.0000 0.0000
# 2 18.3141 59.6236 7.9056 0.0000 0.0000 0.0000
# 3 56.7511 7.9056 98.3468 0.0000 0.0000 0.0000
# 4 0.0000 0.0000 0.0000 16.8779 0.0000 0.0000
# 5 0.0000 0.0000 0.0000 0.0000 22.8627 0.0000
# 6 0.0000 0.0000 0.0000 0.0000 0.0000 24.1535
#
#
#
# Elastic Compliance Matrix: (Units=1/GPa)
#
#
# Indices 1 2 3 4 5 6 
#
# 1 0.012744 -0.002971 -0.007115 0.000000 0.000000 0.000000
# 2 -0.002971 0.017645 0.000296 0.000000 0.000000 0.000000
# 3 -0.007115 0.000296 0.014250 0.000000 0.000000 0.000000
# 4 0.000000 0.000000 0.000000 0.059249 0.000000 0.000000
# 5 0.000000 0.000000 0.000000 0.000000 0.043739 0.000000
# 6 0.000000 0.000000 0.000000 0.000000 0.000000 0.041402
#
#
# Mechanical properties :
#
#
# Convention : Reuss Voigt Hill
#
# Bulk Modulus (GPa) = 39.90571 48.70378 44.30474
# Shear Modulus (GPa) = 23.04537 25.40692 24.22615
#
# Velocity S-wave (km/s) = 3.38178 3.55083 3.46734
# Velocity P-wave (km/s) = 5.92049 6.40163 6.16575
#
# Compressibility (1/GPa) = 0.02505907
#
# Stress axis : x y z
#
# Youngs Moduli (GPa) = 78.46787 56.67252 70.17491
#
# Poissons Ratio (x) = 0.16838 0.49930
# Poissons Ratio (y) = 0.23313 -0.02078
# Poissons Ratio (z) = 0.55831 -0.01678
#
# Static dielectric constant tensor:
#      x y z
#    x 4.107590 0.000000 0.000000 
#    y 0.000000 3.374220 0.000000 
#    z 0.000000 0.000000 3.687500 
# 
# 
# High freq. dielectric constant tensor:
#      x y z
#    x 1.791400 0.000000 0.000000 
#    y 0.000000 1.761000 0.000000 
#    z 0.000000 0.000000 1.786030 
# 
# From -- ./inp_files/19311.got.cif
#   From: 2010.03.12/outbox.cif.g09.slc.cpg/sg56_10_cif.got.tgz:19311.got - 2010.04.16 15:33:40.
