data_PCOD8227790
_publ_section_title
;
Structure prediction by ZEFSAII (Michael W. Deem and Ramdas Pophale) SiO2 
 PCOD8227790
Probable space group: P B A M
;
_chemical_formula_sum "Si O2"
_cell_formula_units_Z 40
_cell_length_a 19.975045
_cell_length_b 8.729603
_cell_length_c 10.832472
_cell_angle_alpha 90.000000
_cell_angle_beta 90.000000
_cell_angle_gamma 90.000000
_cell_volume 1888.903777
_symmetry_space_group_name_H-M "P B A M"
_symmetry_group_IT_number 55
_symmetry_cell_setting 'orthorhombic'
loop_
_space_group_symop_operation_xyz
x,y,z
-x,-y,z
1/2+x,1/2-y,-z
1/2-x,1/2+y,-z
-x,-y,-z
x,y,-z
1/2-x,1/2+y,z
1/2+x,1/2-y,z
loop_
_atom_site_type_symbol
_atom_site_label
_atom_site_fract_x
_atom_site_fract_y
_atom_site_fract_z
Si Si1 0.184644 0.395601 0.857792
Si Si2 0.186408 0.062924 0.762349
Si Si3 0.157538 0.591474 0.500000
Si Si4 0.061277 0.897905 0.141187
Si Si5 0.927943 0.427236 0.257201
Si Si6 0.704965 0.561034 0.500000
O O1 0.241391 0.508606 0.808102
O O2 0.113420 0.481483 0.847351
O O3 0.185146 0.245471 0.773163
O O4 0.197279 0.351475 0.000000
O O5 0.129854 0.991727 0.849361
O O6 0.172218 0.016390 0.620880
O O7 0.112082 0.561771 0.383065
O O8 0.215499 0.464379 0.500000
O O9 0.191317 0.758294 0.500000
O O10 0.064160 0.748829 0.223946
O O11 0.049126 0.850105 0.000000
O O12 0.000000 0.000000 0.190627
O O13 0.000000 0.500000 0.274060
#
# Coordination Sequence:
#
# PCOD8227790 Si02
#       6
#     8   8   4   8   8   4
#     4  12  25  42  69 102 139 180 228 287 346 410
#     4  12  24  44  69 101 136 177 234 286 347 406
#     4  12  25  48  70 104 136 179 230 285 347 403
#     4  11  24  45  70  98 138 185 232 284 344 414
#     4  12  26  45  69 100 142 183 230 285 344 410
#     4  12  24  46  74  98 135 176 224 286 337 404
#
# _framework density 21.176304999999999
#
# number of rings (size 3 to 8) (size 9 to 14) (size 15 to 20)
#    0.000    0.200    4.000    6.300    0.000    3.200 
#    0.000    4.000    0.000    0.000    0.000    0.000 
#    0.000    0.000    0.000    0.000    0.000    0.000 
#
# Total GULP energy -496355.059861 kJ/mol
# GULP energy per Si atom -12408.876497 kJ/mol
# Density = 2.112811 g / cm^3
# Si number density = 21.176305 Si / 1000 Ang^3
#
#
#
# Elastic Constant Matrix: (Units=GPa)
#
#
# Indices 1 2 3 4 5 6 
#
# 1 137.1953 59.5008 18.4958 0.0000 0.0000 0.0000
# 2 59.5008 110.8724 4.1993 0.0000 0.0000 0.0000
# 3 18.4958 4.1993 84.3851 0.0000 0.0000 0.0000
# 4 0.0000 0.0000 0.0000 14.6970 0.0000 0.0000
# 5 0.0000 0.0000 0.0000 0.0000 34.1742 0.0000
# 6 0.0000 0.0000 0.0000 0.0000 0.0000 44.6406
#
#
#
# Elastic Compliance Matrix: (Units=1/GPa)
#
#
# Indices 1 2 3 4 5 6 
#
# 1 0.009791 -0.005183 -0.001888 0.000000 0.000000 0.000000
# 2 -0.005183 0.011780 0.000550 0.000000 0.000000 0.000000
# 3 -0.001888 0.000550 0.012237 0.000000 0.000000 0.000000
# 4 0.000000 0.000000 0.000000 0.068041 0.000000 0.000000
# 5 0.000000 0.000000 0.000000 0.000000 0.029262 0.000000
# 6 0.000000 0.000000 0.000000 0.000000 0.000000 0.022401
#
#
# Mechanical properties :
#
#
# Convention : Reuss Voigt Hill
#
# Bulk Modulus (GPa) = 48.15682 55.20496 51.68089
# Shear Modulus (GPa) = 28.82221 35.38614 32.10418
#
# Velocity S-wave (km/s) = 3.69326 4.09225 3.89786
# Velocity P-wave (km/s) = 6.40134 6.96093 6.68699
#
# Compressibility (1/GPa) = 0.02076549
#
# Stress axis : x y z
#
# Youngs Moduli (GPa) = 102.13140 84.88884 81.71984
#
# Poissons Ratio (x) = 0.43999 0.15430
# Poissons Ratio (y) = 0.52936 -0.04493
# Poissons Ratio (z) = 0.19284 -0.04667
#
# Static dielectric constant tensor:
#      x y z
#    x 3.836490 0.000000 0.000000 
#    y 0.000000 4.056230 0.000000 
#    z 0.000000 0.000000 3.948880 
# 
# 
# High freq. dielectric constant tensor:
#      x y z
#    x 1.839230 0.000000 0.000000 
#    y 0.000000 1.843440 0.000000 
#    z 0.000000 0.000000 1.841430 
# 
# From -- ./inp_files/14673.got.cif
#   From: 2010.03.12/outbox.cif.g09.slc.cpg/sg55_8_cif.got.tgz:14673.got - 2010.04.16 15:19:21.
