data_PCOD8227983
_publ_section_title
;
Structure prediction by ZEFSAII (Michael W. Deem and Ramdas Pophale) SiO2 
 PCOD8227983
Probable space group: P C C N
;
_chemical_formula_sum "Si O2"
_cell_formula_units_Z 60
_cell_length_a 13.474438
_cell_length_b 11.964806
_cell_length_c 18.158427
_cell_angle_alpha 90.000000
_cell_angle_beta 90.000000
_cell_angle_gamma 90.000000
_cell_volume 2927.484108
_symmetry_space_group_name_H-M "P C C N"
_symmetry_group_IT_number 56
_symmetry_cell_setting 'orthorhombic'
loop_
_space_group_symop_operation_xyz
x,y,z
1/2-x,1/2-y,z
1/2+x,-y,1/2-z
-x,1/2+y,1/2-z
-x,-y,-z
1/2+x,1/2+y,-z
1/2-x,y,1/2+z
x,1/2-y,1/2+z
loop_
_atom_site_type_symbol
_atom_site_label
_atom_site_fract_x
_atom_site_fract_y
_atom_site_fract_z
Si Si1 0.546134 0.191883 0.607916
Si Si2 0.227603 0.877302 0.109374
Si Si3 0.007621 0.588875 0.812734
Si Si4 0.517277 0.184217 0.445958
Si Si5 0.776733 0.457019 0.227830
Si Si6 0.750000 0.250000 0.637847
Si Si7 0.564209 0.063215 0.936220
Si Si8 0.092022 0.451958 0.333685
O O1 0.493140 0.285461 0.657174
O O2 0.489319 0.172666 0.531677
O O3 0.652815 0.250316 0.586018
O O4 0.553198 0.076800 0.651231
O O5 0.250000 0.750000 0.132690
O O6 0.120832 0.881563 0.069294
O O7 0.220957 0.952745 0.183452
O O8 0.314998 0.924676 0.054133
O O9 0.117424 0.536796 0.811810
O O10 0.942967 0.503939 0.860258
O O11 0.975790 0.599336 0.729190
O O12 0.519917 0.314066 0.424067
O O13 0.425106 0.126083 0.404499
O O14 0.726223 0.347654 0.194881
O O15 0.705754 0.555403 0.195811
O O16 0.500000 0.000000 0.000000
#
# Coordination Sequence:
#
# PCOD8227983 Si02
#       8
#     8   8   8   8   8   4   8   8
#     4  10  22  37  59  91 126 156 205 259 326 379
#     4  10  20  33  62  91 123 154 211 267 318 369
#     4  11  22  38  62  90 121 164 212 263 318 387
#     4  11  23  39  63  94 126 164 214 269 326 384
#     4  10  18  35  56  90 119 158 205 262 308 367
#     4   8  18  30  56  84 118 146 190 260 310 352
#     4  11  23  39  61  93 127 166 209 268 329 392
#     4  11  23  37  64  90 128 168 208 266 320 384
#
# _framework density 20.495414
#
# number of rings (size 3 to 8) (size 9 to 14) (size 15 to 20)
#    0.000    1.600    4.667    0.400    4.667    1.067 
#    0.000    0.667    0.000    2.400    0.000    0.000 
#    0.000    0.000    0.000    0.000    0.000    0.000 
#
# Total GULP energy -743368.925601 kJ/mol
# GULP energy per Si atom -12389.482093 kJ/mol
# Density = 2.044877 g / cm^3
# Si number density = 20.495414 Si / 1000 Ang^3
#
#
#
# Elastic Constant Matrix: (Units=GPa)
#
#
# Indices 1 2 3 4 5 6 
#
# 1 67.2366 34.5560 27.8563 0.0000 0.0000 0.0000
# 2 34.5560 84.0690 37.4392 0.0000 0.0000 0.0000
# 3 27.8563 37.4392 115.1069 0.0000 0.0000 0.0000
# 4 0.0000 0.0000 0.0000 36.1040 0.0000 0.0000
# 5 0.0000 0.0000 0.0000 0.0000 24.4684 0.0000
# 6 0.0000 0.0000 0.0000 0.0000 0.0000 27.3286
#
#
#
# Elastic Compliance Matrix: (Units=1/GPa)
#
#
# Indices 1 2 3 4 5 6 
#
# 1 0.019435 -0.006892 -0.002462 0.000000 0.000000 0.000000
# 2 -0.006892 0.016354 -0.003651 0.000000 0.000000 0.000000
# 3 -0.002462 -0.003651 0.010471 0.000000 0.000000 0.000000
# 4 0.000000 0.000000 0.000000 0.027698 0.000000 0.000000
# 5 0.000000 0.000000 0.000000 0.000000 0.040869 0.000000
# 6 0.000000 0.000000 0.000000 0.000000 0.000000 0.036592
#
#
# Mechanical properties :
#
#
# Convention : Reuss Voigt Hill
#
# Bulk Modulus (GPa) = 49.38386 51.79061 50.58723
# Shear Modulus (GPa) = 27.14752 28.68427 27.91589
#
# Velocity S-wave (km/s) = 3.64341 3.74511 3.69461
# Velocity P-wave (km/s) = 6.46889 6.63516 6.55255
#
# Compressibility (1/GPa) = 0.02024953
#
# Stress axis : x y z
#
# Youngs Moduli (GPa) = 51.45353 61.14663 95.50297
#
# Poissons Ratio (x) = 0.42145 0.23509
# Poissons Ratio (y) = 0.35464 0.34871
# Poissons Ratio (z) = 0.12666 0.22326
#
# Static dielectric constant tensor:
#      x y z
#    x 3.893620 0.000000 0.000000 
#    y 0.000000 3.601450 0.000000 
#    z 0.000000 0.000000 3.666440 
# 
# 
# High freq. dielectric constant tensor:
#      x y z
#    x 1.788960 0.000000 0.000000 
#    y 0.000000 1.784210 0.000000 
#    z 0.000000 0.000000 1.806140 
# 
# From -- ./inp_files/15777.got.cif
#   From: 2010.03.12/outbox.cif.g09.slc.cpg/sg56_8_cif.got.tgz:15777.got - 2010.04.16 15:33:40.
