data_PCOD8227972
_publ_section_title
;
Structure prediction by ZEFSAII (Michael W. Deem and Ramdas Pophale) SiO2 
 PCOD8227972
Probable space group: P C C N
;
_chemical_formula_sum "Si O2"
_cell_formula_units_Z 60
_cell_length_a 22.010422
_cell_length_b 13.890210
_cell_length_c 9.137276
_cell_angle_alpha 90.000000
_cell_angle_beta 90.000000
_cell_angle_gamma 90.000000
_cell_volume 2793.533761
_symmetry_space_group_name_H-M "P C C N"
_symmetry_group_IT_number 56
_symmetry_cell_setting 'orthorhombic'
loop_
_space_group_symop_operation_xyz
x,y,z
1/2-x,1/2-y,z
1/2+x,-y,1/2-z
-x,1/2+y,1/2-z
-x,-y,-z
1/2+x,1/2+y,-z
1/2-x,y,1/2+z
x,1/2-y,1/2+z
loop_
_atom_site_type_symbol
_atom_site_label
_atom_site_fract_x
_atom_site_fract_y
_atom_site_fract_z
Si Si1 0.860165 0.373356 0.167013
Si Si2 0.657935 0.101109 0.848350
Si Si3 0.609111 0.723676 0.283109
Si Si4 0.710830 0.596573 0.395513
Si Si5 0.250000 0.750000 0.244120
Si Si6 0.055229 0.799506 0.788861
Si Si7 0.026956 0.241796 0.959987
Si Si8 0.170241 0.083701 0.270092
O O1 0.795464 0.317374 0.162531
O O2 0.914683 0.307376 0.228567
O O3 0.855304 0.475138 0.253143
O O4 0.877712 0.398146 0.001041
O O5 0.709956 0.181601 0.857835
O O6 0.608771 0.122039 0.721079
O O7 0.687393 0.999243 0.816028
O O8 0.675261 0.681540 0.312963
O O9 0.566553 0.698623 0.422085
O O10 0.616446 0.838700 0.252265
O O11 0.574603 0.679369 0.139352
O O12 0.781491 0.606708 0.358124
O O13 0.701395 0.595546 0.570037
O O14 0.007866 0.810930 0.655121
O O15 0.022287 0.818208 0.944721
#
# Coordination Sequence:
#
# PCOD8227972 Si02
#       8
#     8   8   8   8   4   8   8   8
#     4  10  20  37  61  94 126 162 199 243 315 373
#     4  10  20  37  61  94 126 162 199 243 315 373
#     4  11  23  43  65  89 117 171 207 268 296 362
#     4  11  24  42  63  94 127 161 204 253 312 374
#     4  10  18  34  60  92 126 166 186 254 294 384
#     4  10  20  41  65  93 125 164 198 266 298 376
#     4  10  22  42  65  87 122 164 220 250 312 342
#     4  11  24  42  63  94 127 161 204 253 312 374
#
# _framework density 21.478173999999999
#
# number of rings (size 3 to 8) (size 9 to 14) (size 15 to 20)
#    0.000    1.600    4.000    0.800    1.867    1.067 
#    2.400    8.000    0.000    0.000    0.000    0.000 
#    0.000    0.000    0.000    0.000    0.000    0.000 
#
# Total GULP energy -743517.200732 kJ/mol
# GULP energy per Si atom -12391.953346 kJ/mol
# Density = 2.142929 g / cm^3
# Si number density = 21.478174 Si / 1000 Ang^3
#
#
#
# Elastic Constant Matrix: (Units=GPa)
#
#
# Indices 1 2 3 4 5 6 
#
# 1 86.3427 25.5028 28.4125 0.0000 0.0000 0.0000
# 2 25.5028 95.2140 10.1684 0.0000 0.0000 0.0000
# 3 28.4125 10.1684 98.1917 0.0000 0.0000 0.0000
# 4 0.0000 0.0000 0.0000 18.3561 0.0000 0.0000
# 5 0.0000 0.0000 0.0000 0.0000 39.5965 0.0000
# 6 0.0000 0.0000 0.0000 0.0000 0.0000 17.6038
#
#
#
# Elastic Compliance Matrix: (Units=1/GPa)
#
#
# Indices 1 2 3 4 5 6 
#
# 1 0.013752 -0.003295 -0.003638 0.000000 0.000000 0.000000
# 2 -0.003295 0.011410 -0.000228 0.000000 0.000000 0.000000
# 3 -0.003638 -0.000228 0.011260 0.000000 0.000000 0.000000
# 4 0.000000 0.000000 0.000000 0.054478 0.000000 0.000000
# 5 0.000000 0.000000 0.000000 0.000000 0.025255 0.000000
# 6 0.000000 0.000000 0.000000 0.000000 0.000000 0.056806
#
#
# Mechanical properties :
#
#
# Convention : Reuss Voigt Hill
#
# Bulk Modulus (GPa) = 45.24902 45.32397 45.28650
# Shear Modulus (GPa) = 25.68719 29.48894 27.58807
#
# Velocity S-wave (km/s) = 3.46203 3.70938 3.58784
# Velocity P-wave (km/s) = 6.09049 6.28444 6.18822
#
# Compressibility (1/GPa) = 0.02209992
#
# Stress axis : x y z
#
# Youngs Moduli (GPa) = 72.71602 87.64580 88.80620
#
# Poissons Ratio (x) = 0.28879 0.32308
# Poissons Ratio (y) = 0.23960 0.02026
# Poissons Ratio (z) = 0.26455 0.01999
#
# Static dielectric constant tensor:
#      x y z
#    x 3.949350 0.000000 0.000000 
#    y 0.000000 3.680900 0.000000 
#    z 0.000000 0.000000 3.808180 
# 
# 
# High freq. dielectric constant tensor:
#      x y z
#    x 1.854860 0.000000 0.000000 
#    y 0.000000 1.808250 0.000000 
#    z 0.000000 0.000000 1.843750 
# 
# From -- ./inp_files/4792.got.cif
#   From: 2010.03.12/outbox.cif.g09.slc.cpg/sg56_3_cif.got.tgz:4792.got - 2010.04.16 15:33:40.
