data_PCOD8227178
_publ_section_title
;
Structure prediction by ZEFSAII (Michael W. Deem and Ramdas Pophale) SiO2 
 PCOD8227178
Probable space group: P B A M
;
_chemical_formula_sum "Si O2"
_cell_formula_units_Z 64
_cell_length_a 12.513767
_cell_length_b 28.633133
_cell_length_c 8.981032
_cell_angle_alpha 90.000000
_cell_angle_beta 90.000000
_cell_angle_gamma 90.000000
_cell_volume 3217.978801
_symmetry_space_group_name_H-M "P B A M"
_symmetry_group_IT_number 55
_symmetry_cell_setting 'orthorhombic'
loop_
_space_group_symop_operation_xyz
x,y,z
-x,-y,z
1/2+x,1/2-y,-z
1/2-x,1/2+y,-z
-x,-y,-z
x,y,-z
1/2-x,1/2+y,z
1/2+x,1/2-y,z
loop_
_atom_site_type_symbol
_atom_site_label
_atom_site_fract_x
_atom_site_fract_y
_atom_site_fract_z
Si Si1 0.895800 0.868121 0.825535
Si Si2 0.385978 0.016904 0.822937
Si Si3 0.762770 0.066618 0.176006
Si Si4 0.154617 0.620667 0.173880
Si Si5 0.009012 0.695073 0.328805
Si Si6 0.441798 0.298323 0.324293
Si Si7 0.217612 0.342899 0.328522
Si Si8 0.984296 0.053326 0.324783
O O1 0.771501 0.858469 0.791682
O O2 0.966336 0.827475 0.755835
O O3 0.921235 0.917939 0.751679
O O4 0.919073 0.871463 0.000000
O O5 0.357690 0.068190 0.759725
O O6 0.500000 0.000000 0.759178
O O7 0.296468 0.980166 0.768939
O O8 0.388915 0.017162 0.000000
O O9 0.695582 0.112011 0.225219
O O10 0.873747 0.072088 0.261117
O O11 0.781137 0.066632 0.000000
O O12 0.066266 0.653828 0.242333
O O13 0.132463 0.618138 0.000000
O O14 0.040963 0.689450 0.500000
O O15 0.047816 0.745132 0.268537
O O16 0.881542 0.691970 0.305299
O O17 0.461261 0.302352 0.500000
O O18 0.324928 0.316275 0.277546
O O19 0.226617 0.358900 0.500000
O O20 0.986663 0.061897 0.500000
O O21 0.000000 0.000000 0.279955
#
# Coordination Sequence:
#
# PCOD8227178 Si02
#       8
#     8   8   8   8   8   8   8   8
#     4  11  23  39  60  88 121 156 200 250 302 359
#     4   9  18  34  57  84 117 158 200 238 292 358
#     4  11  21  35  60  89 117 157 203 248 300 360
#     4  10  22  40  60  88 125 159 196 252 303 352
#     4  10  23  40  63  91 118 158 204 248 304 367
#     4  10  22  40  63  87 117 158 199 250 308 363
#     4  10  21  39  60  88 123 154 198 255 303 357
#     4  11  23  38  57  84 119 159 199 243 299 357
#
# _framework density 19.888259000000001
#
# number of rings (size 3 to 8) (size 9 to 14) (size 15 to 20)
#    0.000    1.750    1.250    2.625    1.750    5.000 
#    0.000    1.250    0.000    3.375    0.000    0.000 
#    0.000    0.000    0.000    0.000    0.000    0.000 
#
# Total GULP energy -793829.136514 kJ/mol
# GULP energy per Si atom -12403.580258 kJ/mol
# Density = 1.984299 g / cm^3
# Si number density = 19.888259 Si / 1000 Ang^3
#
#
#
# Elastic Constant Matrix: (Units=GPa)
#
#
# Indices 1 2 3 4 5 6 
#
# 1 107.3977 55.2244 32.8282 0.0000 0.0000 0.0000
# 2 55.2244 151.2220 36.8244 0.0000 0.0000 0.0000
# 3 32.8282 36.8244 46.0010 0.0000 0.0000 0.0000
# 4 0.0000 0.0000 0.0000 31.5847 0.0000 0.0000
# 5 0.0000 0.0000 0.0000 0.0000 25.2945 0.0000
# 6 0.0000 0.0000 0.0000 0.0000 0.0000 36.1950
#
#
#
# Elastic Compliance Matrix: (Units=1/GPa)
#
#
# Indices 1 2 3 4 5 6 
#
# 1 0.012972 -0.003084 -0.006789 0.000000 0.000000 0.000000
# 2 -0.003084 0.008947 -0.004961 0.000000 0.000000 0.000000
# 3 -0.006789 -0.004961 0.030555 0.000000 0.000000 0.000000
# 4 0.000000 0.000000 0.000000 0.031661 0.000000 0.000000
# 5 0.000000 0.000000 0.000000 0.000000 0.039534 0.000000
# 6 0.000000 0.000000 0.000000 0.000000 0.000000 0.027628
#
#
# Mechanical properties :
#
#
# Convention : Reuss Voigt Hill
#
# Bulk Modulus (GPa) = 43.84798 61.59722 52.72260
# Shear Modulus (GPa) = 26.51565 30.59775 28.55670
#
# Velocity S-wave (km/s) = 3.65531 3.92661 3.79338
# Velocity P-wave (km/s) = 6.31744 7.18307 6.76412
#
# Compressibility (1/GPa) = 0.02280607
#
# Stress axis : x y z
#
# Youngs Moduli (GPa) = 77.08828 111.76605 32.72796
#
# Poissons Ratio (x) = 0.34471 0.22217
# Poissons Ratio (y) = 0.23775 0.16238
# Poissons Ratio (z) = 0.52332 0.55452
#
# Static dielectric constant tensor:
#      x y z
#    x 3.693990 0.000000 0.000000 
#    y 0.000000 3.805850 0.000000 
#    z 0.000000 0.000000 3.431340 
# 
# 
# High freq. dielectric constant tensor:
#      x y z
#    x 1.786600 0.000000 0.000000 
#    y 0.000000 1.786800 0.000000 
#    z 0.000000 0.000000 1.758170 
# 
# From -- ./inp_files/4678.got.cif
#   From: 2010.03.12/outbox.cif.g09.slc.cpg/sg55_3_cif.got.tgz:4678.got - 2010.04.16 15:19:21.
