data_PCOD8227767
_publ_section_title
;
Structure prediction by ZEFSAII (Michael W. Deem and Ramdas Pophale) SiO2 
 PCOD8227767
Probable space group: P B A M
;
_chemical_formula_sum "Si O2"
_cell_formula_units_Z 56
_cell_length_a 8.907691
_cell_length_b 13.569494
_cell_length_c 21.318725
_cell_angle_alpha 90.000000
_cell_angle_beta 90.000000
_cell_angle_gamma 90.000000
_cell_volume 2576.855253
_symmetry_space_group_name_H-M "P B A M"
_symmetry_group_IT_number 55
_symmetry_cell_setting 'orthorhombic'
loop_
_space_group_symop_operation_xyz
x,y,z
-x,-y,z
1/2+x,1/2-y,-z
1/2-x,1/2+y,-z
-x,-y,-z
x,y,-z
1/2-x,1/2+y,z
1/2+x,1/2-y,z
loop_
_atom_site_type_symbol
_atom_site_label
_atom_site_fract_x
_atom_site_fract_y
_atom_site_fract_z
Si Si1 0.765564 0.455358 0.569491
Si Si2 0.859928 0.808561 0.665602
Si Si3 0.161909 0.331758 0.925965
Si Si4 0.325040 0.474788 0.838987
Si Si5 0.418211 0.851606 0.431526
Si Si6 0.347812 0.169600 0.862562
Si Si7 0.630139 0.692440 0.749213
O O1 0.688200 0.445850 0.500000
O O2 0.676324 0.406759 0.626593
O O3 0.787154 0.570622 0.587001
O O4 0.925660 0.405842 0.564717
O O5 0.937013 0.734316 0.617730
O O6 0.722909 0.750700 0.697009
O O7 0.973158 0.841750 0.719642
O O8 0.273543 0.416110 0.900892
O O9 0.218240 0.225324 0.901651
O O10 0.991063 0.354083 0.905674
O O11 0.170354 0.333217 0.000000
O O12 0.500000 0.500000 0.845594
O O13 0.224052 0.571705 0.832776
O O14 0.291745 0.405871 0.777713
O O15 0.378487 0.806639 0.500000
O O16 0.410053 0.234532 0.805657
#
# Coordination Sequence:
#
# PCOD8227767 Si02
#       7
#     8   8   8   8   8   8   8
#     4   9  19  38  60  87 122 159 205 261 323 390
#     4  12  21  39  62  92 122 161 215 262 317 377
#     4  11  24  42  70 103 128 165 221 268 315 386
#     4  11  24  44  65  91 133 176 211 263 330 378
#     4   9  19  37  60  87 121 160 204 259 327 387
#     4  11  23  45  66  92 136 175 206 263 329 377
#     4  11  25  40  61  92 125 165 216 259 306 382
#
# _framework density 21.731915000000001
#
# number of rings (size 3 to 8) (size 9 to 14) (size 15 to 20)
#    0.000    1.429    1.429    6.429    0.000    4.286 
#    0.000    0.000    0.000    1.714    0.000    0.000 
#    0.000    0.000    0.000    0.000    0.000    0.000 
#
# Total GULP energy -694319.993670 kJ/mol
# GULP energy per Si atom -12398.571316 kJ/mol
# Density = 2.168245 g / cm^3
# Si number density = 21.731915 Si / 1000 Ang^3
#
#
#
# Elastic Constant Matrix: (Units=GPa)
#
#
# Indices 1 2 3 4 5 6 
#
# 1 84.3292 24.7943 38.4830 0.0000 0.0000 0.0000
# 2 24.7943 94.5541 49.9567 0.0000 0.0000 0.0000
# 3 38.4830 49.9567 134.7141 0.0000 0.0000 0.0000
# 4 0.0000 0.0000 0.0000 25.8320 0.0000 0.0000
# 5 0.0000 0.0000 0.0000 0.0000 32.6582 0.0000
# 6 0.0000 0.0000 0.0000 0.0000 0.0000 33.7014
#
#
#
# Elastic Compliance Matrix: (Units=1/GPa)
#
#
# Indices 1 2 3 4 5 6 
#
# 1 0.013912 -0.001926 -0.003260 0.000000 0.000000 0.000000
# 2 -0.001926 0.013420 -0.004426 0.000000 0.000000 0.000000
# 3 -0.003260 -0.004426 0.009996 0.000000 0.000000 0.000000
# 4 0.000000 0.000000 0.000000 0.038712 0.000000 0.000000
# 5 0.000000 0.000000 0.000000 0.000000 0.030620 0.000000
# 6 0.000000 0.000000 0.000000 0.000000 0.000000 0.029672
#
#
# Mechanical properties :
#
#
# Convention : Reuss Voigt Hill
#
# Bulk Modulus (GPa) = 55.23834 60.00727 57.62280
# Shear Modulus (GPa) = 30.94243 31.79589 31.36916
#
# Velocity S-wave (km/s) = 3.77745 3.82919 3.80341
# Velocity P-wave (km/s) = 6.67074 6.87188 6.77206
#
# Compressibility (1/GPa) = 0.01810337
#
# Stress axis : x y z
#
# Youngs Moduli (GPa) = 71.87945 74.51835 100.04135
#
# Poissons Ratio (x) = 0.14350 0.32615
# Poissons Ratio (y) = 0.13841 0.44282
# Poissons Ratio (z) = 0.23433 0.32984
#
# Static dielectric constant tensor:
#      x y z
#    x 3.815240 0.000000 0.000000 
#    y 0.000000 4.202710 0.000000 
#    z 0.000000 0.000000 4.117520 
# 
# 
# High freq. dielectric constant tensor:
#      x y z
#    x 1.845970 0.000000 0.000000 
#    y 0.000000 1.857860 0.000000 
#    z 0.000000 0.000000 1.862080 
# 
# From -- ./inp_files/22636.got.cif
#   From: 2010.03.12/outbox.cif.g09.slc.cpg/sg55_12_cif.got.tgz:22636.got - 2010.04.16 15:19:21.
