data_PCOD8227053
_publ_section_title
;
Structure prediction by ZEFSAII (Michael W. Deem and Ramdas Pophale) SiO2 
 PCOD8227053
Probable space group: P B A M
;
_chemical_formula_sum "Si O2"
_cell_formula_units_Z 56
_cell_length_a 14.813336
_cell_length_b 22.026464
_cell_length_c 8.695592
_cell_angle_alpha 90.000000
_cell_angle_beta 90.000000
_cell_angle_gamma 90.000000
_cell_volume 2837.244819
_symmetry_space_group_name_H-M "P B A M"
_symmetry_group_IT_number 55
_symmetry_cell_setting 'orthorhombic'
loop_
_space_group_symop_operation_xyz
x,y,z
-x,-y,z
1/2+x,1/2-y,-z
1/2-x,1/2+y,-z
-x,-y,-z
x,y,-z
1/2-x,1/2+y,z
1/2+x,1/2-y,z
loop_
_atom_site_type_symbol
_atom_site_label
_atom_site_fract_x
_atom_site_fract_y
_atom_site_fract_z
Si Si1 0.824081 0.274890 0.320436
Si Si2 0.505014 0.430070 0.317252
Si Si3 0.530551 0.854171 0.824732
Si Si4 0.838885 0.461248 0.825943
Si Si5 0.194118 0.120560 0.680766
Si Si6 0.659693 0.644698 0.818963
Si Si7 0.151838 0.404973 0.817465
O O1 0.815386 0.259121 0.500000
O O2 0.916168 0.311730 0.292739
O O3 0.737991 0.315325 0.260327
O O4 0.835483 0.215225 0.220384
O O5 0.500000 0.500000 0.256063
O O6 0.506152 0.430926 0.500000
O O7 0.594566 0.395146 0.253132
O O8 0.420760 0.390950 0.261972
O O9 0.571158 0.921629 0.820649
O O10 0.428262 0.860296 0.761162
O O11 0.535131 0.828463 0.000000
O O12 0.758930 0.434357 0.724327
O O13 0.863502 0.526853 0.757116
O O14 0.801825 0.466337 0.000000
O O15 0.189037 0.124924 0.500000
O O16 0.752631 0.617468 0.754089
O O17 0.648605 0.636224 0.000000
O O18 0.149000 0.403869 0.000000
#
# Coordination Sequence:
#
# PCOD8227053 Si02
#       7
#     8   8   8   8   8   8   8
#     4  10  21  38  55  74 104 138 177 222 268 318
#     4  10  21  38  59  83 112 146 183 224 274 327
#     4   9  17  32  55  80 106 137 172 209 254 311
#     4   9  16  29  53  82 109 137 169 207 254 309
#     4   9  19  35  55  78 106 142 179 218 265 318
#     4  11  23  37  54  77 106 139 179 225 267 312
#     4   9  18  32  51  78 109 137 167 208 258 311
#
# _framework density 19.737456999999999
#
# number of rings (size 3 to 8) (size 9 to 14) (size 15 to 20)
#    0.000    2.429    0.000    2.143    0.000    4.286 
#    0.000    5.714    0.000    3.429    0.000    0.000 
#    0.000    0.000    0.000    0.000    0.000    0.000 
#
# Total GULP energy -694142.168782 kJ/mol
# GULP energy per Si atom -12395.395871 kJ/mol
# Density = 1.969253 g / cm^3
# Si number density = 19.737457 Si / 1000 Ang^3
#
#
#
# Elastic Constant Matrix: (Units=GPa)
#
#
# Indices 1 2 3 4 5 6 
#
# 1 142.1162 38.3679 7.1517 0.0000 0.0000 0.0000
# 2 38.3679 100.5440 4.9746 0.0000 0.0000 0.0000
# 3 7.1517 4.9746 2.7766 0.0000 0.0000 0.0000
# 4 0.0000 0.0000 0.0000 15.4646 0.0000 0.0000
# 5 0.0000 0.0000 0.0000 0.0000 22.3165 0.0000
# 6 0.0000 0.0000 0.0000 0.0000 0.0000 22.0830
#
#
#
# Elastic Compliance Matrix: (Units=1/GPa)
#
#
# Indices 1 2 3 4 5 6 
#
# 1 0.008579 -0.002392 -0.017810 0.000000 0.000000 0.000000
# 2 -0.002392 0.011581 -0.014586 0.000000 0.000000 0.000000
# 3 -0.017810 -0.014586 0.432162 0.000000 0.000000 0.000000
# 4 0.000000 0.000000 0.000000 0.064664 0.000000 0.000000
# 5 0.000000 0.000000 0.000000 0.000000 0.044810 0.000000
# 6 0.000000 0.000000 0.000000 0.000000 0.000000 0.045284
#
#
# Mechanical properties :
#
#
# Convention : Reuss Voigt Hill
#
# Bulk Modulus (GPa) = 2.61271 38.49168 20.55219
# Shear Modulus (GPa) = 6.21708 24.96900 15.59304
#
# Velocity S-wave (km/s) = 1.77672 3.56062 2.81378
# Velocity P-wave (km/s) = 2.35278 6.03724 4.58169
#
# Compressibility (1/GPa) = 0.38274462
#
# Stress axis : x y z
#
# Youngs Moduli (GPa) = 116.56864 86.35180 2.31395
#
# Poissons Ratio (x) = 0.20659 0.04121
# Poissons Ratio (y) = 0.27889 0.03375
# Poissons Ratio (z) = 2.07606 1.25952
#
# Static dielectric constant tensor:
#      x y z
#    x 3.908210 0.000000 0.000000 
#    y 0.000000 3.693690 0.000000 
#    z 0.000000 0.000000 3.333340 
# 
# 
# High freq. dielectric constant tensor:
#      x y z
#    x 1.778760 0.000000 0.000000 
#    y 0.000000 1.771560 0.000000 
#    z 0.000000 0.000000 1.742430 
# 
# From -- ./inp_files/6124.got.cif
#   From: 2010.03.12/outbox.cif.g09.slc.cpg/sg55_4_cif.got.tgz:6124.got - 2010.04.16 15:19:21.
