data_PCOD8227659
_publ_section_title
;
Structure prediction by ZEFSAII (Michael W. Deem and Ramdas Pophale) SiO2 
 PCOD8227659
Probable space group: P B A M
;
_chemical_formula_sum "Si O2"
_cell_formula_units_Z 40
_cell_length_a 15.587241
_cell_length_b 15.963535
_cell_length_c 8.966004
_cell_angle_alpha 90.000000
_cell_angle_beta 90.000000
_cell_angle_gamma 90.000000
_cell_volume 2230.988067
_symmetry_space_group_name_H-M "P B A M"
_symmetry_group_IT_number 55
_symmetry_cell_setting 'orthorhombic'
loop_
_space_group_symop_operation_xyz
x,y,z
-x,-y,z
1/2+x,1/2-y,-z
1/2-x,1/2+y,-z
-x,-y,-z
x,y,-z
1/2-x,1/2+y,z
1/2+x,1/2-y,z
loop_
_atom_site_type_symbol
_atom_site_label
_atom_site_fract_x
_atom_site_fract_y
_atom_site_fract_z
Si Si1 0.311802 0.939418 0.324235
Si Si2 0.939488 0.688648 0.822829
Si Si3 0.922542 0.435632 0.163861
Si Si4 0.538152 0.374553 0.824051
Si Si5 0.133434 0.962123 0.176471
O O1 0.313885 0.932850 0.500000
O O2 0.364615 0.862369 0.257071
O O3 0.215695 0.931956 0.265940
O O4 0.351070 0.029739 0.276783
O O5 0.937001 0.783409 0.760250
O O6 0.034287 0.651610 0.782731
O O7 0.923957 0.682641 0.000000
O O8 0.000000 0.500000 0.152497
O O9 0.879610 0.425414 0.000000
O O10 0.610728 0.441897 0.779247
O O11 0.444655 0.403599 0.767759
O O12 0.531975 0.369149 0.000000
O O13 0.149710 0.953870 0.000000
#
# Coordination Sequence:
#
# PCOD8227659 Si02
#       5
#     8   8   8   8   8
#     4  11  21  32  48  74 108 141 170 201 246 302
#     4   9  17  33  55  78 101 127 168 216 258 296
#     4   8  15  29  50  72  97 129 165 208 252 292
#     4   8  16  33  58  80  96 125 170 216 257 297
#     4   9  17  34  57  77 100 130 168 211 254 299
#
# _framework density 17.929273999999999
#
# number of rings (size 3 to 8) (size 9 to 14) (size 15 to 20)
#    0.000    3.000    0.000    4.200    0.000    3.600 
#    3.600    4.000    0.000    0.000    0.000    0.000 
#    0.000    0.000    0.000    0.000    0.000    0.000 
#
# Total GULP energy -495751.501556 kJ/mol
# GULP energy per Si atom -12393.787539 kJ/mol
# Density = 1.788847 g / cm^3
# Si number density = 17.929274 Si / 1000 Ang^3
#
#
#
# Elastic Constant Matrix: (Units=GPa)
#
#
# Indices 1 2 3 4 5 6 
#
# 1 107.3312 54.9136 49.3602 0.0000 0.0000 0.0000
# 2 54.9136 133.7056 42.4863 0.0000 0.0000 0.0000
# 3 49.3602 42.4863 73.8433 0.0000 0.0000 0.0000
# 4 0.0000 0.0000 0.0000 4.1997 0.0000 0.0000
# 5 0.0000 0.0000 0.0000 0.0000 -3.8511 0.0000
# 6 0.0000 0.0000 0.0000 0.0000 0.0000 17.7002
#
#
#
# Elastic Compliance Matrix: (Units=1/GPa)
#
#
# Indices 1 2 3 4 5 6 
#
# 1 0.014727 -0.003574 -0.007788 0.000000 0.000000 0.000000
# 2 -0.003574 0.010020 -0.003376 0.000000 0.000000 0.000000
# 3 -0.007788 -0.003376 0.020690 0.000000 0.000000 0.000000
# 4 0.000000 0.000000 0.000000 0.238110 0.000000 0.000000
# 5 0.000000 0.000000 0.000000 0.000000 -0.259668 0.000000
# 6 0.000000 0.000000 0.000000 0.000000 0.000000 0.056497
#
#
# Mechanical properties :
#
#
# Convention : Reuss Voigt Hill
#
# Bulk Modulus (GPa) = 62.65057 67.60005 65.12531
# Shear Modulus (GPa) = 43.41367 14.81777 29.11572
#
# Velocity S-wave (km/s) = 4.92610 2.87794 4.03416
# Velocity P-wave (km/s) = 8.20818 6.98777 7.62244
#
# Compressibility (1/GPa) = 0.01596155
#
# Stress axis : x y z
#
# Youngs Moduli (GPa) = 67.90265 99.80393 48.33149
#
# Poissons Ratio (x) = 0.35667 0.37640
# Poissons Ratio (y) = 0.24267 0.16317
# Poissons Ratio (z) = 0.52882 0.33694
#
# Static dielectric constant tensor:
#      x y z
#    x 3.260640 0.000000 0.000000 
#    y 0.000000 3.981420 0.000000 
#    z 0.000000 0.000000 2.978410 
# 
# 
# High freq. dielectric constant tensor:
#      x y z
#    x 1.686370 0.000000 0.000000 
#    y 0.000000 1.692900 0.000000 
#    z 0.000000 0.000000 1.660190 
# 
# From -- ./inp_files/5188.got.cif
#   From: 2010.03.12/outbox.cif.g09.slc.cpg/sg55_3_cif.got.tgz:5188.got - 2010.04.16 15:19:21.
