data_PCOD8227874
_publ_section_title
;
Structure prediction by ZEFSAII (Michael W. Deem and Ramdas Pophale) SiO2 
 PCOD8227874
Probable space group: P C C N
;
_chemical_formula_sum "Si O2"
_cell_formula_units_Z 40
_cell_length_a 8.434720
_cell_length_b 23.350836
_cell_length_c 8.878022
_cell_angle_alpha 90.000000
_cell_angle_beta 90.000000
_cell_angle_gamma 90.000000
_cell_volume 1748.595357
_symmetry_space_group_name_H-M "P C C N"
_symmetry_group_IT_number 56
_symmetry_cell_setting 'orthorhombic'
loop_
_space_group_symop_operation_xyz
x,y,z
1/2-x,1/2-y,z
1/2+x,-y,1/2-z
-x,1/2+y,1/2-z
-x,-y,-z
1/2+x,1/2+y,-z
1/2-x,y,1/2+z
x,1/2-y,1/2+z
loop_
_atom_site_type_symbol
_atom_site_label
_atom_site_fract_x
_atom_site_fract_y
_atom_site_fract_z
Si Si1 0.498431 0.742484 0.001937
Si Si2 0.665157 0.821071 0.766857
Si Si3 0.835349 0.556427 0.876619
Si Si4 0.969871 0.948866 0.705012
Si Si5 0.956397 0.173530 0.261347
O O1 0.620786 0.778183 0.900200
O O2 0.389085 0.702291 0.892803
O O3 0.589971 0.698586 0.110131
O O4 0.393611 0.788049 0.098339
O O5 0.600878 0.884208 0.807430
O O6 0.852854 0.821373 0.744007
O O7 0.647618 0.549304 0.847813
O O8 0.924525 0.505038 0.792939
O O9 0.863392 0.555539 0.054883
O O10 0.087122 0.893397 0.719807
#
# Coordination Sequence:
#
# PCOD8227874 Si02
#       5
#     8   8   8   8   8
#     4  10  17  26  44  72 107 134 167 206 277 316
#     4  10  17  27  45  73 104 137 166 215 262 323
#     4  10  22  38  55  79 110 143 181 223 264 314
#     4  10  22  38  55  79 110 143 181 223 264 314
#     4  10  17  27  45  73 104 137 166 215 262 323
#
# _framework density 22.875505
#
# number of rings (size 3 to 8) (size 9 to 14) (size 15 to 20)
#    0.000    2.000    2.000    4.800    8.400    0.800 
#    0.000    0.000    0.000    0.000    0.000    8.400 
#    0.000    0.000    0.000    0.000    0.000    0.000 
#
# Total GULP energy -495773.420692 kJ/mol
# GULP energy per Si atom -12394.335517 kJ/mol
# Density = 2.282344 g / cm^3
# Si number density = 22.875505 Si / 1000 Ang^3
#
#
#
# Elastic Constant Matrix: (Units=GPa)
#
#
# Indices 1 2 3 4 5 6 
#
# 1 6.8269 15.9479 3.0272 0.0000 0.0000 0.0000
# 2 15.9479 192.5761 47.7480 0.0000 0.0000 0.0000
# 3 3.0272 47.7480 109.3469 0.0000 0.0000 0.0000
# 4 0.0000 0.0000 0.0000 37.7363 0.0000 0.0000
# 5 0.0000 0.0000 0.0000 0.0000 13.9012 0.0000
# 6 0.0000 0.0000 0.0000 0.0000 0.0000 25.3632
#
#
#
# Elastic Compliance Matrix: (Units=1/GPa)
#
#
# Indices 1 2 3 4 5 6 
#
# 1 0.181904 -0.015493 0.001729 0.000000 0.000000 0.000000
# 2 -0.015493 0.007143 -0.002690 0.000000 0.000000 0.000000
# 3 0.001729 -0.002690 0.010272 0.000000 0.000000 0.000000
# 4 0.000000 0.000000 0.000000 0.026500 0.000000 0.000000
# 5 0.000000 0.000000 0.000000 0.000000 0.071936 0.000000
# 6 0.000000 0.000000 0.000000 0.000000 0.000000 0.039427
#
#
# Mechanical properties :
#
#
# Convention : Reuss Voigt Hill
#
# Bulk Modulus (GPa) = 6.00920 49.13291 27.57106
# Shear Modulus (GPa) = 11.74924 31.53525 21.64224
#
# Velocity S-wave (km/s) = 2.26877 3.71692 3.07919
# Velocity P-wave (km/s) = 3.08151 6.32026 4.97199
#
# Compressibility (1/GPa) = 0.16641140
#
# Stress axis : x y z
#
# Youngs Moduli (GPa) = 5.49741 140.00173 97.35201
#
# Poissons Ratio (x) = 2.16904 -0.16836
# Poissons Ratio (y) = 0.08517 0.26189
# Poissons Ratio (z) = -0.00951 0.37662
#
# Static dielectric constant tensor:
#      x y z
#    x 3.301440 0.000000 0.000000 
#    y 0.000000 5.018940 0.000000 
#    z 0.000000 0.000000 4.534880 
# 
# 
# High freq. dielectric constant tensor:
#      x y z
#    x 1.835420 0.000000 0.000000 
#    y 0.000000 1.931220 0.000000 
#    z 0.000000 0.000000 1.920050 
# 
# From -- ./inp_files/2035.got.cif
#   From: 2010.03.12/outbox.cif.g09.slc.cpg/sg56_2_cif.got.tgz:2035.got - 2010.04.16 15:33:40.
