data_PCOD8227835
_publ_section_title
;
Structure prediction by ZEFSAII (Michael W. Deem and Ramdas Pophale) SiO2 
 PCOD8227835
Probable space group: P B A M
;
_chemical_formula_sum "Si O2"
_cell_formula_units_Z 56
_cell_length_a 13.863088
_cell_length_b 23.464499
_cell_length_c 9.222686
_cell_angle_alpha 90.000000
_cell_angle_beta 90.000000
_cell_angle_gamma 90.000000
_cell_volume 3000.051352
_symmetry_space_group_name_H-M "P B A M"
_symmetry_group_IT_number 55
_symmetry_cell_setting 'orthorhombic'
loop_
_space_group_symop_operation_xyz
x,y,z
-x,-y,z
1/2+x,1/2-y,-z
1/2-x,1/2+y,-z
-x,-y,-z
x,y,-z
1/2-x,1/2+y,z
1/2+x,1/2-y,z
loop_
_atom_site_type_symbol
_atom_site_label
_atom_site_fract_x
_atom_site_fract_y
_atom_site_fract_z
Si Si1 0.780295 0.223932 0.328559
Si Si2 0.685235 0.126503 0.162747
Si Si3 0.531007 0.658627 0.668465
Si Si4 0.290499 0.536986 0.669801
Si Si5 0.814839 0.836639 0.330806
Si Si6 0.116371 0.940827 0.162946
Si Si7 0.902887 0.530490 0.332042
O O1 0.763757 0.218649 0.500000
O O2 0.701524 0.184086 0.252028
O O3 0.889282 0.205805 0.284650
O O4 0.758640 0.288188 0.272043
O O5 0.782235 0.090578 0.161798
O O6 0.604022 0.088776 0.241291
O O7 0.651546 0.141416 0.000000
O O8 0.544239 0.643506 0.500000
O O9 0.424825 0.682957 0.702427
O O10 0.540845 0.599557 0.754916
O O11 0.316709 0.535333 0.500000
O O12 0.292142 0.601125 0.735299
O O13 0.372283 0.500681 0.753347
O O14 0.184839 0.512171 0.700093
O O15 0.797566 0.842456 0.500000
O O16 0.079463 0.952525 0.000000
O O17 0.906288 0.547740 0.500000
O O18 0.000000 0.500000 0.281265
#
# Coordination Sequence:
#
# PCOD8227835 Si02
#       7
#     8   8   8   8   8   8   8
#     4   9  17  32  51  70  94 124 161 204 239 282
#     4   9  17  30  49  70  93 127 163 198 241 287
#     4   9  17  31  51  72  94 125 162 197 240 291
#     4   9  17  31  49  69 100 131 158 200 248 295
#     4   9  18  32  49  73  99 126 161 200 245 290
#     4   9  17  30  49  72  97 124 158 196 237 288
#     4   9  17  30  48  74 100 127 164 206 250 294
#
# _framework density 18.666346999999998
#
# number of rings (size 3 to 8) (size 9 to 14) (size 15 to 20)
#    0.000    3.000    0.000    0.857    0.000    4.286 
#    2.571    5.000    0.000    0.000    0.000    0.000 
#    0.000    0.000    0.000    0.000    0.000    0.000 
#
# Total GULP energy -694208.281806 kJ/mol
# GULP energy per Si atom -12396.576461 kJ/mol
# Density = 1.862386 g / cm^3
# Si number density = 18.666347 Si / 1000 Ang^3
#
#
#
# Elastic Constant Matrix: (Units=GPa)
#
#
# Indices 1 2 3 4 5 6 
#
# 1 53.2554 34.9488 17.5335 0.0000 0.0000 0.0000
# 2 34.9488 137.1111 34.3954 0.0000 0.0000 0.0000
# 3 17.5335 34.3954 58.1159 0.0000 0.0000 0.0000
# 4 0.0000 0.0000 0.0000 8.5533 0.0000 0.0000
# 5 0.0000 0.0000 0.0000 0.0000 10.3005 0.0000
# 6 0.0000 0.0000 0.0000 0.0000 0.0000 27.4646
#
#
#
# Elastic Compliance Matrix: (Units=1/GPa)
#
#
# Indices 1 2 3 4 5 6 
#
# 1 0.023368 -0.004918 -0.004139 0.000000 0.000000 0.000000
# 2 -0.004918 0.009600 -0.004198 0.000000 0.000000 0.000000
# 3 -0.004139 -0.004198 0.020940 0.000000 0.000000 0.000000
# 4 0.000000 0.000000 0.000000 0.116914 0.000000 0.000000
# 5 0.000000 0.000000 0.000000 0.000000 0.097083 0.000000
# 6 0.000000 0.000000 0.000000 0.000000 0.000000 0.036410
#
#
# Mechanical properties :
#
#
# Convention : Reuss Voigt Hill
#
# Bulk Modulus (GPa) = 36.49959 46.91531 41.70745
# Shear Modulus (GPa) = 14.70771 20.03733 17.37252
#
# Velocity S-wave (km/s) = 2.81005 3.27990 3.05403
# Velocity P-wave (km/s) = 5.48859 6.28744 5.90155
#
# Compressibility (1/GPa) = 0.02739757
#
# Stress axis : x y z
#
# Youngs Moduli (GPa) = 42.79425 104.16675 47.75465
#
# Poissons Ratio (x) = 0.51228 0.19767
# Poissons Ratio (y) = 0.21046 0.20047
# Poissons Ratio (z) = 0.17714 0.43729
#
# Static dielectric constant tensor:
#      x y z
#    x 3.305930 0.000000 0.000000 
#    y 0.000000 3.661050 0.000000 
#    z 0.000000 0.000000 3.371880 
# 
# 
# High freq. dielectric constant tensor:
#      x y z
#    x 1.709810 0.000000 0.000000 
#    y 0.000000 1.723420 0.000000 
#    z 0.000000 0.000000 1.703080 
# 
# From -- ./inp_files/6145.got.cif
#   From: 2010.03.12/outbox.cif.g09.slc.cpg/sg55_4_cif.got.tgz:6145.got - 2010.04.16 15:19:21.
