data_PCOD8227305
_publ_section_title
;
Structure prediction by ZEFSAII (Michael W. Deem and Ramdas Pophale) SiO2 
 PCOD8227305
Probable space group: P B A M
;
_chemical_formula_sum "Si O2"
_cell_formula_units_Z 64
_cell_length_a 15.304499
_cell_length_b 24.458314
_cell_length_c 8.854551
_cell_angle_alpha 90.000000
_cell_angle_beta 90.000000
_cell_angle_gamma 90.000000
_cell_volume 3314.455384
_symmetry_space_group_name_H-M "P B A M"
_symmetry_group_IT_number 55
_symmetry_cell_setting 'orthorhombic'
loop_
_space_group_symop_operation_xyz
x,y,z
-x,-y,z
1/2+x,1/2-y,-z
1/2-x,1/2+y,-z
-x,-y,-z
x,y,-z
1/2-x,1/2+y,z
1/2+x,1/2-y,z
loop_
_atom_site_type_symbol
_atom_site_label
_atom_site_fract_x
_atom_site_fract_y
_atom_site_fract_z
Si Si1 0.301330 0.643672 0.677824
Si Si2 0.980920 0.840503 0.821960
Si Si3 0.676274 0.063845 0.175145
Si Si4 0.035907 0.282727 0.829833
Si Si5 0.003251 0.391625 0.677409
Si Si6 0.329710 0.360100 0.178767
Si Si7 0.666100 0.936962 0.825384
Si Si8 0.767478 0.743709 0.171785
O O1 0.302601 0.640673 0.500000
O O2 0.399160 0.632563 0.737924
O O3 0.238939 0.597009 0.739147
O O4 0.264926 0.702546 0.726629
O O5 0.992790 0.777229 0.774345
O O6 0.069849 0.871910 0.773110
O O7 0.961696 0.844039 0.000000
O O8 0.596415 0.085286 0.273552
O O9 0.765134 0.092467 0.236744
O O10 0.690165 0.999918 0.197993
O O11 0.657817 0.078460 0.000000
O O12 0.992927 0.327963 0.722016
O O13 0.140241 0.287356 0.821862
O O14 0.002563 0.293544 0.000000
O O15 0.991422 0.397732 0.500000
O O16 0.929486 0.427085 0.758496
O O17 0.301467 0.299981 0.238182
O O18 0.323831 0.357243 0.000000
O O19 0.666131 0.920243 0.000000
O O20 0.746397 0.761665 0.000000
#
# Coordination Sequence:
#
# PCOD8227305 Si02
#       8
#     8   8   8   8   8   8   8   8
#     4  11  23  39  57  83 121 155 191 243 296 348
#     4   9  19  36  60  87 116 154 194 236 286 344
#     4  10  21  41  64  87 114 149 198 251 292 343
#     4   9  17  32  54  82 117 155 194 231 273 338
#     4  12  24  36  55  86 123 158 189 235 296 356
#     4   9  17  34  62  91 114 144 193 245 289 335
#     4  11  24  41  63  83 108 153 205 249 293 346
#     4   9  17  33  59  85 114 152 191 235 285 341
#
# _framework density 19.309356000000001
#
# number of rings (size 3 to 8) (size 9 to 14) (size 15 to 20)
#    0.000    2.000    1.250    3.750    1.750    4.500 
#    0.000    1.875    0.000    3.750    0.000    0.000 
#    0.000    0.000    0.000    0.000    0.000    0.000 
#
# Total GULP energy -793633.318579 kJ/mol
# GULP energy per Si atom -12400.520603 kJ/mol
# Density = 1.926541 g / cm^3
# Si number density = 19.309356 Si / 1000 Ang^3
#
#
#
# Elastic Constant Matrix: (Units=GPa)
#
#
# Indices 1 2 3 4 5 6 
#
# 1 105.3641 49.0452 34.2909 0.0000 0.0000 0.0000
# 2 49.0452 72.0887 32.3208 0.0000 0.0000 0.0000
# 3 34.2909 32.3208 87.2289 0.0000 0.0000 0.0000
# 4 0.0000 0.0000 0.0000 7.6556 0.0000 0.0000
# 5 0.0000 0.0000 0.0000 0.0000 3.4293 0.0000
# 6 0.0000 0.0000 0.0000 0.0000 0.0000 27.0225
#
#
#
# Elastic Compliance Matrix: (Units=1/GPa)
#
#
# Indices 1 2 3 4 5 6 
#
# 1 0.014303 -0.008646 -0.002419 0.000000 0.000000 0.000000
# 2 -0.008646 0.021862 -0.004702 0.000000 0.000000 0.000000
# 3 -0.002419 -0.004702 0.014157 0.000000 0.000000 0.000000
# 4 0.000000 0.000000 0.000000 0.130623 0.000000 0.000000
# 5 0.000000 0.000000 0.000000 0.000000 0.291602 0.000000
# 6 0.000000 0.000000 0.000000 0.000000 0.000000 0.037006
#
#
# Mechanical properties :
#
#
# Convention : Reuss Voigt Hill
#
# Bulk Modulus (GPa) = 53.22420 55.11060 54.16740
# Shear Modulus (GPa) = 9.13492 17.55649 13.34571
#
# Velocity S-wave (km/s) = 2.17741 3.01860 2.63183
# Velocity P-wave (km/s) = 5.82625 6.38374 6.11136
#
# Compressibility (1/GPa) = 0.01878844
#
# Stress axis : x y z
#
# Youngs Moduli (GPa) = 69.91594 45.74094 70.63608
#
# Poissons Ratio (x) = 0.39549 0.17086
# Poissons Ratio (y) = 0.60452 0.33210
# Poissons Ratio (z) = 0.16912 0.21505
#
# Static dielectric constant tensor:
#      x y z
#    x 3.726430 0.000000 0.000000 
#    y 0.000000 3.524480 0.000000 
#    z 0.000000 0.000000 3.306100 
# 
# 
# High freq. dielectric constant tensor:
#      x y z
#    x 1.758780 0.000000 0.000000 
#    y 0.000000 1.744630 0.000000 
#    z 0.000000 0.000000 1.727650 
# 
# From -- ./inp_files/6694.got.cif
#   From: 2010.03.12/outbox.cif.g09.slc.cpg/sg55_4_cif.got.tgz:6694.got - 2010.04.16 15:19:21.
