data_PCOD8227834
_publ_section_title
;
Structure prediction by ZEFSAII (Michael W. Deem and Ramdas Pophale) SiO2 
 PCOD8227834
Probable space group: P B A M
;
_chemical_formula_sum "Si O2"
_cell_formula_units_Z 48
_cell_length_a 12.679655
_cell_length_b 17.634535
_cell_length_c 12.951396
_cell_angle_alpha 90.000000
_cell_angle_beta 90.000000
_cell_angle_gamma 90.000000
_cell_volume 2895.929813
_symmetry_space_group_name_H-M "P B A M"
_symmetry_group_IT_number 55
_symmetry_cell_setting 'orthorhombic'
loop_
_space_group_symop_operation_xyz
x,y,z
-x,-y,z
1/2+x,1/2-y,-z
1/2-x,1/2+y,-z
-x,-y,-z
x,y,-z
1/2-x,1/2+y,z
1/2+x,1/2-y,z
loop_
_atom_site_type_symbol
_atom_site_label
_atom_site_fract_x
_atom_site_fract_y
_atom_site_fract_z
Si Si1 0.136697 0.237605 0.242058
Si Si2 0.762057 0.641707 0.615865
Si Si3 0.345958 0.150386 0.756088
Si Si4 0.546474 0.136571 0.118620
Si Si5 0.553990 0.721387 0.621614
Si Si6 0.384904 0.983815 0.286782
O O1 0.166494 0.302898 0.320208
O O2 0.231432 0.181938 0.212661
O O3 0.103024 0.282319 0.138548
O O4 0.042186 0.195579 0.303956
O O5 0.785758 0.664282 0.500000
O O6 0.638220 0.653647 0.639252
O O7 0.802452 0.557060 0.637551
O O8 0.424238 0.151404 0.853622
O O9 0.396663 0.198368 0.661115
O O10 0.326710 0.063142 0.729367
O O11 0.595663 0.066227 0.183142
O O12 0.558425 0.114037 0.000000
O O13 0.523555 0.729163 0.500000
O O14 0.500000 0.000000 0.337856
#
# Coordination Sequence:
#
# PCOD8227834 Si02
#       6
#     8   8   8   8   8   8
#     4   9  17  30  47  67  90 118 152 185 220 265
#     4   9  17  29  45  66  93 123 152 183 221 262
#     4   9  18  30  46  69  92 116 149 185 222 265
#     4   9  18  32  48  67  91 116 145 185 230 270
#     4   9  17  30  47  66  91 122 152 184 220 259
#     4   9  18  30  45  67  93 119 149 184 226 266
#
# _framework density 16.574985999999999
#
# number of rings (size 3 to 8) (size 9 to 14) (size 15 to 20)
#    0.000    3.000    0.000    1.500    0.000    5.333 
#    0.000    0.833    0.000    2.000    0.000    0.000 
#    0.000   16.000    0.000    0.000    0.000    0.000 
#
# Total GULP energy -594686.846711 kJ/mol
# GULP energy per Si atom -12389.309306 kJ/mol
# Density = 1.653726 g / cm^3
# Si number density = 16.574986 Si / 1000 Ang^3
#
#
#
# Elastic Constant Matrix: (Units=GPa)
#
#
# Indices 1 2 3 4 5 6 
#
# 1 77.7011 43.3591 12.8070 0.0000 0.0000 0.0000
# 2 43.3591 86.2572 5.0660 0.0000 0.0000 0.0000
# 3 12.8070 5.0660 44.1025 0.0000 0.0000 0.0000
# 4 0.0000 0.0000 0.0000 13.1547 0.0000 0.0000
# 5 0.0000 0.0000 0.0000 0.0000 16.0767 0.0000
# 6 0.0000 0.0000 0.0000 0.0000 0.0000 33.8234
#
#
#
# Elastic Compliance Matrix: (Units=1/GPa)
#
#
# Indices 1 2 3 4 5 6 
#
# 1 0.018691 -0.009138 -0.004378 0.000000 0.000000 0.000000
# 2 -0.009138 0.016140 0.000800 0.000000 0.000000 0.000000
# 3 -0.004378 0.000800 0.023854 0.000000 0.000000 0.000000
# 4 0.000000 0.000000 0.000000 0.076018 0.000000 0.000000
# 5 0.000000 0.000000 0.000000 0.000000 0.062202 0.000000
# 6 0.000000 0.000000 0.000000 0.000000 0.000000 0.029565
#
#
# Mechanical properties :
#
#
# Convention : Reuss Voigt Hill
#
# Bulk Modulus (GPa) = 30.07376 36.72500 33.39938
# Shear Modulus (GPa) = 19.01237 22.39955 20.70596
#
# Velocity S-wave (km/s) = 3.39049 3.68014 3.53828
# Velocity P-wave (km/s) = 5.78884 6.34530 6.07345
#
# Compressibility (1/GPa) = 0.03325157
#
# Stress axis : x y z
#
# Youngs Moduli (GPa) = 53.50238 61.95871 41.92183
#
# Poissons Ratio (x) = 0.56619 0.18353
# Poissons Ratio (y) = 0.48892 -0.03353
# Poissons Ratio (z) = 0.23423 -0.04955
#
# Static dielectric constant tensor:
#      x y z
#    x 3.276370 0.000000 0.000000 
#    y 0.000000 3.230070 0.000000 
#    z 0.000000 0.000000 2.947850 
# 
# 
# High freq. dielectric constant tensor:
#      x y z
#    x 1.639500 0.000000 0.000000 
#    y 0.000000 1.627880 0.000000 
#    z 0.000000 0.000000 1.618520 
# 
# From -- ./inp_files/13185.got.cif
#   From: 2010.03.12/outbox.cif.g09.slc.cpg/sg55_7_cif.got.tgz:13185.got - 2010.04.16 15:19:21.
