data_PCOD8227890
_publ_section_title
;
Structure prediction by ZEFSAII (Michael W. Deem and Ramdas Pophale) SiO2 
 PCOD8227890
Probable space group: P C C N
;
_chemical_formula_sum "Si O2"
_cell_formula_units_Z 40
_cell_length_a 11.224696
_cell_length_b 12.354293
_cell_length_c 13.013180
_cell_angle_alpha 90.000000
_cell_angle_beta 90.000000
_cell_angle_gamma 90.000000
_cell_volume 1804.579094
_symmetry_space_group_name_H-M "P C C N"
_symmetry_group_IT_number 56
_symmetry_cell_setting 'orthorhombic'
loop_
_space_group_symop_operation_xyz
x,y,z
1/2-x,1/2-y,z
1/2+x,-y,1/2-z
-x,1/2+y,1/2-z
-x,-y,-z
1/2+x,1/2+y,-z
1/2-x,y,1/2+z
x,1/2-y,1/2+z
loop_
_atom_site_type_symbol
_atom_site_label
_atom_site_fract_x
_atom_site_fract_y
_atom_site_fract_z
Si Si1 0.176900 0.362782 0.371571
Si Si2 0.959400 0.124620 0.429225
Si Si3 0.467698 0.780318 0.749942
Si Si4 0.360561 0.545813 0.378802
Si Si5 0.382663 0.272356 0.067458
O O1 0.250000 0.250000 0.365214
O O2 0.070348 0.360516 0.290612
O O3 0.252658 0.469117 0.346093
O O4 0.125511 0.373557 0.488387
O O5 0.849044 0.094624 0.504740
O O6 0.914530 0.207223 0.341463
O O7 0.067440 0.172187 0.499082
O O8 0.013894 0.018646 0.374813
O O9 0.363793 0.855207 0.797441
O O10 0.527380 0.704341 0.838507
O O11 0.250000 0.250000 0.112000
#
# Coordination Sequence:
#
# PCOD8227890 Si02
#       5
#     8   8   8   8   8
#     4  10  17  33  52  88 119 145 188 243 281 335
#     4   9  18  32  46  83 119 147 187 231 287 337
#     4  10  19  29  54  87 114 150 198 234 274 347
#     4  10  18  32  54  80 120 156 183 237 300 321
#     4   9  15  26  49  79 115 144 174 238 276 310
#
# _framework density 22.165834
#
# number of rings (size 3 to 8) (size 9 to 14) (size 15 to 20)
#    0.000    2.400    6.000    0.600    0.000    0.000 
#    0.000    0.000    0.000   12.000    0.000   14.000 
#    0.000    0.000    0.000    0.000    0.000    0.000 
#
# Total GULP energy -495618.496488 kJ/mol
# GULP energy per Si atom -12390.462412 kJ/mol
# Density = 2.211538 g / cm^3
# Si number density = 22.165834 Si / 1000 Ang^3
#
#
#
# Elastic Constant Matrix: (Units=GPa)
#
#
# Indices 1 2 3 4 5 6 
#
# 1 20.2217 16.2465 14.2930 0.0000 0.0000 0.0000
# 2 16.2465 91.4187 55.0507 0.0000 0.0000 0.0000
# 3 14.2930 55.0507 114.3026 0.0000 0.0000 0.0000
# 4 0.0000 0.0000 0.0000 38.1958 0.0000 0.0000
# 5 0.0000 0.0000 0.0000 0.0000 3.1643 0.0000
# 6 0.0000 0.0000 0.0000 0.0000 0.0000 34.0090
#
#
#
# Elastic Compliance Matrix: (Units=1/GPa)
#
#
# Indices 1 2 3 4 5 6 
#
# 1 0.058535 -0.008444 -0.003253 0.000000 0.000000 0.000000
# 2 -0.008444 0.016625 -0.006951 0.000000 0.000000 0.000000
# 3 -0.003253 -0.006951 0.012503 0.000000 0.000000 0.000000
# 4 0.000000 0.000000 0.000000 0.026181 0.000000 0.000000
# 5 0.000000 0.000000 0.000000 0.000000 0.316021 0.000000
# 6 0.000000 0.000000 0.000000 0.000000 0.000000 0.029404
#
#
# Mechanical properties :
#
#
# Convention : Reuss Voigt Hill
#
# Bulk Modulus (GPa) = 19.85392 44.12480 31.98936
# Shear Modulus (GPa) = 9.73986 24.43068 17.08527
#
# Velocity S-wave (km/s) = 2.09848 3.32351 2.77933
# Velocity P-wave (km/s) = 3.85330 5.88876 4.97621
#
# Compressibility (1/GPa) = 0.05036788
#
# Stress axis : x y z
#
# Youngs Moduli (GPa) = 17.08382 60.14987 79.97885
#
# Poissons Ratio (x) = 0.50789 0.26016
# Poissons Ratio (y) = 0.14425 0.55595
# Poissons Ratio (z) = 0.05557 0.41811
#
# Static dielectric constant tensor:
#      x y z
#    x 3.552950 0.000000 0.000000 
#    y 0.000000 3.770660 0.000000 
#    z 0.000000 0.000000 4.324980 
# 
# 
# High freq. dielectric constant tensor:
#      x y z
#    x 1.825450 0.000000 0.000000 
#    y 0.000000 1.844560 0.000000 
#    z 0.000000 0.000000 1.886540 
# 
# From -- ./inp_files/12124.got.cif
#   From: 2010.03.12/outbox.cif.g09.slc.cpg/sg56_7_cif.got.tgz:12124.got - 2010.04.16 15:33:40.
