data_PCOD8227439
_publ_section_title
;
Structure prediction by ZEFSAII (Michael W. Deem and Ramdas Pophale) SiO2 
 PCOD8227439
Probable space group: P B A M
;
_chemical_formula_sum "Si O2"
_cell_formula_units_Z 48
_cell_length_a 18.485806
_cell_length_b 14.719146
_cell_length_c 9.072112
_cell_angle_alpha 90.000000
_cell_angle_beta 90.000000
_cell_angle_gamma 90.000000
_cell_volume 2468.478832
_symmetry_space_group_name_H-M "P B A M"
_symmetry_group_IT_number 55
_symmetry_cell_setting 'orthorhombic'
loop_
_space_group_symop_operation_xyz
x,y,z
-x,-y,z
1/2+x,1/2-y,-z
1/2-x,1/2+y,-z
-x,-y,-z
x,y,-z
1/2-x,1/2+y,z
1/2+x,1/2-y,z
loop_
_atom_site_type_symbol
_atom_site_label
_atom_site_fract_x
_atom_site_fract_y
_atom_site_fract_z
Si Si1 0.245189 0.308104 0.825295
Si Si2 0.412365 0.746471 0.829115
Si Si3 0.934982 0.937111 0.673453
Si Si4 0.527135 0.900280 0.169975
Si Si5 0.671004 0.844732 0.672285
Si Si6 0.278878 0.492909 0.328196
O O1 0.168210 0.268579 0.773111
O O2 0.308630 0.247714 0.755936
O O3 0.250964 0.410222 0.768591
O O4 0.252873 0.308372 0.000000
O O5 0.444746 0.661285 0.743727
O O6 0.461675 0.832916 0.795215
O O7 0.411641 0.721733 0.000000
O O8 0.938523 0.923347 0.500000
O O9 0.860077 0.983453 0.721239
O O10 0.000000 0.000000 0.731172
O O11 0.593210 0.876988 0.275028
O O12 0.500000 0.000000 0.210489
O O13 0.552076 0.894160 0.000000
O O14 0.668190 0.823234 0.500000
O O15 0.729488 0.921229 0.710298
O O16 0.274500 0.467090 0.500000
#
# Coordination Sequence:
#
# PCOD8227439 Si02
#       6
#     8   8   8   8   8   8
#     4  11  23  39  63  91 120 158 201 248 304 361
#     4  10  22  40  62  90 121 159 201 245 302 358
#     4  10  22  40  61  86 119 161 202 247 302 355
#     4  10  22  41  63  89 125 161 200 252 305 361
#     4  11  23  40  62  90 124 160 202 249 301 363
#     4  10  22  40  61  88 122 158 200 250 301 357
#
# _framework density 19.445173
#
# number of rings (size 3 to 8) (size 9 to 14) (size 15 to 20)
#    0.000    1.667    1.667    2.000    2.333    5.333 
#    0.000    0.000    0.000    0.000    0.000    0.000 
#    0.000    0.000    0.000    0.000    0.000    0.000 
#
# Total GULP energy -595529.451317 kJ/mol
# GULP energy per Si atom -12406.863569 kJ/mol
# Density = 1.940091 g / cm^3
# Si number density = 19.445173 Si / 1000 Ang^3
#
#
#
# Elastic Constant Matrix: (Units=GPa)
#
#
# Indices 1 2 3 4 5 6 
#
# 1 82.0701 24.1530 26.8829 0.0000 0.0000 0.0000
# 2 24.1530 111.4118 46.4133 0.0000 0.0000 0.0000
# 3 26.8829 46.4133 61.1005 0.0000 0.0000 0.0000
# 4 0.0000 0.0000 0.0000 41.3310 0.0000 0.0000
# 5 0.0000 0.0000 0.0000 0.0000 32.1676 0.0000
# 6 0.0000 0.0000 0.0000 0.0000 0.0000 32.2240
#
#
#
# Elastic Compliance Matrix: (Units=1/GPa)
#
#
# Indices 1 2 3 4 5 6 
#
# 1 0.014274 -0.000700 -0.005749 0.000000 0.000000 0.000000
# 2 -0.000700 0.013165 -0.009693 0.000000 0.000000 0.000000
# 3 -0.005749 -0.009693 0.026259 0.000000 0.000000 0.000000
# 4 0.000000 0.000000 0.000000 0.024195 0.000000 0.000000
# 5 0.000000 0.000000 0.000000 0.000000 0.031087 0.000000
# 6 0.000000 0.000000 0.000000 0.000000 0.000000 0.031033
#
#
# Mechanical properties :
#
#
# Convention : Reuss Voigt Hill
#
# Bulk Modulus (GPa) = 46.69533 49.94231 48.31882
# Shear Modulus (GPa) = 27.86550 31.62007 29.74278
#
# Velocity S-wave (km/s) = 3.78964 4.03688 3.91522
# Velocity P-wave (km/s) = 6.57377 6.88970 6.73359
#
# Compressibility (1/GPa) = 0.02141542
#
# Stress axis : x y z
#
# Youngs Moduli (GPa) = 70.05933 75.95690 38.08257
#
# Poissons Ratio (x) = 0.05313 0.21893
# Poissons Ratio (y) = 0.04901 0.36913
# Poissons Ratio (z) = 0.40275 0.73624
#
# Static dielectric constant tensor:
#      x y z
#    x 3.728760 0.000000 0.000000 
#    y 0.000000 3.541600 0.000000 
#    z 0.000000 0.000000 3.459430 
# 
# 
# High freq. dielectric constant tensor:
#      x y z
#    x 1.768400 0.000000 0.000000 
#    y 0.000000 1.770550 0.000000 
#    z 0.000000 0.000000 1.753730 
# 
# From -- ./inp_files/5570.got.cif
#   From: 2010.03.12/outbox.cif.g09.slc.cpg/sg55_3_cif.got.tgz:5570.got - 2010.04.16 15:19:21.
