data_PCOD8227486
_publ_section_title
;
Structure prediction by ZEFSAII (Michael W. Deem and Ramdas Pophale) SiO2 
 PCOD8227486
Probable space group: P B A M
;
_chemical_formula_sum "Si O2"
_cell_formula_units_Z 56
_cell_length_a 14.907554
_cell_length_b 21.099779
_cell_length_c 8.866209
_cell_angle_alpha 90.000000
_cell_angle_beta 90.000000
_cell_angle_gamma 90.000000
_cell_volume 2788.831417
_symmetry_space_group_name_H-M "P B A M"
_symmetry_group_IT_number 55
_symmetry_cell_setting 'orthorhombic'
loop_
_space_group_symop_operation_xyz
x,y,z
-x,-y,z
1/2+x,1/2-y,-z
1/2-x,1/2+y,-z
-x,-y,-z
x,y,-z
1/2-x,1/2+y,z
1/2+x,1/2-y,z
loop_
_atom_site_type_symbol
_atom_site_label
_atom_site_fract_x
_atom_site_fract_y
_atom_site_fract_z
Si Si1 0.591817 0.279649 0.824824
Si Si2 0.467369 0.931995 0.673680
Si Si3 0.462292 0.597668 0.671948
Si Si4 0.356598 0.476113 0.671612
Si Si5 0.551116 0.803716 0.673140
Si Si6 0.716981 0.104728 0.176872
Si Si7 0.733460 0.735660 0.677965
O O1 0.543784 0.345536 0.789179
O O2 0.528205 0.222425 0.776563
O O3 0.683771 0.277640 0.732547
O O4 0.613387 0.273238 0.000000
O O5 0.438095 0.939647 0.500000
O O6 0.547987 0.880402 0.689901
O O7 0.382840 0.906300 0.764998
O O8 0.500000 0.000000 0.737860
O O9 0.461009 0.622934 0.500000
O O10 0.379532 0.549766 0.698039
O O11 0.555481 0.564205 0.707524
O O12 0.325327 0.464785 0.500000
O O13 0.276765 0.456420 0.782566
O O14 0.532881 0.784065 0.500000
O O15 0.645059 0.774434 0.728278
O O16 0.763981 0.166199 0.249242
O O17 0.713160 0.115129 0.000000
O O18 0.737293 0.727066 0.500000
#
# Coordination Sequence:
#
# PCOD8227486 Si02
#       7
#     8   8   8   8   8   8   8
#     4  12  24  37  58  90 126 160 193 246 315 373
#     4  10  22  42  67  91 118 159 210 261 311 371
#     4   9  19  37  60  86 117 157 206 253 300 355
#     4   9  19  37  61  86 115 158 207 252 295 356
#     4  10  22  41  65  90 119 160 210 263 312 365
#     4  12  24  38  59  91 125 162 202 251 319 379
#     4  11  23  40  63  88 117 161 214 259 303 367
#
# _framework density 20.080095
#
# number of rings (size 3 to 8) (size 9 to 14) (size 15 to 20)
#    0.000    1.571    1.429    4.714    0.000    7.143 
#    0.000    4.286    0.000    0.000    0.000    0.000 
#    0.000    0.000    0.000    0.000    0.000    0.000 
#
# Total GULP energy -694546.235065 kJ/mol
# GULP energy per Si atom -12402.611340 kJ/mol
# Density = 2.003439 g / cm^3
# Si number density = 20.080095 Si / 1000 Ang^3
#
#
#
# Elastic Constant Matrix: (Units=GPa)
#
#
# Indices 1 2 3 4 5 6 
#
# 1 104.4055 41.3849 40.8021 0.0000 0.0000 0.0000
# 2 41.3849 118.8989 34.8659 0.0000 0.0000 0.0000
# 3 40.8021 34.8659 90.2488 0.0000 0.0000 0.0000
# 4 0.0000 0.0000 0.0000 12.2077 0.0000 0.0000
# 5 0.0000 0.0000 0.0000 0.0000 -0.7696 0.0000
# 6 0.0000 0.0000 0.0000 0.0000 0.0000 31.3288
#
#
#
# Elastic Compliance Matrix: (Units=1/GPa)
#
#
# Indices 1 2 3 4 5 6 
#
# 1 0.012542 -0.003048 -0.004493 0.000000 0.000000 0.000000
# 2 -0.003048 0.010226 -0.002573 0.000000 0.000000 0.000000
# 3 -0.004493 -0.002573 0.014106 0.000000 0.000000 0.000000
# 4 0.000000 0.000000 0.000000 0.081916 0.000000 0.000000
# 5 0.000000 0.000000 0.000000 0.000000 -1.299372 0.000000
# 6 0.000000 0.000000 0.000000 0.000000 0.000000 0.031919
#
#
# Mechanical properties :
#
#
# Convention : Reuss Voigt Hill
#
# Bulk Modulus (GPa) = 60.07187 60.85100 60.46143
# Shear Modulus (GPa) = -4.45281 21.65339 8.60029
#
# Velocity S-wave (km/s) = -1.49075 3.28739 2.07178
# Velocity P-wave (km/s) = 5.19788 6.69172 5.99154
#
# Compressibility (1/GPa) = 0.01664673
#
# Stress axis : x y z
#
# Youngs Moduli (GPa) = 79.73181 97.79198 70.89407
#
# Poissons Ratio (x) = 0.29807 0.31851
# Poissons Ratio (y) = 0.24302 0.18238
# Poissons Ratio (z) = 0.35822 0.25157
#
# Static dielectric constant tensor:
#      x y z
#    x 3.675930 0.000000 0.000000 
#    y 0.000000 3.804650 0.000000 
#    z 0.000000 0.000000 3.493160 
# 
# 
# High freq. dielectric constant tensor:
#      x y z
#    x 1.782450 0.000000 0.000000 
#    y 0.000000 1.793150 0.000000 
#    z 0.000000 0.000000 1.771530 
# 
# From -- ./inp_files/6148.got.cif
#   From: 2010.03.12/outbox.cif.g09.slc.cpg/sg55_4_cif.got.tgz:6148.got - 2010.04.16 15:19:21.
