data_PCOD8227210
_publ_section_title
;
Structure prediction by ZEFSAII (Michael W. Deem and Ramdas Pophale) SiO2 
 PCOD8227210
Probable space group: P B A M
;
_chemical_formula_sum "Si O2"
_cell_formula_units_Z 48
_cell_length_a 9.027558
_cell_length_b 33.137813
_cell_length_c 7.797454
_cell_angle_alpha 90.000000
_cell_angle_beta 90.000000
_cell_angle_gamma 90.000000
_cell_volume 2332.635880
_symmetry_space_group_name_H-M "P B A M"
_symmetry_group_IT_number 55
_symmetry_cell_setting 'orthorhombic'
loop_
_space_group_symop_operation_xyz
x,y,z
-x,-y,z
1/2+x,1/2-y,-z
1/2-x,1/2+y,-z
-x,-y,-z
x,y,-z
1/2-x,1/2+y,z
1/2+x,1/2-y,z
loop_
_atom_site_type_symbol
_atom_site_label
_atom_site_fract_x
_atom_site_fract_y
_atom_site_fract_z
Si Si1 0.670268 0.160180 0.805209
Si Si2 0.334760 0.995687 0.803210
Si Si3 0.169678 0.917975 0.297080
Si Si4 0.834946 0.355237 0.190920
Si Si5 0.163361 0.070493 0.694461
Si Si6 0.209391 0.699890 0.500000
Si Si7 0.632757 0.217283 0.500000
O O1 0.792365 0.125987 0.775321
O O2 0.509305 0.140871 0.769269
O O3 0.698118 0.196349 0.671268
O O4 0.683705 0.176811 0.000000
O O5 0.223227 0.024967 0.702716
O O6 0.500000 0.000000 0.726329
O O7 0.282173 0.949905 0.783997
O O8 0.334571 0.009096 0.000000
O O9 0.186906 0.918879 0.500000
O O10 0.004096 0.928539 0.235381
O O11 0.766997 0.399916 0.196399
O O12 0.757737 0.326259 0.329705
O O13 0.809263 0.337323 0.000000
O O14 0.165848 0.085874 0.500000
O O15 0.323642 0.736291 0.500000
O O16 0.043832 0.716641 0.500000
#
# Coordination Sequence:
#
# PCOD8227210 Si02
#       7
#     8   8   8   8   8   4   4
#     4  10  21  39  63  89 118 157 201 241 291 354
#     4  11  24  39  56  82 116 157 204 248 293 349
#     4  11  23  38  58  86 119 155 198 247 298 349
#     4  10  21  39  63  89 118 157 201 241 291 354
#     4  11  23  38  58  86 119 155 198 247 298 349
#     4  10  22  40  62  89 122 155 192 242 293 350
#     4  10  22  40  62  89 122 155 192 242 293 350
#
# _framework density 20.577579
#
# number of rings (size 3 to 8) (size 9 to 14) (size 15 to 20)
#    0.000    1.500    1.667    3.000    0.000   12.000 
#    0.000    0.000    0.000    0.000    0.000    0.000 
#    0.000    0.000    0.000    0.000    0.000    0.000 
#
# Total GULP energy -595479.355901 kJ/mol
# GULP energy per Si atom -12405.819915 kJ/mol
# Density = 2.053074 g / cm^3
# Si number density = 20.577579 Si / 1000 Ang^3
#
#
#
# Elastic Constant Matrix: (Units=GPa)
#
#
# Indices 1 2 3 4 5 6 
#
# 1 57.3822 1.7986 22.0550 0.0000 0.0000 0.0000
# 2 1.7986 69.2152 23.0197 0.0000 0.0000 0.0000
# 3 22.0550 23.0197 103.1783 0.0000 0.0000 0.0000
# 4 0.0000 0.0000 0.0000 23.5807 0.0000 0.0000
# 5 0.0000 0.0000 0.0000 0.0000 20.5929 0.0000
# 6 0.0000 0.0000 0.0000 0.0000 0.0000 40.3677
#
#
#
# Elastic Compliance Matrix: (Units=1/GPa)
#
#
# Indices 1 2 3 4 5 6 
#
# 1 0.019042 0.000928 -0.004277 0.000000 0.000000 0.000000
# 2 0.000928 0.015651 -0.003690 0.000000 0.000000 0.000000
# 3 -0.004277 -0.003690 0.011430 0.000000 0.000000 0.000000
# 4 0.000000 0.000000 0.000000 0.042408 0.000000 0.000000
# 5 0.000000 0.000000 0.000000 0.000000 0.048561 0.000000
# 6 0.000000 0.000000 0.000000 0.000000 0.000000 0.024772
#
#
# Mechanical properties :
#
#
# Convention : Reuss Voigt Hill
#
# Bulk Modulus (GPa) = 31.20812 35.94693 33.57753
# Shear Modulus (GPa) = 26.79198 29.10175 27.94686
#
# Velocity S-wave (km/s) = 3.61224 3.76473 3.68927
# Velocity P-wave (km/s) = 5.70935 6.03361 5.87372
#
# Compressibility (1/GPa) = 0.03204294
#
# Stress axis : x y z
#
# Youngs Moduli (GPa) = 52.51574 63.89429 87.49248
#
# Poissons Ratio (x) = -0.05928 0.37423
# Poissons Ratio (y) = -0.04872 0.32286
# Poissons Ratio (z) = 0.22463 0.23578
#
# Static dielectric constant tensor:
#      x y z
#    x 3.715120 0.000000 0.000000 
#    y 0.000000 3.437320 0.000000 
#    z 0.000000 0.000000 3.846640 
# 
# 
# High freq. dielectric constant tensor:
#      x y z
#    x 1.803150 0.000000 0.000000 
#    y 0.000000 1.790510 0.000000 
#    z 0.000000 0.000000 1.817500 
# 
# From -- ./inp_files/2924.got.cif
#   From: 2010.03.12/outbox.cif.g09.slc.cpg/sg55_2_cif.got.tgz:2924.got - 2010.04.16 15:19:21.
