data_PCOD8227381
_publ_section_title
;
Structure prediction by ZEFSAII (Michael W. Deem and Ramdas Pophale) SiO2 
 PCOD8227381
Probable space group: P B A M
;
_chemical_formula_sum "Si O2"
_cell_formula_units_Z 48
_cell_length_a 12.638394
_cell_length_b 12.738196
_cell_length_c 15.035860
_cell_angle_alpha 90.000000
_cell_angle_beta 90.000000
_cell_angle_gamma 90.000000
_cell_volume 2420.628212
_symmetry_space_group_name_H-M "P B A M"
_symmetry_group_IT_number 55
_symmetry_cell_setting 'orthorhombic'
loop_
_space_group_symop_operation_xyz
x,y,z
-x,-y,z
1/2+x,1/2-y,-z
1/2-x,1/2+y,-z
-x,-y,-z
x,y,-z
1/2-x,1/2+y,z
1/2+x,1/2-y,z
loop_
_atom_site_type_symbol
_atom_site_label
_atom_site_fract_x
_atom_site_fract_y
_atom_site_fract_z
Si Si1 0.117788 0.874099 0.000000
Si Si2 0.726699 0.767501 0.858437
Si Si3 0.869494 0.879062 0.000000
Si Si4 0.064052 0.900431 0.399073
Si Si5 0.778315 0.622960 0.297678
Si Si6 0.481461 0.824927 0.600287
Si Si7 0.401634 0.066736 0.241617
O O1 0.169810 0.823862 0.913160
O O2 0.992995 0.851004 0.000000
O O3 0.146036 0.996377 0.000000
O O4 0.815194 0.830142 0.913024
O O5 0.786119 0.714972 0.775301
O O6 0.632963 0.845492 0.828285
O O7 0.101916 0.921688 0.500000
O O8 0.162576 0.879391 0.336952
O O9 0.988646 0.800193 0.392963
O O10 0.000000 0.000000 0.361930
O O11 0.862092 0.646328 0.374840
O O12 0.802092 0.509620 0.255459
O O13 0.505566 0.863216 0.500000
O O14 0.564973 0.882275 0.664306
O O15 0.500000 0.000000 0.201621
#
# Coordination Sequence:
#
# PCOD8227381 Si02
#       7
#     4   8   4   8   8   8   8
#     4  10  24  46  67  93 123 163 192 258 324 377
#     4  11  23  43  65  96 127 159 207 257 313 380
#     4  10  24  44  69  95 125 157 204 250 319 398
#     4  10  22  38  58  91 127 169 219 262 310 361
#     4  11  23  38  64  92 126 168 212 261 314 364
#     4  10  22  41  61  88 130 173 215 258 306 366
#     4  10  23  40  62  95 124 167 215 254 308 370
#
# _framework density 19.829561999999999
#
# number of rings (size 3 to 8) (size 9 to 14) (size 15 to 20)
#    0.000    1.667    1.667    1.500    7.000    3.667 
#    3.000    0.833    0.000    0.000    0.000    0.000 
#    0.000    0.000    0.000    0.000    0.000    0.000 
#
# Total GULP energy -595381.396346 kJ/mol
# GULP energy per Si atom -12403.779091 kJ/mol
# Density = 1.978443 g / cm^3
# Si number density = 19.829562 Si / 1000 Ang^3
#
#
#
# Elastic Constant Matrix: (Units=GPa)
#
#
# Indices 1 2 3 4 5 6 
#
# 1 90.2950 44.7176 44.0800 0.0000 0.0000 0.0000
# 2 44.7176 119.6116 40.7586 0.0000 0.0000 0.0000
# 3 44.0800 40.7586 86.4817 0.0000 0.0000 0.0000
# 4 0.0000 0.0000 0.0000 29.3487 0.0000 0.0000
# 5 0.0000 0.0000 0.0000 0.0000 25.1548 0.0000
# 6 0.0000 0.0000 0.0000 0.0000 0.0000 39.1150
#
#
#
# Elastic Compliance Matrix: (Units=1/GPa)
#
#
# Indices 1 2 3 4 5 6 
#
# 1 0.016098 -0.003839 -0.006396 0.000000 0.000000 0.000000
# 2 -0.003839 0.010875 -0.003169 0.000000 0.000000 0.000000
# 3 -0.006396 -0.003169 0.016317 0.000000 0.000000 0.000000
# 4 0.000000 0.000000 0.000000 0.034073 0.000000 0.000000
# 5 0.000000 0.000000 0.000000 0.000000 0.039754 0.000000
# 6 0.000000 0.000000 0.000000 0.000000 0.000000 0.025566
#
#
# Mechanical properties :
#
#
# Convention : Reuss Voigt Hill
#
# Bulk Modulus (GPa) = 60.66952 61.72231 61.19592
# Shear Modulus (GPa) = 28.57382 29.84584 29.20983
#
# Velocity S-wave (km/s) = 3.80013 3.88379 3.84219
# Velocity P-wave (km/s) = 7.06517 7.16281 7.11415
#
# Compressibility (1/GPa) = 0.01648274
#
# Stress axis : x y z
#
# Youngs Moduli (GPa) = 62.11762 91.95046 61.28676
#
# Poissons Ratio (x) = 0.35300 0.39200
# Poissons Ratio (y) = 0.23847 0.19421
# Poissons Ratio (z) = 0.39731 0.29137
#
# Static dielectric constant tensor:
#      x y z
#    x 3.522920 0.000000 0.000000 
#    y 0.000000 3.954710 0.000000 
#    z 0.000000 0.000000 3.590000 
# 
# 
# High freq. dielectric constant tensor:
#      x y z
#    x 1.771270 0.000000 0.000000 
#    y 0.000000 1.794190 0.000000 
#    z 0.000000 0.000000 1.771380 
# 
# From -- ./inp_files/18318.got.cif
#   From: 2010.03.12/outbox.cif.g09.slc.cpg/sg55_10_cif.got.tgz:18318.got - 2010.04.16 15:19:21.
