data_PCOD8227821
_publ_section_title
;
Structure prediction by ZEFSAII (Michael W. Deem and Ramdas Pophale) SiO2 
 PCOD8227821
Probable space group: P B A M
;
_chemical_formula_sum "Si O2"
_cell_formula_units_Z 48
_cell_length_a 29.914937
_cell_length_b 9.905427
_cell_length_c 9.637249
_cell_angle_alpha 90.000000
_cell_angle_beta 90.000000
_cell_angle_gamma 90.000000
_cell_volume 2855.711789
_symmetry_space_group_name_H-M "P B A M"
_symmetry_group_IT_number 55
_symmetry_cell_setting 'orthorhombic'
loop_
_space_group_symop_operation_xyz
x,y,z
-x,-y,z
1/2+x,1/2-y,-z
1/2-x,1/2+y,-z
-x,-y,-z
x,y,-z
1/2-x,1/2+y,z
1/2+x,1/2-y,z
loop_
_atom_site_type_symbol
_atom_site_label
_atom_site_fract_x
_atom_site_fract_y
_atom_site_fract_z
Si Si1 0.209355 0.338377 0.165152
Si Si2 0.047597 0.165926 0.339677
Si Si3 0.882688 0.332490 0.839031
Si Si4 0.555563 0.641156 0.339673
Si Si5 0.890809 0.645546 0.161330
Si Si6 0.282609 0.136040 0.164739
O O1 0.158516 0.304817 0.208555
O O2 0.243517 0.229087 0.229202
O O3 0.223459 0.484975 0.223948
O O4 0.212280 0.341605 0.000000
O O5 0.057267 0.197246 0.500000
O O6 0.072697 0.274953 0.247792
O O7 0.995319 0.180186 0.307143
O O8 0.064071 0.015382 0.302259
O O9 0.912807 0.232681 0.751931
O O10 0.896248 0.486774 0.808819
O O11 0.831304 0.307219 0.794242
O O12 0.889573 0.298383 0.000000
O O13 0.566546 0.667635 0.500000
O O14 0.898547 0.676685 0.000000
O O15 0.278750 0.132478 0.000000
#
# Coordination Sequence:
#
# PCOD8227821 Si02
#       6
#     8   8   8   8   8   8
#     4   8  14  25  41  63  92 122 150 182 221 266
#     4   9  19  35  51  67  90 121 157 195 233 275
#     4   9  18  31  47  71 100 124 150 189 233 274
#     4   9  19  35  51  67  90 121 157 195 233 275
#     4   9  18  31  47  71 100 124 150 189 233 274
#     4   8  14  25  41  63  92 122 150 182 221 266
#
# _framework density 16.808418
#
# number of rings (size 3 to 8) (size 9 to 14) (size 15 to 20)
#    0.000    3.333    0.000    3.000    0.000    4.000 
#    0.000    8.333    0.000    1.000    0.000    0.000 
#    0.000    0.000    0.000    0.000    0.000    0.000 
#
# Total GULP energy -594983.124879 kJ/mol
# GULP energy per Si atom -12395.481768 kJ/mol
# Density = 1.677016 g / cm^3
# Si number density = 16.808418 Si / 1000 Ang^3
#
#
#
# Elastic Constant Matrix: (Units=GPa)
#
#
# Indices 1 2 3 4 5 6 
#
# 1 24.5809 -1.9493 1.1244 0.0000 0.0000 0.0000
# 2 -1.9493 21.0089 2.5167 0.0000 0.0000 0.0000
# 3 1.1244 2.5167 19.6084 0.0000 0.0000 0.0000
# 4 0.0000 0.0000 0.0000 28.0484 0.0000 0.0000
# 5 0.0000 0.0000 0.0000 0.0000 -10.8312 0.0000
# 6 0.0000 0.0000 0.0000 0.0000 0.0000 41.1403
#
#
#
# Elastic Compliance Matrix: (Units=1/GPa)
#
#
# Indices 1 2 3 4 5 6 
#
# 1 0.041145 0.004164 -0.002894 0.000000 0.000000 0.000000
# 2 0.004164 0.048764 -0.006497 0.000000 0.000000 0.000000
# 3 -0.002894 -0.006497 0.051998 0.000000 0.000000 0.000000
# 4 0.000000 0.000000 0.000000 0.035653 0.000000 0.000000
# 5 0.000000 0.000000 0.000000 0.000000 -0.092326 0.000000
# 6 0.000000 0.000000 0.000000 0.000000 0.000000 0.024307
#
#
# Mechanical properties :
#
#
# Convention : Reuss Voigt Hill
#
# Bulk Modulus (GPa) = 7.60732 7.62021 7.61377
# Shear Modulus (GPa) = 30.52285 15.90526 23.21406
#
# Velocity S-wave (km/s) = 4.26599 3.07948 3.72034
# Velocity P-wave (km/s) = 5.36662 4.14581 4.79522
#
# Compressibility (1/GPa) = 0.13145226
#
# Stress axis : x y z
#
# Youngs Moduli (GPa) = 24.30456 20.50712 19.23135
#
# Poissons Ratio (x) = -0.08539 0.05565
# Poissons Ratio (y) = -0.10121 0.12496
# Poissons Ratio (z) = 0.07033 0.13324
#
# Static dielectric constant tensor:
#      x y z
#    x 3.236360 0.000000 0.000000 
#    y 0.000000 3.314830 0.000000 
#    z 0.000000 0.000000 2.753680 
# 
# 
# High freq. dielectric constant tensor:
#      x y z
#    x 1.654090 0.000000 0.000000 
#    y 0.000000 1.652970 0.000000 
#    z 0.000000 0.000000 1.608830 
# 
# From -- ./inp_files/2755.got.cif
#   From: 2010.03.12/outbox.cif.g09.slc.cpg/sg55_2_cif.got.tgz:2755.got - 2010.04.16 15:19:21.
