data_PCOD8227363
_publ_section_title
;
Structure prediction by ZEFSAII (Michael W. Deem and Ramdas Pophale) SiO2 
 PCOD8227363
Probable space group: P B A M
;
_chemical_formula_sum "Si O2"
_cell_formula_units_Z 48
_cell_length_a 16.982148
_cell_length_b 16.320211
_cell_length_c 9.247554
_cell_angle_alpha 90.000000
_cell_angle_beta 90.000000
_cell_angle_gamma 90.000000
_cell_volume 2562.980293
_symmetry_space_group_name_H-M "P B A M"
_symmetry_group_IT_number 55
_symmetry_cell_setting 'orthorhombic'
loop_
_space_group_symop_operation_xyz
x,y,z
-x,-y,z
1/2+x,1/2-y,-z
1/2-x,1/2+y,-z
-x,-y,-z
x,y,-z
1/2-x,1/2+y,z
1/2+x,1/2-y,z
loop_
_atom_site_type_symbol
_atom_site_label
_atom_site_fract_x
_atom_site_fract_y
_atom_site_fract_z
Si Si1 0.909371 0.989269 0.667344
Si Si2 0.161013 0.674597 0.332043
Si Si3 0.301941 0.358667 0.666680
Si Si4 0.350456 0.830948 0.168128
Si Si5 0.503137 0.095819 0.667849
Si Si6 0.686203 0.356272 0.831895
O O1 0.897515 0.965645 0.500000
O O2 0.866142 0.073662 0.706458
O O3 0.877317 0.916788 0.765299
O O4 0.000000 0.000000 0.706646
O O5 0.177333 0.657367 0.500000
O O6 0.159235 0.771141 0.296609
O O7 0.229583 0.629689 0.243282
O O8 0.078725 0.636128 0.282812
O O9 0.276266 0.363168 0.500000
O O10 0.224394 0.375733 0.760798
O O11 0.429699 0.863484 0.237754
O O12 0.345411 0.734514 0.198054
O O13 0.350474 0.852311 0.000000
O O14 0.520439 0.113710 0.500000
O O15 0.500000 0.000000 0.700410
O O16 0.696443 0.374788 0.000000
#
# Coordination Sequence:
#
# PCOD8227363 Si02
#       6
#     8   8   8   8   8   8
#     4  10  22  37  59  88 115 145 189 238 282 332
#     4   9  19  37  60  83 111 149 190 234 284 334
#     4   9  19  37  59  83 110 147 191 234 282 334
#     4  10  22  39  58  83 114 152 191 228 279 340
#     4  10  22  37  58  88 117 146 187 238 286 333
#     4  10  22  39  58  83 116 153 189 228 282 340
#
# _framework density 18.728197000000002
#
# number of rings (size 3 to 8) (size 9 to 14) (size 15 to 20)
#    0.000    2.333    0.000    1.000    4.667    4.000 
#    0.000    0.000    0.000    0.000    0.000    0.000 
#    0.000    0.000    0.000    0.000    0.000    0.000 
#
# Total GULP energy -595444.031816 kJ/mol
# GULP energy per Si atom -12405.083996 kJ/mol
# Density = 1.868557 g / cm^3
# Si number density = 18.728197 Si / 1000 Ang^3
#
#
#
# Elastic Constant Matrix: (Units=GPa)
#
#
# Indices 1 2 3 4 5 6 
#
# 1 182.8788 78.4259 89.6973 0.0000 0.0000 0.0000
# 2 78.4259 80.3467 57.8384 0.0000 0.0000 0.0000
# 3 89.6973 57.8384 95.1597 0.0000 0.0000 0.0000
# 4 0.0000 0.0000 0.0000 28.1558 0.0000 0.0000
# 5 0.0000 0.0000 0.0000 0.0000 7.6082 0.0000
# 6 0.0000 0.0000 0.0000 0.0000 0.0000 33.3477
#
#
#
# Elastic Compliance Matrix: (Units=1/GPa)
#
#
# Indices 1 2 3 4 5 6 
#
# 1 0.011671 -0.006174 -0.007248 0.000000 0.000000 0.000000
# 2 -0.006174 0.025394 -0.009615 0.000000 0.000000 0.000000
# 3 -0.007248 -0.009615 0.023185 0.000000 0.000000 0.000000
# 4 0.000000 0.000000 0.000000 0.035517 0.000000 0.000000
# 5 0.000000 0.000000 0.000000 0.000000 0.131437 0.000000
# 6 0.000000 0.000000 0.000000 0.000000 0.000000 0.029987
#
#
# Mechanical properties :
#
#
# Convention : Reuss Voigt Hill
#
# Bulk Modulus (GPa) = 70.54598 90.03428 80.29013
# Shear Modulus (GPa) = 16.23429 22.65057 19.44243
#
# Velocity S-wave (km/s) = 2.94740 3.48147 3.22551
# Velocity P-wave (km/s) = 7.02375 8.02118 7.53898
#
# Compressibility (1/GPa) = 0.01417515
#
# Stress axis : x y z
#
# Youngs Moduli (GPa) = 85.68267 39.37957 43.13173
#
# Poissons Ratio (x) = 0.24314 0.31263
# Poissons Ratio (y) = 0.52902 0.41470
# Poissons Ratio (z) = 0.62106 0.37862
#
# Static dielectric constant tensor:
#      x y z
#    x 3.489200 0.000000 0.000000 
#    y 0.000000 3.541910 0.000000 
#    z 0.000000 0.000000 3.426210 
# 
# 
# High freq. dielectric constant tensor:
#      x y z
#    x 1.735500 0.000000 0.000000 
#    y 0.000000 1.732170 0.000000 
#    z 0.000000 0.000000 1.723950 
# 
# From -- ./inp_files/5606.got.cif
#   From: 2010.03.12/outbox.cif.g09.slc.cpg/sg55_3_cif.got.tgz:5606.got - 2010.04.16 15:19:21.
