data_PCOD8227620
_publ_section_title
;
Structure prediction by ZEFSAII (Michael W. Deem and Ramdas Pophale) SiO2 
 PCOD8227620
Probable space group: P B A M
;
_chemical_formula_sum "Si O2"
_cell_formula_units_Z 40
_cell_length_a 10.022346
_cell_length_b 10.061821
_cell_length_c 17.197903
_cell_angle_alpha 90.000000
_cell_angle_beta 90.000000
_cell_angle_gamma 90.000000
_cell_volume 1734.289017
_symmetry_space_group_name_H-M "P B A M"
_symmetry_group_IT_number 55
_symmetry_cell_setting 'orthorhombic'
loop_
_space_group_symop_operation_xyz
x,y,z
-x,-y,z
1/2+x,1/2-y,-z
1/2-x,1/2+y,-z
-x,-y,-z
x,y,-z
1/2-x,1/2+y,z
1/2+x,1/2-y,z
loop_
_atom_site_type_symbol
_atom_site_label
_atom_site_fract_x
_atom_site_fract_y
_atom_site_fract_z
Si Si1 0.156855 0.502911 0.910545
Si Si2 0.767904 0.747733 0.179312
Si Si3 0.864842 0.821108 0.410911
Si Si4 0.145263 0.479817 0.588786
Si Si5 0.981795 0.150319 0.734777
O O1 0.223752 0.615611 0.858954
O O2 0.221727 0.362527 0.887716
O O3 0.000000 0.500000 0.895295
O O4 0.190656 0.531049 0.000000
O O5 0.664381 0.702838 0.245498
O O6 0.909510 0.759625 0.221413
O O7 0.903616 0.855891 0.500000
O O8 0.755776 0.922865 0.373728
O O9 0.807277 0.671960 0.405001
O O10 0.997331 0.836997 0.358639
O O11 0.131402 0.528452 0.500000
O O12 0.000000 0.500000 0.629538
O O13 0.000000 0.000000 0.763447
#
# Coordination Sequence:
#
# PCOD8227620 Si02
#       5
#     8   8   8   8   8
#     4  11  24  46  78 112 147 186 231 289 354 426
#     4  12  25  49  70 110 148 187 237 289 354 437
#     4  10  24  44  68 100 136 186 251 306 364 427
#     4   9  20  40  65  94 131 171 233 312 368 423
#     4  12  28  45  72 104 146 195 237 298 368 420
#
# _framework density 23.064205000000001
#
# number of rings (size 3 to 8) (size 9 to 14) (size 15 to 20)
#    0.000    1.200    4.000    0.600    5.600    0.400 
#    0.000    1.000    0.000    0.000    0.000    0.000 
#    0.000    0.000    0.000    0.000    0.000    0.000 
#
# Total GULP energy -496191.268114 kJ/mol
# GULP energy per Si atom -12404.781703 kJ/mol
# Density = 2.301171 g / cm^3
# Si number density = 23.064205 Si / 1000 Ang^3
#
#
#
# Elastic Constant Matrix: (Units=GPa)
#
#
# Indices 1 2 3 4 5 6 
#
# 1 79.1199 18.4065 25.7783 0.0000 0.0000 0.0000
# 2 18.4065 112.8931 14.9208 0.0000 0.0000 0.0000
# 3 25.7783 14.9208 88.5075 0.0000 0.0000 0.0000
# 4 0.0000 0.0000 0.0000 13.4943 0.0000 0.0000
# 5 0.0000 0.0000 0.0000 0.0000 31.1864 0.0000
# 6 0.0000 0.0000 0.0000 0.0000 0.0000 35.8779
#
#
#
# Elastic Compliance Matrix: (Units=1/GPa)
#
#
# Indices 1 2 3 4 5 6 
#
# 1 0.014322 -0.001824 -0.003864 0.000000 0.000000 0.000000
# 2 -0.001824 0.009292 -0.001035 0.000000 0.000000 0.000000
# 3 -0.003864 -0.001035 0.012598 0.000000 0.000000 0.000000
# 4 0.000000 0.000000 0.000000 0.074105 0.000000 0.000000
# 5 0.000000 0.000000 0.000000 0.000000 0.032065 0.000000
# 6 0.000000 0.000000 0.000000 0.000000 0.000000 0.027872
#
#
# Mechanical properties :
#
#
# Convention : Reuss Voigt Hill
#
# Bulk Modulus (GPa) = 43.92520 44.30352 44.11436
# Shear Modulus (GPa) = 26.13809 30.87270 28.50540
#
# Velocity S-wave (km/s) = 3.37007 3.66260 3.51937
# Velocity P-wave (km/s) = 5.85058 6.09398 5.97352
#
# Compressibility (1/GPa) = 0.02276597
#
# Stress axis : x y z
#
# Youngs Moduli (GPa) = 69.82068 107.61696 79.37540
#
# Poissons Ratio (x) = 0.19635 0.30670
# Poissons Ratio (y) = 0.12739 0.08216
# Poissons Ratio (z) = 0.26978 0.11140
#
# Static dielectric constant tensor:
#      x y z
#    x 4.189230 0.000000 0.000000 
#    y 0.000000 4.289260 0.000000 
#    z 0.000000 0.000000 3.988000 
# 
# 
# High freq. dielectric constant tensor:
#      x y z
#    x 1.910810 0.000000 0.000000 
#    y 0.000000 1.929470 0.000000 
#    z 0.000000 0.000000 1.896610 
# 
# From -- ./inp_files/20618.got.cif
#   From: 2010.03.12/outbox.cif.g09.slc.cpg/sg55_11_cif.got.tgz:20618.got - 2010.04.16 15:19:21.
