data_PCOD8227611
_publ_section_title
;
Structure prediction by ZEFSAII (Michael W. Deem and Ramdas Pophale) SiO2 
 PCOD8227611
Probable space group: P B A M
;
_chemical_formula_sum "Si O2"
_cell_formula_units_Z 32
_cell_length_a 8.905817
_cell_length_b 14.725334
_cell_length_c 11.037555
_cell_angle_alpha 90.000000
_cell_angle_beta 90.000000
_cell_angle_gamma 90.000000
_cell_volume 1447.477434
_symmetry_space_group_name_H-M "P B A M"
_symmetry_group_IT_number 55
_symmetry_cell_setting 'orthorhombic'
loop_
_space_group_symop_operation_xyz
x,y,z
-x,-y,z
1/2+x,1/2-y,-z
1/2-x,1/2+y,-z
-x,-y,-z
x,y,-z
1/2-x,1/2+y,z
1/2+x,1/2-y,z
loop_
_atom_site_type_symbol
_atom_site_label
_atom_site_fract_x
_atom_site_fract_y
_atom_site_fract_z
Si Si1 0.528124 0.705949 0.139590
Si Si2 0.887360 0.311292 0.500000
Si Si3 0.773019 0.354168 0.758506
Si Si4 0.726660 0.129172 0.500000
Si Si5 0.339186 0.459832 0.265387
O O1 0.599473 0.804641 0.163122
O O2 0.381433 0.700847 0.222871
O O3 0.643729 0.625324 0.174759
O O4 0.482775 0.695999 0.000000
O O5 0.811413 0.355936 0.616889
O O6 0.858747 0.203594 0.500000
O O7 0.065015 0.324216 0.500000
O O8 0.752261 0.458754 0.801758
O O9 0.743508 0.067843 0.618182
O O10 0.500000 0.500000 0.306140
#
# Coordination Sequence:
#
# PCOD8227611 Si02
#       5
#     8   4   8   4   8
#     4  11  24  44  68  97 133 180 231 277 332 404
#     4  12  25  41  73  98 137 178 217 283 342 399
#     4  11  24  44  67  97 134 176 223 280 342 398
#     4  12  24  43  68 105 143 175 223 276 341 412
#     4  10  24  41  69  99 137 180 222 271 343 408
#
# _framework density 22.107426
#
# number of rings (size 3 to 8) (size 9 to 14) (size 15 to 20)
#    0.000    1.000    2.500    3.375    3.500    7.500 
#    0.000    0.000    0.000    3.000    0.000    0.000 
#    0.000    0.000    0.000    0.000    0.000    0.000 
#
# Total GULP energy -396893.036849 kJ/mol
# GULP energy per Si atom -12402.907402 kJ/mol
# Density = 2.205711 g / cm^3
# Si number density = 22.107426 Si / 1000 Ang^3
#
#
#
# Elastic Constant Matrix: (Units=GPa)
#
#
# Indices 1 2 3 4 5 6 
#
# 1 112.6018 53.7920 41.4962 0.0000 0.0000 0.0000
# 2 53.7920 91.2004 22.7892 0.0000 0.0000 0.0000
# 3 41.4962 22.7892 108.9792 0.0000 0.0000 0.0000
# 4 0.0000 0.0000 0.0000 17.1188 0.0000 0.0000
# 5 0.0000 0.0000 0.0000 0.0000 7.3292 0.0000
# 6 0.0000 0.0000 0.0000 0.0000 0.0000 37.5371
#
#
#
# Elastic Compliance Matrix: (Units=1/GPa)
#
#
# Indices 1 2 3 4 5 6 
#
# 1 0.013651 -0.007125 -0.003708 0.000000 0.000000 0.000000
# 2 -0.007125 0.015288 -0.000484 0.000000 0.000000 0.000000
# 3 -0.003708 -0.000484 0.010689 0.000000 0.000000 0.000000
# 4 0.000000 0.000000 0.000000 0.058415 0.000000 0.000000
# 5 0.000000 0.000000 0.000000 0.000000 0.136440 0.000000
# 6 0.000000 0.000000 0.000000 0.000000 0.000000 0.026640
#
#
# Mechanical properties :
#
#
# Convention : Reuss Voigt Hill
#
# Bulk Modulus (GPa) = 58.84283 60.99290 59.91787
# Shear Modulus (GPa) = 17.27574 25.37730 21.32652
#
# Velocity S-wave (km/s) = 2.79847 3.39176 3.10929
# Velocity P-wave (km/s) = 6.09233 6.55652 6.32868
#
# Compressibility (1/GPa) = 0.01699442
#
# Stress axis : x y z
#
# Youngs Moduli (GPa) = 73.25387 65.40914 93.55265
#
# Poissons Ratio (x) = 0.46605 0.34689
# Poissons Ratio (y) = 0.52195 0.04528
# Poissons Ratio (z) = 0.27162 0.03166
#
# Static dielectric constant tensor:
#      x y z
#    x 3.953650 0.000000 0.000000 
#    y 0.000000 4.253360 0.000000 
#    z 0.000000 0.000000 3.828600 
# 
# 
# High freq. dielectric constant tensor:
#      x y z
#    x 1.867020 0.000000 0.000000 
#    y 0.000000 1.884410 0.000000 
#    z 0.000000 0.000000 1.855480 
# 
# From -- ./inp_files/11650.got.cif
#   From: 2010.03.12/outbox.cif.g09.slc.cpg/sg55_6_cif.got.tgz:11650.got - 2010.04.16 15:19:21.
