data_PCOD8227398
_publ_section_title
;
Structure prediction by ZEFSAII (Michael W. Deem and Ramdas Pophale) SiO2 
 PCOD8227398
Probable space group: P B A M
;
_chemical_formula_sum "Si O2"
_cell_formula_units_Z 40
_cell_length_a 10.295475
_cell_length_b 20.923242
_cell_length_c 8.846422
_cell_angle_alpha 90.000000
_cell_angle_beta 90.000000
_cell_angle_gamma 90.000000
_cell_volume 1905.649473
_symmetry_space_group_name_H-M "P B A M"
_symmetry_group_IT_number 55
_symmetry_cell_setting 'orthorhombic'
loop_
_space_group_symop_operation_xyz
x,y,z
-x,-y,z
1/2+x,1/2-y,-z
1/2-x,1/2+y,-z
-x,-y,-z
x,y,-z
1/2-x,1/2+y,z
1/2+x,1/2-y,z
loop_
_atom_site_type_symbol
_atom_site_label
_atom_site_fract_x
_atom_site_fract_y
_atom_site_fract_z
Si Si1 0.319162 0.547061 0.678834
Si Si2 0.296381 0.277273 0.319483
Si Si3 0.941225 0.434668 0.174786
Si Si4 0.971169 0.702514 0.823439
Si Si5 0.404302 0.411052 0.679186
O O1 0.309979 0.549806 0.500000
O O2 0.194982 0.581674 0.747211
O O3 0.325739 0.473337 0.735962
O O4 0.446784 0.584792 0.735963
O O5 0.296162 0.271766 0.500000
O O6 0.395519 0.226379 0.251022
O O7 0.338955 0.346988 0.258308
O O8 0.151320 0.264321 0.258161
O O9 0.035679 0.374271 0.201888
O O10 0.000000 0.500000 0.246020
O O11 0.912612 0.445789 0.000000
O O12 0.969909 0.720011 0.000000
O O13 0.403927 0.410446 0.500000
#
# Coordination Sequence:
#
# PCOD8227398 Si02
#       5
#     8   8   8   8   8
#     4   9  17  33  59  88 117 150 193 243 301 356
#     4  11  23  41  64  90 121 161 210 255 299 362
#     4  10  22  39  58  83 119 157 200 249 300 359
#     4  11  25  43  62  89 126 166 204 251 312 367
#     4   8  17  34  57  87 120 151 189 247 303 351
#
# _framework density 20.990217999999999
#
# number of rings (size 3 to 8) (size 9 to 14) (size 15 to 20)
#    0.000    2.200    0.000    3.600    2.800    2.000 
#    0.000    4.000    0.000    0.000    0.000    0.000 
#    0.000    0.000    0.000    0.000    0.000    0.000 
#
# Total GULP energy -495985.169620 kJ/mol
# GULP energy per Si atom -12399.629240 kJ/mol
# Density = 2.094244 g / cm^3
# Si number density = 20.990218 Si / 1000 Ang^3
#
#
#
# Elastic Constant Matrix: (Units=GPa)
#
#
# Indices 1 2 3 4 5 6 
#
# 1 130.1501 33.0398 42.0619 0.0000 0.0000 0.0000
# 2 33.0398 75.7428 32.7920 0.0000 0.0000 0.0000
# 3 42.0619 32.7920 71.6451 0.0000 0.0000 0.0000
# 4 0.0000 0.0000 0.0000 23.8129 0.0000 0.0000
# 5 0.0000 0.0000 0.0000 0.0000 -5.8684 0.0000
# 6 0.0000 0.0000 0.0000 0.0000 0.0000 33.3774
#
#
#
# Elastic Compliance Matrix: (Units=1/GPa)
#
#
# Indices 1 2 3 4 5 6 
#
# 1 0.009773 -0.002219 -0.004722 0.000000 0.000000 0.000000
# 2 -0.002219 0.016969 -0.006464 0.000000 0.000000 0.000000
# 3 -0.004722 -0.006464 0.019689 0.000000 0.000000 0.000000
# 4 0.000000 0.000000 0.000000 0.041994 0.000000 0.000000
# 5 0.000000 0.000000 0.000000 0.000000 -0.170404 0.000000
# 6 0.000000 0.000000 0.000000 0.000000 0.000000 0.029960
#
#
# Mechanical properties :
#
#
# Convention : Reuss Voigt Hill
#
# Bulk Modulus (GPa) = 50.96662 54.81392 52.89027
# Shear Modulus (GPa) = -267.81389 21.57399 -123.11995
#
# Velocity S-wave (km/s) = -11.30782 3.20943 -7.66702
# Velocity P-wave (km/s) = 12.08947 6.31701 7.28871
#
# Compressibility (1/GPa) = 0.01962068
#
# Stress axis : x y z
#
# Youngs Moduli (GPa) = 102.32586 58.93119 50.79098
#
# Poissons Ratio (x) = 0.13075 0.23983
# Poissons Ratio (y) = 0.22702 0.32832
# Poissons Ratio (z) = 0.48318 0.38094
#
# Static dielectric constant tensor:
#      x y z
#    x 3.838830 0.000000 0.000000 
#    y 0.000000 4.061540 0.000000 
#    z 0.000000 0.000000 3.444730 
# 
# 
# High freq. dielectric constant tensor:
#      x y z
#    x 1.830190 0.000000 0.000000 
#    y 0.000000 1.826780 0.000000 
#    z 0.000000 0.000000 1.796100 
# 
# From -- ./inp_files/2337.got.cif
#   From: 2010.03.12/outbox.cif.g09.slc.cpg/sg55_2_cif.got.tgz:2337.got - 2010.04.16 15:19:21.
