data_PCOD8227352
_publ_section_title
;
Structure prediction by ZEFSAII (Michael W. Deem and Ramdas Pophale) SiO2 
 PCOD8227352
Probable space group: P B A M
;
_chemical_formula_sum "Si O2"
_cell_formula_units_Z 64
_cell_length_a 16.739460
_cell_length_b 21.853041
_cell_length_c 8.961077
_cell_angle_alpha 90.000000
_cell_angle_beta 90.000000
_cell_angle_gamma 90.000000
_cell_volume 3278.034602
_symmetry_space_group_name_H-M "P B A M"
_symmetry_group_IT_number 55
_symmetry_cell_setting 'orthorhombic'
loop_
_space_group_symop_operation_xyz
x,y,z
-x,-y,z
1/2+x,1/2-y,-z
1/2-x,1/2+y,-z
-x,-y,-z
x,y,-z
1/2-x,1/2+y,z
1/2+x,1/2-y,z
loop_
_atom_site_type_symbol
_atom_site_label
_atom_site_fract_x
_atom_site_fract_y
_atom_site_fract_z
Si Si1 0.455617 0.185859 0.323652
Si Si2 0.910199 0.178135 0.323245
Si Si3 0.812574 0.969891 0.822797
Si Si4 0.774120 0.105364 0.176711
Si Si5 0.818402 0.778462 0.834882
Si Si6 0.947785 0.882736 0.830533
Si Si7 0.634276 0.163042 0.325875
Si Si8 0.314706 0.125047 0.171577
O O1 0.452379 0.186149 0.500000
O O2 0.434469 0.254170 0.265248
O O3 0.543281 0.165717 0.267925
O O4 0.395862 0.134298 0.262852
O O5 0.900740 0.176140 0.500000
O O6 0.826617 0.159414 0.248276
O O7 0.976157 0.128373 0.273776
O O8 0.896699 0.940674 0.768061
O O9 0.735901 0.932025 0.761423
O O10 0.807557 0.039686 0.769870
O O11 0.810579 0.961868 0.000000
O O12 0.683207 0.111408 0.235543
O O13 0.776128 0.110875 0.000000
O O14 0.892304 0.823809 0.824085
O O15 0.825154 0.728362 0.706408
O O16 0.736170 0.813517 0.808517
O O17 0.817800 0.747681 0.000000
O O18 0.977678 0.894818 0.000000
O O19 0.639588 0.148504 0.500000
O O20 0.337202 0.113311 0.000000
#
# Coordination Sequence:
#
# PCOD8227352 Si02
#       8
#     8   8   8   8   8   8   8   8
#     4  10  22  37  53  79 114 147 176 217 276 334
#     4  11  22  37  55  83 120 150 180 221 276 334
#     4   8  18  38  59  80 110 144 185 232 277 321
#     4  11  23  39  58  80 107 146 189 230 276 325
#     4   9  17  31  54  83 109 136 178 223 270 325
#     4   9  17  33  58  84 110 145 184 225 269 321
#     4  11  22  37  54  76 111 148 181 222 279 332
#     4   9  18  34  58  83 105 136 180 230 272 319
#
# _framework density 19.523893999999999
#
# number of rings (size 3 to 8) (size 9 to 14) (size 15 to 20)
#    0.000    2.250    1.250    3.375    0.000    5.000 
#    0.000    7.500    0.000    3.750    0.000    0.000 
#    0.000    0.000    0.000    0.000    0.000    0.000 
#
# Total GULP energy -793551.999492 kJ/mol
# GULP energy per Si atom -12399.249992 kJ/mol
# Density = 1.947946 g / cm^3
# Si number density = 19.523894 Si / 1000 Ang^3
#
#
#
# Elastic Constant Matrix: (Units=GPa)
#
#
# Indices 1 2 3 4 5 6 
#
# 1 114.6384 24.8583 31.0864 0.0000 0.0000 0.0000
# 2 24.8583 47.4956 14.9779 0.0000 0.0000 0.0000
# 3 31.0864 14.9779 44.7801 0.0000 0.0000 0.0000
# 4 0.0000 0.0000 0.0000 16.1707 0.0000 0.0000
# 5 0.0000 0.0000 0.0000 0.0000 32.3981 0.0000
# 6 0.0000 0.0000 0.0000 0.0000 0.0000 22.1949
#
#
#
# Elastic Compliance Matrix: (Units=1/GPa)
#
#
# Indices 1 2 3 4 5 6 
#
# 1 0.011346 -0.003862 -0.006585 0.000000 0.000000 0.000000
# 2 -0.003862 0.024852 -0.005631 0.000000 0.000000 0.000000
# 3 -0.006585 -0.005631 0.028786 0.000000 0.000000 0.000000
# 4 0.000000 0.000000 0.000000 0.061840 0.000000 0.000000
# 5 0.000000 0.000000 0.000000 0.000000 0.030866 0.000000
# 6 0.000000 0.000000 0.000000 0.000000 0.000000 0.045055
#
#
# Mechanical properties :
#
#
# Convention : Reuss Voigt Hill
#
# Bulk Modulus (GPa) = 30.46196 38.75103 34.60650
# Shear Modulus (GPa) = 20.33808 23.21883 21.77845
#
# Velocity S-wave (km/s) = 3.23104 3.45229 3.34350
# Velocity P-wave (km/s) = 5.43652 5.98182 5.71568
#
# Compressibility (1/GPa) = 0.03282783
#
# Stress axis : x y z
#
# Youngs Moduli (GPa) = 88.13620 40.23874 34.73902
#
# Poissons Ratio (x) = 0.15539 0.22875
# Poissons Ratio (y) = 0.34036 0.19563
# Poissons Ratio (z) = 0.58036 0.22660
#
# Static dielectric constant tensor:
#      x y z
#    x 3.712830 0.000000 0.000000 
#    y 0.000000 3.550360 0.000000 
#    z 0.000000 0.000000 3.307250 
# 
# 
# High freq. dielectric constant tensor:
#      x y z
#    x 1.769650 0.000000 0.000000 
#    y 0.000000 1.744550 0.000000 
#    z 0.000000 0.000000 1.739140 
# 
# From -- ./inp_files/8000.got.cif
#   From: 2010.03.12/outbox.cif.g09.slc.cpg/sg55_4_cif.got.tgz:8000.got - 2010.04.16 15:19:21.
