data_PCOD8227256
_publ_section_title
;
Structure prediction by ZEFSAII (Michael W. Deem and Ramdas Pophale) SiO2 
 PCOD8227256
Probable space group: P B A M
;
_chemical_formula_sum "Si O2"
_cell_formula_units_Z 64
_cell_length_a 30.386090
_cell_length_b 11.923757
_cell_length_c 8.901123
_cell_angle_alpha 90.000000
_cell_angle_beta 90.000000
_cell_angle_gamma 90.000000
_cell_volume 3225.022426
_symmetry_space_group_name_H-M "P B A M"
_symmetry_group_IT_number 55
_symmetry_cell_setting 'orthorhombic'
loop_
_space_group_symop_operation_xyz
x,y,z
-x,-y,z
1/2+x,1/2-y,-z
1/2-x,1/2+y,-z
-x,-y,-z
x,y,-z
1/2-x,1/2+y,z
1/2+x,1/2-y,z
loop_
_atom_site_type_symbol
_atom_site_label
_atom_site_fract_x
_atom_site_fract_y
_atom_site_fract_z
Si Si1 0.049125 0.010168 0.678211
Si Si2 0.048211 0.452048 0.828873
Si Si3 0.199109 0.005684 0.175726
Si Si4 0.872742 0.147532 0.323340
Si Si5 0.081280 0.249143 0.322645
Si Si6 0.376165 0.091696 0.323879
Si Si7 0.328765 0.754831 0.175122
Si Si8 0.289095 0.955910 0.676994
O O1 0.045665 0.012513 0.500000
O O2 0.081180 0.909319 0.730450
O O3 0.068961 0.126606 0.738288
O O4 0.000000 0.000000 0.747270
O O5 0.045233 0.338835 0.729787
O O6 0.083183 0.540235 0.765068
O O7 0.000000 0.500000 0.817042
O O8 0.061014 0.423851 0.000000
O O9 0.168364 0.908144 0.239986
O O10 0.245831 0.011881 0.256240
O O11 0.177167 0.124677 0.211308
O O12 0.205894 0.985240 0.000000
O O13 0.866006 0.128373 0.500000
O O14 0.873501 0.277610 0.280288
O O15 0.087145 0.250250 0.500000
O O16 0.125469 0.293681 0.246059
O O17 0.385021 0.075451 0.500000
O O18 0.330671 0.032315 0.275990
O O19 0.291931 0.830865 0.254494
O O20 0.327834 0.780683 0.000000
O O21 0.284286 0.946412 0.500000
#
# Coordination Sequence:
#
# PCOD8227256 Si02
#       8
#     8   8   8   8   8   8   8   8
#     4   9  19  35  59  92 124 157 199 252 309 357
#     4  11  25  42  61  88 125 166 205 249 307 368
#     4  11  25  42  62  91 126 163 203 246 305 370
#     4  10  21  40  63  89 125 161 203 254 301 359
#     4  11  21  37  65  93 120 157 207 259 305 356
#     4  10  23  41  63  92 121 158 205 254 305 359
#     4  11  23  41  64  90 125 162 201 250 305 366
#     4  11  24  41  63  92 123 157 208 257 302 358
#
# _framework density 19.844823999999999
#
# number of rings (size 3 to 8) (size 9 to 14) (size 15 to 20)
#    0.000    1.500    2.500    1.875    3.500    3.500 
#    0.000    0.000    0.000    1.875    0.000    0.000 
#    0.000    0.000    0.000    0.000    0.000    0.000 
#
# Total GULP energy -793809.212527 kJ/mol
# GULP energy per Si atom -12403.268946 kJ/mol
# Density = 1.979966 g / cm^3
# Si number density = 19.844824 Si / 1000 Ang^3
#
#
#
# Elastic Constant Matrix: (Units=GPa)
#
#
# Indices 1 2 3 4 5 6 
#
# 1 121.3093 42.8194 50.9639 0.0000 0.0000 0.0000
# 2 42.8194 122.9188 49.8002 0.0000 0.0000 0.0000
# 3 50.9639 49.8002 66.6523 0.0000 0.0000 0.0000
# 4 0.0000 0.0000 0.0000 27.8227 0.0000 0.0000
# 5 0.0000 0.0000 0.0000 0.0000 28.4394 0.0000
# 6 0.0000 0.0000 0.0000 0.0000 0.0000 22.9311
#
#
#
# Elastic Compliance Matrix: (Units=1/GPa)
#
#
# Indices 1 2 3 4 5 6 
#
# 1 0.012183 -0.000674 -0.008812 0.000000 0.000000 0.000000
# 2 -0.000674 0.011705 -0.008230 0.000000 0.000000 0.000000
# 3 -0.008812 -0.008230 0.027890 0.000000 0.000000 0.000000
# 4 0.000000 0.000000 0.000000 0.035942 0.000000 0.000000
# 5 0.000000 0.000000 0.000000 0.000000 0.035162 0.000000
# 6 0.000000 0.000000 0.000000 0.000000 0.000000 0.043609
#
#
# Mechanical properties :
#
#
# Convention : Reuss Voigt Hill
#
# Bulk Modulus (GPa) = 61.17618 66.44972 63.81295
# Shear Modulus (GPa) = 24.11122 26.99176 25.55149
#
# Velocity S-wave (km/s) = 3.48945 3.69201 3.59216
# Velocity P-wave (km/s) = 6.86507 7.19249 7.03069
#
# Compressibility (1/GPa) = 0.01634623
#
# Stress axis : x y z
#
# Youngs Moduli (GPa) = 82.07889 85.43680 35.85470
#
# Poissons Ratio (x) = 0.05758 0.31596
# Poissons Ratio (y) = 0.05531 0.29508
# Poissons Ratio (z) = 0.72329 0.70314
#
# Static dielectric constant tensor:
#      x y z
#    x 3.722070 0.000000 0.000000 
#    y 0.000000 3.750180 0.000000 
#    z 0.000000 0.000000 3.528070 
# 
# 
# High freq. dielectric constant tensor:
#      x y z
#    x 1.781050 0.000000 0.000000 
#    y 0.000000 1.787930 0.000000 
#    z 0.000000 0.000000 1.765410 
# 
# From -- ./inp_files/10726.got.cif
#   From: 2010.03.12/outbox.cif.g09.slc.cpg/sg55_6_cif.got.tgz:10726.got - 2010.04.16 15:19:21.
