data_PCOD8227007
_publ_section_title
;
Structure prediction by ZEFSAII (Michael W. Deem and Ramdas Pophale) SiO2 
 PCOD8227007
Probable space group: P B A M
;
_chemical_formula_sum "Si O2"
_cell_formula_units_Z 64
_cell_length_a 15.333715
_cell_length_b 22.929235
_cell_length_c 9.554317
_cell_angle_alpha 90.000000
_cell_angle_beta 90.000000
_cell_angle_gamma 90.000000
_cell_volume 3359.205703
_symmetry_space_group_name_H-M "P B A M"
_symmetry_group_IT_number 55
_symmetry_cell_setting 'orthorhombic'
loop_
_space_group_symop_operation_xyz
x,y,z
-x,-y,z
1/2+x,1/2-y,-z
1/2-x,1/2+y,-z
-x,-y,-z
x,y,-z
1/2-x,1/2+y,z
1/2+x,1/2-y,z
loop_
_atom_site_type_symbol
_atom_site_label
_atom_site_fract_x
_atom_site_fract_y
_atom_site_fract_z
Si Si1 0.943915 0.944580 0.336480
Si Si2 0.988444 0.161883 0.841829
Si Si3 0.904274 0.503264 0.340127
Si Si4 0.308521 0.184287 0.159808
Si Si5 0.785947 0.183188 0.155756
Si Si6 0.993498 0.706572 0.163005
Si Si7 0.748258 0.921156 0.335408
Si Si8 0.357225 0.864254 0.659693
O O1 0.961906 0.935914 0.500000
O O2 0.840722 0.953353 0.305695
O O3 0.974429 0.885891 0.261982
O O4 0.000000 0.000000 0.280744
O O5 0.885273 0.165376 0.828374
O O6 0.025450 0.225680 0.802783
O O7 0.015637 0.145265 0.000000
O O8 0.916279 0.483474 0.500000
O O9 0.831421 0.460302 0.273766
O O10 0.868158 0.567415 0.327294
O O11 0.000000 0.500000 0.265778
O O12 0.268427 0.248343 0.178452
O O13 0.409412 0.187094 0.204152
O O14 0.254438 0.140877 0.258108
O O15 0.299049 0.163173 0.000000
O O16 0.736335 0.148419 0.275079
O O17 0.752753 0.166238 0.000000
O O18 0.931624 0.667955 0.256182
O O19 0.976041 0.694599 0.000000
O O20 0.737887 0.909994 0.500000
O O21 0.359828 0.843032 0.500000
#
# Coordination Sequence:
#
# PCOD8227007 Si02
#       8
#     8   8   8   8   8   8   8   8
#     4  10  23  39  57  81 113 152 190 237 294 341
#     4   9  20  39  61  81 107 149 194 232 280 339
#     4   9  19  36  56  80 112 150 187 227 277 332
#     4   9  19  37  59  82 110 147 188 226 278 340
#     4   9  20  38  57  80 113 149 181 226 286 339
#     4   9  19  37  58  82 115 150 181 227 287 339
#     4  10  21  37  58  83 115 151 189 235 286 337
#     4  11  22  33  56  88 113 144 190 230 273 339
#
# _framework density 19.052123000000002
#
# number of rings (size 3 to 8) (size 9 to 14) (size 15 to 20)
#    0.000    2.500    0.000    2.625    3.500    3.750 
#    0.000    3.750    0.000    3.375    0.000    0.000 
#    0.000    0.000    0.000    0.000    0.000    0.000 
#
# Total GULP energy -793490.821366 kJ/mol
# GULP energy per Si atom -12398.294084 kJ/mol
# Density = 1.900876 g / cm^3
# Si number density = 19.052123 Si / 1000 Ang^3
#
#
#
# Elastic Constant Matrix: (Units=GPa)
#
#
# Indices 1 2 3 4 5 6 
#
# 1 77.4818 37.3857 24.0174 0.0000 0.0000 0.0000
# 2 37.3857 66.3893 33.7949 0.0000 0.0000 0.0000
# 3 24.0174 33.7949 54.3886 0.0000 0.0000 0.0000
# 4 0.0000 0.0000 0.0000 5.6680 0.0000 0.0000
# 5 0.0000 0.0000 0.0000 0.0000 15.9021 0.0000
# 6 0.0000 0.0000 0.0000 0.0000 0.0000 33.2845
#
#
#
# Elastic Compliance Matrix: (Units=1/GPa)
#
#
# Indices 1 2 3 4 5 6 
#
# 1 0.017934 -0.008875 -0.002405 0.000000 0.000000 0.000000
# 2 -0.008875 0.026423 -0.012499 0.000000 0.000000 0.000000
# 3 -0.002405 -0.012499 0.027215 0.000000 0.000000 0.000000
# 4 0.000000 0.000000 0.000000 0.176431 0.000000 0.000000
# 5 0.000000 0.000000 0.000000 0.000000 0.062885 0.000000
# 6 0.000000 0.000000 0.000000 0.000000 0.000000 0.030044
#
#
# Mechanical properties :
#
#
# Convention : Reuss Voigt Hill
#
# Bulk Modulus (GPa) = 41.64298 43.18399 42.41349
# Shear Modulus (GPa) = 12.61055 17.84169 15.22612
#
# Velocity S-wave (km/s) = 2.57553 3.06349 2.83005
# Velocity P-wave (km/s) = 5.54521 5.93538 5.74361
#
# Compressibility (1/GPa) = 0.02401365
#
# Stress axis : x y z
#
# Youngs Moduli (GPa) = 55.76017 37.84590 36.74495
#
# Poissons Ratio (x) = 0.33588 0.08837
# Poissons Ratio (y) = 0.49487 0.45928
# Poissons Ratio (z) = 0.13410 0.47304
#
# Static dielectric constant tensor:
#      x y z
#    x 3.662390 0.000000 0.000000 
#    y 0.000000 2.589450 0.000000 
#    z 0.000000 0.000000 3.401960 
# 
# 
# High freq. dielectric constant tensor:
#      x y z
#    x 1.754340 0.000000 0.000000 
#    y 0.000000 1.740260 0.000000 
#    z 0.000000 0.000000 1.723520 
# 
# From -- ./inp_files/8035.got.cif
#   From: 2010.03.12/outbox.cif.g09.slc.cpg/sg55_5_cif.got.tgz:8035.got - 2010.04.16 15:19:21.
