data_PCOD8227525
_publ_section_title
;
Structure prediction by ZEFSAII (Michael W. Deem and Ramdas Pophale) SiO2 
 PCOD8227525
Probable space group: P B A M
;
_chemical_formula_sum "Si O2"
_cell_formula_units_Z 32
_cell_length_a 5.133111
_cell_length_b 18.213116
_cell_length_c 14.429895
_cell_angle_alpha 90.000000
_cell_angle_beta 90.000000
_cell_angle_gamma 90.000000
_cell_volume 1349.050106
_symmetry_space_group_name_H-M "P B A M"
_symmetry_group_IT_number 55
_symmetry_cell_setting 'orthorhombic'
loop_
_space_group_symop_operation_xyz
x,y,z
-x,-y,z
1/2+x,1/2-y,-z
1/2-x,1/2+y,-z
-x,-y,-z
x,y,-z
1/2-x,1/2+y,z
1/2+x,1/2-y,z
loop_
_atom_site_type_symbol
_atom_site_label
_atom_site_fract_x
_atom_site_fract_y
_atom_site_fract_z
Si Si1 0.297598 0.712690 0.391973
Si Si2 0.733031 0.704787 0.109834
Si Si3 0.260931 0.951229 0.793541
Si Si4 0.875140 0.076740 0.400182
O O1 0.273800 0.728893 0.500000
O O2 0.015799 0.731442 0.347937
O O3 0.387935 0.630337 0.370991
O O4 0.480048 0.748682 0.145541
O O5 0.732588 0.621874 0.146741
O O6 0.734884 0.698303 0.000000
O O7 0.322155 0.928013 0.686205
O O8 0.500000 0.000000 0.831368
O O9 0.000000 0.000000 0.799632
O O10 0.744304 0.102489 0.500000
O O11 0.000000 0.000000 0.420786
#
# Coordination Sequence:
#
# PCOD8227525 Si02
#       4
#     8   8   8   8
#     4   9  18  32  50  73 100 134 182 237 288 337
#     4  10  22  42  68  96 126 162 203 250 310 378
#     4  11  24  40  61  92 127 164 207 256 310 365
#     4   9  20  38  58  82 117 161 206 250 298 354
#
# _framework density 23.720396000000001
#
# number of rings (size 3 to 8) (size 9 to 14) (size 15 to 20)
#    0.000    2.250    0.000    1.500    0.000    7.500 
#    0.000    7.500    0.000    0.000    0.000    0.000 
#    0.000    0.000    0.000    0.000    0.000    0.000 
#
# Total GULP energy -396490.656016 kJ/mol
# GULP energy per Si atom -12390.333000 kJ/mol
# Density = 2.366641 g / cm^3
# Si number density = 23.720396 Si / 1000 Ang^3
#
#
#
# Elastic Constant Matrix: (Units=GPa)
#
#
# Indices 1 2 3 4 5 6 
#
# 1 111.8855 11.1717 21.8101 0.0000 0.0000 0.0000
# 2 11.1717 125.6201 36.2177 0.0000 0.0000 0.0000
# 3 21.8101 36.2177 50.5831 0.0000 0.0000 0.0000
# 4 0.0000 0.0000 0.0000 38.9612 0.0000 0.0000
# 5 0.0000 0.0000 0.0000 0.0000 46.6752 0.0000
# 6 0.0000 0.0000 0.0000 0.0000 0.0000 41.9552
#
#
#
# Elastic Compliance Matrix: (Units=1/GPa)
#
#
# Indices 1 2 3 4 5 6 
#
# 1 0.009777 0.000436 -0.004528 0.000000 0.000000 0.000000
# 2 0.000436 0.010051 -0.007384 0.000000 0.000000 0.000000
# 3 -0.004528 -0.007384 0.027009 0.000000 0.000000 0.000000
# 4 0.000000 0.000000 0.000000 0.025667 0.000000 0.000000
# 5 0.000000 0.000000 0.000000 0.000000 0.021425 0.000000
# 6 0.000000 0.000000 0.000000 0.000000 0.000000 0.023835
#
#
# Mechanical properties :
#
#
# Convention : Reuss Voigt Hill
#
# Bulk Modulus (GPa) = 41.86851 47.38751 44.62801
# Shear Modulus (GPa) = 33.63022 40.11095 36.87059
#
# Velocity S-wave (km/s) = 3.76942 4.11663 3.94684
# Velocity P-wave (km/s) = 6.05259 6.52812 6.29485
#
# Compressibility (1/GPa) = 0.02388430
#
# Stress axis : x y z
#
# Youngs Moduli (GPa) = 102.28337 99.49528 37.02498
#
# Poissons Ratio (x) = -0.04337 0.16763
# Poissons Ratio (y) = -0.04458 0.27340
# Poissons Ratio (z) = 0.46310 0.73470
#
# Static dielectric constant tensor:
#      x y z
#    x 4.513710 0.000000 0.000000 
#    y 0.000000 4.399350 0.000000 
#    z 0.000000 0.000000 4.279280 
# 
# 
# High freq. dielectric constant tensor:
#      x y z
#    x 1.929880 0.000000 0.000000 
#    y 0.000000 1.964200 0.000000 
#    z 0.000000 0.000000 1.922730 
# 
# From -- ./inp_files/16403.got.cif
#   From: 2010.03.12/outbox.cif.g09.slc.cpg/sg55_9_cif.got.tgz:16403.got - 2010.04.16 15:19:21.
