data_PCOD8227907
_publ_section_title
;
Structure prediction by ZEFSAII (Michael W. Deem and Ramdas Pophale) SiO2 
 PCOD8227907
Probable space group: P C C N
;
_chemical_formula_sum "Si O2"
_cell_formula_units_Z 48
_cell_length_a 15.520606
_cell_length_b 8.969284
_cell_length_c 18.394755
_cell_angle_alpha 90.000000
_cell_angle_beta 90.000000
_cell_angle_gamma 90.000000
_cell_volume 2560.710355
_symmetry_space_group_name_H-M "P C C N"
_symmetry_group_IT_number 56
_symmetry_cell_setting 'orthorhombic'
loop_
_space_group_symop_operation_xyz
x,y,z
1/2-x,1/2-y,z
1/2+x,-y,1/2-z
-x,1/2+y,1/2-z
-x,-y,-z
1/2+x,1/2+y,-z
1/2-x,y,1/2+z
x,1/2-y,1/2+z
loop_
_atom_site_type_symbol
_atom_site_label
_atom_site_fract_x
_atom_site_fract_y
_atom_site_fract_z
Si Si1 0.399137 0.070848 0.287414
Si Si2 0.927627 0.939743 0.552851
Si Si3 0.667145 0.651036 0.061968
Si Si4 0.769430 0.420484 0.983738
Si Si5 0.993655 0.635490 0.203522
Si Si6 0.819347 0.126609 0.323172
O O1 0.366571 0.055948 0.369458
O O2 0.425577 0.241121 0.270576
O O3 0.485285 0.971501 0.272272
O O4 0.322828 0.012111 0.233918
O O5 0.907684 0.764685 0.535431
O O6 0.953904 0.959708 0.636945
O O7 0.843372 0.037995 0.540420
O O8 0.000000 0.000000 0.500000
O O9 0.750000 0.750000 0.084559
O O10 0.688468 0.530410 0.999266
O O11 0.750000 0.250000 0.999374
O O12 0.796513 0.444783 0.900653
O O13 0.085444 0.703489 0.174231
O O14 0.750000 0.250000 0.298609
#
# Coordination Sequence:
#
# PCOD8227907 Si02
#       6
#     8   8   8   8   8   8
#     4   9  19  37  56  86 112 150 193 236 291 338
#     4  10  17  36  61  78 114 154 191 238 297 334
#     4   9  20  36  56  83 115 148 195 240 286 355
#     4  10  20  36  60  84 113 155 192 243 292 346
#     4   9  19  35  61  81 116 150 190 239 287 346
#     4   9  19  37  59  82 120 150 189 235 292 341
#
# _framework density 18.744800000000001
#
# number of rings (size 3 to 8) (size 9 to 14) (size 15 to 20)
#    1.000    1.667    1.667    0.000    0.000    2.000 
#    9.000    5.000   14.667    0.000    0.000    0.000 
#    0.000    0.000    0.000    0.000    0.000    0.000 
#
# Total GULP energy -594695.043528 kJ/mol
# GULP energy per Si atom -12389.480073 kJ/mol
# Density = 1.870214 g / cm^3
# Si number density = 18.744800 Si / 1000 Ang^3
#
#
#
# Elastic Constant Matrix: (Units=GPa)
#
#
# Indices 1 2 3 4 5 6 
#
# 1 65.6028 43.5139 50.4496 0.0000 0.0000 0.0000
# 2 43.5139 104.6073 74.8500 0.0000 0.0000 0.0000
# 3 50.4496 74.8500 105.7780 0.0000 0.0000 0.0000
# 4 0.0000 0.0000 0.0000 38.6138 0.0000 0.0000
# 5 0.0000 0.0000 0.0000 0.0000 36.0365 0.0000
# 6 0.0000 0.0000 0.0000 0.0000 0.0000 46.9492
#
#
#
# Elastic Compliance Matrix: (Units=1/GPa)
#
#
# Indices 1 2 3 4 5 6 
#
# 1 0.024778 -0.003750 -0.009164 0.000000 0.000000 0.000000
# 2 -0.003750 0.019931 -0.012315 0.000000 0.000000 0.000000
# 3 -0.009164 -0.012315 0.022539 0.000000 0.000000 0.000000
# 4 0.000000 0.000000 0.000000 0.025898 0.000000 0.000000
# 5 0.000000 0.000000 0.000000 0.000000 0.027750 0.000000
# 6 0.000000 0.000000 0.000000 0.000000 0.000000 0.021300
#
#
# Mechanical properties :
#
#
# Convention : Reuss Voigt Hill
#
# Bulk Modulus (GPa) = 59.55995 68.17945 63.86970
# Shear Modulus (GPa) = 25.22070 31.46487 28.34279
#
# Velocity S-wave (km/s) = 3.67205 4.10151 3.89271
# Velocity P-wave (km/s) = 7.05845 7.67341 7.37235
#
# Compressibility (1/GPa) = 0.01678981
#
# Stress axis : x y z
#
# Youngs Moduli (GPa) = 40.35882 50.17217 44.36741
#
# Poissons Ratio (x) = 0.18813 0.40659
# Poissons Ratio (y) = 0.15133 0.54640
# Poissons Ratio (z) = 0.36986 0.61789
#
# Static dielectric constant tensor:
#      x y z
#    x 3.627530 0.000000 0.000000 
#    y 0.000000 3.362980 0.000000 
#    z 0.000000 0.000000 3.329850 
# 
# 
# High freq. dielectric constant tensor:
#      x y z
#    x 1.727230 0.000000 0.000000 
#    y 0.000000 1.718010 0.000000 
#    z 0.000000 0.000000 1.715800 
# 
# From -- ./inp_files/19261.got.cif
#   From: 2010.03.12/outbox.cif.g09.slc.cpg/sg56_10_cif.got.tgz:19261.got - 2010.04.16 15:33:40.
