data_PCOD8227913
_publ_section_title
;
Structure prediction by ZEFSAII (Michael W. Deem and Ramdas Pophale) SiO2 
 PCOD8227913
Probable space group: P C C N
;
_chemical_formula_sum "Si O2"
_cell_formula_units_Z 48
_cell_length_a 16.433158
_cell_length_b 7.889076
_cell_length_c 16.351158
_cell_angle_alpha 90.000000
_cell_angle_beta 90.000000
_cell_angle_gamma 90.000000
_cell_volume 2119.803895
_symmetry_space_group_name_H-M "P C C N"
_symmetry_group_IT_number 56
_symmetry_cell_setting 'orthorhombic'
loop_
_space_group_symop_operation_xyz
x,y,z
1/2-x,1/2-y,z
1/2+x,-y,1/2-z
-x,1/2+y,1/2-z
-x,-y,-z
1/2+x,1/2+y,-z
1/2-x,y,1/2+z
x,1/2-y,1/2+z
loop_
_atom_site_type_symbol
_atom_site_label
_atom_site_fract_x
_atom_site_fract_y
_atom_site_fract_z
Si Si1 0.673735 0.360983 0.401316
Si Si2 0.268506 0.548592 0.435162
Si Si3 0.093842 0.425522 0.405154
Si Si4 0.528616 0.257323 0.002836
Si Si5 0.566728 0.415637 0.254962
Si Si6 0.572740 0.430209 0.654677
O O1 0.750000 0.250000 0.371761
O O2 0.701197 0.492577 0.472518
O O3 0.603872 0.242334 0.440228
O O4 0.637001 0.451726 0.321869
O O5 0.250000 0.750000 0.430158
O O6 0.190078 0.434237 0.419469
O O7 0.336362 0.503702 0.366667
O O8 0.041382 0.578863 0.441363
O O9 0.076710 0.428858 0.308359
O O10 0.055725 0.259462 0.450013
O O11 0.526419 0.102532 0.067728
O O12 0.477626 0.426732 0.297092
O O13 0.579662 0.236344 0.211120
#
# Coordination Sequence:
#
# PCOD8227913 Si02
#       6
#     8   8   8   8   8   8
#     4  10  19  33  56  89 110 149 212 251 288 360
#     4  10  17  37  57  88 116 157 215 245 287 366
#     4  10  18  34  56  88 118 159 197 254 302 356
#     4   9  18  34  58  81 121 161 199 241 303 368
#     4  11  22  35  59  93 123 149 203 258 312 345
#     4  10  22  38  60  90 123 163 200 257 301 366
#
# _framework density 22.643602000000001
#
# number of rings (size 3 to 8) (size 9 to 14) (size 15 to 20)
#    0.000    2.000    6.667    1.000    2.333    2.667 
#    0.000    0.000    0.000   11.000    0.000    0.000 
#    0.000    0.000    0.000    0.000    0.000    0.000 
#
# Total GULP energy -594920.787771 kJ/mol
# GULP energy per Si atom -12394.183079 kJ/mol
# Density = 2.259206 g / cm^3
# Si number density = 22.643602 Si / 1000 Ang^3
#
#
#
# Elastic Constant Matrix: (Units=GPa)
#
#
# Indices 1 2 3 4 5 6 
#
# 1 187.1143 24.4232 84.4178 0.0000 0.0000 0.0000
# 2 24.4232 19.1325 19.5131 0.0000 0.0000 0.0000
# 3 84.4178 19.5131 154.4032 0.0000 0.0000 0.0000
# 4 0.0000 0.0000 0.0000 20.6728 0.0000 0.0000
# 5 0.0000 0.0000 0.0000 0.0000 41.3794 0.0000
# 6 0.0000 0.0000 0.0000 0.0000 0.0000 35.9627
#
#
#
# Elastic Compliance Matrix: (Units=1/GPa)
#
#
# Indices 1 2 3 4 5 6 
#
# 1 0.007716 -0.006368 -0.003414 0.000000 0.000000 0.000000
# 2 -0.006368 0.065256 -0.004766 0.000000 0.000000 0.000000
# 3 -0.003414 -0.004766 0.008945 0.000000 0.000000 0.000000
# 4 0.000000 0.000000 0.000000 0.048373 0.000000 0.000000
# 5 0.000000 0.000000 0.000000 0.000000 0.024167 0.000000
# 6 0.000000 0.000000 0.000000 0.000000 0.000000 0.027807
#
#
# Mechanical properties :
#
#
# Convention : Reuss Voigt Hill
#
# Bulk Modulus (GPa) = 18.93114 68.59536 43.76325
# Shear Modulus (GPa) = 21.83755 35.08938 28.46347
#
# Velocity S-wave (km/s) = 3.10885 3.94081 3.54929
# Velocity P-wave (km/s) = 4.61143 7.14604 6.01378
#
# Compressibility (1/GPa) = 0.05282302
#
# Stress axis : x y z
#
# Youngs Moduli (GPa) = 129.60837 15.32432 111.79218
#
# Poissons Ratio (x) = 0.09758 0.38162
# Poissons Ratio (y) = 0.82529 0.53275
# Poissons Ratio (z) = 0.44244 0.07303
#
# Static dielectric constant tensor:
#      x y z
#    x 4.268660 0.000000 0.000000 
#    y 0.000000 3.681730 0.000000 
#    z 0.000000 0.000000 4.640390 
# 
# 
# High freq. dielectric constant tensor:
#      x y z
#    x 1.897870 0.000000 0.000000 
#    y 0.000000 1.848820 0.000000 
#    z 0.000000 0.000000 1.909800 
# 
# From -- ./inp_files/11625.got.cif
#   From: 2010.03.12/outbox.cif.g09.slc.cpg/sg56_6_cif.got.tgz:11625.got - 2010.04.16 15:33:40.
