data_PCOD8227866
_publ_section_title
;
Structure prediction by ZEFSAII (Michael W. Deem and Ramdas Pophale) SiO2 
 PCOD8227866
Probable space group: P C C N
;
_chemical_formula_sum "Si O2"
_cell_formula_units_Z 44
_cell_length_a 9.167785
_cell_length_b 13.661965
_cell_length_c 17.819545
_cell_angle_alpha 90.000000
_cell_angle_beta 90.000000
_cell_angle_gamma 90.000000
_cell_volume 2231.897259
_symmetry_space_group_name_H-M "P C C N"
_symmetry_group_IT_number 56
_symmetry_cell_setting 'orthorhombic'
loop_
_space_group_symop_operation_xyz
x,y,z
1/2-x,1/2-y,z
1/2+x,-y,1/2-z
-x,1/2+y,1/2-z
-x,-y,-z
1/2+x,1/2+y,-z
1/2-x,y,1/2+z
x,1/2-y,1/2+z
loop_
_atom_site_type_symbol
_atom_site_label
_atom_site_fract_x
_atom_site_fract_y
_atom_site_fract_z
Si Si1 0.953397 0.704633 0.862389
Si Si2 0.750000 0.250000 0.081469
Si Si3 0.188105 0.402170 0.890074
Si Si4 0.750000 0.750000 0.732826
Si Si5 0.750000 0.750000 0.483405
Si Si6 0.344721 0.551180 0.983130
Si Si7 0.913086 0.004474 0.422028
O O1 0.895756 0.744574 0.782875
O O2 0.888045 0.772855 0.929204
O O3 0.895623 0.595303 0.876223
O O4 0.128101 0.703469 0.864218
O O5 0.664189 0.331916 0.032157
O O6 0.251386 0.346608 0.818465
O O7 0.276092 0.502064 0.907560
O O8 0.015180 0.420774 0.874176
O O9 0.212485 0.343300 0.967098
O O10 0.500000 0.500000 0.000000
O O11 0.249362 0.540354 0.059412
O O12 0.000000 0.000000 0.500000
#
# Coordination Sequence:
#
# PCOD8227866 Si02
#       7
#     8   4   8   4   4   8   8
#     4  11  21  39  60  92 123 165 212 262 319 379
#     4  12  22  36  60  94 136 160 210 276 328 384
#     4  10  19  41  60  89 122 163 213 257 318 380
#     4  10  26  40  64  88 122 184 216 254 322 406
#     4  10  16  32  70  84 112 156 214 258 296 384
#     4  11  22  37  65 106 125 159 213 278 333 381
#     4  10  18  39  64  88 123 162 203 267 319 365
#
# _framework density 19.714168999999998
#
# number of rings (size 3 to 8) (size 9 to 14) (size 15 to 20)
#    0.000    1.455    7.273    1.091    2.545    1.455 
#    3.273    1.818    0.000    2.182    0.000    0.000 
#    0.000    0.000    0.000    0.000    0.000    0.000 
#
# Total GULP energy -545108.958759 kJ/mol
# GULP energy per Si atom -12388.839972 kJ/mol
# Density = 1.966930 g / cm^3
# Si number density = 19.714169 Si / 1000 Ang^3
#
#
#
# Elastic Constant Matrix: (Units=GPa)
#
#
# Indices 1 2 3 4 5 6 
#
# 1 146.2604 37.1023 35.1927 0.0000 0.0000 0.0000
# 2 37.1023 102.9917 31.9607 0.0000 0.0000 0.0000
# 3 35.1927 31.9607 90.8704 0.0000 0.0000 0.0000
# 4 0.0000 0.0000 0.0000 21.4730 0.0000 0.0000
# 5 0.0000 0.0000 0.0000 0.0000 12.2476 0.0000
# 6 0.0000 0.0000 0.0000 0.0000 0.0000 36.8859
#
#
#
# Elastic Compliance Matrix: (Units=1/GPa)
#
#
# Indices 1 2 3 4 5 6 
#
# 1 0.007939 -0.002139 -0.002322 0.000000 0.000000 0.000000
# 2 -0.002139 0.011476 -0.003208 0.000000 0.000000 0.000000
# 3 -0.002322 -0.003208 0.013032 0.000000 0.000000 0.000000
# 4 0.000000 0.000000 0.000000 0.046570 0.000000 0.000000
# 5 0.000000 0.000000 0.000000 0.000000 0.081648 0.000000
# 6 0.000000 0.000000 0.000000 0.000000 0.000000 0.027111
#
#
# Mechanical properties :
#
#
# Convention : Reuss Voigt Hill
#
# Bulk Modulus (GPa) = 58.45097 60.95932 59.70514
# Shear Modulus (GPa) = 23.94451 29.84575 26.89513
#
# Velocity S-wave (km/s) = 3.48887 3.89514 3.69759
# Velocity P-wave (km/s) = 6.77814 7.15669 6.96998
#
# Compressibility (1/GPa) = 0.01710836
#
# Stress axis : x y z
#
# Youngs Moduli (GPa) = 125.96816 87.14156 76.73312
#
# Poissons Ratio (x) = 0.18642 0.17818
# Poissons Ratio (y) = 0.26947 0.24613
# Poissons Ratio (z) = 0.29251 0.27952
#
# Static dielectric constant tensor:
#      x y z
#    x 4.045970 0.000000 0.000000 
#    y 0.000000 3.803370 0.000000 
#    z 0.000000 0.000000 3.288490 
# 
# 
# High freq. dielectric constant tensor:
#      x y z
#    x 1.777200 0.000000 0.000000 
#    y 0.000000 1.774150 0.000000 
#    z 0.000000 0.000000 1.726740 
# 
# From -- ./inp_files/14737.got.cif
#   From: 2010.03.12/outbox.cif.g09.slc.cpg/sg56_8_cif.got.tgz:14737.got - 2010.04.16 15:33:40.
