data_PCOD8227016
_publ_section_title
;
Structure prediction by ZEFSAII (Michael W. Deem and Ramdas Pophale) SiO2 
 PCOD8227016
Probable space group: P B A M
;
_chemical_formula_sum "Si O2"
_cell_formula_units_Z 64
_cell_length_a 27.773199
_cell_length_b 12.832927
_cell_length_c 8.534396
_cell_angle_alpha 90.000000
_cell_angle_beta 90.000000
_cell_angle_gamma 90.000000
_cell_volume 3041.756328
_symmetry_space_group_name_H-M "P B A M"
_symmetry_group_IT_number 55
_symmetry_cell_setting 'orthorhombic'
loop_
_space_group_symop_operation_xyz
x,y,z
-x,-y,z
1/2+x,1/2-y,-z
1/2-x,1/2+y,-z
-x,-y,-z
x,y,-z
1/2-x,1/2+y,z
1/2+x,1/2-y,z
loop_
_atom_site_type_symbol
_atom_site_label
_atom_site_fract_x
_atom_site_fract_y
_atom_site_fract_z
Si Si1 0.967702 0.094514 0.323167
Si Si2 0.703742 0.196057 0.681743
Si Si3 0.866814 0.095321 0.181893
Si Si4 0.346669 0.017121 0.315473
Si Si5 0.051937 0.239105 0.321412
Si Si6 0.362989 0.634826 0.815538
Si Si7 0.198205 0.723769 0.815654
Si Si8 0.552261 0.036200 0.184161
O O1 0.950520 0.068156 0.500000
O O2 0.922720 0.111577 0.212546
O O3 0.996690 0.203026 0.319299
O O4 0.000000 0.000000 0.258912
O O5 0.718290 0.188583 0.500000
O O6 0.664017 0.283873 0.706318
O O7 0.748611 0.233902 0.783823
O O8 0.681617 0.086533 0.743348
O O9 0.836891 0.188751 0.260064
O O10 0.848276 0.981881 0.237828
O O11 0.857261 0.102449 0.000000
O O12 0.351770 0.013455 0.500000
O O13 0.313796 0.114542 0.266067
O O14 0.401250 0.026682 0.248806
O O15 0.070128 0.253879 0.500000
O O16 0.081147 0.149378 0.229446
O O17 0.059430 0.344466 0.227382
O O18 0.353863 0.653585 0.000000
O O19 0.191298 0.707294 0.000000
O O20 0.500000 0.000000 0.253500
O O21 0.552160 0.019833 0.000000
#
# Coordination Sequence:
#
# PCOD8227016 Si02
#       8
#     8   8   8   8   8   8   8   8
#     4  10  21  37  58  88 126 168 208 252 311 372
#     4  11  25  45  69  98 127 164 214 270 327 386
#     4  10  24  42  62  93 129 167 214 264 318 380
#     4  11  25  46  70  99 134 171 219 272 326 389
#     4  11  22  38  60  91 127 168 216 264 318 383
#     4  11  22  39  65  96 127 166 215 267 322 383
#     4  11  26  46  68  96 131 171 214 265 326 389
#     4  11  25  43  65  94 129 172 220 270 327 390
#
# _framework density 21.040476000000002
#
# number of rings (size 3 to 8) (size 9 to 14) (size 15 to 20)
#    0.000    1.250    2.500    2.250    3.500    5.250 
#    0.000    0.000    0.000    0.000    0.000    0.000 
#    0.000    0.000    0.000    0.000    0.000    0.000 
#
# Total GULP energy -793580.640011 kJ/mol
# GULP energy per Si atom -12399.697500 kJ/mol
# Density = 2.099259 g / cm^3
# Si number density = 21.040476 Si / 1000 Ang^3
#
#
#
# Elastic Constant Matrix: (Units=GPa)
#
#
# Indices 1 2 3 4 5 6 
#
# 1 106.9348 57.2023 18.5379 0.0000 0.0000 0.0000
# 2 57.2023 134.7234 26.2278 0.0000 0.0000 0.0000
# 3 18.5379 26.2278 40.2729 0.0000 0.0000 0.0000
# 4 0.0000 0.0000 0.0000 23.6280 0.0000 0.0000
# 5 0.0000 0.0000 0.0000 0.0000 31.4934 0.0000
# 6 0.0000 0.0000 0.0000 0.0000 0.0000 34.4007
#
#
#
# Elastic Compliance Matrix: (Units=1/GPa)
#
#
# Indices 1 2 3 4 5 6 
#
# 1 0.012332 -0.004731 -0.002596 0.000000 0.000000 0.000000
# 2 -0.004731 0.010315 -0.004540 0.000000 0.000000 0.000000
# 3 -0.002596 -0.004540 0.028982 0.000000 0.000000 0.000000
# 4 0.000000 0.000000 0.000000 0.042323 0.000000 0.000000
# 5 0.000000 0.000000 0.000000 0.000000 0.031753 0.000000
# 6 0.000000 0.000000 0.000000 0.000000 0.000000 0.029069
#
#
# Mechanical properties :
#
#
# Convention : Reuss Voigt Hill
#
# Bulk Modulus (GPa) = 35.84704 53.98523 44.91613
# Shear Modulus (GPa) = 26.62326 29.90197 28.26261
#
# Velocity S-wave (km/s) = 3.56101 3.77392 3.66901
# Velocity P-wave (km/s) = 5.82940 6.68607 6.27238
#
# Compressibility (1/GPa) = 0.02789631
#
# Stress axis : x y z
#
# Youngs Moduli (GPa) = 81.08932 96.94504 34.50400
#
# Poissons Ratio (x) = 0.45863 0.08956
# Poissons Ratio (y) = 0.38362 0.15665
# Poissons Ratio (z) = 0.21048 0.44014
#
# Static dielectric constant tensor:
#      x y z
#    x 4.001990 0.000000 0.000000 
#    y 0.000000 4.018170 0.000000 
#    z 0.000000 0.000000 3.667260 
# 
# 
# High freq. dielectric constant tensor:
#      x y z
#    x 1.828760 0.000000 0.000000 
#    y 0.000000 1.834960 0.000000 
#    z 0.000000 0.000000 1.819370 
# 
# From -- ./inp_files/10824.got.cif
#   From: 2010.03.12/outbox.cif.g09.slc.cpg/sg55_6_cif.got.tgz:10824.got - 2010.04.16 15:19:21.
