data_PCOD8227273
_publ_section_title
;
Structure prediction by ZEFSAII (Michael W. Deem and Ramdas Pophale) SiO2 
 PCOD8227273
Probable space group: P B A M
;
_chemical_formula_sum "Si O2"
_cell_formula_units_Z 32
_cell_length_a 9.800293
_cell_length_b 17.982479
_cell_length_c 8.805178
_cell_angle_alpha 90.000000
_cell_angle_beta 90.000000
_cell_angle_gamma 90.000000
_cell_volume 1551.767892
_symmetry_space_group_name_H-M "P B A M"
_symmetry_group_IT_number 55
_symmetry_cell_setting 'orthorhombic'
loop_
_space_group_symop_operation_xyz
x,y,z
-x,-y,z
1/2+x,1/2-y,-z
1/2-x,1/2+y,-z
-x,-y,-z
x,y,-z
1/2-x,1/2+y,z
1/2+x,1/2-y,z
loop_
_atom_site_type_symbol
_atom_site_label
_atom_site_fract_x
_atom_site_fract_y
_atom_site_fract_z
Si Si1 0.981096 0.280619 0.179879
Si Si2 0.702206 0.318723 0.678847
Si Si3 0.151833 0.012437 0.321913
Si Si4 0.102520 0.437708 0.179264
O O1 0.059956 0.214081 0.261836
O O2 0.049972 0.357613 0.232387
O O3 0.825155 0.278044 0.234609
O O4 0.985529 0.269557 0.000000
O O5 0.715652 0.305544 0.500000
O O6 0.704391 0.405613 0.720792
O O7 0.154393 0.998358 0.500000
O O8 0.247633 0.950907 0.245578
O O9 0.000000 0.000000 0.257572
O O10 0.000000 0.500000 0.245164
O O11 0.110783 0.443319 0.000000
#
# Coordination Sequence:
#
# PCOD8227273 Si02
#       4
#     8   8   8   8
#     4  11  24  42  64  91 125 165 208 256 311 369
#     4  11  24  42  63  91 126 166 208 254 309 369
#     4  10  23  41  62  91 125 161 203 254 308 364
#     4  10  21  40  64  90 120 158 203 252 304 363
#
# _framework density 20.621639999999999
#
# number of rings (size 3 to 8) (size 9 to 14) (size 15 to 20)
#    0.000    1.500    2.500    1.500    3.500    4.000 
#    0.000    0.000    0.000    0.000    0.000    0.000 
#    0.000    0.000    0.000    0.000    0.000    0.000 
#
# Total GULP energy -397024.395928 kJ/mol
# GULP energy per Si atom -12407.012373 kJ/mol
# Density = 2.057470 g / cm^3
# Si number density = 20.621640 Si / 1000 Ang^3
#
#
#
# Elastic Constant Matrix: (Units=GPa)
#
#
# Indices 1 2 3 4 5 6 
#
# 1 109.2955 -0.0357 10.6328 0.0000 0.0000 0.0000
# 2 -0.0357 34.4957 25.7021 0.0000 0.0000 0.0000
# 3 10.6328 25.7021 37.7530 0.0000 0.0000 0.0000
# 4 0.0000 0.0000 0.0000 24.5528 0.0000 0.0000
# 5 0.0000 0.0000 0.0000 0.0000 40.5772 0.0000
# 6 0.0000 0.0000 0.0000 0.0000 0.0000 43.3021
#
#
#
# Elastic Compliance Matrix: (Units=1/GPa)
#
#
# Indices 1 2 3 4 5 6 
#
# 1 0.009691 0.004147 -0.005553 0.000000 0.000000 0.000000
# 2 0.004147 0.060606 -0.042428 0.000000 0.000000 0.000000
# 3 -0.005553 -0.042428 0.056937 0.000000 0.000000 0.000000
# 4 0.000000 0.000000 0.000000 0.040729 0.000000 0.000000
# 5 0.000000 0.000000 0.000000 0.000000 0.024644 0.000000
# 6 0.000000 0.000000 0.000000 0.000000 0.000000 0.023094
#
#
# Mechanical properties :
#
#
# Convention : Reuss Voigt Hill
#
# Bulk Modulus (GPa) = 25.27409 28.23805 26.75607
# Shear Modulus (GPa) = 15.79494 31.36943 23.58219
#
# Velocity S-wave (km/s) = 2.77056 3.90447 3.38533
# Velocity P-wave (km/s) = 4.74525 5.83521 5.31823
#
# Compressibility (1/GPa) = 0.03956622
#
# Stress axis : x y z
#
# Youngs Moduli (GPa) = 103.18768 16.50003 17.56327
#
# Poissons Ratio (x) = -0.06843 0.09753
# Poissons Ratio (y) = -0.42796 0.74518
# Poissons Ratio (z) = 0.57300 0.70007
#
# Static dielectric constant tensor:
#      x y z
#    x 3.842620 0.000000 0.000000 
#    y 0.000000 3.764090 0.000000 
#    z 0.000000 0.000000 3.544610 
# 
# 
# High freq. dielectric constant tensor:
#      x y z
#    x 1.821120 0.000000 0.000000 
#    y 0.000000 1.809070 0.000000 
#    z 0.000000 0.000000 1.800770 
# 
# From -- ./inp_files/1995.got.cif
#   From: 2010.03.12/outbox.cif.g09.slc.cpg/sg55_1_cif.got.tgz:1995.got - 2010.04.16 15:19:21.
