data_PCOD8227333
_publ_section_title
;
Structure prediction by ZEFSAII (Michael W. Deem and Ramdas Pophale) SiO2 
 PCOD8227333
Probable space group: P B A M
;
_chemical_formula_sum "Si O2"
_cell_formula_units_Z 48
_cell_length_a 11.895947
_cell_length_b 11.464877
_cell_length_c 16.848166
_cell_angle_alpha 90.000000
_cell_angle_beta 90.000000
_cell_angle_gamma 90.000000
_cell_volume 2297.846709
_symmetry_space_group_name_H-M "P B A M"
_symmetry_group_IT_number 55
_symmetry_cell_setting 'orthorhombic'
loop_
_space_group_symop_operation_xyz
x,y,z
-x,-y,z
1/2+x,1/2-y,-z
1/2-x,1/2+y,-z
-x,-y,-z
x,y,-z
1/2-x,1/2+y,z
1/2+x,1/2-y,z
loop_
_atom_site_type_symbol
_atom_site_label
_atom_site_fract_x
_atom_site_fract_y
_atom_site_fract_z
Si Si1 0.898808 0.079497 0.321837
Si Si2 0.673540 0.040313 0.410225
Si Si3 0.515879 0.674648 0.088674
Si Si4 0.894088 0.418988 0.907621
Si Si5 0.533285 0.808330 0.591353
Si Si6 0.342328 0.511202 0.151013
O O1 0.783964 0.038117 0.359245
O O2 0.928176 0.211609 0.345685
O O3 0.879726 0.060866 0.228658
O O4 0.000000 0.000000 0.354014
O O5 0.709268 0.063488 0.500000
O O6 0.590005 0.144829 0.384183
O O7 0.618061 0.914949 0.400664
O O8 0.571344 0.791652 0.124041
O O9 0.409874 0.634049 0.143140
O O10 0.611999 0.574599 0.082166
O O11 0.470800 0.701395 0.000000
O O12 0.790201 0.466457 0.855437
O O13 0.000000 0.500000 0.891979
O O14 0.858307 0.416763 0.000000
O O15 0.533799 0.761831 0.500000
#
# Coordination Sequence:
#
# PCOD8227333 Si02
#       6
#     8   8   8   8   8   8
#     4  12  25  41  61  98 136 173 217 265 326 399
#     4   9  21  44  70  96 126 170 221 273 328 381
#     4  10  21  42  70  91 122 172 217 264 321 380
#     4  10  23  42  69 101 125 162 224 275 322 387
#     4   9  21  44  70  95 127 169 221 273 323 384
#     4  11  23  44  61  95 137 171 210 265 327 395
#
# _framework density 20.889120999999999
#
# number of rings (size 3 to 8) (size 9 to 14) (size 15 to 20)
#    0.000    1.833    1.667    3.500    4.667    2.667 
#    6.000    0.000    0.000    0.000    0.000    0.000 
#    0.000    0.000    0.000    0.000    0.000    0.000 
#
# Total GULP energy -595067.709435 kJ/mol
# GULP energy per Si atom -12397.243947 kJ/mol
# Density = 2.084158 g / cm^3
# Si number density = 20.889121 Si / 1000 Ang^3
#
#
#
# Elastic Constant Matrix: (Units=GPa)
#
#
# Indices 1 2 3 4 5 6 
#
# 1 147.9836 45.3241 46.2693 0.0000 0.0000 0.0000
# 2 45.3241 104.3221 39.3318 0.0000 0.0000 0.0000
# 3 46.2693 39.3318 84.4473 0.0000 0.0000 0.0000
# 4 0.0000 0.0000 0.0000 22.6479 0.0000 0.0000
# 5 0.0000 0.0000 0.0000 0.0000 35.6643 0.0000
# 6 0.0000 0.0000 0.0000 0.0000 0.0000 27.1096
#
#
#
# Elastic Compliance Matrix: (Units=1/GPa)
#
#
# Indices 1 2 3 4 5 6 
#
# 1 0.008616 -0.002382 -0.003612 0.000000 0.000000 0.000000
# 2 -0.002382 0.012286 -0.004417 0.000000 0.000000 0.000000
# 3 -0.003612 -0.004417 0.015878 0.000000 0.000000 0.000000
# 4 0.000000 0.000000 0.000000 0.044154 0.000000 0.000000
# 5 0.000000 0.000000 0.000000 0.000000 0.028039 0.000000
# 6 0.000000 0.000000 0.000000 0.000000 0.000000 0.036887
#
#
# Mechanical properties :
#
#
# Convention : Reuss Voigt Hill
#
# Bulk Modulus (GPa) = 62.66127 66.51149 64.58638
# Shear Modulus (GPa) = 29.06952 30.80621 29.93787
#
# Velocity S-wave (km/s) = 3.73448 3.84441 3.78984
# Velocity P-wave (km/s) = 6.97548 7.18438 7.08070
#
# Compressibility (1/GPa) = 0.01595882
#
# Stress axis : x y z
#
# Youngs Moduli (GPa) = 116.06047 81.39415 62.98081
#
# Poissons Ratio (x) = 0.19386 0.22746
# Poissons Ratio (y) = 0.27643 0.27820
# Poissons Ratio (z) = 0.41916 0.35954
#
# Static dielectric constant tensor:
#      x y z
#    x 3.817070 0.000000 0.000000 
#    y 0.000000 3.789420 0.000000 
#    z 0.000000 0.000000 3.701160 
# 
# 
# High freq. dielectric constant tensor:
#      x y z
#    x 1.825510 0.000000 0.000000 
#    y 0.000000 1.820770 0.000000 
#    z 0.000000 0.000000 1.804490 
# 
# From -- ./inp_files/21253.got.cif
#   From: 2010.03.12/outbox.cif.g09.slc.cpg/sg55_11_cif.got.tgz:21253.got - 2010.04.16 15:19:21.
