data_PCOD8227285
_publ_section_title
;
Structure prediction by ZEFSAII (Michael W. Deem and Ramdas Pophale) SiO2 
 PCOD8227285
Probable space group: P B A M
;
_chemical_formula_sum "Si O2"
_cell_formula_units_Z 48
_cell_length_a 11.917268
_cell_length_b 23.091439
_cell_length_c 8.597902
_cell_angle_alpha 90.000000
_cell_angle_beta 90.000000
_cell_angle_gamma 90.000000
_cell_volume 2366.029715
_symmetry_space_group_name_H-M "P B A M"
_symmetry_group_IT_number 55
_symmetry_cell_setting 'orthorhombic'
loop_
_space_group_symop_operation_xyz
x,y,z
-x,-y,z
1/2+x,1/2-y,-z
1/2-x,1/2+y,-z
-x,-y,-z
x,y,-z
1/2-x,1/2+y,z
1/2+x,1/2-y,z
loop_
_atom_site_type_symbol
_atom_site_label
_atom_site_fract_x
_atom_site_fract_y
_atom_site_fract_z
Si Si1 0.713793 0.581895 0.179344
Si Si2 0.696408 0.459917 0.322670
Si Si3 0.506302 0.371194 0.680239
Si Si4 0.154639 0.223995 0.819795
Si Si5 0.843542 0.351392 0.320178
Si Si6 0.900706 0.655659 0.681804
O O1 0.710515 0.513520 0.208455
O O2 0.621732 0.615952 0.279932
O O3 0.835103 0.605750 0.226433
O O4 0.689139 0.593901 0.000000
O O5 0.693206 0.482589 0.500000
O O6 0.580333 0.427710 0.280824
O O7 0.800402 0.416761 0.296148
O O8 0.519181 0.354630 0.500000
O O9 0.549208 0.316621 0.778441
O O10 0.271443 0.192564 0.782671
O O11 0.150267 0.281999 0.719393
O O12 0.149906 0.240429 0.000000
O O13 0.830375 0.333057 0.500000
O O14 0.970767 0.347630 0.262343
O O15 0.890679 0.642771 0.500000
#
# Coordination Sequence:
#
# PCOD8227285 Si02
#       6
#     8   8   8   8   8   8
#     4  12  25  38  57  91 128 159 199 252 312 359
#     4   9  19  39  64  89 118 156 204 251 299 359
#     4  10  21  40  65  90 119 162 209 249 295 359
#     4  11  23  39  62  91 125 156 193 251 311 361
#     4   9  21  42  66  88 114 158 209 248 293 360
#     4  11  24  42  63  86 118 163 210 249 293 360
#
# _framework density 20.28715
#
# number of rings (size 3 to 8) (size 9 to 14) (size 15 to 20)
#    0.000    1.667    0.000    5.500    2.333    7.333 
#    0.000    3.333    0.000    0.000    0.000    0.000 
#    0.000    0.000    0.000    0.000    0.000    0.000 
#
# Total GULP energy -595536.102581 kJ/mol
# GULP energy per Si atom -12407.002137 kJ/mol
# Density = 2.024098 g / cm^3
# Si number density = 20.287150 Si / 1000 Ang^3
#
#
#
# Elastic Constant Matrix: (Units=GPa)
#
#
# Indices 1 2 3 4 5 6 
#
# 1 104.6343 19.0887 23.4802 0.0000 0.0000 0.0000
# 2 19.0887 49.9046 21.5876 0.0000 0.0000 0.0000
# 3 23.4802 21.5876 58.2815 0.0000 0.0000 0.0000
# 4 0.0000 0.0000 0.0000 19.5331 0.0000 0.0000
# 5 0.0000 0.0000 0.0000 0.0000 26.5879 0.0000
# 6 0.0000 0.0000 0.0000 0.0000 0.0000 18.4190
#
#
#
# Elastic Compliance Matrix: (Units=1/GPa)
#
#
# Indices 1 2 3 4 5 6 
#
# 1 0.010799 -0.002678 -0.003359 0.000000 0.000000 0.000000
# 2 -0.002678 0.024526 -0.008005 0.000000 0.000000 0.000000
# 3 -0.003359 -0.008005 0.021477 0.000000 0.000000 0.000000
# 4 0.000000 0.000000 0.000000 0.051195 0.000000 0.000000
# 5 0.000000 0.000000 0.000000 0.000000 0.037611 0.000000
# 6 0.000000 0.000000 0.000000 0.000000 0.000000 0.054292
#
#
# Mechanical properties :
#
#
# Convention : Reuss Voigt Hill
#
# Bulk Modulus (GPa) = 34.82257 37.90372 36.36314
# Shear Modulus (GPa) = 21.04765 22.81892 21.93328
#
# Velocity S-wave (km/s) = 3.22450 3.35744 3.29164
# Velocity P-wave (km/s) = 5.57362 5.80982 5.69295
#
# Compressibility (1/GPa) = 0.02871701
#
# Stress axis : x y z
#
# Youngs Moduli (GPa) = 92.59799 40.77389 46.56232
#
# Poissons Ratio (x) = 0.10918 0.15640
# Poissons Ratio (y) = 0.24796 0.37275
# Poissons Ratio (z) = 0.31103 0.32641
#
# Static dielectric constant tensor:
#      x y z
#    x 3.793830 0.000000 0.000000 
#    y 0.000000 3.607830 0.000000 
#    z 0.000000 0.000000 3.555650 
# 
# 
# High freq. dielectric constant tensor:
#      x y z
#    x 1.797520 0.000000 0.000000 
#    y 0.000000 1.793640 0.000000 
#    z 0.000000 0.000000 1.790320 
# 
# From -- ./inp_files/4094.got.cif
#   From: 2010.03.12/outbox.cif.g09.slc.cpg/sg55_3_cif.got.tgz:4094.got - 2010.04.16 15:19:21.
