data_PCOD8227457
_publ_section_title
;
Structure prediction by ZEFSAII (Michael W. Deem and Ramdas Pophale) SiO2 
 PCOD8227457
Probable space group: P B A M
;
_chemical_formula_sum "Si O2"
_cell_formula_units_Z 56
_cell_length_a 21.033223
_cell_length_b 14.813152
_cell_length_c 8.846019
_cell_angle_alpha 90.000000
_cell_angle_beta 90.000000
_cell_angle_gamma 90.000000
_cell_volume 2756.139361
_symmetry_space_group_name_H-M "P B A M"
_symmetry_group_IT_number 55
_symmetry_cell_setting 'orthorhombic'
loop_
_space_group_symop_operation_xyz
x,y,z
-x,-y,z
1/2+x,1/2-y,-z
1/2-x,1/2+y,-z
-x,-y,-z
x,y,-z
1/2-x,1/2+y,z
1/2+x,1/2-y,z
loop_
_atom_site_type_symbol
_atom_site_label
_atom_site_fract_x
_atom_site_fract_y
_atom_site_fract_z
Si Si1 0.735806 0.823057 0.821715
Si Si2 0.233819 0.487775 0.330569
Si Si3 0.446079 0.573716 0.831451
Si Si4 0.399415 0.250439 0.821769
Si Si5 0.525447 0.243697 0.677755
Si Si6 0.628082 0.567126 0.670090
Si Si7 0.336340 0.813936 0.678800
O O1 0.666107 0.793131 0.762377
O O2 0.792021 0.762939 0.752086
O O3 0.742022 0.927947 0.779769
O O4 0.740367 0.811585 0.000000
O O5 0.218375 0.523165 0.500000
O O6 0.296289 0.425646 0.332973
O O7 0.181207 0.416244 0.271989
O O8 0.500000 0.500000 0.843431
O O9 0.471975 0.653559 0.729858
O O10 0.386574 0.529844 0.744914
O O11 0.425974 0.606557 0.000000
O O12 0.461571 0.199975 0.751603
O O13 0.401368 0.354305 0.771505
O O14 0.405335 0.245069 0.000000
O O15 0.517819 0.236807 0.500000
O O16 0.590602 0.196374 0.732415
O O17 0.600042 0.573427 0.500000
O O18 0.329419 0.801123 0.500000
#
# Coordination Sequence:
#
# PCOD8227457 Si02
#       7
#     8   8   8   8   8   8   8
#     4  11  24  40  63  93 123 160 204 249 302 365
#     4  10  22  40  63  89 119 155 199 252 304 357
#     4  11  22  34  51  80 120 156 188 235 297 363
#     4  11  23  39  58  85 121 158 197 242 297 358
#     4  11  23  38  60  87 118 157 204 251 299 359
#     4  11  21  35  59  86 113 152 198 245 297 354
#     4  10  22  42  64  91 123 158 202 253 306 360
#
# _framework density 20.318276000000001
#
# number of rings (size 3 to 8) (size 9 to 14) (size 15 to 20)
#    0.000    1.286    2.857    3.000    0.000    8.571 
#    0.000    0.714    0.000    4.286    0.000    0.000 
#    0.000    0.000    0.000    0.000    0.000    0.000 
#
# Total GULP energy -694317.225962 kJ/mol
# GULP energy per Si atom -12398.521892 kJ/mol
# Density = 2.027203 g / cm^3
# Si number density = 20.318276 Si / 1000 Ang^3
#
#
#
# Elastic Constant Matrix: (Units=GPa)
#
#
# Indices 1 2 3 4 5 6 
#
# 1 129.2958 21.3629 39.6630 0.0000 0.0000 0.0000
# 2 21.3629 58.8186 12.9901 0.0000 0.0000 0.0000
# 3 39.6630 12.9901 64.1995 0.0000 0.0000 0.0000
# 4 0.0000 0.0000 0.0000 16.8745 0.0000 0.0000
# 5 0.0000 0.0000 0.0000 0.0000 31.8181 0.0000
# 6 0.0000 0.0000 0.0000 0.0000 0.0000 31.8791
#
#
#
# Elastic Compliance Matrix: (Units=1/GPa)
#
#
# Indices 1 2 3 4 5 6 
#
# 1 0.009840 -0.002336 -0.005607 0.000000 0.000000 0.000000
# 2 -0.002336 0.018351 -0.002270 0.000000 0.000000 0.000000
# 3 -0.005607 -0.002270 0.019500 0.000000 0.000000 0.000000
# 4 0.000000 0.000000 0.000000 0.059261 0.000000 0.000000
# 5 0.000000 0.000000 0.000000 0.000000 0.031429 0.000000
# 6 0.000000 0.000000 0.000000 0.000000 0.000000 0.031369
#
#
# Mechanical properties :
#
#
# Convention : Reuss Voigt Hill
#
# Bulk Modulus (GPa) = 36.67598 44.48286 40.57942
# Shear Modulus (GPa) = 25.09253 28.00085 26.54669
#
# Velocity S-wave (km/s) = 3.51803 3.71632 3.61853
# Velocity P-wave (km/s) = 5.88149 6.35258 6.12157
#
# Compressibility (1/GPa) = 0.02726580
#
# Stress axis : x y z
#
# Youngs Moduli (GPa) = 101.62581 54.49263 51.28306
#
# Poissons Ratio (x) = 0.12728 0.28753
# Poissons Ratio (y) = 0.23736 0.11642
# Poissons Ratio (z) = 0.56978 0.12371
#
# Static dielectric constant tensor:
#      x y z
#    x 4.160520 0.000000 0.000000 
#    y 0.000000 3.489640 0.000000 
#    z 0.000000 0.000000 3.771690 
# 
# 
# High freq. dielectric constant tensor:
#      x y z
#    x 1.811110 0.000000 0.000000 
#    y 0.000000 1.767710 0.000000 
#    z 0.000000 0.000000 1.796400 
# 
# From -- ./inp_files/6097.got.cif
#   From: 2010.03.12/outbox.cif.g09.slc.cpg/sg55_4_cif.got.tgz:6097.got - 2010.04.16 15:19:21.
