data_PCOD8227705
_publ_section_title
;
Structure prediction by ZEFSAII (Michael W. Deem and Ramdas Pophale) SiO2 
 PCOD8227705
Probable space group: P B A M
;
_chemical_formula_sum "Si O2"
_cell_formula_units_Z 32
_cell_length_a 13.759915
_cell_length_b 9.064337
_cell_length_c 11.987112
_cell_angle_alpha 90.000000
_cell_angle_beta 90.000000
_cell_angle_gamma 90.000000
_cell_volume 1495.086630
_symmetry_space_group_name_H-M "P B A M"
_symmetry_group_IT_number 55
_symmetry_cell_setting 'orthorhombic'
loop_
_space_group_symop_operation_xyz
x,y,z
-x,-y,z
1/2+x,1/2-y,-z
1/2-x,1/2+y,-z
-x,-y,-z
x,y,-z
1/2-x,1/2+y,z
1/2+x,1/2-y,z
loop_
_atom_site_type_symbol
_atom_site_label
_atom_site_fract_x
_atom_site_fract_y
_atom_site_fract_z
Si Si1 0.796696 0.970032 0.267591
Si Si2 0.105228 0.079750 0.500000
Si Si3 0.619822 0.780571 0.733381
Si Si4 0.975436 0.329851 0.500000
Si Si5 0.455113 0.662003 0.125787
O O1 0.829419 0.956254 0.394681
O O2 0.683311 0.928895 0.250589
O O3 0.854728 0.851704 0.192253
O O4 0.813565 0.139621 0.234224
O O5 0.081066 0.253400 0.500000
O O6 0.000000 0.000000 0.500000
O O7 0.585586 0.774660 0.605921
O O8 0.526174 0.780251 0.814399
O O9 0.000000 0.500000 0.500000
O O10 0.500000 0.500000 0.128844
O O11 0.436046 0.716604 0.000000
#
# Coordination Sequence:
#
# PCOD8227705 Si02
#       5
#     8   4   8   4   8
#     4  11  22  37  62  88 125 160 206 251 310 367
#     4  12  19  40  62  83 121 165 196 242 308 370
#     4  11  23  39  60  93 123 162 201 255 306 369
#     4  12  25  38  62  89 125 161 201 249 306 364
#     4   9  19  39  63  86 118 163 208 254 307 364
#
# _framework density 21.403441999999998
#
# number of rings (size 3 to 8) (size 9 to 14) (size 15 to 20)
#    0.000    1.250    5.000    1.500    3.500    1.000 
#    0.000    0.000    0.000    5.250    0.000    0.000 
#    0.000    0.000    0.000    0.000    0.000    0.000 
#
# Total GULP energy -396729.823112 kJ/mol
# GULP energy per Si atom -12397.806972 kJ/mol
# Density = 2.135473 g / cm^3
# Si number density = 21.403442 Si / 1000 Ang^3
#
#
#
# Elastic Constant Matrix: (Units=GPa)
#
#
# Indices 1 2 3 4 5 6 
#
# 1 52.8397 5.2619 25.4271 0.0000 0.0000 0.0000
# 2 5.2619 67.2499 -4.8129 0.0000 0.0000 0.0000
# 3 25.4271 -4.8129 142.8045 0.0000 0.0000 0.0000
# 4 0.0000 0.0000 0.0000 12.2805 0.0000 0.0000
# 5 0.0000 0.0000 0.0000 0.0000 7.6201 0.0000
# 6 0.0000 0.0000 0.0000 0.0000 0.0000 48.2163
#
#
#
# Elastic Compliance Matrix: (Units=1/GPa)
#
#
# Indices 1 2 3 4 5 6 
#
# 1 0.020941 -0.001910 -0.003793 0.000000 0.000000 0.000000
# 2 -0.001910 0.015080 0.000848 0.000000 0.000000 0.000000
# 3 -0.003793 0.000848 0.007707 0.000000 0.000000 0.000000
# 4 0.000000 0.000000 0.000000 0.081430 0.000000 0.000000
# 5 0.000000 0.000000 0.000000 0.000000 0.131232 0.000000
# 6 0.000000 0.000000 0.000000 0.000000 0.000000 0.020740
#
#
# Mechanical properties :
#
#
# Convention : Reuss Voigt Hill
#
# Bulk Modulus (GPa) = 29.39616 34.96069 32.17843
# Shear Modulus (GPa) = 16.76854 29.42458 23.09656
#
# Velocity S-wave (km/s) = 2.80206 3.71180 3.28854
# Velocity P-wave (km/s) = 4.92268 5.89402 5.43012
#
# Compressibility (1/GPa) = 0.03401804
#
# Stress axis : x y z
#
# Youngs Moduli (GPa) = 47.75418 66.31272 129.76022
#
# Poissons Ratio (x) = 0.12665 0.49217
# Poissons Ratio (y) = 0.09121 -0.11008
# Poissons Ratio (z) = 0.18113 -0.05625
#
# Static dielectric constant tensor:
#      x y z
#    x 3.809820 0.000000 0.000000 
#    y 0.000000 3.777520 0.000000 
#    z 0.000000 0.000000 3.963160 
# 
# 
# High freq. dielectric constant tensor:
#      x y z
#    x 1.832930 0.000000 0.000000 
#    y 0.000000 1.825640 0.000000 
#    z 0.000000 0.000000 1.835490 
# 
# From -- ./inp_files/11726.got.cif
#   From: 2010.03.12/outbox.cif.g09.slc.cpg/sg55_6_cif.got.tgz:11726.got - 2010.04.16 15:19:21.
