data_PCOD8227168
_publ_section_title
;
Structure prediction by ZEFSAII (Michael W. Deem and Ramdas Pophale) SiO2 
 PCOD8227168
Probable space group: P B A M
;
_chemical_formula_sum "Si O2"
_cell_formula_units_Z 64
_cell_length_a 13.353006
_cell_length_b 18.755403
_cell_length_c 13.897176
_cell_angle_alpha 90.000000
_cell_angle_beta 90.000000
_cell_angle_gamma 90.000000
_cell_volume 3480.422777
_symmetry_space_group_name_H-M "P B A M"
_symmetry_group_IT_number 55
_symmetry_cell_setting 'orthorhombic'
loop_
_space_group_symop_operation_xyz
x,y,z
-x,-y,z
1/2+x,1/2-y,-z
1/2-x,1/2+y,-z
-x,-y,-z
x,y,-z
1/2-x,1/2+y,z
1/2+x,1/2-y,z
loop_
_atom_site_type_symbol
_atom_site_label
_atom_site_fract_x
_atom_site_fract_y
_atom_site_fract_z
Si Si1 0.930343 0.196337 0.390747
Si Si2 0.896697 0.634449 0.788292
Si Si3 0.758982 0.371125 0.612439
Si Si4 0.982543 0.359716 0.392909
Si Si5 0.604144 0.840642 0.886112
Si Si6 0.880762 0.497917 0.106272
Si Si7 0.728776 0.743498 0.746287
Si Si8 0.439636 0.565122 0.612628
O O1 0.893882 0.180559 0.500000
O O2 0.976922 0.274722 0.384434
O O3 0.838766 0.189583 0.316688
O O4 0.013006 0.140159 0.355675
O O5 0.842855 0.562300 0.826373
O O6 0.818297 0.698532 0.791418
O O7 0.934431 0.613474 0.681251
O O8 0.988661 0.661328 0.853457
O O9 0.750043 0.349451 0.500000
O O10 0.873818 0.393578 0.634678
O O11 0.727614 0.302548 0.674125
O O12 0.679269 0.433641 0.638960
O O13 0.014521 0.383698 0.500000
O O14 0.666279 0.779616 0.832514
O O15 0.651658 0.918496 0.859164
O O16 0.608660 0.827077 0.000000
O O17 0.000000 0.500000 0.103839
O O18 0.837003 0.511799 0.000000
O O19 0.500000 0.500000 0.663616
O O20 0.451132 0.555538 0.500000
#
# Coordination Sequence:
#
# PCOD8227168 Si02
#       8
#     8   8   8   8   8   8   8   8
#     4   9  17  32  49  72 108 142 178 216 255 310
#     4  11  19  33  56  82 107 134 178 223 262 322
#     4   9  17  31  51  77 108 146 182 213 254 307
#     4   9  17  30  51  77 107 142 179 218 257 308
#     4  10  21  39  57  76 105 135 174 223 272 325
#     4   8  17  35  57  74  95 133 172 213 264 317
#     4  11  21  32  54  83 105 134 177 218 270 314
#     4   9  17  30  49  74 106 146 185 218 254 302
#
# _framework density 18.388570000000001
#
# number of rings (size 3 to 8) (size 9 to 14) (size 15 to 20)
#    0.000    2.500    2.500    3.000    0.000    3.000 
#    2.250    0.000    0.000    4.875    0.000    0.000 
#    0.000    4.000    0.000    0.000    0.000    0.000 
#
# Total GULP energy -793121.696116 kJ/mol
# GULP energy per Si atom -12392.526502 kJ/mol
# Density = 1.834672 g / cm^3
# Si number density = 18.388570 Si / 1000 Ang^3
#
#
#
# Elastic Constant Matrix: (Units=GPa)
#
#
# Indices 1 2 3 4 5 6 
#
# 1 72.1410 43.9467 38.2827 0.0000 0.0000 0.0000
# 2 43.9467 59.2444 40.6882 0.0000 0.0000 0.0000
# 3 38.2827 40.6882 94.4536 0.0000 0.0000 0.0000
# 4 0.0000 0.0000 0.0000 19.8923 0.0000 0.0000
# 5 0.0000 0.0000 0.0000 0.0000 11.9482 0.0000
# 6 0.0000 0.0000 0.0000 0.0000 0.0000 20.3134
#
#
#
# Elastic Compliance Matrix: (Units=1/GPa)
#
#
# Indices 1 2 3 4 5 6 
#
# 1 0.025937 -0.017070 -0.003159 0.000000 0.000000 0.000000
# 2 -0.017070 0.035205 -0.008247 0.000000 0.000000 0.000000
# 3 -0.003159 -0.008247 0.015420 0.000000 0.000000 0.000000
# 4 0.000000 0.000000 0.000000 0.050271 0.000000 0.000000
# 5 0.000000 0.000000 0.000000 0.000000 0.083695 0.000000
# 6 0.000000 0.000000 0.000000 0.000000 0.000000 0.049229
#
#
# Mechanical properties :
#
#
# Convention : Reuss Voigt Hill
#
# Bulk Modulus (GPa) = 50.99352 52.40825 51.70089
# Shear Modulus (GPa) = 15.46814 17.29220 16.38017
#
# Velocity S-wave (km/s) = 2.90346 3.06988 2.98783
# Velocity P-wave (km/s) = 6.24751 6.41310 6.33085
#
# Compressibility (1/GPa) = 0.01961033
#
# Stress axis : x y z
#
# Youngs Moduli (GPa) = 38.55536 28.40472 64.84989
#
# Poissons Ratio (x) = 0.48487 0.20486
# Poissons Ratio (y) = 0.65814 0.53482
# Poissons Ratio (z) = 0.12180 0.23426
#
# Static dielectric constant tensor:
#      x y z
#    x 3.248230 0.000000 0.000000 
#    y 0.000000 3.484320 0.000000 
#    z 0.000000 0.000000 3.421990 
# 
# 
# High freq. dielectric constant tensor:
#      x y z
#    x 1.688080 0.000000 0.000000 
#    y 0.000000 1.699020 0.000000 
#    z 0.000000 0.000000 1.703540 
# 
# From -- ./inp_files/19124.got.cif
#   From: 2010.03.12/outbox.cif.g09.slc.cpg/sg55_10_cif.got.tgz:19124.got - 2010.04.16 15:19:21.
