data_PCOD8227896
_publ_section_title
;
Structure prediction by ZEFSAII (Michael W. Deem and Ramdas Pophale) SiO2 
 PCOD8227896
Probable space group: P C C N
;
_chemical_formula_sum "Si O2"
_cell_formula_units_Z 40
_cell_length_a 11.997150
_cell_length_b 20.331636
_cell_length_c 8.915391
_cell_angle_alpha 90.000000
_cell_angle_beta 90.000000
_cell_angle_gamma 90.000000
_cell_volume 2174.657212
_symmetry_space_group_name_H-M "P C C N"
_symmetry_group_IT_number 56
_symmetry_cell_setting 'orthorhombic'
loop_
_space_group_symop_operation_xyz
x,y,z
1/2-x,1/2-y,z
1/2+x,-y,1/2-z
-x,1/2+y,1/2-z
-x,-y,-z
1/2+x,1/2+y,-z
1/2-x,y,1/2+z
x,1/2-y,1/2+z
loop_
_atom_site_type_symbol
_atom_site_label
_atom_site_fract_x
_atom_site_fract_y
_atom_site_fract_z
Si Si1 0.940214 0.661092 0.517035
Si Si2 0.204338 0.400145 0.030503
Si Si3 0.234994 0.490994 0.781186
Si Si4 0.898270 0.048234 0.981315
Si Si5 0.628243 0.724684 0.319725
O O1 0.837087 0.611358 0.492239
O O2 0.943092 0.716118 0.387770
O O3 0.934069 0.696386 0.677059
O O4 0.056713 0.622551 0.508819
O O5 0.186139 0.446093 0.175640
O O6 0.140205 0.331543 0.051407
O O7 0.162096 0.439922 0.883787
O O8 0.155376 0.537063 0.682623
O O9 0.308628 0.537551 0.887293
O O10 0.000000 0.000000 0.000000
O O11 0.750000 0.750000 0.269393
#
# Coordination Sequence:
#
# PCOD8227896 Si02
#       5
#     8   8   8   8   8
#     4  11  21  34  56  81 121 151 185 240 300 358
#     4  10  17  34  56  87 118 143 186 246 309 353
#     4  10  20  34  61  87 117 155 193 239 299 355
#     4  11  21  39  59  84 122 159 195 245 295 356
#     4  10  20  32  56  90 115 149 192 247 310 351
#
# _framework density 18.393702999999999
#
# number of rings (size 3 to 8) (size 9 to 14) (size 15 to 20)
#    0.000    1.600    6.000    1.800    2.800    0.000 
#    0.000   13.000    0.000    3.600    0.000    0.000 
#    0.000    0.000    0.000    0.000    0.000    0.000 
#
# Total GULP energy -495965.448577 kJ/mol
# GULP energy per Si atom -12399.136214 kJ/mol
# Density = 1.835184 g / cm^3
# Si number density = 18.393703 Si / 1000 Ang^3
#
#
#
# Elastic Constant Matrix: (Units=GPa)
#
#
# Indices 1 2 3 4 5 6 
#
# 1 62.2014 48.5419 43.4555 0.0000 0.0000 0.0000
# 2 48.5419 113.5170 56.2393 0.0000 0.0000 0.0000
# 3 43.4555 56.2393 130.8943 0.0000 0.0000 0.0000
# 4 0.0000 0.0000 0.0000 27.8717 0.0000 0.0000
# 5 0.0000 0.0000 0.0000 0.0000 24.8438 0.0000
# 6 0.0000 0.0000 0.0000 0.0000 0.0000 38.9518
#
#
#
# Elastic Compliance Matrix: (Units=1/GPa)
#
#
# Indices 1 2 3 4 5 6 
#
# 1 0.026463 -0.008847 -0.004984 0.000000 0.000000 0.000000
# 2 -0.008847 0.014149 -0.003142 0.000000 0.000000 0.000000
# 3 -0.004984 -0.003142 0.010645 0.000000 0.000000 0.000000
# 4 0.000000 0.000000 0.000000 0.035879 0.000000 0.000000
# 5 0.000000 0.000000 0.000000 0.000000 0.040252 0.000000
# 6 0.000000 0.000000 0.000000 0.000000 0.000000 0.025673
#
#
# Mechanical properties :
#
#
# Convention : Reuss Voigt Hill
#
# Bulk Modulus (GPa) = 57.76998 67.00958 62.38978
# Shear Modulus (GPa) = 25.93685 28.89184 27.41435
#
# Velocity S-wave (km/s) = 3.75920 3.96756 3.86478
# Velocity P-wave (km/s) = 7.09350 7.58278 7.34222
#
# Compressibility (1/GPa) = 0.01731003
#
# Stress axis : x y z
#
# Youngs Moduli (GPa) = 37.78872 70.67671 93.94452
#
# Poissons Ratio (x) = 0.62525 0.46826
# Poissons Ratio (y) = 0.33430 0.29519
# Poissons Ratio (z) = 0.18836 0.22208
#
# Static dielectric constant tensor:
#      x y z
#    x 3.067050 0.000000 0.000000 
#    y 0.000000 3.646590 0.000000 
#    z 0.000000 0.000000 3.568140 
# 
# 
# High freq. dielectric constant tensor:
#      x y z
#    x 1.649870 0.000000 0.000000 
#    y 0.000000 1.718530 0.000000 
#    z 0.000000 0.000000 1.733620 
# 
# From -- ./inp_files/2678.got.cif
#   From: 2010.03.12/outbox.cif.g09.slc.cpg/sg56_2_cif.got.tgz:2678.got - 2010.04.16 15:33:40.
