data_PCOD8227360
_publ_section_title
;
Structure prediction by ZEFSAII (Michael W. Deem and Ramdas Pophale) SiO2 
 PCOD8227360
Probable space group: P B A M
;
_chemical_formula_sum "Si O2"
_cell_formula_units_Z 40
_cell_length_a 26.499237
_cell_length_b 9.190825
_cell_length_c 7.573183
_cell_angle_alpha 90.000000
_cell_angle_beta 90.000000
_cell_angle_gamma 90.000000
_cell_volume 1844.447583
_symmetry_space_group_name_H-M "P B A M"
_symmetry_group_IT_number 55
_symmetry_cell_setting 'orthorhombic'
loop_
_space_group_symop_operation_xyz
x,y,z
-x,-y,z
1/2+x,1/2-y,-z
1/2-x,1/2+y,-z
-x,-y,-z
x,y,-z
1/2-x,1/2+y,z
1/2+x,1/2-y,z
loop_
_atom_site_type_symbol
_atom_site_label
_atom_site_fract_x
_atom_site_fract_y
_atom_site_fract_z
Si Si1 0.628929 0.187254 0.293266
Si Si2 0.709084 0.681382 0.000000
Si Si3 0.153878 0.989142 0.304629
Si Si4 0.686280 0.025749 0.000000
Si Si5 0.452775 0.415063 0.802007
Si Si6 0.986677 0.658938 0.706489
O O1 0.634350 0.145231 0.500000
O O2 0.656133 0.340843 0.249850
O O3 0.570248 0.202783 0.239772
O O4 0.654213 0.060279 0.176516
O O5 0.683969 0.613611 0.173181
O O6 0.766922 0.635959 0.000000
O O7 0.702788 0.856439 0.000000
O O8 0.177404 0.969897 0.500000
O O9 0.096000 0.938205 0.316978
O O10 0.500000 0.500000 0.715931
O O11 0.470654 0.249261 0.808185
O O12 0.440380 0.470185 0.000000
O O13 0.994923 0.679426 0.500000
O O14 0.000000 0.500000 0.771462
#
# Coordination Sequence:
#
# PCOD8227360 Si02
#       6
#     8   4   8   4   8   8
#     4  10  23  43  69 101 133 178 223 268 333 393
#     4  12  28  50  70 104 122 170 220 273 353 397
#     4  11  23  42  70  99 138 177 223 275 325 398
#     4  12  28  48  76  92 134 165 210 291 337 408
#     4  11  22  35  60  97 135 182 225 263 311 383
#     4  10  22  37  57  90 135 177 217 263 314 379
#
# _framework density 21.686710000000001
#
# number of rings (size 3 to 8) (size 9 to 14) (size 15 to 20)
#    0.000    1.200    3.000    2.400    4.200    2.800 
#    0.000    0.000    0.000    0.000    0.000    0.000 
#    0.000    0.000    0.000    0.000    0.000    0.000 
#
# Total GULP energy -495991.349316 kJ/mol
# GULP energy per Si atom -12399.783733 kJ/mol
# Density = 2.163735 g / cm^3
# Si number density = 21.686710 Si / 1000 Ang^3
#
#
#
# Elastic Constant Matrix: (Units=GPa)
#
#
# Indices 1 2 3 4 5 6 
#
# 1 60.2377 6.7050 25.0016 0.0000 0.0000 0.0000
# 2 6.7050 120.1256 39.6831 0.0000 0.0000 0.0000
# 3 25.0016 39.6831 97.5885 0.0000 0.0000 0.0000
# 4 0.0000 0.0000 0.0000 43.0958 0.0000 0.0000
# 5 0.0000 0.0000 0.0000 0.0000 47.2929 0.0000
# 6 0.0000 0.0000 0.0000 0.0000 0.0000 41.2252
#
#
#
# Elastic Compliance Matrix: (Units=1/GPa)
#
#
# Indices 1 2 3 4 5 6 
#
# 1 0.018616 0.000620 -0.005021 0.000000 0.000000 0.000000
# 2 0.000620 0.009637 -0.004078 0.000000 0.000000 0.000000
# 3 -0.005021 -0.004078 0.013192 0.000000 0.000000 0.000000
# 4 0.000000 0.000000 0.000000 0.023204 0.000000 0.000000
# 5 0.000000 0.000000 0.000000 0.000000 0.021145 0.000000
# 6 0.000000 0.000000 0.000000 0.000000 0.000000 0.024257
#
#
# Mechanical properties :
#
#
# Convention : Reuss Voigt Hill
#
# Bulk Modulus (GPa) = 40.83907 46.74792 43.79350
# Shear Modulus (GPa) = 36.99016 40.09358 38.54187
#
# Velocity S-wave (km/s) = 4.13444 4.30439 4.22027
# Velocity P-wave (km/s) = 6.45475 6.80489 6.63213
#
# Compressibility (1/GPa) = 0.02448636
#
# Stress axis : x y z
#
# Youngs Moduli (GPa) = 53.71719 103.76636 75.80566
#
# Poissons Ratio (x) = -0.06430 0.38064
# Poissons Ratio (y) = -0.03329 0.30910
# Poissons Ratio (z) = 0.26973 0.42311
#
# Static dielectric constant tensor:
#      x y z
#    x 3.867690 0.000000 0.000000 
#    y 0.000000 4.024030 0.000000 
#    z 0.000000 0.000000 3.901180 
# 
# 
# High freq. dielectric constant tensor:
#      x y z
#    x 1.840970 0.000000 0.000000 
#    y 0.000000 1.856630 0.000000 
#    z 0.000000 0.000000 1.858510 
# 
# From -- ./inp_files/10016.got.cif
#   From: 2010.03.12/outbox.cif.g09.slc.cpg/sg55_6_cif.got.tgz:10016.got - 2010.04.16 15:19:21.
