data_PCOD8227789
_publ_section_title
;
Structure prediction by ZEFSAII (Michael W. Deem and Ramdas Pophale) SiO2 
 PCOD8227789
Probable space group: P B A M
;
_chemical_formula_sum "Si O2"
_cell_formula_units_Z 40
_cell_length_a 9.533086
_cell_length_b 8.778915
_cell_length_c 20.748409
_cell_angle_alpha 90.000000
_cell_angle_beta 90.000000
_cell_angle_gamma 90.000000
_cell_volume 1736.437496
_symmetry_space_group_name_H-M "P B A M"
_symmetry_group_IT_number 55
_symmetry_cell_setting 'orthorhombic'
loop_
_space_group_symop_operation_xyz
x,y,z
-x,-y,z
1/2+x,1/2-y,-z
1/2-x,1/2+y,-z
-x,-y,-z
x,y,-z
1/2-x,1/2+y,z
1/2+x,1/2-y,z
loop_
_atom_site_type_symbol
_atom_site_label
_atom_site_fract_x
_atom_site_fract_y
_atom_site_fract_z
Si Si1 0.482858 0.681338 0.425566
Si Si2 0.849721 0.569663 0.863286
Si Si3 0.839314 0.053556 0.738630
Si Si4 0.872388 0.890582 0.926689
Si Si5 0.278517 0.190461 0.348405
O O1 0.500000 0.500000 0.410884
O O2 0.446965 0.706612 0.500000
O O3 0.613035 0.789237 0.407005
O O4 0.363939 0.751409 0.380134
O O5 0.743082 0.540662 0.805005
O O6 0.870558 0.746739 0.879069
O O7 0.775347 0.481368 0.922477
O O8 0.000000 0.500000 0.846816
O O9 0.836240 0.226988 0.715741
O O10 0.754347 0.976434 0.679367
O O11 0.000000 0.000000 0.747435
O O12 0.892512 0.834489 0.000000
O O13 0.000000 0.000000 0.905782
#
# Coordination Sequence:
#
# PCOD8227789 Si02
#       5
#     8   8   8   8   8
#     4  11  24  45  69 102 141 177 228 293 357 427
#     4  12  27  44  71 110 140 192 248 298 355 423
#     4  12  27  47  68  96 144 183 234 292 351 416
#     4  11  25  48  76 107 150 191 234 293 359 428
#     4  12  22  46  68  99 132 187 227 289 356 417
#
# _framework density 23.035668000000001
#
# number of rings (size 3 to 8) (size 9 to 14) (size 15 to 20)
#    0.000    0.400    4.000    4.200    2.800    6.400 
#    0.000    1.000    0.000    0.000    0.000    0.000 
#    0.000    0.000    0.000    0.000    0.000    0.000 
#
# Total GULP energy -495770.445882 kJ/mol
# GULP energy per Si atom -12394.261147 kJ/mol
# Density = 2.298324 g / cm^3
# Si number density = 23.035668 Si / 1000 Ang^3
#
#
#
# Elastic Constant Matrix: (Units=GPa)
#
#
# Indices 1 2 3 4 5 6 
#
# 1 149.4610 48.2346 57.3536 0.0000 0.0000 0.0000
# 2 48.2346 91.0163 41.0259 0.0000 0.0000 0.0000
# 3 57.3536 41.0259 107.2746 0.0000 0.0000 0.0000
# 4 0.0000 0.0000 0.0000 18.3936 0.0000 0.0000
# 5 0.0000 0.0000 0.0000 0.0000 37.7784 0.0000
# 6 0.0000 0.0000 0.0000 0.0000 0.0000 38.1967
#
#
#
# Elastic Compliance Matrix: (Units=1/GPa)
#
#
# Indices 1 2 3 4 5 6 
#
# 1 0.009123 -0.003185 -0.003659 0.000000 0.000000 0.000000
# 2 -0.003185 0.014388 -0.003799 0.000000 0.000000 0.000000
# 3 -0.003659 -0.003799 0.012731 0.000000 0.000000 0.000000
# 4 0.000000 0.000000 0.000000 0.054367 0.000000 0.000000
# 5 0.000000 0.000000 0.000000 0.000000 0.026470 0.000000
# 6 0.000000 0.000000 0.000000 0.000000 0.000000 0.026180
#
#
# Mechanical properties :
#
#
# Convention : Reuss Voigt Hill
#
# Bulk Modulus (GPa) = 66.87217 71.22001 69.04609
# Shear Modulus (GPa) = 29.49300 32.28292 30.88796
#
# Velocity S-wave (km/s) = 3.58204 3.74763 3.66577
# Velocity P-wave (km/s) = 6.79712 7.05058 6.92501
#
# Compressibility (1/GPa) = 0.01495390
#
# Stress axis : x y z
#
# Youngs Moduli (GPa) = 109.61453 69.50377 78.54632
#
# Poissons Ratio (x) = 0.22139 0.28743
# Poissons Ratio (y) = 0.34915 0.29843
# Poissons Ratio (z) = 0.40111 0.26407
#
# Static dielectric constant tensor:
#      x y z
#    x 4.299360 0.000000 0.000000 
#    y 0.000000 4.061990 0.000000 
#    z 0.000000 0.000000 4.147760 
# 
# 
# High freq. dielectric constant tensor:
#      x y z
#    x 1.923060 0.000000 0.000000 
#    y 0.000000 1.903050 0.000000 
#    z 0.000000 0.000000 1.923470 
# 
# From -- ./inp_files/23405.got.cif
#   From: 2010.03.12/outbox.cif.g09.slc.cpg/sg55_12_cif.got.tgz:23405.got - 2010.04.16 15:19:21.
