data_PCOD8227912
_publ_section_title
;
Structure prediction by ZEFSAII (Michael W. Deem and Ramdas Pophale) SiO2 
 PCOD8227912
Probable space group: P C C N
;
_chemical_formula_sum "Si O2"
_cell_formula_units_Z 56
_cell_length_a 16.459883
_cell_length_b 8.717234
_cell_length_c 19.559350
_cell_angle_alpha 90.000000
_cell_angle_beta 90.000000
_cell_angle_gamma 90.000000
_cell_volume 2806.466523
_symmetry_space_group_name_H-M "P C C N"
_symmetry_group_IT_number 56
_symmetry_cell_setting 'orthorhombic'
loop_
_space_group_symop_operation_xyz
x,y,z
1/2-x,1/2-y,z
1/2+x,-y,1/2-z
-x,1/2+y,1/2-z
-x,-y,-z
1/2+x,1/2+y,-z
1/2-x,y,1/2+z
x,1/2-y,1/2+z
loop_
_atom_site_type_symbol
_atom_site_label
_atom_site_fract_x
_atom_site_fract_y
_atom_site_fract_z
Si Si1 0.718340 0.079333 0.863758
Si Si2 0.581356 0.772272 0.706379
Si Si3 0.645644 0.491489 0.121567
Si Si4 0.604501 0.356011 0.622805
Si Si5 0.731556 0.071252 0.014819
Si Si6 0.711062 0.525522 0.725583
Si Si7 0.458191 0.988317 0.177828
O O1 0.750000 0.250000 0.865856
O O2 0.728871 0.001503 0.938704
O O3 0.771069 0.992495 0.806410
O O4 0.621967 0.082535 0.854328
O O5 0.582228 0.868827 0.634366
O O6 0.669421 0.691662 0.716042
O O7 0.567375 0.892651 0.765357
O O8 0.508715 0.652131 0.709205
O O9 0.601238 0.327607 0.117106
O O10 0.704047 0.500724 0.187558
O O11 0.696425 0.520976 0.052768
O O12 0.649246 0.442257 0.559701
O O13 0.649107 0.397807 0.694777
O O14 0.513186 0.422275 0.622089
O O15 0.750000 0.250000 0.013804
#
# Coordination Sequence:
#
# PCOD8227912 Si02
#       7
#     8   8   8   8   8   8   8
#     4  11  22  37  61  89 123 155 198 247 303 353
#     4  11  23  36  57  88 121 149 200 247 300 354
#     4  10  17  36  64  86 113 148 202 245 288 352
#     4   9  19  37  61  87 114 157 196 240 297 361
#     4   8  18  36  62  88 115 158 203 240 292 364
#     4  10  20  34  60  84 116 149 196 246 297 343
#     4  11  24  36  58  89 123 157 194 248 306 355
#
# _framework density 19.953914999999999
#
# number of rings (size 3 to 8) (size 9 to 14) (size 15 to 20)
#    0.000    2.000    1.429    3.429    4.000    0.571 
#    0.000    0.000   22.000    2.571    0.000    0.000 
#    0.000    0.000    0.000    0.000    0.000    0.000 
#
# Total GULP energy -694026.949261 kJ/mol
# GULP energy per Si atom -12393.338380 kJ/mol
# Density = 1.990850 g / cm^3
# Si number density = 19.953915 Si / 1000 Ang^3
#
#
#
# Elastic Constant Matrix: (Units=GPa)
#
#
# Indices 1 2 3 4 5 6 
#
# 1 95.4187 31.1481 32.9221 0.0000 0.0000 0.0000
# 2 31.1481 79.9406 22.6783 0.0000 0.0000 0.0000
# 3 32.9221 22.6783 132.6495 0.0000 0.0000 0.0000
# 4 0.0000 0.0000 0.0000 12.4379 0.0000 0.0000
# 5 0.0000 0.0000 0.0000 0.0000 9.7738 0.0000
# 6 0.0000 0.0000 0.0000 0.0000 0.0000 35.0902
#
#
#
# Elastic Compliance Matrix: (Units=1/GPa)
#
#
# Indices 1 2 3 4 5 6 
#
# 1 0.012709 -0.004264 -0.002425 0.000000 0.000000 0.000000
# 2 -0.004264 0.014577 -0.001434 0.000000 0.000000 0.000000
# 3 -0.002425 -0.001434 0.008386 0.000000 0.000000 0.000000
# 4 0.000000 0.000000 0.000000 0.080399 0.000000 0.000000
# 5 0.000000 0.000000 0.000000 0.000000 0.102315 0.000000
# 6 0.000000 0.000000 0.000000 0.000000 0.000000 0.028498
#
#
# Mechanical properties :
#
#
# Convention : Reuss Voigt Hill
#
# Bulk Modulus (GPa) = 51.47770 53.50063 52.48917
# Shear Modulus (GPa) = 18.54563 26.21107 22.37835
#
# Velocity S-wave (km/s) = 3.05195 3.62827 3.35252
# Velocity P-wave (km/s) = 6.18656 6.66504 6.43025
#
# Compressibility (1/GPa) = 0.01942589
#
# Stress axis : x y z
#
# Youngs Moduli (GPa) = 78.68592 68.59910 119.25015
#
# Poissons Ratio (x) = 0.29250 0.28921
# Poissons Ratio (y) = 0.33550 0.17100
# Poissons Ratio (z) = 0.19083 0.09837
#
# Static dielectric constant tensor:
#      x y z
#    x 3.896200 0.000000 0.000000 
#    y 0.000000 3.699760 0.000000 
#    z 0.000000 0.000000 3.946050 
# 
# 
# High freq. dielectric constant tensor:
#      x y z
#    x 1.775870 0.000000 0.000000 
#    y 0.000000 1.777000 0.000000 
#    z 0.000000 0.000000 1.761890 
# 
# From -- ./inp_files/19136.got.cif
#   From: 2010.03.12/outbox.cif.g09.slc.cpg/sg56_10_cif.got.tgz:19136.got - 2010.04.16 15:33:40.
