data_PCOD8227289
_publ_section_title
;
Structure prediction by ZEFSAII (Michael W. Deem and Ramdas Pophale) SiO2 
 PCOD8227289
Probable space group: P B A M
;
_chemical_formula_sum "Si O2"
_cell_formula_units_Z 28
_cell_length_a 12.799045
_cell_length_b 4.997263
_cell_length_c 19.568710
_cell_angle_alpha 90.000000
_cell_angle_beta 90.000000
_cell_angle_gamma 90.000000
_cell_volume 1251.618488
_symmetry_space_group_name_H-M "P B A M"
_symmetry_group_IT_number 55
_symmetry_cell_setting 'orthorhombic'
loop_
_space_group_symop_operation_xyz
x,y,z
-x,-y,z
1/2+x,1/2-y,-z
1/2-x,1/2+y,-z
-x,-y,-z
x,y,-z
1/2-x,1/2+y,z
1/2+x,1/2-y,z
loop_
_atom_site_type_symbol
_atom_site_label
_atom_site_fract_x
_atom_site_fract_y
_atom_site_fract_z
Si Si1 0.175470 0.555279 0.000000
Si Si2 0.186269 0.793095 0.709324
Si Si3 0.570703 0.756336 0.424475
Si Si4 0.500000 0.000000 0.890877
Si Si5 0.000000 0.000000 0.198991
O O1 0.100867 0.588250 0.934445
O O2 0.267412 0.770905 0.000000
O O3 0.218502 0.491133 0.727614
O O4 0.163270 0.804157 0.628365
O O5 0.088215 0.879289 0.753097
O O6 0.500000 0.500000 0.430438
O O7 0.616980 0.825977 0.500000
O O8 0.500000 0.000000 0.396493
O O9 0.538955 0.254071 0.847244
#
# Coordination Sequence:
#
# PCOD8227289 Si02
#       5
#     4   8   8   4   4
#     4  11  24  45  74 104 136 167 220 277 317 387
#     4  12  26  41  66  97 130 179 229 275 337 399
#     4  10  21  40  66  91 125 172 222 284 347 394
#     4  11  26  44  70 102 133 182 216 262 339 388
#     4  12  26  45  65  96 146 176 222 274 322 404
#
# _framework density 22.371034000000002
#
# number of rings (size 3 to 8) (size 9 to 14) (size 15 to 20)
#    0.000    0.857    1.429    5.143    2.000   10.286 
#    0.000    0.000    0.000    0.000    0.000    0.000 
#    0.000    0.000    0.000    0.000    0.000    0.000 
#
# Total GULP energy -347262.984732 kJ/mol
# GULP energy per Si atom -12402.249455 kJ/mol
# Density = 2.232012 g / cm^3
# Si number density = 22.371034 Si / 1000 Ang^3
#
#
#
# Elastic Constant Matrix: (Units=GPa)
#
#
# Indices 1 2 3 4 5 6 
#
# 1 87.5564 18.6182 42.3523 0.0000 0.0000 0.0000
# 2 18.6182 127.6046 34.6504 0.0000 0.0000 0.0000
# 3 42.3523 34.6504 113.7777 0.0000 0.0000 0.0000
# 4 0.0000 0.0000 0.0000 -110.8921 0.0000 0.0000
# 5 0.0000 0.0000 0.0000 0.0000 -456.0438 0.0000
# 6 0.0000 0.0000 0.0000 0.0000 0.0000 47.0622
#
#
#
# Elastic Compliance Matrix: (Units=1/GPa)
#
#
# Indices 1 2 3 4 5 6 
#
# 1 0.013984 -0.000683 -0.004997 0.000000 0.000000 0.000000
# 2 -0.000683 0.008577 -0.002358 0.000000 0.000000 0.000000
# 3 -0.004997 -0.002358 0.011367 0.000000 0.000000 0.000000
# 4 0.000000 0.000000 0.000000 -0.009018 0.000000 0.000000
# 5 0.000000 0.000000 0.000000 0.000000 -0.002193 0.000000
# 6 0.000000 0.000000 0.000000 0.000000 0.000000 0.021248
#
#
# Mechanical properties :
#
#
# Convention : Reuss Voigt Hill
#
# Bulk Modulus (GPa) = 56.01823 57.79782 56.90803
# Shear Modulus (GPa) = 75.76664 -88.42024 -6.32680
#
# Velocity S-wave (km/s) = 5.82595 -6.29367 -1.68353
# Velocity P-wave (km/s) = 8.38752 5.18860 4.65988
#
# Compressibility (1/GPa) = 0.01785133
#
# Stress axis : x y z
#
# Youngs Moduli (GPa) = 71.51169 116.59625 87.97244
#
# Poissons Ratio (x) = 0.07968 0.43961
# Poissons Ratio (y) = 0.04887 0.20740
# Poissons Ratio (z) = 0.35736 0.27489
#
# Static dielectric constant tensor:
#      x y z
#    x 3.807170 0.000000 0.000000 
#    y 0.000000 4.212160 0.000000 
#    z 0.000000 0.000000 4.443530 
# 
# 
# High freq. dielectric constant tensor:
#      x y z
#    x 1.868210 0.000000 0.000000 
#    y 0.000000 1.903440 0.000000 
#    z 0.000000 0.000000 1.892170 
# 
# From -- ./inp_files/22767.got.cif
#   From: 2010.03.12/outbox.cif.g09.slc.cpg/sg55_12_cif.got.tgz:22767.got - 2010.04.16 15:19:21.
