data_PCOD8227167
_publ_section_title
;
Structure prediction by ZEFSAII (Michael W. Deem and Ramdas Pophale) SiO2 
 PCOD8227167
Probable space group: P B A M
;
_chemical_formula_sum "Si O2"
_cell_formula_units_Z 56
_cell_length_a 10.692448
_cell_length_b 17.538837
_cell_length_c 13.580378
_cell_angle_alpha 90.000000
_cell_angle_beta 90.000000
_cell_angle_gamma 90.000000
_cell_volume 2546.770421
_symmetry_space_group_name_H-M "P B A M"
_symmetry_group_IT_number 55
_symmetry_cell_setting 'orthorhombic'
loop_
_space_group_symop_operation_xyz
x,y,z
-x,-y,z
1/2+x,1/2-y,-z
1/2-x,1/2+y,-z
-x,-y,-z
x,y,-z
1/2-x,1/2+y,z
1/2+x,1/2-y,z
loop_
_atom_site_type_symbol
_atom_site_label
_atom_site_fract_x
_atom_site_fract_y
_atom_site_fract_z
Si Si1 0.779403 0.166648 0.885236
Si Si2 0.142933 0.705352 0.249889
Si Si3 0.448876 0.918443 0.207254
Si Si4 0.933006 0.169582 0.610549
Si Si5 0.463177 0.586544 0.107850
Si Si6 0.290782 0.942229 0.613108
Si Si7 0.665788 0.406432 0.693307
O O1 0.772505 0.246821 0.827446
O O2 0.673584 0.106489 0.853099
O O3 0.914706 0.132894 0.858193
O O4 0.763203 0.183009 0.000000
O O5 0.055419 0.759270 0.316305
O O6 0.234619 0.660782 0.324820
O O7 0.054977 0.645463 0.192515
O O8 0.414963 0.926261 0.323304
O O9 0.500000 0.000000 0.167741
O O10 0.951912 0.199301 0.500000
O O11 0.798247 0.130845 0.623300
O O12 0.039295 0.107541 0.633632
O O13 0.500000 0.500000 0.098439
O O14 0.355383 0.594456 0.188679
O O15 0.416194 0.615529 0.000000
O O16 0.328775 0.957109 0.500000
O O17 0.219644 0.014114 0.657989
#
# Coordination Sequence:
#
# PCOD8227167 Si02
#       7
#     8   8   8   8   8   8   8
#     4  11  25  46  70  99 135 174 228 286 347 417
#     4  12  26  43  66  97 138 184 221 285 351 405
#     4  12  25  48  70 100 142 187 227 284 343 413
#     4  11  24  41  66  97 131 175 231 287 344 411
#     4  10  21  38  68  99 126 169 218 276 343 408
#     4  11  24  44  71 101 136 181 231 286 343 405
#     4  12  22  42  67  94 136 177 227 286 342 411
#
# _framework density 21.988631999999999
#
# number of rings (size 3 to 8) (size 9 to 14) (size 15 to 20)
#    0.000    0.714    4.286    3.429    0.000    4.571 
#    0.000    0.000    0.000    0.000    0.000    0.000 
#    0.000    0.000    0.000    0.000    0.000    0.000 
#
# Total GULP energy -694607.907629 kJ/mol
# GULP energy per Si atom -12403.712636 kJ/mol
# Density = 2.193859 g / cm^3
# Si number density = 21.988632 Si / 1000 Ang^3
#
#
#
# Elastic Constant Matrix: (Units=GPa)
#
#
# Indices 1 2 3 4 5 6 
#
# 1 51.5392 19.0671 25.7183 0.0000 0.0000 0.0000
# 2 19.0671 112.0103 36.9582 0.0000 0.0000 0.0000
# 3 25.7183 36.9582 101.0047 0.0000 0.0000 0.0000
# 4 0.0000 0.0000 0.0000 17.0611 0.0000 0.0000
# 5 0.0000 0.0000 0.0000 0.0000 27.8646 0.0000
# 6 0.0000 0.0000 0.0000 0.0000 0.0000 45.0948
#
#
#
# Elastic Compliance Matrix: (Units=1/GPa)
#
#
# Indices 1 2 3 4 5 6 
#
# 1 0.022705 -0.002226 -0.004967 0.000000 0.000000 0.000000
# 2 -0.002226 0.010372 -0.003228 0.000000 0.000000 0.000000
# 3 -0.004967 -0.003228 0.012346 0.000000 0.000000 0.000000
# 4 0.000000 0.000000 0.000000 0.058613 0.000000 0.000000
# 5 0.000000 0.000000 0.000000 0.000000 0.035888 0.000000
# 6 0.000000 0.000000 0.000000 0.000000 0.000000 0.022175
#
#
# Mechanical properties :
#
#
# Convention : Reuss Voigt Hill
#
# Bulk Modulus (GPa) = 40.68216 47.56016 44.12116
# Shear Modulus (GPa) = 26.15954 30.19149 28.17551
#
# Velocity S-wave (km/s) = 3.45292 3.70949 3.58350
# Velocity P-wave (km/s) = 5.86843 6.32641 6.10172
#
# Compressibility (1/GPa) = 0.02458080
#
# Stress axis : x y z
#
# Youngs Moduli (GPa) = 44.04382 96.41446 80.99535
#
# Poissons Ratio (x) = 0.21464 0.40227
# Poissons Ratio (y) = 0.09805 0.26148
# Poissons Ratio (z) = 0.21875 0.31125
#
# Static dielectric constant tensor:
#      x y z
#    x 2.500330 0.000000 0.000000 
#    y 0.000000 4.443940 0.000000 
#    z 0.000000 0.000000 4.210560 
# 
# 
# High freq. dielectric constant tensor:
#      x y z
#    x 1.860260 0.000000 0.000000 
#    y 0.000000 1.874290 0.000000 
#    z 0.000000 0.000000 1.864510 
# 
# From -- ./inp_files/18399.got.cif
#   From: 2010.03.12/outbox.cif.g09.slc.cpg/sg55_10_cif.got.tgz:18399.got - 2010.04.16 15:19:21.
