data_PCOD8227906
_publ_section_title
;
Structure prediction by ZEFSAII (Michael W. Deem and Ramdas Pophale) SiO2 
 PCOD8227906
Probable space group: P C C N
;
_chemical_formula_sum "Si O2"
_cell_formula_units_Z 60
_cell_length_a 13.100574
_cell_length_b 12.983950
_cell_length_c 18.320229
_cell_angle_alpha 90.000000
_cell_angle_beta 90.000000
_cell_angle_gamma 90.000000
_cell_volume 3116.219616
_symmetry_space_group_name_H-M "P C C N"
_symmetry_group_IT_number 56
_symmetry_cell_setting 'orthorhombic'
loop_
_space_group_symop_operation_xyz
x,y,z
1/2-x,1/2-y,z
1/2+x,-y,1/2-z
-x,1/2+y,1/2-z
-x,-y,-z
1/2+x,1/2+y,-z
1/2-x,y,1/2+z
x,1/2-y,1/2+z
loop_
_atom_site_type_symbol
_atom_site_label
_atom_site_fract_x
_atom_site_fract_y
_atom_site_fract_z
Si Si1 0.495889 0.900304 0.079872
Si Si2 0.110756 0.395777 0.055686
Si Si3 0.977383 0.807691 0.882998
Si Si4 0.664136 0.336684 0.842980
Si Si5 0.474371 0.231424 0.782076
Si Si6 0.138035 0.734703 0.502861
Si Si7 0.250000 0.250000 0.242546
Si Si8 0.699939 0.561231 0.861194
O O1 0.511367 0.862899 0.161965
O O2 0.472136 0.021238 0.084102
O O3 0.598032 0.880682 0.031620
O O4 0.405430 0.841141 0.036434
O O5 0.093364 0.290787 0.099933
O O6 0.223133 0.437707 0.070756
O O7 0.009076 0.803798 0.798298
O O8 0.911104 0.911298 0.894057
O O9 0.072860 0.812148 0.936902
O O10 0.750000 0.250000 0.823703
O O11 0.555440 0.319312 0.803883
O O12 0.702973 0.450347 0.820862
O O13 0.644434 0.344287 0.929832
O O14 0.355583 0.268420 0.787997
O O15 0.250000 0.750000 0.469115
O O16 0.267961 0.353424 0.197301
#
# Coordination Sequence:
#
# PCOD8227906 Si02
#       8
#     8   8   8   8   8   8   4   8
#     4   9  20  33  61  86 111 158 204 258 296 360
#     4  10  17  36  58  85 111 156 209 243 302 367
#     4  10  21  33  58  81 120 158 193 251 306 369
#     4  10  22  39  63  89 118 165 207 257 305 362
#     4  10  20  41  56  91 124 158 207 246 308 370
#     4   9  18  37  54  82 117 155 201 256 304 358
#     4  10  22  40  58  90 126 170 190 252 310 372
#     4  11  19  38  60  85 118 161 202 245 319 356
#
# _framework density 19.254099
#
# number of rings (size 3 to 8) (size 9 to 14) (size 15 to 20)
#    0.000    2.133    2.667    2.400    0.000    3.200 
#   12.000    0.000    5.867    0.000    0.000    0.000 
#    0.000    0.000    0.000    0.000    0.000    0.000 
#
# Total GULP energy -743596.386634 kJ/mol
# GULP energy per Si atom -12393.273111 kJ/mol
# Density = 1.921028 g / cm^3
# Si number density = 19.254099 Si / 1000 Ang^3
#
#
#
# Elastic Constant Matrix: (Units=GPa)
#
#
# Indices 1 2 3 4 5 6 
#
# 1 149.1129 33.4464 46.3172 0.0000 0.0000 0.0000
# 2 33.4464 116.9481 23.8264 0.0000 0.0000 0.0000
# 3 46.3172 23.8264 100.9060 0.0000 0.0000 0.0000
# 4 0.0000 0.0000 0.0000 15.1513 0.0000 0.0000
# 5 0.0000 0.0000 0.0000 0.0000 36.2566 0.0000
# 6 0.0000 0.0000 0.0000 0.0000 0.0000 25.7605
#
#
#
# Elastic Compliance Matrix: (Units=1/GPa)
#
#
# Indices 1 2 3 4 5 6 
#
# 1 0.008110 -0.001640 -0.003335 0.000000 0.000000 0.000000
# 2 -0.001640 0.009315 -0.001447 0.000000 0.000000 0.000000
# 3 -0.003335 -0.001447 0.011783 0.000000 0.000000 0.000000
# 4 0.000000 0.000000 0.000000 0.066001 0.000000 0.000000
# 5 0.000000 0.000000 0.000000 0.000000 0.027581 0.000000
# 6 0.000000 0.000000 0.000000 0.000000 0.000000 0.038819
#
#
# Mechanical properties :
#
#
# Convention : Reuss Voigt Hill
#
# Bulk Modulus (GPa) = 61.11158 63.79410 62.45284
# Shear Modulus (GPa) = 27.79204 32.99213 30.39209
#
# Velocity S-wave (km/s) = 3.80338 4.14395 3.97731
# Velocity P-wave (km/s) = 7.14815 7.49007 7.32110
#
# Compressibility (1/GPa) = 0.01636351
#
# Stress axis : x y z
#
# Youngs Moduli (GPa) = 123.30110 107.35897 84.86921
#
# Poissons Ratio (x) = 0.17606 0.28308
# Poissons Ratio (y) = 0.20220 0.12278
# Poissons Ratio (z) = 0.41127 0.15531
#
# Static dielectric constant tensor:
#      x y z
#    x 3.811410 0.000000 0.000000 
#    y 0.000000 3.468050 0.000000 
#    z 0.000000 0.000000 3.449140 
# 
# 
# High freq. dielectric constant tensor:
#      x y z
#    x 1.754120 0.000000 0.000000 
#    y 0.000000 1.743010 0.000000 
#    z 0.000000 0.000000 1.733170 
# 
# From -- ./inp_files/16316.got.cif
#   From: 2010.03.12/outbox.cif.g09.slc.cpg/sg56_9_cif.got.tgz:16316.got - 2010.04.16 15:33:40.
