data_PCOD8227211
_publ_section_title
;
Structure prediction by ZEFSAII (Michael W. Deem and Ramdas Pophale) SiO2 
 PCOD8227211
Probable space group: P B A M
;
_chemical_formula_sum "Si O2"
_cell_formula_units_Z 40
_cell_length_a 8.981106
_cell_length_b 15.630067
_cell_length_c 12.810796
_cell_angle_alpha 90.000000
_cell_angle_beta 90.000000
_cell_angle_gamma 90.000000
_cell_volume 1798.319185
_symmetry_space_group_name_H-M "P B A M"
_symmetry_group_IT_number 55
_symmetry_cell_setting 'orthorhombic'
loop_
_space_group_symop_operation_xyz
x,y,z
-x,-y,z
1/2+x,1/2-y,-z
1/2-x,1/2+y,-z
-x,-y,-z
x,y,-z
1/2-x,1/2+y,z
1/2+x,1/2-y,z
loop_
_atom_site_type_symbol
_atom_site_label
_atom_site_fract_x
_atom_site_fract_y
_atom_site_fract_z
Si Si1 0.650157 0.038232 0.820988
Si Si2 0.151389 0.815633 0.117393
Si Si3 0.207871 0.712952 0.313925
Si Si4 0.905782 0.922796 0.231384
Si Si5 0.901154 0.635016 0.616488
O O1 0.700625 0.124888 0.878700
O O2 0.622668 0.058322 0.697975
O O3 0.500000 0.000000 0.871203
O O4 0.773284 0.965015 0.835119
O O5 0.172515 0.734081 0.192366
O O6 0.008713 0.870141 0.152418
O O7 0.127695 0.782193 0.000000
O O8 0.335642 0.639825 0.318407
O O9 0.267224 0.796897 0.371715
O O10 0.059184 0.681150 0.368670
O O11 0.000000 0.000000 0.285840
O O12 0.893520 0.596494 0.500000
#
# Coordination Sequence:
#
# PCOD8227211 Si02
#       5
#     8   8   8   8   8
#     4  10  21  39  63  89 127 160 203 266 309 370
#     4  10  23  41  65  91 123 169 211 253 317 384
#     4  11  21  42  64  92 128 162 209 269 310 369
#     4  10  21  40  63  87 131 166 199 255 323 368
#     4  11  23  40  65  93 124 168 212 258 322 378
#
# _framework density 22.242989999999999
#
# number of rings (size 3 to 8) (size 9 to 14) (size 15 to 20)
#    0.000    1.600    4.000    0.600    0.000    5.200 
#    0.000    0.000    0.000    5.400    0.000    0.000 
#    0.000    0.000    0.000    0.000    0.000    0.000 
#
# Total GULP energy -495969.562101 kJ/mol
# GULP energy per Si atom -12399.239053 kJ/mol
# Density = 2.219236 g / cm^3
# Si number density = 22.242990 Si / 1000 Ang^3
#
#
#
# Elastic Constant Matrix: (Units=GPa)
#
#
# Indices 1 2 3 4 5 6 
#
# 1 120.6893 16.4691 10.8373 0.0000 0.0000 0.0000
# 2 16.4691 59.5891 6.0955 0.0000 0.0000 0.0000
# 3 10.8373 6.0955 104.8258 0.0000 0.0000 0.0000
# 4 0.0000 0.0000 0.0000 10.3079 0.0000 0.0000
# 5 0.0000 0.0000 0.0000 0.0000 15.3336 0.0000
# 6 0.0000 0.0000 0.0000 0.0000 0.0000 39.1665
#
#
#
# Elastic Compliance Matrix: (Units=1/GPa)
#
#
# Indices 1 2 3 4 5 6 
#
# 1 0.008670 -0.002318 -0.000762 0.000000 0.000000 0.000000
# 2 -0.002318 0.017502 -0.000778 0.000000 0.000000 0.000000
# 3 -0.000762 -0.000778 0.009664 0.000000 0.000000 0.000000
# 4 0.000000 0.000000 0.000000 0.097013 0.000000 0.000000
# 5 0.000000 0.000000 0.000000 0.000000 0.065216 0.000000
# 6 0.000000 0.000000 0.000000 0.000000 0.000000 0.025532
#
#
# Mechanical properties :
#
#
# Convention : Reuss Voigt Hill
#
# Bulk Modulus (GPa) = 35.56192 39.10089 37.33141
# Shear Modulus (GPa) = 20.77392 29.74177 25.25785
#
# Velocity S-wave (km/s) = 3.05938 3.66065 3.37344
# Velocity P-wave (km/s) = 5.33876 5.95686 5.65626
#
# Compressibility (1/GPa) = 0.02811997
#
# Stress axis : x y z
#
# Youngs Moduli (GPa) = 115.33375 57.13657 103.48100
#
# Poissons Ratio (x) = 0.13247 0.07881
# Poissons Ratio (y) = 0.26739 0.08051
# Poissons Ratio (z) = 0.08783 0.04445
#
# Static dielectric constant tensor:
#      x y z
#    x 4.336120 0.000000 0.000000 
#    y 0.000000 4.068060 0.000000 
#    z 0.000000 0.000000 3.596180 
# 
# 
# High freq. dielectric constant tensor:
#      x y z
#    x 1.898690 0.000000 0.000000 
#    y 0.000000 1.879400 0.000000 
#    z 0.000000 0.000000 1.829050 
# 
# From -- ./inp_files/11857.got.cif
#   From: 2010.03.12/outbox.cif.g09.slc.cpg/sg55_6_cif.got.tgz:11857.got - 2010.04.16 15:19:21.
