data_PCOD8227488
_publ_section_title
;
Structure prediction by ZEFSAII (Michael W. Deem and Ramdas Pophale) SiO2 
 PCOD8227488
Probable space group: P B A M
;
_chemical_formula_sum "Si O2"
_cell_formula_units_Z 40
_cell_length_a 8.691246
_cell_length_b 25.072653
_cell_length_c 8.396792
_cell_angle_alpha 90.000000
_cell_angle_beta 90.000000
_cell_angle_gamma 90.000000
_cell_volume 1829.766735
_symmetry_space_group_name_H-M "P B A M"
_symmetry_group_IT_number 55
_symmetry_cell_setting 'orthorhombic'
loop_
_space_group_symop_operation_xyz
x,y,z
-x,-y,z
1/2+x,1/2-y,-z
1/2-x,1/2+y,-z
-x,-y,-z
x,y,-z
1/2-x,1/2+y,z
1/2+x,1/2-y,z
loop_
_atom_site_type_symbol
_atom_site_label
_atom_site_fract_x
_atom_site_fract_y
_atom_site_fract_z
Si Si1 0.666551 0.116732 0.183723
Si Si2 0.837223 0.407833 0.684891
Si Si3 0.654381 0.711654 0.317742
Si Si4 0.824452 0.007204 0.185826
Si Si5 0.829280 0.810106 0.815334
O O1 0.491216 0.102643 0.217328
O O2 0.716030 0.167143 0.288459
O O3 0.775238 0.067128 0.227408
O O4 0.684449 0.132594 0.000000
O O5 0.868947 0.398232 0.500000
O O6 0.782954 0.468135 0.712926
O O7 0.704143 0.368997 0.749376
O O8 0.600041 0.710209 0.500000
O O9 0.508998 0.701440 0.205640
O O10 0.724432 0.769153 0.281460
O O11 0.801694 0.994142 0.000000
O O12 0.000000 0.000000 0.239218
O O13 0.787031 0.806159 0.000000
#
# Coordination Sequence:
#
# PCOD8227488 Si02
#       5
#     8   8   8   8   8
#     4  11  23  41  65  93 127 169 213 255 308 375
#     4  12  25  41  63  93 128 165 209 263 318 367
#     4  12  25  43  66  96 130 162 205 261 317 367
#     4  10  22  41  65  92 124 164 211 260 311 374
#     4  12  25  44  67  92 125 167 212 254 308 376
#
# _framework density 21.860710000000001
#
# number of rings (size 3 to 8) (size 9 to 14) (size 15 to 20)
#    0.000    0.600    0.000    9.000    0.000    6.000 
#    0.000    0.000    0.000    0.000    0.000    0.000 
#    0.000    0.000    0.000    0.000    0.000    0.000 
#
# Total GULP energy -496454.802314 kJ/mol
# GULP energy per Si atom -12411.370058 kJ/mol
# Density = 2.181095 g / cm^3
# Si number density = 21.860710 Si / 1000 Ang^3
#
#
#
# Elastic Constant Matrix: (Units=GPa)
#
#
# Indices 1 2 3 4 5 6 
#
# 1 74.3216 -1.5107 3.1206 0.0000 0.0000 0.0000
# 2 -1.5107 65.0134 38.5075 0.0000 0.0000 0.0000
# 3 3.1206 38.5075 93.9024 0.0000 0.0000 0.0000
# 4 0.0000 0.0000 0.0000 35.2994 0.0000 0.0000
# 5 0.0000 0.0000 0.0000 0.0000 30.8844 0.0000
# 6 0.0000 0.0000 0.0000 0.0000 0.0000 41.5704
#
#
#
# Elastic Compliance Matrix: (Units=1/GPa)
#
#
# Indices 1 2 3 4 5 6 
#
# 1 0.013503 0.000765 -0.000763 0.000000 0.000000 0.000000
# 2 0.000765 0.020359 -0.008374 0.000000 0.000000 0.000000
# 3 -0.000763 -0.008374 0.014109 0.000000 0.000000 0.000000
# 4 0.000000 0.000000 0.000000 0.028329 0.000000 0.000000
# 5 0.000000 0.000000 0.000000 0.000000 0.032379 0.000000
# 6 0.000000 0.000000 0.000000 0.000000 0.000000 0.024056
#
#
# Mechanical properties :
#
#
# Convention : Reuss Voigt Hill
#
# Bulk Modulus (GPa) = 32.02282 34.83026 33.42654
# Shear Modulus (GPa) = 31.27210 34.42550 32.84880
#
# Velocity S-wave (km/s) = 3.78632 3.97264 3.88060
# Velocity P-wave (km/s) = 5.81338 6.08357 5.95001
#
# Compressibility (1/GPa) = 0.03122773
#
# Stress axis : x y z
#
# Youngs Moduli (GPa) = 74.05972 49.11725 70.87726
#
# Poissons Ratio (x) = -0.03760 0.05405
# Poissons Ratio (y) = -0.05669 0.59356
# Poissons Ratio (z) = 0.05648 0.41133
#
# Static dielectric constant tensor:
#      x y z
#    x 3.899100 0.000000 0.000000 
#    y 0.000000 4.083440 0.000000 
#    z 0.000000 0.000000 3.891780 
# 
# 
# High freq. dielectric constant tensor:
#      x y z
#    x 1.870060 0.000000 0.000000 
#    y 0.000000 1.873180 0.000000 
#    z 0.000000 0.000000 1.863140 
# 
# From -- ./inp_files/2315.got.cif
#   From: 2010.03.12/outbox.cif.g09.slc.cpg/sg55_2_cif.got.tgz:2315.got - 2010.04.16 15:19:21.
