data_PCOD8227917
_publ_section_title
;
Structure prediction by ZEFSAII (Michael W. Deem and Ramdas Pophale) SiO2 
 PCOD8227917
Probable space group: P C C N
;
_chemical_formula_sum "Si O2"
_cell_formula_units_Z 48
_cell_length_a 9.642116
_cell_length_b 11.156962
_cell_length_c 21.605664
_cell_angle_alpha 90.000000
_cell_angle_beta 90.000000
_cell_angle_gamma 90.000000
_cell_volume 2324.266506
_symmetry_space_group_name_H-M "P C C N"
_symmetry_group_IT_number 56
_symmetry_cell_setting 'orthorhombic'
loop_
_space_group_symop_operation_xyz
x,y,z
1/2-x,1/2-y,z
1/2+x,-y,1/2-z
-x,1/2+y,1/2-z
-x,-y,-z
1/2+x,1/2+y,-z
1/2-x,y,1/2+z
x,1/2-y,1/2+z
loop_
_atom_site_type_symbol
_atom_site_label
_atom_site_fract_x
_atom_site_fract_y
_atom_site_fract_z
Si Si1 0.488022 0.052403 0.311725
Si Si2 0.226132 0.887423 0.279945
Si Si3 0.142582 0.971873 0.404931
Si Si4 0.945563 0.456910 0.564809
Si Si5 0.904794 0.273381 0.005406
Si Si6 0.592225 0.769017 0.110121
O O1 0.619163 0.051033 0.267135
O O2 0.444213 0.190453 0.328706
O O3 0.363016 0.972717 0.282032
O O4 0.539848 0.992934 0.376471
O O5 0.250000 0.750000 0.258759
O O6 0.154283 0.881305 0.347242
O O7 0.295929 0.018208 0.423522
O O8 0.073756 0.906030 0.464865
O O9 0.058093 0.088936 0.381616
O O10 0.931632 0.313742 0.563697
O O11 0.000000 0.500000 0.500000
O O12 0.750000 0.250000 0.980340
O O13 0.004361 0.233118 0.950120
O O14 0.750000 0.750000 0.092532
#
# Coordination Sequence:
#
# PCOD8227917 Si02
#       6
#     8   8   8   8   8   8
#     4  11  25  43  68  97 132 178 228 279 339 400
#     4  11  25  46  69  95 133 180 228 280 337 400
#     4  10  21  39  63  93 129 173 218 264 338 399
#     4  10  17  38  63  91 127 173 214 270 336 392
#     4  10  21  37  63  96 129 170 218 271 331 409
#     4  12  21  40  63  94 133 169 214 276 340 397
#
# _framework density 20.651675999999998
#
# number of rings (size 3 to 8) (size 9 to 14) (size 15 to 20)
#    0.000    1.333    5.000    3.000    2.333    0.667 
#    0.000    3.333    0.000    0.000    0.000    0.000 
#    0.000    0.000    0.000    0.000    0.000    0.000 
#
# Total GULP energy -594644.305248 kJ/mol
# GULP energy per Si atom -12388.423026 kJ/mol
# Density = 2.060467 g / cm^3
# Si number density = 20.651676 Si / 1000 Ang^3
#
#
#
# Elastic Constant Matrix: (Units=GPa)
#
#
# Indices 1 2 3 4 5 6 
#
# 1 78.9526 36.1966 66.9514 0.0000 0.0000 0.0000
# 2 36.1966 115.9693 26.8246 0.0000 0.0000 0.0000
# 3 66.9514 26.8246 116.4660 0.0000 0.0000 0.0000
# 4 0.0000 0.0000 0.0000 30.7523 0.0000 0.0000
# 5 0.0000 0.0000 0.0000 0.0000 33.7467 0.0000
# 6 0.0000 0.0000 0.0000 0.0000 0.0000 26.1138
#
#
#
# Elastic Compliance Matrix: (Units=1/GPa)
#
#
# Indices 1 2 3 4 5 6 
#
# 1 0.027372 -0.005180 -0.014542 0.000000 0.000000 0.000000
# 2 -0.005180 0.010088 0.000654 0.000000 0.000000 0.000000
# 3 -0.014542 0.000654 0.016795 0.000000 0.000000 0.000000
# 4 0.000000 0.000000 0.000000 0.032518 0.000000 0.000000
# 5 0.000000 0.000000 0.000000 0.000000 0.029633 0.000000
# 6 0.000000 0.000000 0.000000 0.000000 0.000000 0.038294
#
#
# Mechanical properties :
#
#
# Convention : Reuss Voigt Hill
#
# Bulk Modulus (GPa) = 62.03418 63.48147 62.75783
# Shear Modulus (GPa) = 25.22587 30.21692 27.72140
#
# Velocity S-wave (km/s) = 3.49878 3.82929 3.66776
# Velocity P-wave (km/s) = 6.81362 7.09628 6.95639
#
# Compressibility (1/GPa) = 0.01612014
#
# Stress axis : x y z
#
# Youngs Moduli (GPa) = 36.53340 99.12371 59.54075
#
# Poissons Ratio (x) = 0.51344 0.86585
# Poissons Ratio (y) = 0.18924 -0.03894
# Poissons Ratio (z) = 0.53127 -0.06483
#
# Static dielectric constant tensor:
#      x y z
#    x 3.523980 0.000000 0.000000 
#    y 0.000000 4.218990 0.000000 
#    z 0.000000 0.000000 3.694740 
# 
# 
# High freq. dielectric constant tensor:
#      x y z
#    x 1.778200 0.000000 0.000000 
#    y 0.000000 1.833420 0.000000 
#    z 0.000000 0.000000 1.800720 
# 
# From -- ./inp_files/20479.got.cif
#   From: 2010.03.12/outbox.cif.g09.slc.cpg/sg56_11_cif.got.tgz:20479.got - 2010.04.16 15:33:40.
