data_PCOD8227096
_publ_section_title
;
Structure prediction by ZEFSAII (Michael W. Deem and Ramdas Pophale) SiO2 
 PCOD8227096
Probable space group: P B A M
;
_chemical_formula_sum "Si O2"
_cell_formula_units_Z 64
_cell_length_a 16.571197
_cell_length_b 22.211872
_cell_length_c 8.888922
_cell_angle_alpha 90.000000
_cell_angle_beta 90.000000
_cell_angle_gamma 90.000000
_cell_volume 3271.810469
_symmetry_space_group_name_H-M "P B A M"
_symmetry_group_IT_number 55
_symmetry_cell_setting 'orthorhombic'
loop_
_space_group_symop_operation_xyz
x,y,z
-x,-y,z
1/2+x,1/2-y,-z
1/2-x,1/2+y,-z
-x,-y,-z
x,y,-z
1/2-x,1/2+y,z
1/2+x,1/2-y,z
loop_
_atom_site_type_symbol
_atom_site_label
_atom_site_fract_x
_atom_site_fract_y
_atom_site_fract_z
Si Si1 0.653536 0.358385 0.175591
Si Si2 0.176933 0.381879 0.325339
Si Si3 0.590464 0.229819 0.822331
Si Si4 0.591118 0.998316 0.321143
Si Si5 0.007328 0.930136 0.826862
Si Si6 0.092789 0.732727 0.821757
Si Si7 0.818747 0.379409 0.678114
Si Si8 0.141183 0.854391 0.673982
O O1 0.635047 0.290563 0.229729
O O2 0.576967 0.399285 0.212124
O O3 0.726275 0.384980 0.272453
O O4 0.676156 0.360227 0.000000
O O5 0.156269 0.374454 0.500000
O O6 0.137982 0.326189 0.241332
O O7 0.139025 0.443456 0.260370
O O8 0.272044 0.383934 0.295440
O O9 0.498869 0.230434 0.761604
O O10 0.589049 0.225777 0.000000
O O11 0.591194 0.998398 0.500000
O O12 0.634506 0.938234 0.261430
O O13 0.500000 0.000000 0.257882
O O14 0.075892 0.903621 0.720701
O O15 0.031015 0.917783 0.000000
O O16 0.000000 0.000000 0.791002
O O17 0.142174 0.678698 0.751357
O O18 0.133623 0.794723 0.772700
O O19 0.097416 0.728060 0.000000
O O20 0.824396 0.373807 0.500000
O O21 0.129801 0.837284 0.500000
#
# Coordination Sequence:
#
# PCOD8227096 Si02
#       8
#     8   8   8   8   8   8   8   8
#     4  10  21  40  60  85 120 157 197 243 297 353
#     4  10  22  38  58  86 119 153 194 243 297 357
#     4  10  21  38  60  85 114 153 197 242 294 348
#     4   9  19  38  60  82 115 156 191 233 292 354
#     4  10  22  41  64  88 120 165 208 243 294 363
#     4  11  22  40  62  85 120 159 199 247 300 356
#     4  11  23  37  60  91 118 152 201 247 299 358
#     4  11  23  38  60  91 123 155 199 251 302 355
#
# _framework density 19.561035
#
# number of rings (size 3 to 8) (size 9 to 14) (size 15 to 20)
#    0.000    1.750    1.250    2.625    1.750    6.250 
#    0.000    1.250    0.000    3.375    0.000    0.000 
#    0.000    0.000    0.000    0.000    0.000    0.000 
#
# Total GULP energy -793912.950059 kJ/mol
# GULP energy per Si atom -12404.889845 kJ/mol
# Density = 1.951651 g / cm^3
# Si number density = 19.561035 Si / 1000 Ang^3
#
#
#
# Elastic Constant Matrix: (Units=GPa)
#
#
# Indices 1 2 3 4 5 6 
#
# 1 124.0591 64.1208 22.1449 0.0000 0.0000 0.0000
# 2 64.1208 139.7454 17.6869 0.0000 0.0000 0.0000
# 3 22.1449 17.6869 27.4195 0.0000 0.0000 0.0000
# 4 0.0000 0.0000 0.0000 28.9408 0.0000 0.0000
# 5 0.0000 0.0000 0.0000 0.0000 -31.4798 0.0000
# 6 0.0000 0.0000 0.0000 0.0000 0.0000 33.1142
#
#
#
# Elastic Compliance Matrix: (Units=1/GPa)
#
#
# Indices 1 2 3 4 5 6 
#
# 1 0.011518 -0.004473 -0.006417 0.000000 0.000000 0.000000
# 2 -0.004473 0.009529 -0.002534 0.000000 0.000000 0.000000
# 3 -0.006417 -0.002534 0.043288 0.000000 0.000000 0.000000
# 4 0.000000 0.000000 0.000000 0.034553 0.000000 0.000000
# 5 0.000000 0.000000 0.000000 0.000000 -0.031766 0.000000
# 6 0.000000 0.000000 0.000000 0.000000 0.000000 0.030199
#
#
# Mechanical properties :
#
#
# Convention : Reuss Voigt Hill
#
# Bulk Modulus (GPa) = 26.67636 55.45878 41.06757
# Shear Modulus (GPa) = 36.58619 18.59981 27.59300
#
# Velocity S-wave (km/s) = 4.32946 3.08695 3.75988
# Velocity P-wave (km/s) = 6.21767 6.41240 6.31578
#
# Compressibility (1/GPa) = 0.03748637
#
# Stress axis : x y z
#
# Youngs Moduli (GPa) = 86.82146 104.94420 23.10118
#
# Poissons Ratio (x) = 0.46938 0.14824
# Poissons Ratio (y) = 0.38832 0.05855
# Poissons Ratio (z) = 0.55714 0.26596
#
# Static dielectric constant tensor:
#      x y z
#    x 3.708960 0.000000 0.000000 
#    y 0.000000 3.784880 0.000000 
#    z 0.000000 0.000000 3.414060 
# 
# 
# High freq. dielectric constant tensor:
#      x y z
#    x 1.778830 0.000000 0.000000 
#    y 0.000000 1.776160 0.000000 
#    z 0.000000 0.000000 1.746020 
# 
# From -- ./inp_files/6707.got.cif
#   From: 2010.03.12/outbox.cif.g09.slc.cpg/sg55_4_cif.got.tgz:6707.got - 2010.04.16 15:19:21.
