data_PCOD8227230
_publ_section_title
;
Structure prediction by ZEFSAII (Michael W. Deem and Ramdas Pophale) SiO2 
 PCOD8227230
Probable space group: P B A M
;
_chemical_formula_sum "Si O2"
_cell_formula_units_Z 64
_cell_length_a 14.289610
_cell_length_b 24.951239
_cell_length_c 8.591357
_cell_angle_alpha 90.000000
_cell_angle_beta 90.000000
_cell_angle_gamma 90.000000
_cell_volume 3063.192274
_symmetry_space_group_name_H-M "P B A M"
_symmetry_group_IT_number 55
_symmetry_cell_setting 'orthorhombic'
loop_
_space_group_symop_operation_xyz
x,y,z
-x,-y,z
1/2+x,1/2-y,-z
1/2-x,1/2+y,-z
-x,-y,-z
x,y,-z
1/2-x,1/2+y,z
1/2+x,1/2-y,z
loop_
_atom_site_type_symbol
_atom_site_label
_atom_site_fract_x
_atom_site_fract_y
_atom_site_fract_z
Si Si1 0.039861 0.242750 0.676375
Si Si2 0.898450 0.479860 0.183196
Si Si3 0.798121 0.381064 0.318442
Si Si4 0.849482 0.269077 0.820648
Si Si5 0.606351 0.362536 0.817353
Si Si6 0.789332 0.685828 0.322682
Si Si7 0.546111 0.553238 0.184490
Si Si8 0.245159 0.427614 0.183958
O O1 0.003893 0.235441 0.500000
O O2 0.104822 0.192898 0.724456
O O3 0.103699 0.295165 0.692017
O O4 0.953042 0.246532 0.792402
O O5 0.875938 0.423884 0.266903
O O6 0.821584 0.523629 0.232377
O O7 0.000000 0.500000 0.239282
O O8 0.897819 0.469397 0.000000
O O9 0.778849 0.386375 0.500000
O O10 0.834035 0.321328 0.283708
O O11 0.701788 0.393336 0.226685
O O12 0.777856 0.221663 0.783228
O O13 0.837418 0.285254 0.000000
O O14 0.516593 0.396567 0.763906
O O15 0.605138 0.351307 0.000000
O O16 0.753849 0.689889 0.500000
O O17 0.791669 0.625194 0.266516
O O18 0.500000 0.500000 0.257403
O O19 0.650940 0.560057 0.248096
O O20 0.548433 0.547984 0.000000
O O21 0.244718 0.418176 0.000000
#
# Coordination Sequence:
#
# PCOD8227230 Si02
#       8
#     8   8   8   8   8   8   8   8
#     4  11  24  41  62  91 129 169 209 262 329 389
#     4  10  23  43  66  95 127 167 221 274 322 381
#     4  12  25  42  64  92 129 170 213 266 332 392
#     4  12  25  42  67  95 127 169 221 271 323 386
#     4  11  21  37  64  95 125 165 215 264 317 383
#     4  11  24  42  64  93 132 170 209 259 325 392
#     4   9  18  34  59  90 122 157 201 254 312 368
#     4  10  21  39  64  93 127 167 214 268 322 382
#
# _framework density 20.893236000000002
#
# number of rings (size 3 to 8) (size 9 to 14) (size 15 to 20)
#    0.000    1.250    1.250    4.875    1.750    5.250 
#    0.000    0.625    0.000    2.625    0.000    0.000 
#    0.000    0.000    0.000    0.000    0.000    0.000 
#
# Total GULP energy -794017.571556 kJ/mol
# GULP energy per Si atom -12406.524556 kJ/mol
# Density = 2.084568 g / cm^3
# Si number density = 20.893236 Si / 1000 Ang^3
#
#
#
# Elastic Constant Matrix: (Units=GPa)
#
#
# Indices 1 2 3 4 5 6 
#
# 1 101.7826 17.1512 21.4432 0.0000 0.0000 0.0000
# 2 17.1512 91.1620 22.4683 0.0000 0.0000 0.0000
# 3 21.4432 22.4683 64.8928 0.0000 0.0000 0.0000
# 4 0.0000 0.0000 0.0000 16.9267 0.0000 0.0000
# 5 0.0000 0.0000 0.0000 0.0000 23.4258 0.0000
# 6 0.0000 0.0000 0.0000 0.0000 0.0000 36.2599
#
#
#
# Elastic Compliance Matrix: (Units=1/GPa)
#
#
# Indices 1 2 3 4 5 6 
#
# 1 0.010688 -0.001247 -0.003100 0.000000 0.000000 0.000000
# 2 -0.001247 0.012138 -0.003791 0.000000 0.000000 0.000000
# 3 -0.003100 -0.003791 0.017747 0.000000 0.000000 0.000000
# 4 0.000000 0.000000 0.000000 0.059078 0.000000 0.000000
# 5 0.000000 0.000000 0.000000 0.000000 0.042688 0.000000
# 6 0.000000 0.000000 0.000000 0.000000 0.000000 0.027579
#
#
# Mechanical properties :
#
#
# Convention : Reuss Voigt Hill
#
# Bulk Modulus (GPa) = 41.15550 42.21808 41.68679
# Shear Modulus (GPa) = 25.73434 28.44078 27.08756
#
# Velocity S-wave (km/s) = 3.51338 3.69351 3.60457
# Velocity P-wave (km/s) = 6.01657 6.19998 6.10897
#
# Compressibility (1/GPa) = 0.02429809
#
# Stress axis : x y z
#
# Youngs Moduli (GPa) = 93.56229 82.38353 56.34776
#
# Poissons Ratio (x) = 0.10271 0.17468
# Poissons Ratio (y) = 0.11665 0.21360
# Poissons Ratio (z) = 0.29005 0.31230
#
# Static dielectric constant tensor:
#      x y z
#    x 3.911040 0.000000 0.000000 
#    y 0.000000 3.749370 0.000000 
#    z 0.000000 0.000000 3.567410 
# 
# 
# High freq. dielectric constant tensor:
#      x y z
#    x 1.831050 0.000000 0.000000 
#    y 0.000000 1.825990 0.000000 
#    z 0.000000 0.000000 1.805520 
# 
# From -- ./inp_files/6589.got.cif
#   From: 2010.03.12/outbox.cif.g09.slc.cpg/sg55_4_cif.got.tgz:6589.got - 2010.04.16 15:19:21.
