data_PCOD8227162
_publ_section_title
;
Structure prediction by ZEFSAII (Michael W. Deem and Ramdas Pophale) SiO2 
 PCOD8227162
Probable space group: P B A M
;
_chemical_formula_sum "Si O2"
_cell_formula_units_Z 64
_cell_length_a 23.033668
_cell_length_b 15.268047
_cell_length_c 9.179204
_cell_angle_alpha 90.000000
_cell_angle_beta 90.000000
_cell_angle_gamma 90.000000
_cell_volume 3228.134436
_symmetry_space_group_name_H-M "P B A M"
_symmetry_group_IT_number 55
_symmetry_cell_setting 'orthorhombic'
loop_
_space_group_symop_operation_xyz
x,y,z
-x,-y,z
1/2+x,1/2-y,-z
1/2-x,1/2+y,-z
-x,-y,-z
x,y,-z
1/2-x,1/2+y,z
1/2+x,1/2-y,z
loop_
_atom_site_type_symbol
_atom_site_label
_atom_site_fract_x
_atom_site_fract_y
_atom_site_fract_z
Si Si1 0.190746 0.680075 0.827415
Si Si2 0.070223 0.755119 0.829722
Si Si3 0.128805 0.355856 0.329413
Si Si4 0.657657 0.493861 0.837187
Si Si5 0.710854 0.013535 0.829964
Si Si6 0.681411 0.291092 0.835163
Si Si7 0.517130 0.100476 0.836524
Si Si8 0.449602 0.432072 0.327551
O O1 0.136125 0.737491 0.771775
O O2 0.189595 0.580440 0.767954
O O3 0.252035 0.722938 0.780997
O O4 0.188606 0.672658 0.000000
O O5 0.041112 0.836411 0.744697
O O6 0.035807 0.665302 0.799148
O O7 0.070254 0.778775 0.000000
O O8 0.134219 0.360696 0.500000
O O9 0.178542 0.413212 0.258769
O O10 0.138193 0.257430 0.273790
O O11 0.065700 0.386352 0.283272
O O12 0.721185 0.531401 0.802663
O O13 0.661333 0.390244 0.828366
O O14 0.612375 0.530428 0.721080
O O15 0.638208 0.522826 0.000000
O O16 0.695691 0.021597 0.000000
O O17 0.675084 0.255123 0.000000
O O18 0.500000 0.000000 0.825103
O O19 0.540098 0.120688 0.000000
O O20 0.500000 0.500000 0.277790
O O21 0.450263 0.419924 0.500000
#
# Coordination Sequence:
#
# PCOD8227162 Si02
#       8
#     8   8   8   8   8   8   8   8
#     4   8  16  35  63  91 115 143 188 247 303 348
#     4  10  21  38  65  95 118 151 204 256 300 355
#     4  12  25  36  54  87 127 162 195 234 290 366
#     4   9  20  39  65  90 112 148 202 257 300 345
#     4   9  18  37  63  89 118 152 193 246 300 352
#     4   9  19  37  61  88 117 150 193 244 297 353
#     4  10  22  42  67  92 119 156 204 256 304 352
#     4  11  26  43  58  81 121 167 203 246 307 369
#
# _framework density 19.825693000000001
#
# number of rings (size 3 to 8) (size 9 to 14) (size 15 to 20)
#    0.000    2.250    0.000    3.750    3.500    4.750 
#    0.000    3.750    0.000    0.000    0.000    0.000 
#    0.000    0.000    0.000    0.000    0.000    0.000 
#
# Total GULP energy -793510.505815 kJ/mol
# GULP energy per Si atom -12398.601653 kJ/mol
# Density = 1.978057 g / cm^3
# Si number density = 19.825693 Si / 1000 Ang^3
#
#
#
# Elastic Constant Matrix: (Units=GPa)
#
#
# Indices 1 2 3 4 5 6 
#
# 1 87.0271 52.8196 49.9701 0.0000 0.0000 0.0000
# 2 52.8196 89.2584 33.0897 0.0000 0.0000 0.0000
# 3 49.9701 33.0897 80.3554 0.0000 0.0000 0.0000
# 4 0.0000 0.0000 0.0000 281.1783 0.0000 0.0000
# 5 0.0000 0.0000 0.0000 0.0000 19.7270 0.0000
# 6 0.0000 0.0000 0.0000 0.0000 0.0000 29.4613
#
#
#
# Elastic Compliance Matrix: (Units=1/GPa)
#
#
# Indices 1 2 3 4 5 6 
#
# 1 0.023692 -0.010100 -0.010574 0.000000 0.000000 0.000000
# 2 -0.010100 0.017528 -0.000937 0.000000 0.000000 0.000000
# 3 -0.010574 -0.000937 0.019406 0.000000 0.000000 0.000000
# 4 0.000000 0.000000 0.000000 0.003556 0.000000 0.000000
# 5 0.000000 0.000000 0.000000 0.000000 0.050692 0.000000
# 6 0.000000 0.000000 0.000000 0.000000 0.000000 0.033943
#
#
# Mechanical properties :
#
#
# Convention : Reuss Voigt Hill
#
# Bulk Modulus (GPa) = 57.45884 58.71107 58.08496
# Shear Modulus (GPa) = 25.27279 74.12409 49.69844
#
# Velocity S-wave (km/s) = 3.57424 6.12120 5.01220
# Velocity P-wave (km/s) = 6.78811 8.92394 7.92828
#
# Compressibility (1/GPa) = 0.01740376
#
# Stress axis : x y z
#
# Youngs Moduli (GPa) = 42.20759 57.05290 51.52987
#
# Poissons Ratio (x) = 0.57624 0.54489
# Poissons Ratio (y) = 0.42630 0.04827
# Poissons Ratio (z) = 0.44631 0.05345
#
# Static dielectric constant tensor:
#      x y z
#    x 3.881260 0.000000 0.000000 
#    y 0.000000 3.703120 0.000000 
#    z 0.000000 0.000000 3.352650 
# 
# 
# High freq. dielectric constant tensor:
#      x y z
#    x 1.779790 0.000000 0.000000 
#    y 0.000000 1.786290 0.000000 
#    z 0.000000 0.000000 1.740520 
# 
# From -- ./inp_files/9632.got.cif
#   From: 2010.03.12/outbox.cif.g09.slc.cpg/sg55_5_cif.got.tgz:9632.got - 2010.04.16 15:19:21.
