data_PCOD8227566
_publ_section_title
;
Structure prediction by ZEFSAII (Michael W. Deem and Ramdas Pophale) SiO2 
 PCOD8227566
Probable space group: P B A M
;
_chemical_formula_sum "Si O2"
_cell_formula_units_Z 64
_cell_length_a 28.441701
_cell_length_b 12.589263
_cell_length_c 9.198441
_cell_angle_alpha 90.000000
_cell_angle_beta 90.000000
_cell_angle_gamma 90.000000
_cell_volume 3293.594282
_symmetry_space_group_name_H-M "P B A M"
_symmetry_group_IT_number 55
_symmetry_cell_setting 'orthorhombic'
loop_
_space_group_symop_operation_xyz
x,y,z
-x,-y,z
1/2+x,1/2-y,-z
1/2-x,1/2+y,-z
-x,-y,-z
x,y,-z
1/2-x,1/2+y,z
1/2+x,1/2-y,z
loop_
_atom_site_type_symbol
_atom_site_label
_atom_site_fract_x
_atom_site_fract_y
_atom_site_fract_z
Si Si1 0.390339 0.974342 0.167870
Si Si2 0.568308 0.394049 0.335716
Si Si3 0.203358 0.939097 0.333826
Si Si4 0.675584 0.328034 0.659257
Si Si5 0.705516 0.133050 0.831631
Si Si6 0.398688 0.384381 0.672358
Si Si7 0.940323 0.340376 0.327198
Si Si8 0.532667 0.199917 0.169680
O O1 0.336143 0.949635 0.205017
O O2 0.420739 0.868782 0.200326
O O3 0.404681 0.069946 0.272775
O O4 0.396932 0.008313 0.000000
O O5 0.547645 0.386701 0.500000
O O6 0.621195 0.354537 0.332305
O O7 0.568225 0.516332 0.277398
O O8 0.537464 0.319088 0.232161
O O9 0.208073 0.902030 0.500000
O O10 0.246805 0.893595 0.247718
O O11 0.154445 0.894379 0.265650
O O12 0.205612 0.065688 0.319765
O O13 0.686635 0.278262 0.500000
O O14 0.689318 0.249841 0.787130
O O15 0.716468 0.134388 0.000000
O O16 0.394628 0.393524 0.500000
O O17 0.421057 0.274176 0.723886
O O18 0.945530 0.347894 0.500000
O O19 0.990371 0.359904 0.251611
O O20 0.521000 0.207290 0.000000
#
# Coordination Sequence:
#
# PCOD8227566 Si02
#       8
#     8   8   8   8   8   8   8   8
#     4  10  23  41  56  76 114 155 187 230 289 341
#     4   9  17  34  61  85 107 141 188 234 274 330
#     4   9  19  37  59  83 111 147 189 232 284 339
#     4   9  18  34  57  81 107 141 184 235 280 326
#     4  11  22  36  56  84 115 149 187 231 285 344
#     4   8  18  38  59  82 115 149 182 233 295 335
#     4  11  23  38  59  85 113 149 193 238 281 339
#     4  11  22  38  58  82 115 153 187 232 290 342
#
# _framework density 19.431659
#
# number of rings (size 3 to 8) (size 9 to 14) (size 15 to 20)
#    0.000    2.250    1.250    3.000    0.000    5.500 
#    0.000   10.625    0.000    0.000    0.000    0.000 
#    0.000    0.000    0.000    0.000    0.000    0.000 
#
# Total GULP energy -793595.179688 kJ/mol
# GULP energy per Si atom -12399.924683 kJ/mol
# Density = 1.938743 g / cm^3
# Si number density = 19.431659 Si / 1000 Ang^3
#
#
#
# Elastic Constant Matrix: (Units=GPa)
#
#
# Indices 1 2 3 4 5 6 
#
# 1 35.8623 12.1821 18.2970 0.0000 0.0000 0.0000
# 2 12.1821 83.7642 37.0827 0.0000 0.0000 0.0000
# 3 18.2970 37.0827 69.3031 0.0000 0.0000 0.0000
# 4 0.0000 0.0000 0.0000 0.4294 0.0000 0.0000
# 5 0.0000 0.0000 0.0000 0.0000 25.5434 0.0000
# 6 0.0000 0.0000 0.0000 0.0000 0.0000 20.0374
#
#
#
# Elastic Compliance Matrix: (Units=1/GPa)
#
#
# Indices 1 2 3 4 5 6 
#
# 1 0.032318 -0.001209 -0.007885 0.000000 0.000000 0.000000
# 2 -0.001209 0.015689 -0.008076 0.000000 0.000000 0.000000
# 3 -0.007885 -0.008076 0.020832 0.000000 0.000000 0.000000
# 4 0.000000 0.000000 0.000000 2.328562 0.000000 0.000000
# 5 0.000000 0.000000 0.000000 0.000000 0.039149 0.000000
# 6 0.000000 0.000000 0.000000 0.000000 0.000000 0.049907
#
#
# Mechanical properties :
#
#
# Convention : Reuss Voigt Hill
#
# Bulk Modulus (GPa) = 28.98625 36.00591 32.49608
# Shear Modulus (GPa) = 1.97449 17.29324 9.63386
#
# Velocity S-wave (km/s) = 1.00912 2.98644 2.22903
# Velocity P-wave (km/s) = 4.03821 5.51920 4.83574
#
# Compressibility (1/GPa) = 0.03449912
#
# Stress axis : x y z
#
# Youngs Moduli (GPa) = 30.94219 63.73764 48.00210
#
# Poissons Ratio (x) = 0.07708 0.37852
# Poissons Ratio (y) = 0.03742 0.38765
# Poissons Ratio (z) = 0.24399 0.51473
#
# Static dielectric constant tensor:
#      x y z
#    x 3.531400 0.000000 0.000000 
#    y 0.000000 3.871290 0.000000 
#    z 0.000000 0.000000 3.472850 
# 
# 
# High freq. dielectric constant tensor:
#      x y z
#    x 1.758760 0.000000 0.000000 
#    y 0.000000 1.759150 0.000000 
#    z 0.000000 0.000000 1.740900 
# 
# From -- ./inp_files/10792.got.cif
#   From: 2010.03.12/outbox.cif.g09.slc.cpg/sg55_6_cif.got.tgz:10792.got - 2010.04.16 15:19:21.
