data_PCOD8227010
_publ_section_title
;
Structure prediction by ZEFSAII (Michael W. Deem and Ramdas Pophale) SiO2 
 PCOD8227010
Probable space group: P B A M
;
_chemical_formula_sum "Si O2"
_cell_formula_units_Z 56
_cell_length_a 8.579835
_cell_length_b 20.992217
_cell_length_c 14.599879
_cell_angle_alpha 90.000000
_cell_angle_beta 90.000000
_cell_angle_gamma 90.000000
_cell_volume 2629.580676
_symmetry_space_group_name_H-M "P B A M"
_symmetry_group_IT_number 55
_symmetry_cell_setting 'orthorhombic'
loop_
_space_group_symop_operation_xyz
x,y,z
-x,-y,z
1/2+x,1/2-y,-z
1/2-x,1/2+y,-z
-x,-y,-z
x,y,-z
1/2-x,1/2+y,z
1/2+x,1/2-y,z
loop_
_atom_site_type_symbol
_atom_site_label
_atom_site_fract_x
_atom_site_fract_y
_atom_site_fract_z
Si Si1 0.135777 0.957622 0.834500
Si Si2 0.823365 0.734140 0.107071
Si Si3 0.051335 0.401468 0.899141
Si Si4 0.152247 0.656902 0.601187
Si Si5 0.463688 0.321308 0.209473
Si Si6 0.035413 0.228159 0.397384
Si Si7 0.136397 0.541792 0.265602
O O1 0.276623 0.934065 0.898585
O O2 0.044124 0.897012 0.795534
O O3 0.210472 0.999032 0.751249
O O4 0.000000 0.000000 0.883908
O O5 0.937663 0.673685 0.122370
O O6 0.656192 0.714261 0.143626
O O7 0.873569 0.794672 0.168719
O O8 0.811146 0.752840 0.000000
O O9 0.931381 0.433892 0.830852
O O10 0.982151 0.412171 0.000000
O O11 0.158717 0.626309 0.500000
O O12 0.283360 0.711466 0.612828
O O13 0.181939 0.600926 0.672037
O O14 0.989782 0.695225 0.616157
O O15 0.439912 0.306779 0.316993
O O16 0.974845 0.208743 0.500000
O O17 0.000000 0.500000 0.314013
#
# Coordination Sequence:
#
# PCOD8227010 Si02
#       7
#     8   8   8   8   8   8   8
#     4  10  22  37  56  84 117 155 196 238 287 347
#     4  10  21  37  58  85 113 145 189 239 293 349
#     4   9  20  39  60  81 109 148 193 239 287 343
#     4  10  21  38  60  89 120 150 192 245 298 353
#     4  11  21  37  60  84 118 153 187 240 296 342
#     4  10  21  37  61  90 116 146 189 241 299 357
#     4  10  21  38  59  82 115 159 202 234 277 350
#
# _framework density 21.296171000000001
#
# number of rings (size 3 to 8) (size 9 to 14) (size 15 to 20)
#    0.000    2.000    0.000    3.000    0.000    7.143 
#    0.000    0.714    0.000    5.143    0.000    0.000 
#    0.000    0.000    0.000    0.000    0.000    0.000 
#
# Total GULP energy -694029.140561 kJ/mol
# GULP energy per Si atom -12393.377510 kJ/mol
# Density = 2.124770 g / cm^3
# Si number density = 21.296171 Si / 1000 Ang^3
#
#
#
# Elastic Constant Matrix: (Units=GPa)
#
#
# Indices 1 2 3 4 5 6 
#
# 1 52.6217 44.5475 20.6487 0.0000 0.0000 0.0000
# 2 44.5475 115.7042 54.2370 0.0000 0.0000 0.0000
# 3 20.6487 54.2370 122.9196 0.0000 0.0000 0.0000
# 4 0.0000 0.0000 0.0000 19.4817 0.0000 0.0000
# 5 0.0000 0.0000 0.0000 0.0000 18.8390 0.0000
# 6 0.0000 0.0000 0.0000 0.0000 0.0000 43.5687
#
#
#
# Elastic Compliance Matrix: (Units=1/GPa)
#
#
# Indices 1 2 3 4 5 6 
#
# 1 0.028193 -0.010886 0.000067 0.000000 0.000000 0.000000
# 2 -0.010886 0.015100 -0.004834 0.000000 0.000000 0.000000
# 3 0.000067 -0.004834 0.010257 0.000000 0.000000 0.000000
# 4 0.000000 0.000000 0.000000 0.051330 0.000000 0.000000
# 5 0.000000 0.000000 0.000000 0.000000 0.053081 0.000000
# 6 0.000000 0.000000 0.000000 0.000000 0.000000 0.022952
#
#
# Mechanical properties :
#
#
# Convention : Reuss Voigt Hill
#
# Bulk Modulus (GPa) = 44.95512 58.90132 51.92822
# Shear Modulus (GPa) = 22.76512 27.83204 25.29858
#
# Velocity S-wave (km/s) = 3.27307 3.61903 3.45039
# Velocity P-wave (km/s) = 5.95309 6.72171 6.34904
#
# Compressibility (1/GPa) = 0.02224440
#
# Stress axis : x y z
#
# Youngs Moduli (GPa) = 35.46989 66.22510 97.49414
#
# Poissons Ratio (x) = 0.72094 -0.00658
# Poissons Ratio (y) = 0.38613 0.47129
# Poissons Ratio (z) = -0.00239 0.32013
#
# Static dielectric constant tensor:
#      x y z
#    x 3.783640 0.000000 0.000000 
#    y 0.000000 4.062970 0.000000 
#    z 0.000000 0.000000 3.781350 
# 
# 
# High freq. dielectric constant tensor:
#      x y z
#    x 1.830080 0.000000 0.000000 
#    y 0.000000 1.837730 0.000000 
#    z 0.000000 0.000000 1.825710 
# 
# From -- ./inp_files/17671.got.cif
#   From: 2010.03.12/outbox.cif.g09.slc.cpg/sg55_9_cif.got.tgz:17671.got - 2010.04.16 15:19:21.
