data_PCOD8227579
_publ_section_title
;
Structure prediction by ZEFSAII (Michael W. Deem and Ramdas Pophale) SiO2 
 PCOD8227579
Probable space group: P B A M
;
_chemical_formula_sum "Si O2"
_cell_formula_units_Z 56
_cell_length_a 21.566531
_cell_length_b 14.526067
_cell_length_c 8.553620
_cell_angle_alpha 90.000000
_cell_angle_beta 90.000000
_cell_angle_gamma 90.000000
_cell_volume 2679.651337
_symmetry_space_group_name_H-M "P B A M"
_symmetry_group_IT_number 55
_symmetry_cell_setting 'orthorhombic'
loop_
_space_group_symop_operation_xyz
x,y,z
-x,-y,z
1/2+x,1/2-y,-z
1/2-x,1/2+y,-z
-x,-y,-z
x,y,-z
1/2-x,1/2+y,z
1/2+x,1/2-y,z
loop_
_atom_site_type_symbol
_atom_site_label
_atom_site_fract_x
_atom_site_fract_y
_atom_site_fract_z
Si Si1 0.548422 0.577809 0.819135
Si Si2 0.246744 0.614400 0.820491
Si Si3 0.478855 0.215036 0.180852
Si Si4 0.101773 0.390023 0.818029
Si Si5 0.679576 0.546014 0.680195
Si Si6 0.278466 0.802597 0.680483
Si Si7 0.615291 0.919167 0.319525
O O1 0.500000 0.500000 0.767995
O O2 0.517057 0.676368 0.786730
O O3 0.608465 0.567853 0.712777
O O4 0.567472 0.566976 0.000000
O O5 0.298722 0.538457 0.786644
O O6 0.277365 0.712796 0.787742
O O7 0.187422 0.598193 0.712414
O O8 0.226018 0.608161 0.000000
O O9 0.543359 0.170481 0.235542
O O10 0.422492 0.172808 0.279290
O O11 0.466079 0.193377 0.000000
O O12 0.160340 0.360700 0.715919
O O13 0.088157 0.496982 0.782936
O O14 0.116481 0.375992 0.000000
O O15 0.688851 0.518882 0.500000
O O16 0.718917 0.636273 0.722924
O O17 0.278062 0.773049 0.500000
O O18 0.607023 0.944032 0.500000
#
# Coordination Sequence:
#
# PCOD8227579 Si02
#       7
#     8   8   8   8   8   8   8
#     4  10  23  43  67  94 128 170 217 268 320 381
#     4  12  25  41  67  95 127 170 217 266 322 388
#     4  10  23  42  64  93 129 171 220 268 319 388
#     4  11  23  40  65  96 130 171 218 266 321 387
#     4  11  24  43  66  96 131 168 211 265 325 386
#     4  11  24  42  65  96 135 171 212 269 329 387
#     4  12  24  41  64  95 131 169 215 270 331 388
#
# _framework density 20.898242
#
# number of rings (size 3 to 8) (size 9 to 14) (size 15 to 20)
#    0.000    1.000    1.429    5.143    2.000    7.714 
#    0.000    0.000    0.000    0.000    0.000    0.000 
#    0.000    0.000    0.000    0.000    0.000    0.000 
#
# Total GULP energy -694942.888718 kJ/mol
# GULP energy per Si atom -12409.694441 kJ/mol
# Density = 2.085068 g / cm^3
# Si number density = 20.898242 Si / 1000 Ang^3
#
#
#
# Elastic Constant Matrix: (Units=GPa)
#
#
# Indices 1 2 3 4 5 6 
#
# 1 104.2292 35.9705 22.1376 0.0000 0.0000 0.0000
# 2 35.9705 121.1462 31.3283 0.0000 0.0000 0.0000
# 3 22.1376 31.3283 65.0947 0.0000 0.0000 0.0000
# 4 0.0000 0.0000 0.0000 23.4857 0.0000 0.0000
# 5 0.0000 0.0000 0.0000 0.0000 22.4887 0.0000
# 6 0.0000 0.0000 0.0000 0.0000 0.0000 30.5978
#
#
#
# Elastic Compliance Matrix: (Units=1/GPa)
#
#
# Indices 1 2 3 4 5 6 
#
# 1 0.011030 -0.002633 -0.002484 0.000000 0.000000 0.000000
# 2 -0.002633 0.010056 -0.003944 0.000000 0.000000 0.000000
# 3 -0.002484 -0.003944 0.018105 0.000000 0.000000 0.000000
# 4 0.000000 0.000000 0.000000 0.042579 0.000000 0.000000
# 5 0.000000 0.000000 0.000000 0.000000 0.044467 0.000000
# 6 0.000000 0.000000 0.000000 0.000000 0.000000 0.032682
#
#
# Mechanical properties :
#
#
# Convention : Reuss Voigt Hill
#
# Bulk Modulus (GPa) = 47.46233 52.14921 49.80577
# Shear Modulus (GPa) = 27.16419 28.71670 27.94044
#
# Velocity S-wave (km/s) = 3.60923 3.71093 3.66043
# Velocity P-wave (km/s) = 6.33476 6.58555 6.46137
#
# Compressibility (1/GPa) = 0.02106934
#
# Stress axis : x y z
#
# Youngs Moduli (GPa) = 90.65814 99.44098 55.23211
#
# Poissons Ratio (x) = 0.26180 0.13721
# Poissons Ratio (y) = 0.23868 0.21786
# Poissons Ratio (z) = 0.22521 0.39224
#
# Static dielectric constant tensor:
#      x y z
#    x 3.684160 0.000000 0.000000 
#    y 0.000000 3.900980 0.000000 
#    z 0.000000 0.000000 3.670590 
# 
# 
# High freq. dielectric constant tensor:
#      x y z
#    x 1.821740 0.000000 0.000000 
#    y 0.000000 1.831960 0.000000 
#    z 0.000000 0.000000 1.818850 
# 
# From -- ./inp_files/8703.got.cif
#   From: 2010.03.12/outbox.cif.g09.slc.cpg/sg55_5_cif.got.tgz:8703.got - 2010.04.16 15:19:21.
