data_PCOD8227493
_publ_section_title
;
Structure prediction by ZEFSAII (Michael W. Deem and Ramdas Pophale) SiO2 
 PCOD8227493
Probable space group: P B A M
;
_chemical_formula_sum "Si O2"
_cell_formula_units_Z 48
_cell_length_a 17.579646
_cell_length_b 11.246269
_cell_length_c 11.601262
_cell_angle_alpha 90.000000
_cell_angle_beta 90.000000
_cell_angle_gamma 90.000000
_cell_volume 2293.632467
_symmetry_space_group_name_H-M "P B A M"
_symmetry_group_IT_number 55
_symmetry_cell_setting 'orthorhombic'
loop_
_space_group_symop_operation_xyz
x,y,z
-x,-y,z
1/2+x,1/2-y,-z
1/2-x,1/2+y,-z
-x,-y,-z
x,y,-z
1/2-x,1/2+y,z
1/2+x,1/2-y,z
loop_
_atom_site_type_symbol
_atom_site_label
_atom_site_fract_x
_atom_site_fract_y
_atom_site_fract_z
Si Si1 0.214688 0.603346 0.132040
Si Si2 0.621930 0.675097 0.125877
Si Si3 0.043269 0.229023 0.871478
Si Si4 0.086148 0.452700 0.254239
Si Si5 0.368652 0.550875 0.260218
Si Si6 0.565135 0.395083 0.500000
Si Si7 0.560876 0.109745 0.500000
O O1 0.195427 0.742085 0.127030
O O2 0.146975 0.541951 0.202495
O O3 0.290613 0.597468 0.206151
O O4 0.223134 0.553471 0.000000
O O5 0.546492 0.756111 0.138076
O O6 0.627329 0.589026 0.235088
O O7 0.618921 0.608944 0.000000
O O8 0.092380 0.335657 0.821878
O O9 0.059268 0.108594 0.802875
O O10 0.071817 0.209800 0.000000
O O11 0.109400 0.413903 0.384542
O O12 0.000000 0.500000 0.249588
O O13 0.377790 0.581379 0.394043
O O14 0.500000 0.500000 0.500000
O O15 0.534802 0.253933 0.500000
O O16 0.500000 0.000000 0.500000
#
# Coordination Sequence:
#
# PCOD8227493 Si02
#       7
#     8   8   8   8   8   4   4
#     4  11  25  43  66 100 141 183 225 290 370 429
#     4  10  22  41  65  97 134 173 225 285 351 426
#     4  11  21  37  66  96 128 170 223 281 341 411
#     4  11  22  41  68  97 136 178 235 283 342 412
#     4  12  26  42  65  97 135 178 232 283 356 418
#     4  12  26  47  74 100 139 191 242 291 347 422
#     4  10  24  43  72 104 134 179 236 298 343 395
#
# _framework density 20.927502
#
# number of rings (size 3 to 8) (size 9 to 14) (size 15 to 20)
#    0.000    1.000    3.333    3.500    2.333    2.667 
#    0.000    0.833    0.000    0.000    0.000    0.000 
#    0.000    0.000    0.000    0.000    0.000    0.000 
#
# Total GULP energy -594686.069582 kJ/mol
# GULP energy per Si atom -12389.293116 kJ/mol
# Density = 2.087987 g / cm^3
# Si number density = 20.927502 Si / 1000 Ang^3
#
#
#
# Elastic Constant Matrix: (Units=GPa)
#
#
# Indices 1 2 3 4 5 6 
#
# 1 90.2608 23.8724 51.1767 0.0000 0.0000 0.0000
# 2 23.8724 104.3712 49.8552 0.0000 0.0000 0.0000
# 3 51.1767 49.8552 182.1667 0.0000 0.0000 0.0000
# 4 0.0000 0.0000 0.0000 34.1749 0.0000 0.0000
# 5 0.0000 0.0000 0.0000 0.0000 30.0320 0.0000
# 6 0.0000 0.0000 0.0000 0.0000 0.0000 22.6585
#
#
#
# Elastic Compliance Matrix: (Units=1/GPa)
#
#
# Indices 1 2 3 4 5 6 
#
# 1 0.013367 -0.001454 -0.003357 0.000000 0.000000 0.000000
# 2 -0.001454 0.011180 -0.002651 0.000000 0.000000 0.000000
# 3 -0.003357 -0.002651 0.007158 0.000000 0.000000 0.000000
# 4 0.000000 0.000000 0.000000 0.029261 0.000000 0.000000
# 5 0.000000 0.000000 0.000000 0.000000 0.033298 0.000000
# 6 0.000000 0.000000 0.000000 0.000000 0.000000 0.044133
#
#
# Mechanical properties :
#
#
# Convention : Reuss Voigt Hill
#
# Bulk Modulus (GPa) = 59.59252 69.62303 64.60777
# Shear Modulus (GPa) = 31.46303 34.16604 32.81453
#
# Velocity S-wave (km/s) = 3.88162 4.04492 3.96411
# Velocity P-wave (km/s) = 6.97329 7.42671 7.20357
#
# Compressibility (1/GPa) = 0.01678063
#
# Stress axis : x y z
#
# Youngs Moduli (GPa) = 74.81056 89.44400 139.69753
#
# Poissons Ratio (x) = 0.13002 0.46902
# Poissons Ratio (y) = 0.10875 0.37039
# Poissons Ratio (z) = 0.25117 0.23715
#
# Static dielectric constant tensor:
#      x y z
#    x 3.680230 0.000000 0.000000 
#    y 0.000000 3.980410 0.000000 
#    z 0.000000 0.000000 4.092640 
# 
# 
# High freq. dielectric constant tensor:
#      x y z
#    x 1.803450 0.000000 0.000000 
#    y 0.000000 1.827020 0.000000 
#    z 0.000000 0.000000 1.831220 
# 
# From -- ./inp_files/14819.got.cif
#   From: 2010.03.12/outbox.cif.g09.slc.cpg/sg55_8_cif.got.tgz:14819.got - 2010.04.16 15:19:21.
