data_PCOD8227641
_publ_section_title
;
Structure prediction by ZEFSAII (Michael W. Deem and Ramdas Pophale) SiO2 
 PCOD8227641
Probable space group: P B A M
;
_chemical_formula_sum "Si O2"
_cell_formula_units_Z 32
_cell_length_a 15.624145
_cell_length_b 13.981580
_cell_length_c 8.904504
_cell_angle_alpha 90.000000
_cell_angle_beta 90.000000
_cell_angle_gamma 90.000000
_cell_volume 1945.190976
_symmetry_space_group_name_H-M "P B A M"
_symmetry_group_IT_number 55
_symmetry_cell_setting 'orthorhombic'
loop_
_space_group_symop_operation_xyz
x,y,z
-x,-y,z
1/2+x,1/2-y,-z
1/2-x,1/2+y,-z
-x,-y,-z
x,y,-z
1/2-x,1/2+y,z
1/2+x,1/2-y,z
loop_
_atom_site_type_symbol
_atom_site_label
_atom_site_fract_x
_atom_site_fract_y
_atom_site_fract_z
Si Si1 0.850196 0.022972 0.169563
Si Si2 0.214518 0.804026 0.322775
Si Si3 0.452100 0.298703 0.830556
Si Si4 0.624237 0.322491 0.323269
O O1 0.777285 0.090574 0.246550
O O2 0.938208 0.085511 0.168203
O O3 0.861549 0.929104 0.266651
O O4 0.822767 0.995929 0.000000
O O5 0.206902 0.815856 0.500000
O O6 0.295486 0.741492 0.274986
O O7 0.128209 0.751856 0.259449
O O8 0.540985 0.274349 0.750358
O O9 0.454126 0.258208 0.000000
O O10 0.611004 0.325173 0.500000
#
# Coordination Sequence:
#
# PCOD8227641 Si02
#       4
#     8   8   8   8
#     4   9  19  32  48  73 100 127 160 198 239 284
#     4   9  19  33  47  71 100 126 161 198 239 287
#     4   9  19  32  48  73 100 127 160 198 239 284
#     4  11  20  30  52  75  97 131 158 196 247 284
#
# _framework density 16.450827
#
# number of rings (size 3 to 8) (size 9 to 14) (size 15 to 20)
#    1.500    1.000    0.000    3.000    0.000    7.000 
#    0.000    0.000    0.000    1.500    0.000   10.500 
#    0.000    0.000    0.000    0.000    0.000    0.000 
#
# Total GULP energy -396478.474496 kJ/mol
# GULP energy per Si atom -12389.952328 kJ/mol
# Density = 1.641338 g / cm^3
# Si number density = 16.450827 Si / 1000 Ang^3
#
#
#
# Elastic Constant Matrix: (Units=GPa)
#
#
# Indices 1 2 3 4 5 6 
#
# 1 116.0094 23.7003 54.1600 0.0000 0.0000 0.0000
# 2 23.7003 7.6342 11.0920 0.0000 0.0000 0.0000
# 3 54.1600 11.0920 88.4190 0.0000 0.0000 0.0000
# 4 0.0000 0.0000 0.0000 19.9950 0.0000 0.0000
# 5 0.0000 0.0000 0.0000 0.0000 21.8803 0.0000
# 6 0.0000 0.0000 0.0000 0.0000 0.0000 21.1936
#
#
#
# Elastic Compliance Matrix: (Units=1/GPa)
#
#
# Indices 1 2 3 4 5 6 
#
# 1 0.026990 -0.073092 -0.007363 0.000000 0.000000 0.000000
# 2 -0.073092 0.358128 -0.000155 0.000000 0.000000 0.000000
# 3 -0.007363 -0.000155 0.015839 0.000000 0.000000 0.000000
# 4 0.000000 0.000000 0.000000 0.050012 0.000000 0.000000
# 5 0.000000 0.000000 0.000000 0.000000 0.045703 0.000000
# 6 0.000000 0.000000 0.000000 0.000000 0.000000 0.047184
#
#
# Mechanical properties :
#
#
# Convention : Reuss Voigt Hill
#
# Bulk Modulus (GPa) = 4.17122 43.32969 23.75046
# Shear Modulus (GPa) = 6.36951 20.82115 13.59533
#
# Velocity S-wave (km/s) = 1.96984 3.56147 2.87787
# Velocity P-wave (km/s) = 2.77754 6.58090 5.05089
#
# Compressibility (1/GPa) = 0.23973783
#
# Stress axis : x y z
#
# Youngs Moduli (GPa) = 37.05075 2.79229 63.13371
#
# Poissons Ratio (x) = 0.20409 0.46486
# Poissons Ratio (y) = 2.70812 0.00977
# Poissons Ratio (z) = 0.27281 0.00043
#
# Static dielectric constant tensor:
#      x y z
#    x 3.053630 0.000000 0.000000 
#    y 0.000000 2.730400 0.000000 
#    z 0.000000 0.000000 3.183590 
# 
# 
# High freq. dielectric constant tensor:
#      x y z
#    x 1.622030 0.000000 0.000000 
#    y 0.000000 1.591360 0.000000 
#    z 0.000000 0.000000 1.655660 
# 
# From -- ./inp_files/3328.got.cif
#   From: 2010.03.12/outbox.cif.g09.slc.cpg/sg55_2_cif.got.tgz:3328.got - 2010.04.16 15:19:21.
