data_PCOD8227684
_publ_section_title
;
Structure prediction by ZEFSAII (Michael W. Deem and Ramdas Pophale) SiO2 
 PCOD8227684
Probable space group: P B A M
;
_chemical_formula_sum "Si O2"
_cell_formula_units_Z 56
_cell_length_a 11.039818
_cell_length_b 15.965484
_cell_length_c 15.216380
_cell_angle_alpha 90.000000
_cell_angle_beta 90.000000
_cell_angle_gamma 90.000000
_cell_volume 2681.978846
_symmetry_space_group_name_H-M "P B A M"
_symmetry_group_IT_number 55
_symmetry_cell_setting 'orthorhombic'
loop_
_space_group_symop_operation_xyz
x,y,z
-x,-y,z
1/2+x,1/2-y,-z
1/2-x,1/2+y,-z
-x,-y,-z
x,y,-z
1/2-x,1/2+y,z
1/2+x,1/2-y,z
loop_
_atom_site_type_symbol
_atom_site_label
_atom_site_fract_x
_atom_site_fract_y
_atom_site_fract_z
Si Si1 0.607878 0.190542 0.098142
Si Si2 0.032303 0.119509 0.903608
Si Si3 0.316135 0.549538 0.754056
Si Si4 0.669082 0.321894 0.598922
Si Si5 0.944464 0.409226 0.789312
Si Si6 0.823358 0.133916 0.207651
Si Si7 0.428249 0.235484 0.662283
O O1 0.585828 0.288230 0.101717
O O2 0.489602 0.135485 0.121369
O O3 0.694913 0.171223 0.180339
O O4 0.651218 0.164637 0.000000
O O5 0.079996 0.061546 0.825589
O O6 0.888483 0.120208 0.886401
O O7 0.057723 0.080883 0.000000
O O8 0.341432 0.598814 0.663881
O O9 0.198089 0.583045 0.803185
O O10 0.306098 0.450329 0.734451
O O11 0.669791 0.357021 0.500000
O O12 0.547425 0.264365 0.607621
O O13 0.797922 0.272416 0.611793
O O14 0.968295 0.353400 0.702684
O O15 0.000000 0.500000 0.772730
O O16 0.906352 0.198119 0.260788
#
# Coordination Sequence:
#
# PCOD8227684 Si02
#       7
#     8   8   8   8   8   8   8
#     4  11  23  39  60  91 126 170 223 277 320 380
#     4  11  24  40  62  92 127 171 217 264 317 384
#     4  11  24  40  65  93 130 173 206 272 325 391
#     4  11  24  45  70 102 132 167 219 275 332 398
#     4  11  21  41  64  90 123 168 218 265 324 378
#     4  12  22  41  64  91 129 173 218 257 326 390
#     4  11  23  42  74  95 129 175 216 267 330 402
#
# _framework density 20.880106000000001
#
# number of rings (size 3 to 8) (size 9 to 14) (size 15 to 20)
#    0.000    0.857    4.286    3.857    0.000    2.571 
#    0.000    2.143    0.000    2.143    0.000    0.000 
#    0.000    0.000    0.000    0.000    0.000    0.000 
#
# Total GULP energy -694006.690169 kJ/mol
# GULP energy per Si atom -12392.976610 kJ/mol
# Density = 2.083258 g / cm^3
# Si number density = 20.880106 Si / 1000 Ang^3
#
#
#
# Elastic Constant Matrix: (Units=GPa)
#
#
# Indices 1 2 3 4 5 6 
#
# 1 92.9344 13.7305 30.7582 0.0000 0.0000 0.0000
# 2 13.7305 101.7228 27.5642 0.0000 0.0000 0.0000
# 3 30.7582 27.5642 102.1627 0.0000 0.0000 0.0000
# 4 0.0000 0.0000 0.0000 4.1367 0.0000 0.0000
# 5 0.0000 0.0000 0.0000 0.0000 23.5666 0.0000
# 6 0.0000 0.0000 0.0000 0.0000 0.0000 30.0843
#
#
#
# Elastic Compliance Matrix: (Units=1/GPa)
#
#
# Indices 1 2 3 4 5 6 
#
# 1 0.011996 -0.000691 -0.003425 0.000000 0.000000 0.000000
# 2 -0.000691 0.010646 -0.002664 0.000000 0.000000 0.000000
# 3 -0.003425 -0.002664 0.011538 0.000000 0.000000 0.000000
# 4 0.000000 0.000000 0.000000 0.241739 0.000000 0.000000
# 5 0.000000 0.000000 0.000000 0.000000 0.042433 0.000000
# 6 0.000000 0.000000 0.000000 0.000000 0.000000 0.033240
#
#
# Mechanical properties :
#
#
# Convention : Reuss Voigt Hill
#
# Bulk Modulus (GPa) = 48.49855 48.99175 48.74515
# Shear Modulus (GPa) = 13.43990 26.54200 19.99095
#
# Velocity S-wave (km/s) = 2.53982 3.56920 3.09757
# Velocity P-wave (km/s) = 5.64610 6.36395 6.01575
#
# Compressibility (1/GPa) = 0.02061917
#
# Stress axis : x y z
#
# Youngs Moduli (GPa) = 83.36114 93.93322 86.66735
#
# Poissons Ratio (x) = 0.06492 0.29685
# Poissons Ratio (y) = 0.05761 0.23090
# Poissons Ratio (z) = 0.28553 0.25026
#
# Static dielectric constant tensor:
#      x y z
#    x 4.141090 0.000000 0.000000 
#    y 0.000000 3.868600 0.000000 
#    z 0.000000 0.000000 3.607160 
# 
# 
# High freq. dielectric constant tensor:
#      x y z
#    x 1.838340 0.000000 0.000000 
#    y 0.000000 1.823590 0.000000 
#    z 0.000000 0.000000 1.793460 
# 
# From -- ./inp_files/18410.got.cif
#   From: 2010.03.12/outbox.cif.g09.slc.cpg/sg55_10_cif.got.tgz:18410.got - 2010.04.16 15:19:21.
