data_PCOD8227655
_publ_section_title
;
Structure prediction by ZEFSAII (Michael W. Deem and Ramdas Pophale) SiO2 
 PCOD8227655
Probable space group: P B A M
;
_chemical_formula_sum "Si O2"
_cell_formula_units_Z 48
_cell_length_a 13.568166
_cell_length_b 24.256520
_cell_length_c 8.956269
_cell_angle_alpha 90.000000
_cell_angle_beta 90.000000
_cell_angle_gamma 90.000000
_cell_volume 2947.655816
_symmetry_space_group_name_H-M "P B A M"
_symmetry_group_IT_number 55
_symmetry_cell_setting 'orthorhombic'
loop_
_space_group_symop_operation_xyz
x,y,z
-x,-y,z
1/2+x,1/2-y,-z
1/2-x,1/2+y,-z
-x,-y,-z
x,y,-z
1/2-x,1/2+y,z
1/2+x,1/2-y,z
loop_
_atom_site_type_symbol
_atom_site_label
_atom_site_fract_x
_atom_site_fract_y
_atom_site_fract_z
Si Si1 0.723911 0.666661 0.825402
Si Si2 0.390158 0.559911 0.177082
Si Si3 0.904712 0.272089 0.171146
Si Si4 0.888950 0.061300 0.822501
Si Si5 0.792133 0.830468 0.825207
Si Si6 0.607051 0.229328 0.675834
O O1 0.640021 0.712052 0.795259
O O2 0.684199 0.608392 0.761277
O O3 0.823285 0.681026 0.738028
O O4 0.749940 0.664340 0.000000
O O5 0.352917 0.499488 0.231502
O O6 0.500294 0.571603 0.238250
O O7 0.316400 0.607802 0.232645
O O8 0.394209 0.559206 0.000000
O O9 0.822154 0.318186 0.207363
O O10 0.995475 0.284248 0.278882
O O11 0.939893 0.276071 0.000000
O O12 0.890066 0.065331 0.000000
O O13 0.863165 0.788427 0.740793
O O14 0.815442 0.823179 0.000000
O O15 0.616701 0.230997 0.500000
#
# Coordination Sequence:
#
# PCOD8227655 Si02
#       6
#     8   8   8   8   8   8
#     4   9  17  30  48  68  90 117 147 179 218 263
#     4   8  13  23  42  70  96 113 136 173 218 263
#     4   9  17  29  45  64  86 115 149 182 217 258
#     4   8  13  22  42  71  96 114 135 172 219 264
#     4   9  17  30  48  67  89 117 147 180 218 262
#     4  11  21  30  43  64  90 118 148 184 222 260
#
# _framework density 16.284126000000001
#
# number of rings (size 3 to 8) (size 9 to 14) (size 15 to 20)
#    0.000    3.000    0.000    4.500    0.000    5.333 
#    0.000    0.000    0.000    2.000    0.000   10.500 
#    0.000    0.000    0.000    0.000    0.000    0.000 
#
# Total GULP energy -594985.566234 kJ/mol
# GULP energy per Si atom -12395.532630 kJ/mol
# Density = 1.624706 g / cm^3
# Si number density = 16.284126 Si / 1000 Ang^3
#
#
#
# Elastic Constant Matrix: (Units=GPa)
#
#
# Indices 1 2 3 4 5 6 
#
# 1 108.7804 75.6867 41.3529 0.0000 0.0000 0.0000
# 2 75.6867 154.1710 32.6843 0.0000 0.0000 0.0000
# 3 41.3529 32.6843 51.0735 0.0000 0.0000 0.0000
# 4 0.0000 0.0000 0.0000 5.5695 0.0000 0.0000
# 5 0.0000 0.0000 0.0000 0.0000 6.2164 0.0000
# 6 0.0000 0.0000 0.0000 0.0000 0.0000 27.7930
#
#
#
# Elastic Compliance Matrix: (Units=1/GPa)
#
#
# Indices 1 2 3 4 5 6 
#
# 1 0.017508 -0.006467 -0.010037 0.000000 0.000000 0.000000
# 2 -0.006467 0.009893 -0.001095 0.000000 0.000000 0.000000
# 3 -0.010037 -0.001095 0.028407 0.000000 0.000000 0.000000
# 4 0.000000 0.000000 0.000000 0.179548 0.000000 0.000000
# 5 0.000000 0.000000 0.000000 0.000000 0.160864 0.000000
# 6 0.000000 0.000000 0.000000 0.000000 0.000000 0.035980
#
#
# Mechanical properties :
#
#
# Convention : Reuss Voigt Hill
#
# Bulk Modulus (GPa) = 48.52009 68.16364 58.34186
# Shear Modulus (GPa) = 10.54252 18.86920 14.70586
#
# Velocity S-wave (km/s) = 2.54719 3.40773 3.00839
# Velocity P-wave (km/s) = 6.20576 7.57848 6.92621
#
# Compressibility (1/GPa) = 0.02061002
#
# Stress axis : x y z
#
# Youngs Moduli (GPa) = 57.11548 101.07716 35.20247
#
# Poissons Ratio (x) = 0.65371 0.35334
# Poissons Ratio (y) = 0.36939 0.03854
# Poissons Ratio (z) = 0.57328 0.11065
#
# Static dielectric constant tensor:
#      x y z
#    x 3.030180 0.000000 0.000000 
#    y 0.000000 3.427770 0.000000 
#    z 0.000000 0.000000 2.694960 
# 
# 
# High freq. dielectric constant tensor:
#      x y z
#    x 1.615780 0.000000 0.000000 
#    y 0.000000 1.625220 0.000000 
#    z 0.000000 0.000000 1.588310 
# 
# From -- ./inp_files/4046.got.cif
#   From: 2010.03.12/outbox.cif.g09.slc.cpg/sg55_3_cif.got.tgz:4046.got - 2010.04.16 15:19:21.
