data_PCOD8227165
_publ_section_title
;
Structure prediction by ZEFSAII (Michael W. Deem and Ramdas Pophale) SiO2 
 PCOD8227165
Probable space group: P B A M
;
_chemical_formula_sum "Si O2"
_cell_formula_units_Z 56
_cell_length_a 9.207284
_cell_length_b 20.338450
_cell_length_c 14.896910
_cell_angle_alpha 90.000000
_cell_angle_beta 90.000000
_cell_angle_gamma 90.000000
_cell_volume 2789.623451
_symmetry_space_group_name_H-M "P B A M"
_symmetry_group_IT_number 55
_symmetry_cell_setting 'orthorhombic'
loop_
_space_group_symop_operation_xyz
x,y,z
-x,-y,z
1/2+x,1/2-y,-z
1/2-x,1/2+y,-z
-x,-y,-z
x,y,-z
1/2-x,1/2+y,z
1/2+x,1/2-y,z
loop_
_atom_site_type_symbol
_atom_site_label
_atom_site_fract_x
_atom_site_fract_y
_atom_site_fract_z
Si Si1 0.403697 0.833568 0.399089
Si Si2 0.369311 0.549528 0.600946
Si Si3 0.169570 0.740818 0.677509
Si Si4 0.077853 0.068656 0.900893
Si Si5 0.333374 0.984616 0.095968
Si Si6 0.071898 0.161931 0.737859
Si Si7 0.149447 0.462606 0.711727
O O1 0.402474 0.859740 0.500000
O O2 0.565733 0.808104 0.378059
O O3 0.280556 0.777885 0.389230
O O4 0.361553 0.893951 0.337039
O O5 0.500000 0.500000 0.592173
O O6 0.313063 0.567006 0.500000
O O7 0.422593 0.615743 0.649818
O O8 0.247594 0.514412 0.659530
O O9 0.273845 0.700197 0.745527
O O10 0.065737 0.789938 0.731420
O O11 0.039242 0.123005 0.828371
O O12 0.250101 0.054472 0.898205
O O13 0.029980 0.093403 0.000000
O O14 0.000000 0.000000 0.876292
O O15 0.293222 0.944756 0.187118
O O16 0.500000 0.000000 0.091501
O O17 0.287401 0.949545 0.000000
O O18 0.000000 0.500000 0.722520
#
# Coordination Sequence:
#
# PCOD8227165 Si02
#       7
#     8   8   8   8   8   8   8
#     4  11  23  40  60  84 118 157 204 252 292 354
#     4  11  23  37  58  88 119 153 191 245 314 364
#     4  10  25  40  60  81 112 166 216 241 288 341
#     4  10  21  38  66  97 121 152 192 243 307 365
#     4   9  19  35  57  91 124 152 184 224 293 367
#     4  11  22  42  60  84 121 159 202 252 288 353
#     4  11  22  35  58  91 122 149 187 242 310 361
#
# _framework density 20.074394999999999
#
# number of rings (size 3 to 8) (size 9 to 14) (size 15 to 20)
#    0.000    1.571    1.429    3.000    4.000    6.857 
#    0.000    0.714    0.000    3.429    0.000    0.000 
#    0.000    0.000    0.000    0.000    0.000    0.000 
#
# Total GULP energy -693981.069863 kJ/mol
# GULP energy per Si atom -12392.519105 kJ/mol
# Density = 2.002870 g / cm^3
# Si number density = 20.074395 Si / 1000 Ang^3
#
#
#
# Elastic Constant Matrix: (Units=GPa)
#
#
# Indices 1 2 3 4 5 6 
#
# 1 94.0309 22.0501 32.3936 0.0000 0.0000 0.0000
# 2 22.0501 93.3226 64.6357 0.0000 0.0000 0.0000
# 3 32.3936 64.6357 198.8701 0.0000 0.0000 0.0000
# 4 0.0000 0.0000 0.0000 12.9535 0.0000 0.0000
# 5 0.0000 0.0000 0.0000 0.0000 38.0206 0.0000
# 6 0.0000 0.0000 0.0000 0.0000 0.0000 32.9336
#
#
#
# Elastic Compliance Matrix: (Units=1/GPa)
#
#
# Indices 1 2 3 4 5 6 
#
# 1 0.011505 -0.001833 -0.001278 0.000000 0.000000 0.000000
# 2 -0.001833 0.014120 -0.004291 0.000000 0.000000 0.000000
# 3 -0.001278 -0.004291 0.006631 0.000000 0.000000 0.000000
# 4 0.000000 0.000000 0.000000 0.077199 0.000000 0.000000
# 5 0.000000 0.000000 0.000000 0.000000 0.026302 0.000000
# 6 0.000000 0.000000 0.000000 0.000000 0.000000 0.030364
#
#
# Mechanical properties :
#
#
# Convention : Reuss Voigt Hill
#
# Bulk Modulus (GPa) = 57.29850 69.37582 63.33716
# Shear Modulus (GPa) = 26.77474 34.59114 30.68294
#
# Velocity S-wave (km/s) = 3.65605 4.15558 3.91380
# Velocity P-wave (km/s) = 6.81376 7.59339 7.21411
#
# Compressibility (1/GPa) = 0.01745246
#
# Stress axis : x y z
#
# Youngs Moduli (GPa) = 86.91860 70.81936 150.80263
#
# Poissons Ratio (x) = 0.12982 0.19276
# Poissons Ratio (y) = 0.15933 0.64706
# Poissons Ratio (z) = 0.11110 0.30387
#
# Static dielectric constant tensor:
#      x y z
#    x 4.058520 0.000000 0.000000 
#    y 0.000000 3.609100 0.000000 
#    z 0.000000 0.000000 4.194850 
# 
# 
# High freq. dielectric constant tensor:
#      x y z
#    x 1.808930 0.000000 0.000000 
#    y 0.000000 1.757540 0.000000 
#    z 0.000000 0.000000 1.791230 
# 
# From -- ./inp_files/17666.got.cif
#   From: 2010.03.12/outbox.cif.g09.slc.cpg/sg55_9_cif.got.tgz:17666.got - 2010.04.16 15:19:21.
