data_PCOD8227550
_publ_section_title
;
Structure prediction by ZEFSAII (Michael W. Deem and Ramdas Pophale) SiO2 
 PCOD8227550
Probable space group: P B A M
;
_chemical_formula_sum "Si O2"
_cell_formula_units_Z 24
_cell_length_a 8.732535
_cell_length_b 18.151135
_cell_length_c 7.764313
_cell_angle_alpha 90.000000
_cell_angle_beta 90.000000
_cell_angle_gamma 90.000000
_cell_volume 1230.685706
_symmetry_space_group_name_H-M "P B A M"
_symmetry_group_IT_number 55
_symmetry_cell_setting 'orthorhombic'
loop_
_space_group_symop_operation_xyz
x,y,z
-x,-y,z
1/2+x,1/2-y,-z
1/2-x,1/2+y,-z
-x,-y,-z
x,y,-z
1/2-x,1/2+y,z
1/2+x,1/2-y,z
loop_
_atom_site_type_symbol
_atom_site_label
_atom_site_fract_x
_atom_site_fract_y
_atom_site_fract_z
Si Si1 0.208150 0.429742 0.691805
Si Si2 0.621430 0.916190 0.190822
Si Si3 0.347140 0.346965 0.000000
Si Si4 0.304038 0.694248 0.000000
O O1 0.265484 0.409585 0.500000
O O2 0.207711 0.518443 0.709154
O O3 0.037276 0.396393 0.715071
O O4 0.324794 0.395769 0.829544
O O5 0.579660 0.945960 0.000000
O O6 0.730679 0.844145 0.171863
O O7 0.515501 0.314370 0.000000
O O8 0.225805 0.280784 0.000000
#
# Coordination Sequence:
#
# PCOD8227550 Si02
#       4
#     8   8   4   4
#     4  11  20  35  63  89 119 150 187 236 282 346
#     4   9  17  37  60  90 108 154 189 225 288 330
#     4  12  21  42  55  85 115 151 201 228 299 334
#     4  10  23  36  67  75 115 161 185 250 279 344
#
# _framework density 19.501324
#
# number of rings (size 3 to 8) (size 9 to 14) (size 15 to 20)
#    1.000    0.667    3.333    5.000    0.000    2.667 
#    0.000   13.333    0.000    0.000    0.000    0.000 
#    0.000    0.000    0.000    0.000    0.000    0.000 
#
# Total GULP energy -297460.888634 kJ/mol
# GULP energy per Si atom -12394.203693 kJ/mol
# Density = 1.945694 g / cm^3
# Si number density = 19.501324 Si / 1000 Ang^3
#
#
#
# Elastic Constant Matrix: (Units=GPa)
#
#
# Indices 1 2 3 4 5 6 
#
# 1 40.8794 -0.4207 9.1726 0.0000 0.0000 0.0000
# 2 -0.4207 44.0006 15.7112 0.0000 0.0000 0.0000
# 3 9.1726 15.7112 136.3466 0.0000 0.0000 0.0000
# 4 0.0000 0.0000 0.0000 -3.2721 0.0000 0.0000
# 5 0.0000 0.0000 0.0000 0.0000 16.5380 0.0000
# 6 0.0000 0.0000 0.0000 0.0000 0.0000 37.1785
#
#
#
# Elastic Compliance Matrix: (Units=1/GPa)
#
#
# Indices 1 2 3 4 5 6 
#
# 1 0.024869 0.000871 -0.001773 0.000000 0.000000 0.000000
# 2 0.000871 0.023733 -0.002793 0.000000 0.000000 0.000000
# 3 -0.001773 -0.002793 0.007775 0.000000 0.000000 0.000000
# 4 0.000000 0.000000 0.000000 -0.305612 0.000000 0.000000
# 5 0.000000 0.000000 0.000000 0.000000 0.060467 0.000000
# 6 0.000000 0.000000 0.000000 0.000000 0.000000 0.026897
#
#
# Mechanical properties :
#
#
# Convention : Reuss Voigt Hill
#
# Bulk Modulus (GPa) = 20.41408 30.01698 25.21553
# Shear Modulus (GPa) = -36.19237 23.20645 -6.49296
#
# Velocity S-wave (km/s) = -4.31268 3.45337 -1.82667
# Velocity P-wave (km/s) = 3.78262 5.59703 2.91706
#
# Compressibility (1/GPa) = 0.04898579
#
# Stress axis : x y z
#
# Youngs Moduli (GPa) = 40.21060 42.13598 128.61027
#
# Poissons Ratio (x) = -0.03670 0.22808
# Poissons Ratio (y) = -0.03502 0.35925
# Poissons Ratio (z) = 0.07131 0.11770
#
# Static dielectric constant tensor:
#      x y z
#    x 3.276350 0.000000 0.000000 
#    y 0.000000 3.378140 0.000000 
#    z 0.000000 0.000000 3.408740 
# 
# 
# High freq. dielectric constant tensor:
#      x y z
#    x 1.744360 0.000000 0.000000 
#    y 0.000000 1.749100 0.000000 
#    z 0.000000 0.000000 1.742590 
# 
# From -- ./inp_files/1758.got.cif
#   From: 2010.03.12/outbox.cif.g09.slc.cpg/sg55_1_cif.got.tgz:1758.got - 2010.04.16 15:19:21.
