data_PCOD8227809
_publ_section_title
;
Structure prediction by ZEFSAII (Michael W. Deem and Ramdas Pophale) SiO2 
 PCOD8227809
Probable space group: P B A M
;
_chemical_formula_sum "Si O2"
_cell_formula_units_Z 48
_cell_length_a 13.913621
_cell_length_b 9.263661
_cell_length_c 16.709551
_cell_angle_alpha 90.000000
_cell_angle_beta 90.000000
_cell_angle_gamma 90.000000
_cell_volume 2153.711878
_symmetry_space_group_name_H-M "P B A M"
_symmetry_group_IT_number 55
_symmetry_cell_setting 'orthorhombic'
loop_
_space_group_symop_operation_xyz
x,y,z
-x,-y,z
1/2+x,1/2-y,-z
1/2-x,1/2+y,-z
-x,-y,-z
x,y,-z
1/2-x,1/2+y,z
1/2+x,1/2-y,z
loop_
_atom_site_type_symbol
_atom_site_label
_atom_site_fract_x
_atom_site_fract_y
_atom_site_fract_z
Si Si1 0.096831 0.901673 0.500000
Si Si2 0.750376 0.837701 0.261341
Si Si3 0.355387 0.475525 0.000000
Si Si4 0.746503 0.080536 0.372767
Si Si5 0.893877 0.446469 0.500000
Si Si6 0.432258 0.611373 0.158370
Si Si7 0.564211 0.873227 0.838566
Si Si8 0.157804 0.632661 0.000000
O O1 0.155670 0.944937 0.421378
O O2 0.093826 0.726977 0.500000
O O3 0.000000 0.000000 0.500000
O O4 0.765979 0.746136 0.343826
O O5 0.838571 0.822264 0.200827
O O6 0.647366 0.810531 0.219836
O O7 0.753387 0.003372 0.287650
O O8 0.411040 0.518185 0.920215
O O9 0.335170 0.305608 0.000000
O O10 0.262586 0.571839 0.000000
O O11 0.657435 0.014915 0.422270
O O12 0.000000 0.500000 0.500000
O O13 0.500000 0.500000 0.210909
O O14 0.494057 0.747888 0.134749
O O15 0.608360 0.932558 0.920953
O O16 0.500000 0.000000 0.797355
#
# Coordination Sequence:
#
# PCOD8227809 Si02
#       8
#     4   8   4   8   4   8   8   4
#     4  11  26  48  79 111 139 191 245 285 354 432
#     4  12  26  46  71 108 148 191 237 302 368 438
#     4  12  26  45  74 100 137 192 248 313 364 433
#     4  11  26  48  73 104 151 182 234 297 357 426
#     4  11  26  48  77 109 143 191 239 289 354 434
#     4  12  25  46  73  99 145 191 247 306 369 431
#     4  12  27  45  70 106 143 193 249 302 370 436
#     4  12  26  46  72 100 141 191 254 304 372 425
#
# _framework density 22.287105
#
# number of rings (size 3 to 8) (size 9 to 14) (size 15 to 20)
#    0.000    0.333    5.000    3.000    4.667    4.000 
#    0.000    0.000    0.000    0.000    0.000    0.000 
#    0.000    0.000    0.000    0.000    0.000    0.000 
#
# Total GULP energy -594871.217605 kJ/mol
# GULP energy per Si atom -12393.150367 kJ/mol
# Density = 2.223638 g / cm^3
# Si number density = 22.287105 Si / 1000 Ang^3
#
#
#
# Elastic Constant Matrix: (Units=GPa)
#
#
# Indices 1 2 3 4 5 6 
#
# 1 174.6269 60.2979 48.8579 0.0000 0.0000 0.0000
# 2 60.2979 100.2211 21.3205 0.0000 0.0000 0.0000
# 3 48.8579 21.3205 97.5804 0.0000 0.0000 0.0000
# 4 0.0000 0.0000 0.0000 45.4563 0.0000 0.0000
# 5 0.0000 0.0000 0.0000 0.0000 9.0322 0.0000
# 6 0.0000 0.0000 0.0000 0.0000 0.0000 45.2478
#
#
#
# Elastic Compliance Matrix: (Units=1/GPa)
#
#
# Indices 1 2 3 4 5 6 
#
# 1 0.008039 -0.004174 -0.003113 0.000000 0.000000 0.000000
# 2 -0.004174 0.012632 -0.000670 0.000000 0.000000 0.000000
# 3 -0.003113 -0.000670 0.011953 0.000000 0.000000 0.000000
# 4 0.000000 0.000000 0.000000 0.021999 0.000000 0.000000
# 5 0.000000 0.000000 0.000000 0.000000 0.110715 0.000000
# 6 0.000000 0.000000 0.000000 0.000000 0.000000 0.022101
#
#
# Mechanical properties :
#
#
# Convention : Reuss Voigt Hill
#
# Bulk Modulus (GPa) = 59.84663 70.37564 65.11113
# Shear Modulus (GPa) = 23.93227 36.07738 30.00483
#
# Velocity S-wave (km/s) = 3.28047 4.02774 3.67316
# Velocity P-wave (km/s) = 6.42336 7.29902 6.87514
#
# Compressibility (1/GPa) = 0.01670938
#
# Stress axis : x y z
#
# Youngs Moduli (GPa) = 124.39643 79.16451 83.66131
#
# Poissons Ratio (x) = 0.33046 0.26043
# Poissons Ratio (y) = 0.51927 0.05605
# Poissons Ratio (z) = 0.38724 0.05303
#
# Static dielectric constant tensor:
#      x y z
#    x 4.286120 0.000000 0.000000 
#    y 0.000000 4.024310 0.000000 
#    z 0.000000 0.000000 3.836270 
# 
# 
# High freq. dielectric constant tensor:
#      x y z
#    x 1.895760 0.000000 0.000000 
#    y 0.000000 1.894730 0.000000 
#    z 0.000000 0.000000 1.869900 
# 
# From -- ./inp_files/21566.got.cif
#   From: 2010.03.12/outbox.cif.g09.slc.cpg/sg55_11_cif.got.tgz:21566.got - 2010.04.16 15:19:21.
