data_PCOD8227152
_publ_section_title
;
Structure prediction by ZEFSAII (Michael W. Deem and Ramdas Pophale) SiO2 
 PCOD8227152
Probable space group: P B A M
;
_chemical_formula_sum "Si O2"
_cell_formula_units_Z 64
_cell_length_a 24.664369
_cell_length_b 14.180756
_cell_length_c 9.036110
_cell_angle_alpha 90.000000
_cell_angle_beta 90.000000
_cell_angle_gamma 90.000000
_cell_volume 3160.464400
_symmetry_space_group_name_H-M "P B A M"
_symmetry_group_IT_number 55
_symmetry_cell_setting 'orthorhombic'
loop_
_space_group_symop_operation_xyz
x,y,z
-x,-y,z
1/2+x,1/2-y,-z
1/2-x,1/2+y,-z
-x,-y,-z
x,y,-z
1/2-x,1/2+y,z
1/2+x,1/2-y,z
loop_
_atom_site_type_symbol
_atom_site_label
_atom_site_fract_x
_atom_site_fract_y
_atom_site_fract_z
Si Si1 0.184655 0.680617 0.827730
Si Si2 0.563747 0.759315 0.172813
Si Si3 0.628260 0.390673 0.328499
Si Si4 0.739429 0.150034 0.826658
Si Si5 0.480191 0.895993 0.325266
Si Si6 0.441120 0.458187 0.170480
Si Si7 0.882720 0.698307 0.174974
Si Si8 0.254333 0.538865 0.670297
O O1 0.123469 0.705262 0.787747
O O2 0.223974 0.763447 0.773735
O O3 0.201496 0.586761 0.741374
O O4 0.192360 0.660328 0.000000
O O5 0.522557 0.818628 0.270358
O O6 0.558795 0.650530 0.219062
O O7 0.549939 0.773144 0.000000
O O8 0.613712 0.377140 0.500000
O O9 0.601548 0.486645 0.270820
O O10 0.604723 0.302213 0.238078
O O11 0.692734 0.396972 0.303695
O O12 0.677535 0.167485 0.780256
O O13 0.764337 0.060999 0.745094
O O14 0.745216 0.133006 0.000000
O O15 0.472757 0.886485 0.500000
O O16 0.422769 0.878073 0.246385
O O17 0.500000 0.000000 0.279663
O O18 0.500000 0.500000 0.198632
O O19 0.423125 0.468204 0.000000
O O20 0.891584 0.701486 0.000000
O O21 0.242166 0.521869 0.500000
#
# Coordination Sequence:
#
# PCOD8227152 Si02
#       8
#     8   8   8   8   8   8   8   8
#     4  10  21  40  63  90 124 162 207 255 304 364
#     4  10  22  40  64  93 124 161 210 262 307 363
#     4  11  23  39  61  93 129 165 203 249 310 377
#     4  10  22  40  64  93 123 162 208 256 311 366
#     4  11  26  45  64  90 127 168 209 258 316 374
#     4  10  21  38  63  93 123 158 202 254 310 366
#     4  11  23  41  67  93 121 162 212 264 311 363
#     4  11  24  38  58  89 125 163 202 250 309 374
#
# _framework density 20.250188000000001
#
# number of rings (size 3 to 8) (size 9 to 14) (size 15 to 20)
#    0.000    1.500    1.250    3.000    1.750    7.250 
#    0.000    0.000    0.000    0.000    0.000    0.000 
#    0.000    0.000    0.000    0.000    0.000    0.000 
#
# Total GULP energy -794035.080945 kJ/mol
# GULP energy per Si atom -12406.798140 kJ/mol
# Density = 2.020410 g / cm^3
# Si number density = 20.250188 Si / 1000 Ang^3
#
#
#
# Elastic Constant Matrix: (Units=GPa)
#
#
# Indices 1 2 3 4 5 6 
#
# 1 51.5063 -6.1746 15.5885 0.0000 0.0000 0.0000
# 2 -6.1746 66.0924 22.1658 0.0000 0.0000 0.0000
# 3 15.5885 22.1658 58.2340 0.0000 0.0000 0.0000
# 4 0.0000 0.0000 0.0000-3153.4371 0.0000 0.0000
# 5 0.0000 0.0000 0.0000 0.0000 30.5151 0.0000
# 6 0.0000 0.0000 0.0000 0.0000 0.0000 36.5855
#
#
#
# Elastic Compliance Matrix: (Units=1/GPa)
#
#
# Indices 1 2 3 4 5 6 
#
# 1 0.022326 0.004689 -0.007761 0.000000 0.000000 0.000000
# 2 0.004689 0.018329 -0.008232 0.000000 0.000000 0.000000
# 3 -0.007761 -0.008232 0.022383 0.000000 0.000000 0.000000
# 4 0.000000 0.000000 0.000000 -0.000317 0.000000 0.000000
# 5 0.000000 0.000000 0.000000 0.000000 0.032771 0.000000
# 6 0.000000 0.000000 0.000000 0.000000 0.000000 0.027333
#
#
# Mechanical properties :
#
#
# Convention : Reuss Voigt Hill
#
# Bulk Modulus (GPa) = 24.73425 26.55468 25.64446
# Shear Modulus (GPa) = 31.46438 -607.65043 -288.09302
#
# Velocity S-wave (km/s) = 3.94608 -17.34136 -11.94051
# Velocity P-wave (km/s) = 5.74482 19.69320 13.31952
#
# Compressibility (1/GPa) = 0.04042977
#
# Stress axis : x y z
#
# Youngs Moduli (GPa) = 44.79067 54.55800 44.67689
#
# Poissons Ratio (x) = -0.25580 0.34674
# Poissons Ratio (y) = -0.21001 0.36777
# Poissons Ratio (z) = 0.34762 0.44911
#
# Static dielectric constant tensor:
#      x y z
#    x 3.788580 0.000000 0.000000 
#    y 0.000000 3.704170 0.000000 
#    z 0.000000 0.000000 3.596690 
# 
# 
# High freq. dielectric constant tensor:
#      x y z
#    x 1.801110 0.000000 0.000000 
#    y 0.000000 1.801590 0.000000 
#    z 0.000000 0.000000 1.787900 
# 
# From -- ./inp_files/9773.got.cif
#   From: 2010.03.12/outbox.cif.g09.slc.cpg/sg55_5_cif.got.tgz:9773.got - 2010.04.16 15:19:21.
