data_PCOD8227307
_publ_section_title
;
Structure prediction by ZEFSAII (Michael W. Deem and Ramdas Pophale) SiO2 
 PCOD8227307
Probable space group: P B A M
;
_chemical_formula_sum "Si O2"
_cell_formula_units_Z 56
_cell_length_a 18.480671
_cell_length_b 16.735328
_cell_length_c 8.821892
_cell_angle_alpha 90.000000
_cell_angle_beta 90.000000
_cell_angle_gamma 90.000000
_cell_volume 2728.435559
_symmetry_space_group_name_H-M "P B A M"
_symmetry_group_IT_number 55
_symmetry_cell_setting 'orthorhombic'
loop_
_space_group_symop_operation_xyz
x,y,z
-x,-y,z
1/2+x,1/2-y,-z
1/2-x,1/2+y,-z
-x,-y,-z
x,y,-z
1/2-x,1/2+y,z
1/2+x,1/2-y,z
loop_
_atom_site_type_symbol
_atom_site_label
_atom_site_fract_x
_atom_site_fract_y
_atom_site_fract_z
Si Si1 0.563246 0.833835 0.178567
Si Si2 0.417265 0.480312 0.323517
Si Si3 0.412297 0.860817 0.672191
Si Si4 0.355683 0.322735 0.179739
Si Si5 0.278458 0.751827 0.325958
Si Si6 0.150890 0.513764 0.825910
Si Si7 0.197323 0.086189 0.173859
O O1 0.480913 0.842077 0.226419
O O2 0.596089 0.751111 0.240869
O O3 0.610321 0.908040 0.239331
O O4 0.567598 0.832456 0.000000
O O5 0.500000 0.500000 0.286758
O O6 0.405129 0.462751 0.500000
O O7 0.394378 0.403963 0.227051
O O8 0.369598 0.556474 0.274568
O O9 0.437675 0.872176 0.500000
O O10 0.358718 0.786470 0.688911
O O11 0.372404 0.940480 0.723798
O O12 0.277127 0.316099 0.256492
O O13 0.345752 0.322134 0.000000
O O14 0.258404 0.734653 0.500000
O O15 0.274005 0.671033 0.230623
O O16 0.237047 0.523595 0.811696
O O17 0.128404 0.497866 0.000000
O O18 0.172297 0.094181 0.000000
#
# Coordination Sequence:
#
# PCOD8227307 Si02
#       7
#     8   8   8   8   8   8   8
#     4  10  22  41  63  91 126 163 203 256 314 367
#     4  11  26  45  65  94 134 174 214 268 333 393
#     4  11  25  39  58  92 127 161 205 249 305 375
#     4  11  23  43  68  95 125 165 221 268 316 382
#     4  11  24  42  64  93 131 171 210 262 323 381
#     4  10  21  41  64  90 123 160 202 253 313 369
#     4  11  23  42  68  95 124 164 218 269 314 379
#
# _framework density 20.524583
#
# number of rings (size 3 to 8) (size 9 to 14) (size 15 to 20)
#    0.000    1.286    1.429    3.429    2.000   10.286 
#    0.000    0.000    0.000    0.000    0.000    0.000 
#    0.000    0.000    0.000    0.000    0.000    0.000 
#
# Total GULP energy -694776.415679 kJ/mol
# GULP energy per Si atom -12406.721709 kJ/mol
# Density = 2.047787 g / cm^3
# Si number density = 20.524583 Si / 1000 Ang^3
#
#
#
# Elastic Constant Matrix: (Units=GPa)
#
#
# Indices 1 2 3 4 5 6 
#
# 1 98.0534 12.8244 24.9834 0.0000 0.0000 0.0000
# 2 12.8244 73.1601 18.4713 0.0000 0.0000 0.0000
# 3 24.9834 18.4713 48.2789 0.0000 0.0000 0.0000
# 4 0.0000 0.0000 0.0000 32.4456 0.0000 0.0000
# 5 0.0000 0.0000 0.0000 0.0000 29.8883 0.0000
# 6 0.0000 0.0000 0.0000 0.0000 0.0000 28.8762
#
#
#
# Elastic Compliance Matrix: (Units=1/GPa)
#
#
# Indices 1 2 3 4 5 6 
#
# 1 0.011770 -0.000582 -0.005868 0.000000 0.000000 0.000000
# 2 -0.000582 0.015159 -0.005499 0.000000 0.000000 0.000000
# 3 -0.005868 -0.005499 0.025853 0.000000 0.000000 0.000000
# 4 0.000000 0.000000 0.000000 0.030821 0.000000 0.000000
# 5 0.000000 0.000000 0.000000 0.000000 0.033458 0.000000
# 6 0.000000 0.000000 0.000000 0.000000 0.000000 0.034631
#
#
# Mechanical properties :
#
#
# Convention : Reuss Voigt Hill
#
# Bulk Modulus (GPa) = 34.61986 36.89451 35.75719
# Shear Modulus (GPa) = 26.99540 29.12291 28.05916
#
# Velocity S-wave (km/s) = 3.63060 3.77095 3.70144
# Velocity P-wave (km/s) = 5.87190 6.08070 5.97721
#
# Compressibility (1/GPa) = 0.02888516
#
# Stress axis : x y z
#
# Youngs Moduli (GPa) = 84.96366 65.96769 38.67958
#
# Poissons Ratio (x) = 0.03837 0.22698
# Poissons Ratio (y) = 0.04941 0.21269
# Poissons Ratio (z) = 0.49857 0.36274
#
# Static dielectric constant tensor:
#      x y z
#    x 3.737880 0.000000 0.000000 
#    y 0.000000 3.783470 0.000000 
#    z 0.000000 0.000000 3.723820 
# 
# 
# High freq. dielectric constant tensor:
#      x y z
#    x 1.812600 0.000000 0.000000 
#    y 0.000000 1.811670 0.000000 
#    z 0.000000 0.000000 1.805820 
# 
# From -- ./inp_files/8661.got.cif
#   From: 2010.03.12/outbox.cif.g09.slc.cpg/sg55_5_cif.got.tgz:8661.got - 2010.04.16 15:19:21.
