data_PCOD8227946
_publ_section_title
;
Structure prediction by ZEFSAII (Michael W. Deem and Ramdas Pophale) SiO2 
 PCOD8227946
Probable space group: P C C N
;
_chemical_formula_sum "Si O2"
_cell_formula_units_Z 32
_cell_length_a 5.262172
_cell_length_b 7.707430
_cell_length_c 35.629550
_cell_angle_alpha 90.000000
_cell_angle_beta 90.000000
_cell_angle_gamma 90.000000
_cell_volume 1445.056959
_symmetry_space_group_name_H-M "P C C N"
_symmetry_group_IT_number 56
_symmetry_cell_setting 'orthorhombic'
loop_
_space_group_symop_operation_xyz
x,y,z
1/2-x,1/2-y,z
1/2+x,-y,1/2-z
-x,1/2+y,1/2-z
-x,-y,-z
1/2+x,1/2+y,-z
1/2-x,y,1/2+z
x,1/2-y,1/2+z
loop_
_atom_site_type_symbol
_atom_site_label
_atom_site_fract_x
_atom_site_fract_y
_atom_site_fract_z
Si Si1 0.496998 0.641097 0.838822
Si Si2 0.137041 0.939558 0.231505
Si Si3 0.493225 0.564696 0.924828
Si Si4 0.496920 0.045199 0.043367
O O1 0.250000 0.750000 0.825784
O O2 0.536739 0.483997 0.810040
O O3 0.456912 0.572240 0.880505
O O4 0.750000 0.750000 0.838565
O O5 0.250000 0.750000 0.232903
O O6 0.381112 0.058908 0.242737
O O7 0.499319 0.750799 0.945932
O O8 0.748436 0.462351 0.936726
O O9 0.250340 0.457874 0.939677
O O10 0.500000 0.000000 0.000000
#
# Coordination Sequence:
#
# PCOD8227946 Si02
#       4
#     8   8   8   8
#     4  12  21  40  70  95 132 177 221 278 333 408
#     4  12  26  45  69 104 138 176 227 279 344 412
#     4  10  19  35  55  88 116 164 217 256 329 388
#     4  10  18  32  56  82 119 153 206 265 313 382
#
# _framework density 22.144456999999999
#
# number of rings (size 3 to 8) (size 9 to 14) (size 15 to 20)
#    0.000    1.000    5.000    5.250    0.000    0.000 
#    0.000    0.000   16.500    0.000    0.000    0.000 
#    0.000    0.000    0.000    0.000    0.000    0.000 
#
# Total GULP energy -396487.554806 kJ/mol
# GULP energy per Si atom -12390.236088 kJ/mol
# Density = 2.209405 g / cm^3
# Si number density = 22.144457 Si / 1000 Ang^3
#
#
#
# Elastic Constant Matrix: (Units=GPa)
#
#
# Indices 1 2 3 4 5 6 
#
# 1 246.6806 23.7923 68.7007 0.0000 0.0000 0.0000
# 2 23.7923 42.6872 51.3581 0.0000 0.0000 0.0000
# 3 68.7007 51.3581 186.8742 0.0000 0.0000 0.0000
# 4 0.0000 0.0000 0.0000 40.1773 0.0000 0.0000
# 5 0.0000 0.0000 0.0000 0.0000 49.9133 0.0000
# 6 0.0000 0.0000 0.0000 0.0000 0.0000 22.0422
#
#
#
# Elastic Compliance Matrix: (Units=1/GPa)
#
#
# Indices 1 2 3 4 5 6 
#
# 1 0.004534 -0.000779 -0.001452 0.000000 0.000000 0.000000
# 2 -0.000779 0.035133 -0.009369 0.000000 0.000000 0.000000
# 3 -0.001452 -0.009369 0.008460 0.000000 0.000000 0.000000
# 4 0.000000 0.000000 0.000000 0.024890 0.000000 0.000000
# 5 0.000000 0.000000 0.000000 0.000000 0.020035 0.000000
# 6 0.000000 0.000000 0.000000 0.000000 0.000000 0.045368
#
#
# Mechanical properties :
#
#
# Convention : Reuss Voigt Hill
#
# Bulk Modulus (GPa) = 40.12079 84.88266 62.50173
# Shear Modulus (GPa) = 29.42430 44.58595 37.00513
#
# Velocity S-wave (km/s) = 3.64915 4.49198 4.09232
# Velocity P-wave (km/s) = 5.99267 8.08198 7.11444
#
# Compressibility (1/GPa) = 0.02492473
#
# Stress axis : x y z
#
# Youngs Moduli (GPa) = 220.57990 28.46365 118.20338
#
# Poissons Ratio (x) = 0.02218 0.17169
# Poissons Ratio (y) = 0.17189 1.10743
# Poissons Ratio (z) = 0.32039 0.26667
#
# Static dielectric constant tensor:
#      x y z
#    x 2.234990 0.000000 0.000000 
#    y 0.000000 3.239820 0.000000 
#    z 0.000000 0.000000 5.454800 
# 
# 
# High freq. dielectric constant tensor:
#      x y z
#    x 1.924120 0.000000 0.000000 
#    y 0.000000 1.813400 0.000000 
#    z 0.000000 0.000000 1.882860 
# 
# From -- ./inp_files/22714.got.cif
#   From: 2010.03.12/outbox.cif.g09.slc.cpg/sg56_12_cif.got.tgz:22714.got - 2010.04.16 15:33:40.
