data_PCOD8227206
_publ_section_title
;
Structure prediction by ZEFSAII (Michael W. Deem and Ramdas Pophale) SiO2 
 PCOD8227206
Probable space group: P B A M
;
_chemical_formula_sum "Si O2"
_cell_formula_units_Z 48
_cell_length_a 28.639350
_cell_length_b 9.337034
_cell_length_c 8.422721
_cell_angle_alpha 90.000000
_cell_angle_beta 90.000000
_cell_angle_gamma 90.000000
_cell_volume 2252.291056
_symmetry_space_group_name_H-M "P B A M"
_symmetry_group_IT_number 55
_symmetry_cell_setting 'orthorhombic'
loop_
_space_group_symop_operation_xyz
x,y,z
-x,-y,z
1/2+x,1/2-y,-z
1/2-x,1/2+y,-z
-x,-y,-z
x,y,-z
1/2-x,1/2+y,z
1/2+x,1/2-y,z
loop_
_atom_site_type_symbol
_atom_site_label
_atom_site_fract_x
_atom_site_fract_y
_atom_site_fract_z
Si Si1 0.378956 0.313329 0.686761
Si Si2 0.960460 0.600585 0.184749
Si Si3 0.715981 0.197454 0.313603
Si Si4 0.797865 0.015814 0.186300
Si Si5 0.015715 0.839070 0.321767
Si Si6 0.137269 0.508858 0.187486
O O1 0.377238 0.343334 0.500000
O O2 0.351192 0.441007 0.774781
O O3 0.432380 0.317498 0.750261
O O4 0.355588 0.161072 0.727548
O O5 0.909869 0.564198 0.256543
O O6 0.000000 0.500000 0.263835
O O7 0.976036 0.761839 0.218392
O O8 0.957262 0.570888 0.000000
O O9 0.706234 0.202841 0.500000
O O10 0.766600 0.131345 0.279692
O O11 0.712904 0.356134 0.243617
O O12 0.679174 0.095702 0.227924
O O13 0.787828 0.025543 0.000000
O O14 0.014986 0.777510 0.500000
O O15 0.000000 0.000000 0.318024
O O16 0.135691 0.534973 0.000000
#
# Coordination Sequence:
#
# PCOD8227206 Si02
#       6
#     8   8   8   8   8   8
#     4  11  23  41  64  94 130 172 217 264 320 379
#     4  10  21  39  62  91 126 168 215 262 313 374
#     4  12  26  46  70  98 130 166 209 260 318 381
#     4  12  26  46  70  97 130 167 210 260 318 380
#     4  10  23  40  60  90 128 170 215 264 318 376
#     4  11  23  41  65  95 130 169 216 265 319 380
#
# _framework density 21.311633
#
# number of rings (size 3 to 8) (size 9 to 14) (size 15 to 20)
#    0.000    1.000    1.667    5.000    2.333    2.667 
#    0.000    0.000    0.000    0.000    0.000    0.000 
#    0.000    0.000    0.000    0.000    0.000    0.000 
#
# Total GULP energy -595400.394167 kJ/mol
# GULP energy per Si atom -12404.174878 kJ/mol
# Density = 2.126313 g / cm^3
# Si number density = 21.311633 Si / 1000 Ang^3
#
#
#
# Elastic Constant Matrix: (Units=GPa)
#
#
# Indices 1 2 3 4 5 6 
#
# 1 85.0550 28.0239 11.1313 0.0000 0.0000 0.0000
# 2 28.0239 115.3443 19.2791 0.0000 0.0000 0.0000
# 3 11.1313 19.2791 60.9102 0.0000 0.0000 0.0000
# 4 0.0000 0.0000 0.0000 30.0041 0.0000 0.0000
# 5 0.0000 0.0000 0.0000 0.0000 25.4933 0.0000
# 6 0.0000 0.0000 0.0000 0.0000 0.0000 42.7887
#
#
#
# Elastic Compliance Matrix: (Units=1/GPa)
#
#
# Indices 1 2 3 4 5 6 
#
# 1 0.012899 -0.002893 -0.001442 0.000000 0.000000 0.000000
# 2 -0.002893 0.009803 -0.002574 0.000000 0.000000 0.000000
# 3 -0.001442 -0.002574 0.017496 0.000000 0.000000 0.000000
# 4 0.000000 0.000000 0.000000 0.033329 0.000000 0.000000
# 5 0.000000 0.000000 0.000000 0.000000 0.039226 0.000000
# 6 0.000000 0.000000 0.000000 0.000000 0.000000 0.023371
#
#
# Mechanical properties :
#
#
# Convention : Reuss Voigt Hill
#
# Bulk Modulus (GPa) = 37.90709 42.01980 39.96345
# Shear Modulus (GPa) = 31.49930 33.18222 32.34076
#
# Velocity S-wave (km/s) = 3.84869 3.95017 3.89976
# Velocity P-wave (km/s) = 6.12989 6.36904 6.25061
#
# Compressibility (1/GPa) = 0.02638029
#
# Stress axis : x y z
#
# Youngs Moduli (GPa) = 77.52580 102.01158 57.15657
#
# Poissons Ratio (x) = 0.29512 0.08240
# Poissons Ratio (y) = 0.22428 0.14713
# Poissons Ratio (z) = 0.11176 0.26259
#
# Static dielectric constant tensor:
#      x y z
#    x 4.173620 0.000000 0.000000 
#    y 0.000000 3.818350 0.000000 
#    z 0.000000 0.000000 3.808740 
# 
# 
# High freq. dielectric constant tensor:
#      x y z
#    x 1.850600 0.000000 0.000000 
#    y 0.000000 1.843950 0.000000 
#    z 0.000000 0.000000 1.833390 
# 
# From -- ./inp_files/2819.got.cif
#   From: 2010.03.12/outbox.cif.g09.slc.cpg/sg55_2_cif.got.tgz:2819.got - 2010.04.16 15:19:21.
