data_PCOD8227810
_publ_section_title
;
Structure prediction by ZEFSAII (Michael W. Deem and Ramdas Pophale) SiO2 
 PCOD8227810
Probable space group: P B A M
;
_chemical_formula_sum "Si O2"
_cell_formula_units_Z 48
_cell_length_a 14.533632
_cell_length_b 8.927592
_cell_length_c 15.604093
_cell_angle_alpha 90.000000
_cell_angle_beta 90.000000
_cell_angle_gamma 90.000000
_cell_volume 2024.636322
_symmetry_space_group_name_H-M "P B A M"
_symmetry_group_IT_number 55
_symmetry_cell_setting 'orthorhombic'
loop_
_space_group_symop_operation_xyz
x,y,z
-x,-y,z
1/2+x,1/2-y,-z
1/2-x,1/2+y,-z
-x,-y,-z
x,y,-z
1/2-x,1/2+y,z
1/2+x,1/2-y,z
loop_
_atom_site_type_symbol
_atom_site_label
_atom_site_fract_x
_atom_site_fract_y
_atom_site_fract_z
Si Si1 0.508234 0.676835 0.835961
Si Si2 0.762835 0.417733 0.707826
Si Si3 0.188106 0.311202 0.819693
Si Si4 0.615974 0.738661 0.000000
Si Si5 0.545026 0.845339 0.320768
Si Si6 0.726374 0.040859 0.000000
Si Si7 0.922862 0.881829 0.401831
O O1 0.500000 0.500000 0.849208
O O2 0.413550 0.751409 0.809675
O O3 0.567772 0.724473 0.754387
O O4 0.550937 0.756028 0.918735
O O5 0.786290 0.582691 0.740334
O O6 0.754888 0.329023 0.799331
O O7 0.849496 0.370616 0.646822
O O8 0.668364 0.403537 0.654783
O O9 0.193616 0.375338 0.914755
O O10 0.695623 0.867760 0.000000
O O11 0.662943 0.571753 0.000000
O O12 0.473920 0.778664 0.390669
O O13 0.500000 0.000000 0.286523
O O14 0.893398 0.902702 0.500000
O O15 0.000000 0.000000 0.372492
#
# Coordination Sequence:
#
# PCOD8227810 Si02
#       7
#     8   8   8   4   8   4   8
#     4  12  27  48  71 104 150 202 257 318 395 460
#     4  12  25  46  76 111 148 201 259 313 385 463
#     4  12  26  45  76 104 147 202 250 318 377 452
#     4  12  30  45  72 100 154 204 259 327 381 460
#     4  12  24  46  75 111 149 195 253 314 384 462
#     4  12  27  45  69 109 150 197 261 309 381 445
#     4  11  26  48  76 110 153 203 250 316 393 468
#
# _framework density 23.70796
#
# number of rings (size 3 to 8) (size 9 to 14) (size 15 to 20)
#    0.000    0.167    3.333    5.250    7.000    1.667 
#    0.000    4.167    0.000    0.000    0.000    0.000 
#    0.000    0.000    0.000    0.000    0.000    0.000 
#
# Total GULP energy -594639.145487 kJ/mol
# GULP energy per Si atom -12388.315531 kJ/mol
# Density = 2.365400 g / cm^3
# Si number density = 23.707960 Si / 1000 Ang^3
#
#
#
# Elastic Constant Matrix: (Units=GPa)
#
#
# Indices 1 2 3 4 5 6 
#
# 1 185.7781 54.4885 54.6512 0.0000 0.0000 0.0000
# 2 54.4885 111.6986 38.9675 0.0000 0.0000 0.0000
# 3 54.6512 38.9675 99.6989 0.0000 0.0000 0.0000
# 4 0.0000 0.0000 0.0000 34.5249 0.0000 0.0000
# 5 0.0000 0.0000 0.0000 0.0000 30.9911 0.0000
# 6 0.0000 0.0000 0.0000 0.0000 0.0000 35.6551
#
#
#
# Elastic Compliance Matrix: (Units=1/GPa)
#
#
# Indices 1 2 3 4 5 6 
#
# 1 0.006923 -0.002377 -0.002866 0.000000 0.000000 0.000000
# 2 -0.002377 0.011183 -0.003067 0.000000 0.000000 0.000000
# 3 -0.002866 -0.003067 0.012800 0.000000 0.000000 0.000000
# 4 0.000000 0.000000 0.000000 0.028965 0.000000 0.000000
# 5 0.000000 0.000000 0.000000 0.000000 0.032267 0.000000
# 6 0.000000 0.000000 0.000000 0.000000 0.000000 0.028046
#
#
# Mechanical properties :
#
#
# Convention : Reuss Voigt Hill
#
# Bulk Modulus (GPa) = 70.00695 77.04334 73.52514
# Shear Modulus (GPa) = 35.31897 36.83877 36.07887
#
# Velocity S-wave (km/s) = 3.86392 3.94618 3.90526
# Velocity P-wave (km/s) = 7.03559 7.30277 7.17042
#
# Compressibility (1/GPa) = 0.01428430
#
# Stress axis : x y z
#
# Youngs Moduli (GPa) = 144.44393 89.42489 78.12479
#
# Poissons Ratio (x) = 0.21260 0.22389
# Poissons Ratio (y) = 0.34341 0.23965
# Poissons Ratio (z) = 0.41394 0.27431
#
# Static dielectric constant tensor:
#      x y z
#    x 4.788260 0.000000 0.000000 
#    y 0.000000 4.569790 0.000000 
#    z 0.000000 0.000000 4.973770 
# 
# 
# High freq. dielectric constant tensor:
#      x y z
#    x 1.960480 0.000000 0.000000 
#    y 0.000000 1.950850 0.000000 
#    z 0.000000 0.000000 1.922200 
# 
# From -- ./inp_files/21521.got.cif
#   From: 2010.03.12/outbox.cif.g09.slc.cpg/sg55_11_cif.got.tgz:21521.got - 2010.04.16 15:19:21.
