data_PCOD8227170
_publ_section_title
;
Structure prediction by ZEFSAII (Michael W. Deem and Ramdas Pophale) SiO2 
 PCOD8227170
Probable space group: P B A M
;
_chemical_formula_sum "Si O2"
_cell_formula_units_Z 56
_cell_length_a 23.293972
_cell_length_b 13.743932
_cell_length_c 8.942592
_cell_angle_alpha 90.000000
_cell_angle_beta 90.000000
_cell_angle_gamma 90.000000
_cell_volume 2862.977689
_symmetry_space_group_name_H-M "P B A M"
_symmetry_group_IT_number 55
_symmetry_cell_setting 'orthorhombic'
loop_
_space_group_symop_operation_xyz
x,y,z
-x,-y,z
1/2+x,1/2-y,-z
1/2-x,1/2+y,-z
-x,-y,-z
x,y,-z
1/2-x,1/2+y,z
1/2+x,1/2-y,z
loop_
_atom_site_type_symbol
_atom_site_label
_atom_site_fract_x
_atom_site_fract_y
_atom_site_fract_z
Si Si1 0.022341 0.899999 0.324755
Si Si2 0.036231 0.297100 0.322823
Si Si3 0.167509 0.317668 0.324713
Si Si4 0.934438 0.370886 0.827082
Si Si5 0.265759 0.213237 0.175540
Si Si6 0.326689 0.013512 0.829237
Si Si7 0.367771 0.297836 0.673219
O O1 0.010323 0.903480 0.500000
O O2 0.986563 0.807603 0.263720
O O3 0.091047 0.890713 0.293379
O O4 0.000000 0.000000 0.248842
O O5 0.028512 0.311664 0.500000
O O6 0.102016 0.305286 0.273642
O O7 0.999687 0.381338 0.234827
O O8 0.174984 0.308472 0.500000
O O9 0.204014 0.231186 0.249528
O O10 0.190860 0.422708 0.272619
O O11 0.895427 0.467589 0.812590
O O12 0.906035 0.293890 0.716396
O O13 0.933915 0.335869 0.000000
O O14 0.290162 0.107722 0.223376
O O15 0.309403 0.298143 0.231021
O O16 0.260073 0.221983 0.000000
O O17 0.311428 0.988235 0.000000
O O18 0.350645 0.291963 0.500000
#
# Coordination Sequence:
#
# PCOD8227170 Si02
#       7
#     8   8   8   8   8   8   8
#     4   8  14  28  51  77 107 140 175 217 267 326
#     4   9  19  34  51  77 112 145 178 225 281 330
#     4  11  23  37  55  82 114 147 186 235 286 334
#     4   9  17  31  54  80 106 139 178 218 271 331
#     4  10  21  39  59  77 107 146 187 233 280 337
#     4   9  20  38  58  80 106 144 187 228 279 337
#     4   9  16  29  52  79 105 136 180 226 273 323
#
# _framework density 19.560055999999999
#
# number of rings (size 3 to 8) (size 9 to 14) (size 15 to 20)
#    0.000    2.714    0.000    3.429    0.000    5.143 
#    2.571    2.857    0.000   10.714    0.000    0.000 
#    0.000    0.000    0.000    0.000    0.000    0.000 
#
# Total GULP energy -694024.829030 kJ/mol
# GULP energy per Si atom -12393.300518 kJ/mol
# Density = 1.951554 g / cm^3
# Si number density = 19.560056 Si / 1000 Ang^3
#
#
#
# Elastic Constant Matrix: (Units=GPa)
#
#
# Indices 1 2 3 4 5 6 
#
# 1 114.4674 29.3943 37.4660 0.0000 0.0000 0.0000
# 2 29.3943 62.8221 22.6045 0.0000 0.0000 0.0000
# 3 37.4660 22.6045 55.3777 0.0000 0.0000 0.0000
# 4 0.0000 0.0000 0.0000 21.7261 0.0000 0.0000
# 5 0.0000 0.0000 0.0000 0.0000 32.3039 0.0000
# 6 0.0000 0.0000 0.0000 0.0000 0.0000 24.8557
#
#
#
# Elastic Compliance Matrix: (Units=1/GPa)
#
#
# Indices 1 2 3 4 5 6 
#
# 1 0.011708 -0.003081 -0.006664 0.000000 0.000000 0.000000
# 2 -0.003081 0.019469 -0.005863 0.000000 0.000000 0.000000
# 3 -0.006664 -0.005863 0.024959 0.000000 0.000000 0.000000
# 4 0.000000 0.000000 0.000000 0.046028 0.000000 0.000000
# 5 0.000000 0.000000 0.000000 0.000000 0.030956 0.000000
# 6 0.000000 0.000000 0.000000 0.000000 0.000000 0.040232
#
#
# Mechanical properties :
#
#
# Convention : Reuss Voigt Hill
#
# Bulk Modulus (GPa) = 40.12492 45.73298 42.92895
# Shear Modulus (GPa) = 23.48804 25.32395 24.40599
#
# Velocity S-wave (km/s) = 3.46904 3.60207 3.53618
# Velocity P-wave (km/s) = 6.05011 6.38211 6.21833
#
# Compressibility (1/GPa) = 0.02492217
#
# Stress axis : x y z
#
# Youngs Moduli (GPa) = 85.40955 51.36404 40.06505
#
# Poissons Ratio (x) = 0.15823 0.26699
# Poissons Ratio (y) = 0.26310 0.23489
# Poissons Ratio (z) = 0.56916 0.30114
#
# Static dielectric constant tensor:
#      x y z
#    x 3.875930 0.000000 0.000000 
#    y 0.000000 3.492540 0.000000 
#    z 0.000000 0.000000 3.402210 
# 
# 
# High freq. dielectric constant tensor:
#      x y z
#    x 1.766940 0.000000 0.000000 
#    y 0.000000 1.736850 0.000000 
#    z 0.000000 0.000000 1.750810 
# 
# From -- ./inp_files/8726.got.cif
#   From: 2010.03.12/outbox.cif.g09.slc.cpg/sg55_5_cif.got.tgz:8726.got - 2010.04.16 15:19:21.
