data_PCOD8227507
_publ_section_title
;
Structure prediction by ZEFSAII (Michael W. Deem and Ramdas Pophale) SiO2 
 PCOD8227507
Probable space group: P B A M
;
_chemical_formula_sum "Si O2"
_cell_formula_units_Z 64
_cell_length_a 24.816559
_cell_length_b 15.148001
_cell_length_c 8.788341
_cell_angle_alpha 90.000000
_cell_angle_beta 90.000000
_cell_angle_gamma 90.000000
_cell_volume 3303.724227
_symmetry_space_group_name_H-M "P B A M"
_symmetry_group_IT_number 55
_symmetry_cell_setting 'orthorhombic'
loop_
_space_group_symop_operation_xyz
x,y,z
-x,-y,z
1/2+x,1/2-y,-z
1/2-x,1/2+y,-z
-x,-y,-z
x,y,-z
1/2-x,1/2+y,z
1/2+x,1/2-y,z
loop_
_atom_site_type_symbol
_atom_site_label
_atom_site_fract_x
_atom_site_fract_y
_atom_site_fract_z
Si Si1 0.544628 0.193232 0.176052
Si Si2 0.577505 0.558475 0.320650
Si Si3 0.779653 0.492130 0.179105
Si Si4 0.692442 0.617233 0.680097
Si Si5 0.812830 0.298828 0.823192
Si Si6 0.389942 0.959222 0.322427
Si Si7 0.072986 0.629036 0.175516
Si Si8 0.964456 0.871882 0.320087
O O1 0.578864 0.129064 0.280768
O O2 0.481236 0.181838 0.209420
O O3 0.560584 0.291380 0.226118
O O4 0.558540 0.176781 0.000000
O O5 0.577930 0.567366 0.500000
O O6 0.632689 0.598016 0.252837
O O7 0.572368 0.455562 0.277216
O O8 0.525525 0.611595 0.260581
O O9 0.730310 0.539788 0.259742
O O10 0.781014 0.388103 0.224598
O O11 0.834502 0.538656 0.230246
O O12 0.773858 0.503375 0.000000
O O13 0.693862 0.614142 0.500000
O O14 0.710927 0.714695 0.733597
O O15 0.876004 0.310066 0.781439
O O16 0.804859 0.279568 0.000000
O O17 0.376865 0.961003 0.500000
O O18 0.427633 0.041511 0.277881
O O19 0.077402 0.598785 0.000000
O O20 0.963454 0.852427 0.500000
#
# Coordination Sequence:
#
# PCOD8227507 Si02
#       8
#     8   8   8   8   8   8   8   8
#     4  11  21  33  51  80 115 151 186 223 274 335
#     4   8  17  34  56  81 111 146 182 229 281 325
#     4  10  22  42  61  79 110 150 189 234 287 340
#     4  11  21  35  59  89 114 143 188 238 286 336
#     4   9  19  37  59  82 109 146 188 232 283 336
#     4  11  22  36  55  79 108 143 185 233 284 332
#     4   9  19  35  55  79 112 150 186 226 275 330
#     4   9  17  34  56  78 111 151 187 225 273 326
#
# _framework density 19.372076
#
# number of rings (size 3 to 8) (size 9 to 14) (size 15 to 20)
#    0.000    2.250    0.000    4.875    0.000    5.000 
#    2.250    3.125    0.000    0.000    0.000    0.000 
#    0.000    0.000    0.000    0.000    0.000    0.000 
#
# Total GULP energy -793644.259028 kJ/mol
# GULP energy per Si atom -12400.691547 kJ/mol
# Density = 1.932798 g / cm^3
# Si number density = 19.372076 Si / 1000 Ang^3
#
#
#
# Elastic Constant Matrix: (Units=GPa)
#
#
# Indices 1 2 3 4 5 6 
#
# 1 62.2348 46.0770 25.0285 0.0000 0.0000 0.0000
# 2 46.0770 126.6308 42.7308 0.0000 0.0000 0.0000
# 3 25.0285 42.7308 58.1985 0.0000 0.0000 0.0000
# 4 0.0000 0.0000 0.0000 35.5283 0.0000 0.0000
# 5 0.0000 0.0000 0.0000 0.0000 25.8287 0.0000
# 6 0.0000 0.0000 0.0000 0.0000 0.0000 26.3178
#
#
#
# Elastic Compliance Matrix: (Units=1/GPa)
#
#
# Indices 1 2 3 4 5 6 
#
# 1 0.023033 -0.006698 -0.004988 0.000000 0.000000 0.000000
# 2 -0.006698 0.012446 -0.006257 0.000000 0.000000 0.000000
# 3 -0.004988 -0.006257 0.023922 0.000000 0.000000 0.000000
# 4 0.000000 0.000000 0.000000 0.028147 0.000000 0.000000
# 5 0.000000 0.000000 0.000000 0.000000 0.038717 0.000000
# 6 0.000000 0.000000 0.000000 0.000000 0.000000 0.037997
#
#
# Mechanical properties :
#
#
# Convention : Reuss Voigt Hill
#
# Bulk Modulus (GPa) = 42.52690 52.74852 47.63771
# Shear Modulus (GPa) = 24.04018 26.41682 25.22850
#
# Velocity S-wave (km/s) = 3.52656 3.69678 3.61267
# Velocity P-wave (km/s) = 6.21148 6.74609 6.48430
#
# Compressibility (1/GPa) = 0.02351453
#
# Stress axis : x y z
#
# Youngs Moduli (GPa) = 43.41598 80.34910 41.80269
#
# Poissons Ratio (x) = 0.53817 0.20850
# Poissons Ratio (y) = 0.29080 0.26158
# Poissons Ratio (z) = 0.21654 0.50278
#
# Static dielectric constant tensor:
#      x y z
#    x 3.636310 0.000000 0.000000 
#    y 0.000000 3.545210 0.000000 
#    z 0.000000 0.000000 3.363190 
# 
# 
# High freq. dielectric constant tensor:
#      x y z
#    x 1.740640 0.000000 0.000000 
#    y 0.000000 1.762510 0.000000 
#    z 0.000000 0.000000 1.743670 
# 
# From -- ./inp_files/9656.got.cif
#   From: 2010.03.12/outbox.cif.g09.slc.cpg/sg55_5_cif.got.tgz:9656.got - 2010.04.16 15:19:21.
