data_PCOD8227516
_publ_section_title
;
Structure prediction by ZEFSAII (Michael W. Deem and Ramdas Pophale) SiO2 
 PCOD8227516
Probable space group: P B A M
;
_chemical_formula_sum "Si O2"
_cell_formula_units_Z 48
_cell_length_a 18.618457
_cell_length_b 15.518313
_cell_length_c 7.708593
_cell_angle_alpha 90.000000
_cell_angle_beta 90.000000
_cell_angle_gamma 90.000000
_cell_volume 2227.220984
_symmetry_space_group_name_H-M "P B A M"
_symmetry_group_IT_number 55
_symmetry_cell_setting 'orthorhombic'
loop_
_space_group_symop_operation_xyz
x,y,z
-x,-y,z
1/2+x,1/2-y,-z
1/2-x,1/2+y,-z
-x,-y,-z
x,y,-z
1/2-x,1/2+y,z
1/2+x,1/2-y,z
loop_
_atom_site_type_symbol
_atom_site_label
_atom_site_fract_x
_atom_site_fract_y
_atom_site_fract_z
Si Si1 0.777405 0.775819 0.200015
Si Si2 0.435739 0.751799 0.199360
Si Si3 0.274588 0.040645 0.198618
Si Si4 0.814335 0.114881 0.696039
Si Si5 0.470217 0.411461 0.197824
Si Si6 0.882176 0.484054 0.500000
Si Si7 0.006893 0.362537 0.500000
O O1 0.854558 0.747289 0.276198
O O2 0.752040 0.867704 0.277147
O O3 0.718155 0.702664 0.226902
O O4 0.791338 0.793341 0.000000
O O5 0.465029 0.655316 0.212219
O O6 0.484291 0.809842 0.322740
O O7 0.440096 0.785887 0.000000
O O8 0.337337 0.007323 0.323032
O O9 0.211327 0.969527 0.199647
O O10 0.302629 0.049785 0.000000
O O11 0.787244 0.106233 0.500000
O O12 0.900328 0.121799 0.700589
O O13 0.500000 0.500000 0.279966
O O14 0.446223 0.426380 0.000000
O O15 0.937262 0.561067 0.500000
O O16 0.924834 0.394145 0.500000
#
# Coordination Sequence:
#
# PCOD8227516 Si02
#       7
#     8   8   8   8   8   4   4
#     4  10  23  42  67  96 128 173 222 268 327 392
#     4  10  23  42  67  95 129 174 217 264 328 393
#     4  11  24  44  69  96 133 171 219 278 330 390
#     4  12  25  39  65 101 134 172 218 271 329 398
#     4  10  22  42  65  92 132 173 215 267 330 399
#     4  11  26  45  63  95 126 172 222 274 335 390
#     4  11  26  43  64  91 131 168 223 276 324 389
#
# _framework density 21.55152
#
# number of rings (size 3 to 8) (size 9 to 14) (size 15 to 20)
#    0.000    1.333    0.833    3.500    5.833    5.667 
#    3.000    1.667    0.000    0.000    0.000    0.000 
#    0.000    0.000    0.000    0.000    0.000    0.000 
#
# Total GULP energy -595363.274067 kJ/mol
# GULP energy per Si atom -12403.401543 kJ/mol
# Density = 2.150247 g / cm^3
# Si number density = 21.551520 Si / 1000 Ang^3
#
#
#
# Elastic Constant Matrix: (Units=GPa)
#
#
# Indices 1 2 3 4 5 6 
#
# 1 103.7612 26.2484 15.0924 0.0000 0.0000 0.0000
# 2 26.2484 116.6365 10.9237 0.0000 0.0000 0.0000
# 3 15.0924 10.9237 91.0843 0.0000 0.0000 0.0000
# 4 0.0000 0.0000 0.0000 12.8729 0.0000 0.0000
# 5 0.0000 0.0000 0.0000 0.0000 28.5650 0.0000
# 6 0.0000 0.0000 0.0000 0.0000 0.0000 37.0792
#
#
#
# Elastic Compliance Matrix: (Units=1/GPa)
#
#
# Indices 1 2 3 4 5 6 
#
# 1 0.010408 -0.002205 -0.001460 0.000000 0.000000 0.000000
# 2 -0.002205 0.009138 -0.000731 0.000000 0.000000 0.000000
# 3 -0.001460 -0.000731 0.011308 0.000000 0.000000 0.000000
# 4 0.000000 0.000000 0.000000 0.077683 0.000000 0.000000
# 5 0.000000 0.000000 0.000000 0.000000 0.035008 0.000000
# 6 0.000000 0.000000 0.000000 0.000000 0.000000 0.026969
#
#
# Mechanical properties :
#
#
# Convention : Reuss Voigt Hill
#
# Bulk Modulus (GPa) = 45.32579 46.22344 45.77461
# Shear Modulus (GPa) = 26.78657 32.98458 29.88557
#
# Velocity S-wave (km/s) = 3.52932 3.91640 3.72789
# Velocity P-wave (km/s) = 6.13882 6.47653 6.30993
#
# Compressibility (1/GPa) = 0.02206249
#
# Stress axis : x y z
#
# Youngs Moduli (GPa) = 96.08179 109.42844 88.43005
#
# Poissons Ratio (x) = 0.24134 0.12911
# Poissons Ratio (y) = 0.21191 0.06460
# Poissons Ratio (z) = 0.14028 0.07994
#
# Static dielectric constant tensor:
#      x y z
#    x 3.873580 0.000000 0.000000 
#    y 0.000000 3.956940 0.000000 
#    z 0.000000 0.000000 3.841210 
# 
# 
# High freq. dielectric constant tensor:
#      x y z
#    x 1.847620 0.000000 0.000000 
#    y 0.000000 1.854580 0.000000 
#    z 0.000000 0.000000 1.845760 
# 
# From -- ./inp_files/5723.got.cif
#   From: 2010.03.12/outbox.cif.g09.slc.cpg/sg55_3_cif.got.tgz:5723.got - 2010.04.16 15:19:21.
