data_PCOD8227191
_publ_section_title
;
Structure prediction by ZEFSAII (Michael W. Deem and Ramdas Pophale) SiO2 
 PCOD8227191
Probable space group: P B A M
;
_chemical_formula_sum "Si O2"
_cell_formula_units_Z 40
_cell_length_a 8.856366
_cell_length_b 25.747717
_cell_length_c 8.433397
_cell_angle_alpha 90.000000
_cell_angle_beta 90.000000
_cell_angle_gamma 90.000000
_cell_volume 1923.077684
_symmetry_space_group_name_H-M "P B A M"
_symmetry_group_IT_number 55
_symmetry_cell_setting 'orthorhombic'
loop_
_space_group_symop_operation_xyz
x,y,z
-x,-y,z
1/2+x,1/2-y,-z
1/2-x,1/2+y,-z
-x,-y,-z
x,y,-z
1/2-x,1/2+y,z
1/2+x,1/2-y,z
loop_
_atom_site_type_symbol
_atom_site_label
_atom_site_fract_x
_atom_site_fract_y
_atom_site_fract_z
Si Si1 0.151016 0.101608 0.313440
Si Si2 0.678147 0.597246 0.183856
Si Si3 0.333570 0.796540 0.817035
Si Si4 0.332428 0.002648 0.685383
Si Si5 0.342730 0.202486 0.317791
O O1 0.116076 0.096992 0.500000
O O2 0.241547 0.051873 0.246029
O O3 0.246790 0.152224 0.271738
O O4 0.996729 0.106059 0.218033
O O5 0.769315 0.648052 0.237795
O O6 0.739804 0.549323 0.283942
O O7 0.703481 0.585162 0.000000
O O8 0.258533 0.752994 0.708427
O O9 0.512406 0.795731 0.794005
O O10 0.294893 0.785448 0.000000
O O11 0.350199 0.011593 0.500000
O O12 0.500000 0.000000 0.762980
O O13 0.394975 0.200238 0.500000
#
# Coordination Sequence:
#
# PCOD8227191 Si02
#       5
#     8   8   8   8   8
#     4  10  22  39  60  87 117 151 193 243 295 345
#     4  11  24  39  58  86 119 156 195 237 288 349
#     4  11  24  41  60  86 122 159 194 239 299 355
#     4  10  21  39  62  86 115 152 193 240 294 347
#     4  11  23  40  64  91 117 152 201 248 290 346
#
# _framework density 20.799993000000001
#
# number of rings (size 3 to 8) (size 9 to 14) (size 15 to 20)
#    0.000    1.400    0.000    4.800    0.000   13.200 
#    0.000    0.000    0.000    0.000    0.000    0.000 
#    0.000    0.000    0.000    0.000    0.000    0.000 
#
# Total GULP energy -496294.914291 kJ/mol
# GULP energy per Si atom -12407.372857 kJ/mol
# Density = 2.075265 g / cm^3
# Si number density = 20.799993 Si / 1000 Ang^3
#
#
#
# Elastic Constant Matrix: (Units=GPa)
#
#
# Indices 1 2 3 4 5 6 
#
# 1 80.1095 -47.0193 11.5378 0.0000 0.0000 0.0000
# 2 -47.0193 -38.4969 17.7850 0.0000 0.0000 0.0000
# 3 11.5378 17.7850 23.6561 0.0000 0.0000 0.0000
# 4 0.0000 0.0000 0.0000 9.3238 0.0000 0.0000
# 5 0.0000 0.0000 0.0000 0.0000 31.6385 0.0000
# 6 0.0000 0.0000 0.0000 0.0000 0.0000 40.9661
#
#
#
# Elastic Compliance Matrix: (Units=1/GPa)
#
#
# Indices 1 2 3 4 5 6 
#
# 1 0.007447 -0.007996 0.002380 0.000000 0.000000 0.000000
# 2 -0.007996 -0.010694 0.011940 0.000000 0.000000 0.000000
# 3 0.002380 0.011940 0.032135 0.000000 0.000000 0.000000
# 4 0.000000 0.000000 0.000000 0.107252 0.000000 0.000000
# 5 0.000000 0.000000 0.000000 0.000000 0.031607 0.000000
# 6 0.000000 0.000000 0.000000 0.000000 0.000000 0.024410
#
#
# Mechanical properties :
#
#
# Convention : Reuss Voigt Hill
#
# Bulk Modulus (GPa) = 24.07631 3.31952 13.69791
# Shear Modulus (GPa) = 25.85893 21.91669 23.88781
#
# Velocity S-wave (km/s) = 3.52976 3.24958 3.39256
# Velocity P-wave (km/s) = 5.31155 3.95968 4.68463
#
# Compressibility (1/GPa) = 0.04153460
#
# Stress axis : x y z
#
# Youngs Moduli (GPa) = 134.28353 -93.51233 31.11836
#
# Poissons Ratio (x) = -0.74774 -0.07405
# Poissons Ratio (y) = 1.07376 -0.37154
# Poissons Ratio (z) = -0.31953 1.11651
#
# Static dielectric constant tensor:
#      x y z
#    x 3.860440 0.000000 0.000000 
#    y 0.000000 3.922930 0.000000 
#    z 0.000000 0.000000 6.237330 
# 
# 
# High freq. dielectric constant tensor:
#      x y z
#    x 1.829900 0.000000 0.000000 
#    y 0.000000 1.831970 0.000000 
#    z 0.000000 0.000000 1.803010 
# 
# From -- ./inp_files/2281.got.cif
#   From: 2010.03.12/outbox.cif.g09.slc.cpg/sg55_2_cif.got.tgz:2281.got - 2010.04.16 15:19:21.
