data_PCOD8227098
_publ_section_title
;
Structure prediction by ZEFSAII (Michael W. Deem and Ramdas Pophale) SiO2 
 PCOD8227098
Probable space group: P B A M
;
_chemical_formula_sum "Si O2"
_cell_formula_units_Z 64
_cell_length_a 12.673354
_cell_length_b 28.477165
_cell_length_c 9.067957
_cell_angle_alpha 90.000000
_cell_angle_beta 90.000000
_cell_angle_gamma 90.000000
_cell_volume 3272.636499
_symmetry_space_group_name_H-M "P B A M"
_symmetry_group_IT_number 55
_symmetry_cell_setting 'orthorhombic'
loop_
_space_group_symop_operation_xyz
x,y,z
-x,-y,z
1/2+x,1/2-y,-z
1/2-x,1/2+y,-z
-x,-y,-z
x,y,-z
1/2-x,1/2+y,z
1/2+x,1/2-y,z
loop_
_atom_site_type_symbol
_atom_site_label
_atom_site_fract_x
_atom_site_fract_y
_atom_site_fract_z
Si Si1 0.334549 0.321271 0.337473
Si Si2 0.698073 0.035782 0.325320
Si Si3 0.063960 0.202540 0.669819
Si Si4 0.137318 0.293750 0.830430
Si Si5 0.047697 0.392255 0.170390
Si Si6 0.915967 0.073861 0.334278
Si Si7 0.112379 0.106172 0.173968
Si Si8 0.168658 0.559602 0.828108
O O1 0.286120 0.310292 0.500000
O O2 0.438916 0.290481 0.310806
O O3 0.255111 0.310472 0.206124
O O4 0.366829 0.374958 0.330451
O O5 0.687000 0.035498 0.500000
O O6 0.632227 0.079939 0.267073
O O7 0.822057 0.039540 0.279170
O O8 0.650396 0.988405 0.259438
O O9 0.094977 0.194734 0.500000
O O10 0.115353 0.249678 0.728465
O O11 0.106317 0.157784 0.758047
O O12 0.057703 0.336684 0.796796
O O13 0.131308 0.278292 0.000000
O O14 0.928525 0.406399 0.211356
O O15 0.073077 0.403088 0.000000
O O16 0.951957 0.060722 0.500000
O O17 0.019235 0.071630 0.231280
O O18 0.223928 0.084513 0.222629
O O19 0.101900 0.110688 0.000000
O O20 0.171564 0.547177 0.000000
#
# Coordination Sequence:
#
# PCOD8227098 Si02
#       8
#     8   8   8   8   8   8   8   8
#     4   9  18  36  57  78 110 150 187 234 291 342
#     4  11  22  37  60  89 116 150 198 245 291 349
#     4  10  22  39  59  84 117 154 191 236 296 354
#     4  11  22  35  58  89 114 147 195 242 289 348
#     4  10  22  40  59  82 117 156 194 241 296 347
#     4   9  19  36  58  83 115 150 188 240 293 343
#     4  10  21  38  60  85 115 154 199 244 291 349
#     4  10  23  41  58  82 121 160 192 237 296 351
#
# _framework density 19.556097000000001
#
# number of rings (size 3 to 8) (size 9 to 14) (size 15 to 20)
#    0.000    2.000    1.250    2.625    0.000    8.500 
#    0.000    3.750    0.000    0.000    0.000    0.000 
#    0.000    0.000    0.000    0.000    0.000    0.000 
#
# Total GULP energy -793677.170417 kJ/mol
# GULP energy per Si atom -12401.205788 kJ/mol
# Density = 1.951159 g / cm^3
# Si number density = 19.556097 Si / 1000 Ang^3
#
#
#
# Elastic Constant Matrix: (Units=GPa)
#
#
# Indices 1 2 3 4 5 6 
#
# 1 90.8784 15.4523 37.2177 0.0000 0.0000 0.0000
# 2 15.4523 41.8524 17.9542 0.0000 0.0000 0.0000
# 3 37.2177 17.9542 68.6738 0.0000 0.0000 0.0000
# 4 0.0000 0.0000 0.0000 10.6524 0.0000 0.0000
# 5 0.0000 0.0000 0.0000 0.0000 31.1349 0.0000
# 6 0.0000 0.0000 0.0000 0.0000 0.0000 19.2123
#
#
#
# Elastic Compliance Matrix: (Units=1/GPa)
#
#
# Indices 1 2 3 4 5 6 
#
# 1 0.014321 -0.002205 -0.007185 0.000000 0.000000 0.000000
# 2 -0.002205 0.027251 -0.005929 0.000000 0.000000 0.000000
# 3 -0.007185 -0.005929 0.020006 0.000000 0.000000 0.000000
# 4 0.000000 0.000000 0.000000 0.093876 0.000000 0.000000
# 5 0.000000 0.000000 0.000000 0.000000 0.032118 0.000000
# 6 0.000000 0.000000 0.000000 0.000000 0.000000 0.052050
#
#
# Mechanical properties :
#
#
# Convention : Reuss Voigt Hill
#
# Bulk Modulus (GPa) = 32.32169 38.07255 35.19712
# Shear Modulus (GPa) = 17.82060 20.91862 19.36961
#
# Velocity S-wave (km/s) = 3.02198 3.27413 3.15058
# Velocity P-wave (km/s) = 5.36097 5.81411 5.59213
#
# Compressibility (1/GPa) = 0.03093897
#
# Stress axis : x y z
#
# Youngs Moduli (GPa) = 69.82727 36.69542 49.98615
#
# Poissons Ratio (x) = 0.08092 0.35914
# Poissons Ratio (y) = 0.15399 0.29639
# Poissons Ratio (z) = 0.50169 0.21758
#
# Static dielectric constant tensor:
#      x y z
#    x 3.798520 0.000000 0.000000 
#    y 0.000000 3.494240 0.000000 
#    z 0.000000 0.000000 3.569860 
# 
# 
# High freq. dielectric constant tensor:
#      x y z
#    x 1.766580 0.000000 0.000000 
#    y 0.000000 1.758450 0.000000 
#    z 0.000000 0.000000 1.764050 
# 
# From -- ./inp_files/4579.got.cif
#   From: 2010.03.12/outbox.cif.g09.slc.cpg/sg55_3_cif.got.tgz:4579.got - 2010.04.16 15:19:21.
