data_PCOD8227051
_publ_section_title
;
Structure prediction by ZEFSAII (Michael W. Deem and Ramdas Pophale) SiO2 
 PCOD8227051
Probable space group: P B A M
;
_chemical_formula_sum "Si O2"
_cell_formula_units_Z 64
_cell_length_a 19.750277
_cell_length_b 8.643658
_cell_length_c 18.230699
_cell_angle_alpha 90.000000
_cell_angle_beta 90.000000
_cell_angle_gamma 90.000000
_cell_volume 3112.247213
_symmetry_space_group_name_H-M "P B A M"
_symmetry_group_IT_number 55
_symmetry_cell_setting 'orthorhombic'
loop_
_space_group_symop_operation_xyz
x,y,z
-x,-y,z
1/2+x,1/2-y,-z
1/2-x,1/2+y,-z
-x,-y,-z
x,y,-z
1/2-x,1/2+y,z
1/2+x,1/2-y,z
loop_
_atom_site_type_symbol
_atom_site_label
_atom_site_fract_x
_atom_site_fract_y
_atom_site_fract_z
Si Si1 0.327230 0.605490 0.585362
Si Si2 0.431316 0.073425 0.835862
Si Si3 0.197744 0.439598 0.357968
Si Si4 0.935437 0.407252 0.662606
Si Si5 0.935155 0.101567 0.915744
Si Si6 0.694612 0.110530 0.191173
Si Si7 0.332177 0.528596 0.179370
Si Si8 0.926511 0.057132 0.685749
O O1 0.338717 0.632505 0.500000
O O2 0.310179 0.761214 0.626409
O O3 0.264160 0.492274 0.598877
O O4 0.397136 0.542354 0.618790
O O5 0.432421 0.061162 0.748777
O O6 0.428136 0.247699 0.864643
O O7 0.500000 0.000000 0.869187
O O8 0.364973 0.971589 0.856758
O O9 0.130403 0.532530 0.381776
O O10 0.204268 0.464603 0.271300
O O11 0.938770 0.225041 0.651234
O O12 0.000000 0.500000 0.629973
O O13 0.875172 0.984518 0.895008
O O14 0.931941 0.153542 0.000000
O O15 0.000000 0.000000 0.897320
O O16 0.682796 0.293268 0.196570
O O17 0.766541 0.070339 0.155923
O O18 0.373197 0.450350 0.247129
O O19 0.000000 0.000000 0.713139
#
# Coordination Sequence:
#
# PCOD8227051 Si02
#       8
#     8   8   8   8   8   8   8   8
#     4  12  25  41  63  92 130 170 213 262 325 394
#     4  10  21  37  64  96 126 166 210 264 316 377
#     4  11  21  40  62  93 127 166 209 263 322 382
#     4  10  22  37  64  96 126 158 212 269 320 368
#     4  11  24  42  64  94 136 177 213 260 321 384
#     4  11  22  38  66  96 126 160 214 273 319 370
#     4  12  23  40  65  97 126 168 215 266 318 378
#     4  12  24  39  66  93 124 167 214 270 317 377
#
# _framework density 20.563918999999999
#
# number of rings (size 3 to 8) (size 9 to 14) (size 15 to 20)
#    0.000    0.875    3.750    3.750    5.250    0.500 
#    0.000    3.750    0.000    2.625    0.000    0.000 
#    0.000    0.000    0.000    0.000    0.000    0.000 
#
# Total GULP energy -793457.182106 kJ/mol
# GULP energy per Si atom -12397.768470 kJ/mol
# Density = 2.051711 g / cm^3
# Si number density = 20.563919 Si / 1000 Ang^3
#
#
#
# Elastic Constant Matrix: (Units=GPa)
#
#
# Indices 1 2 3 4 5 6 
#
# 1 152.4917 37.0698 34.4177 0.0000 0.0000 0.0000
# 2 37.0698 105.9514 7.0181 0.0000 0.0000 0.0000
# 3 34.4177 7.0181 29.5773 0.0000 0.0000 0.0000
# 4 0.0000 0.0000 0.0000 6.1416 0.0000 0.0000
# 5 0.0000 0.0000 0.0000 0.0000 20.8095 0.0000
# 6 0.0000 0.0000 0.0000 0.0000 0.0000 42.3890
#
#
#
# Elastic Compliance Matrix: (Units=1/GPa)
#
#
# Indices 1 2 3 4 5 6 
#
# 1 0.009576 -0.002654 -0.010513 0.000000 0.000000 0.000000
# 2 -0.002654 0.010325 0.000638 0.000000 0.000000 0.000000
# 3 -0.010513 0.000638 0.045892 0.000000 0.000000 0.000000
# 4 0.000000 0.000000 0.000000 0.162825 0.000000 0.000000
# 5 0.000000 0.000000 0.000000 0.000000 0.048055 0.000000
# 6 0.000000 0.000000 0.000000 0.000000 0.000000 0.023591
#
#
# Mechanical properties :
#
#
# Convention : Reuss Voigt Hill
#
# Bulk Modulus (GPa) = 24.54893 49.44793 36.99843
# Shear Modulus (GPa) = 14.75367 27.83567 21.29467
#
# Velocity S-wave (km/s) = 2.68144 3.68314 3.22147
# Velocity P-wave (km/s) = 4.64226 6.49504 5.64518
#
# Compressibility (1/GPa) = 0.04073498
#
# Stress axis : x y z
#
# Youngs Moduli (GPa) = 104.43087 96.85660 21.79038
#
# Poissons Ratio (x) = 0.25705 0.22908
# Poissons Ratio (y) = 0.27715 -0.01391
# Poissons Ratio (z) = 1.09789 -0.06184
#
# Static dielectric constant tensor:
#      x y z
#    x 4.171930 0.000000 0.000000 
#    y 0.000000 3.741950 0.000000 
#    z 0.000000 0.000000 3.380470 
# 
# 
# High freq. dielectric constant tensor:
#      x y z
#    x 1.826190 0.000000 0.000000 
#    y 0.000000 1.817800 0.000000 
#    z 0.000000 0.000000 1.762610 
# 
# From -- ./inp_files/23146.got.cif
#   From: 2010.03.12/outbox.cif.g09.slc.cpg/sg55_12_cif.got.tgz:23146.got - 2010.04.16 15:19:21.
