data_PCOD8227640
_publ_section_title
;
Structure prediction by ZEFSAII (Michael W. Deem and Ramdas Pophale) SiO2 
 PCOD8227640
Probable space group: P B A M
;
_chemical_formula_sum "Si O2"
_cell_formula_units_Z 64
_cell_length_a 23.310840
_cell_length_b 14.298461
_cell_length_c 8.903823
_cell_angle_alpha 90.000000
_cell_angle_beta 90.000000
_cell_angle_gamma 90.000000
_cell_volume 2967.725557
_symmetry_space_group_name_H-M "P B A M"
_symmetry_group_IT_number 55
_symmetry_cell_setting 'orthorhombic'
loop_
_space_group_symop_operation_xyz
x,y,z
-x,-y,z
1/2+x,1/2-y,-z
1/2-x,1/2+y,-z
-x,-y,-z
x,y,-z
1/2-x,1/2+y,z
1/2+x,1/2-y,z
loop_
_atom_site_type_symbol
_atom_site_label
_atom_site_fract_x
_atom_site_fract_y
_atom_site_fract_z
Si Si1 0.322983 0.865813 0.672173
Si Si2 0.465553 0.625835 0.174602
Si Si3 0.580827 0.644023 0.671656
Si Si4 0.176928 0.552418 0.826191
Si Si5 0.281041 0.677010 0.825595
Si Si6 0.075902 0.642989 0.328991
Si Si7 0.949708 0.685906 0.671214
Si Si8 0.136312 0.036466 0.328600
O O1 0.304818 0.866035 0.500000
O O2 0.295971 0.771760 0.739691
O O3 0.391930 0.873194 0.693326
O O4 0.297711 0.959519 0.746564
O O5 0.531741 0.609193 0.214514
O O6 0.446745 0.731733 0.208432
O O7 0.428417 0.560826 0.282919
O O8 0.454994 0.603102 0.000000
O O9 0.558038 0.638187 0.500000
O O10 0.595445 0.751162 0.709509
O O11 0.637192 0.577313 0.690604
O O12 0.216644 0.642347 0.788969
O O13 0.112256 0.574150 0.775035
O O14 0.176828 0.528975 0.000000
O O15 0.320877 0.589930 0.780257
O O16 0.290279 0.696934 0.000000
O O17 0.091069 0.617538 0.500000
O O18 0.007843 0.626542 0.298599
O O19 0.952620 0.725532 0.500000
O O20 0.149263 0.066449 0.500000
#
# Coordination Sequence:
#
# PCOD8227640 Si02
#       8
#     8   8   8   8   8   8   8   8
#     4  11  23  42  71  98 122 160 208 257 309 369
#     4  11  20  30  51  85 124 164 204 250 305 370
#     4   9  20  36  55  82 121 164 204 254 308 361
#     4  11  26  45  64  91 129 166 203 253 314 373
#     4  11  25  44  64  90 126 165 206 261 319 369
#     4   9  19  39  63  89 124 164 211 261 311 368
#     4   9  19  37  62  92 125 161 204 260 316 362
#     4  11  21  35  57  85 118 161 211 258 307 364
#
# _framework density 21.565337
#
# number of rings (size 3 to 8) (size 9 to 14) (size 15 to 20)
#    0.000    1.750    1.250    3.750    0.000    8.500 
#    0.000    5.000    0.000    0.000    0.000    0.000 
#    0.000    0.000    0.000    0.000    0.000    0.000 
#
# Total GULP energy -793405.589226 kJ/mol
# GULP energy per Si atom -12396.962332 kJ/mol
# Density = 2.151625 g / cm^3
# Si number density = 21.565337 Si / 1000 Ang^3
#
#
#
# Elastic Constant Matrix: (Units=GPa)
#
#
# Indices 1 2 3 4 5 6 
#
# 1 56.2675 41.9982 50.5420 0.0000 0.0000 0.0000
# 2 41.9982 76.8260 40.0329 0.0000 0.0000 0.0000
# 3 50.5420 40.0329 93.9701 0.0000 0.0000 0.0000
# 4 0.0000 0.0000 0.0000 29.5129 0.0000 0.0000
# 5 0.0000 0.0000 0.0000 0.0000 28.9122 0.0000
# 6 0.0000 0.0000 0.0000 0.0000 0.0000 25.5047
#
#
#
# Elastic Compliance Matrix: (Units=1/GPa)
#
#
# Indices 1 2 3 4 5 6 
#
# 1 0.045299 -0.015511 -0.017756 0.000000 0.000000 0.000000
# 2 -0.015511 0.022042 -0.001047 0.000000 0.000000 0.000000
# 3 -0.017756 -0.001047 0.020638 0.000000 0.000000 0.000000
# 4 0.000000 0.000000 0.000000 0.033883 0.000000 0.000000
# 5 0.000000 0.000000 0.000000 0.000000 0.034587 0.000000
# 6 0.000000 0.000000 0.000000 0.000000 0.000000 0.039208
#
#
# Mechanical properties :
#
#
# Convention : Reuss Voigt Hill
#
# Bulk Modulus (GPa) = 51.68115 54.68997 53.18556
# Shear Modulus (GPa) = 18.46805 23.08535 20.77670
#
# Velocity S-wave (km/s) = 2.92957 3.27538 3.10729
# Velocity P-wave (km/s) = 5.95484 6.30232 6.13104
#
# Compressibility (1/GPa) = 0.01934941
#
# Stress axis : x y z
#
# Youngs Moduli (GPa) = 22.07541 45.36879 48.45379
#
# Poissons Ratio (x) = 0.70372 0.86036
# Poissons Ratio (y) = 0.34241 0.05075
# Poissons Ratio (z) = 0.39198 0.04752
#
# Static dielectric constant tensor:
#      x y z
#    x 3.825980 0.000000 0.000000 
#    y 0.000000 3.856690 0.000000 
#    z 0.000000 0.000000 3.766690 
# 
# 
# High freq. dielectric constant tensor:
#      x y z
#    x 1.833840 0.000000 0.000000 
#    y 0.000000 1.849180 0.000000 
#    z 0.000000 0.000000 1.842090 
# 
# From -- ./inp_files/9681.got.cif
#   From: 2010.03.12/outbox.cif.g09.slc.cpg/sg55_5_cif.got.tgz:9681.got - 2010.04.16 15:19:21.
