data_PCOD8227504
_publ_section_title
;
Structure prediction by ZEFSAII (Michael W. Deem and Ramdas Pophale) SiO2 
 PCOD8227504
Probable space group: P B A M
;
_chemical_formula_sum "Si O2"
_cell_formula_units_Z 64
_cell_length_a 9.716564
_cell_length_b 13.858435
_cell_length_c 21.829360
_cell_angle_alpha 90.000000
_cell_angle_beta 90.000000
_cell_angle_gamma 90.000000
_cell_volume 2939.462390
_symmetry_space_group_name_H-M "P B A M"
_symmetry_group_IT_number 55
_symmetry_cell_setting 'orthorhombic'
loop_
_space_group_symop_operation_xyz
x,y,z
-x,-y,z
1/2+x,1/2-y,-z
1/2-x,1/2+y,-z
-x,-y,-z
x,y,-z
1/2-x,1/2+y,z
1/2+x,1/2-y,z
loop_
_atom_site_type_symbol
_atom_site_label
_atom_site_fract_x
_atom_site_fract_y
_atom_site_fract_z
Si Si1 0.880764 0.228510 0.260835
Si Si2 0.588749 0.137968 0.569256
Si Si3 0.402953 0.084021 0.189243
Si Si4 0.015551 0.671403 0.930768
Si Si5 0.799221 0.145276 0.068895
Si Si6 0.148610 0.961368 0.813345
Si Si7 0.211231 0.567792 0.429940
Si Si8 0.140480 0.196179 0.340883
O O1 0.945030 0.312258 0.217654
O O2 0.822487 0.138435 0.222388
O O3 0.754845 0.285022 0.290514
O O4 0.991383 0.188857 0.309603
O O5 0.621084 0.167882 0.500000
O O6 0.425052 0.132243 0.579009
O O7 0.652535 0.216603 0.612447
O O8 0.668107 0.040413 0.585688
O O9 0.425014 0.091754 0.115860
O O10 0.500000 0.000000 0.216076
O O11 0.249468 0.048551 0.205764
O O12 0.089843 0.772247 0.918044
O O13 0.853174 0.687752 0.919614
O O14 0.045388 0.634986 0.000000
O O15 0.831215 0.057400 0.114483
O O16 0.813653 0.104985 0.000000
O O17 0.000000 0.000000 0.796497
O O18 0.265898 0.576308 0.500000
O O19 0.327092 0.600057 0.380905
#
# Coordination Sequence:
#
# PCOD8227504 Si02
#       8
#     8   8   8   8   8   8   8   8
#     4  12  28  44  63  96 139 172 233 278 314 392
#     4   9  19  39  67  98 131 167 214 267 324 394
#     4  12  25  45  72  94 127 183 225 274 339 401
#     4  10  22  41  70 101 132 168 215 281 343 407
#     4  10  22  42  69 100 132 167 215 279 344 406
#     4  12  27  45  67  95 133 178 223 282 340 391
#     4   9  19  39  67  99 131 167 215 268 325 390
#     4  12  23  42  67  95 132 177 215 269 324 387
#
# _framework density 21.772690000000001
#
# number of rings (size 3 to 8) (size 9 to 14) (size 15 to 20)
#    0.000    1.250    3.750    2.625    1.750    4.000 
#    0.000    0.000    0.000    1.500    0.000    0.000 
#    0.000    0.000    0.000    0.000    0.000    0.000 
#
# Total GULP energy -793694.638739 kJ/mol
# GULP energy per Si atom -12401.478730 kJ/mol
# Density = 2.172313 g / cm^3
# Si number density = 21.772690 Si / 1000 Ang^3
#
#
#
# Elastic Constant Matrix: (Units=GPa)
#
#
# Indices 1 2 3 4 5 6 
#
# 1 70.4139 10.2442 10.0729 0.0000 0.0000 0.0000
# 2 10.2442 70.3523 35.8312 0.0000 0.0000 0.0000
# 3 10.0729 35.8312 81.6246 0.0000 0.0000 0.0000
# 4 0.0000 0.0000 0.0000 41.5475 0.0000 0.0000
# 5 0.0000 0.0000 0.0000 0.0000 29.3148 0.0000
# 6 0.0000 0.0000 0.0000 0.0000 0.0000 36.8956
#
#
#
# Elastic Compliance Matrix: (Units=1/GPa)
#
#
# Indices 1 2 3 4 5 6 
#
# 1 0.014588 -0.001555 -0.001118 0.000000 0.000000 0.000000
# 2 -0.001555 0.018473 -0.007917 0.000000 0.000000 0.000000
# 3 -0.001118 -0.007917 0.015865 0.000000 0.000000 0.000000
# 4 0.000000 0.000000 0.000000 0.024069 0.000000 0.000000
# 5 0.000000 0.000000 0.000000 0.000000 0.034112 0.000000
# 6 0.000000 0.000000 0.000000 0.000000 0.000000 0.027104
#
#
# Mechanical properties :
#
#
# Convention : Reuss Voigt Hill
#
# Bulk Modulus (GPa) = 36.04163 37.18748 36.61456
# Shear Modulus (GPa) = 30.36956 32.63441 31.50199
#
# Velocity S-wave (km/s) = 3.73882 3.87572 3.80788
# Velocity P-wave (km/s) = 5.93531 6.09469 6.01553
#
# Compressibility (1/GPa) = 0.02774569
#
# Stress axis : x y z
#
# Youngs Moduli (GPa) = 68.55020 54.13317 63.03336
#
# Poissons Ratio (x) = 0.08418 0.07045
# Poissons Ratio (y) = 0.10659 0.49905
# Poissons Ratio (z) = 0.07661 0.42859
#
# Static dielectric constant tensor:
#      x y z
#    x 3.855070 0.000000 0.000000 
#    y 0.000000 3.780780 0.000000 
#    z 0.000000 0.000000 4.086630 
# 
# 
# High freq. dielectric constant tensor:
#      x y z
#    x 1.851410 0.000000 0.000000 
#    y 0.000000 1.848620 0.000000 
#    z 0.000000 0.000000 1.866370 
# 
# From -- ./inp_files/23482.got.cif
#   From: 2010.03.12/outbox.cif.g09.slc.cpg/sg55_12_cif.got.tgz:23482.got - 2010.04.16 15:19:21.
