data_PCOD8227830
_publ_section_title
;
Structure prediction by ZEFSAII (Michael W. Deem and Ramdas Pophale) SiO2 
 PCOD8227830
Probable space group: P B A M
;
_chemical_formula_sum "Si O2"
_cell_formula_units_Z 48
_cell_length_a 10.212261
_cell_length_b 29.202922
_cell_length_c 9.609814
_cell_angle_alpha 90.000000
_cell_angle_beta 90.000000
_cell_angle_gamma 90.000000
_cell_volume 2865.914278
_symmetry_space_group_name_H-M "P B A M"
_symmetry_group_IT_number 55
_symmetry_cell_setting 'orthorhombic'
loop_
_space_group_symop_operation_xyz
x,y,z
-x,-y,z
1/2+x,1/2-y,-z
1/2-x,1/2+y,-z
-x,-y,-z
x,y,-z
1/2-x,1/2+y,z
1/2+x,1/2-y,z
loop_
_atom_site_type_symbol
_atom_site_label
_atom_site_fract_x
_atom_site_fract_y
_atom_site_fract_z
Si Si1 0.201956 0.792621 0.337919
Si Si2 0.867314 0.021411 0.165842
Si Si3 0.019066 0.626850 0.158341
Si Si4 0.998000 0.286400 0.661946
Si Si5 0.786224 0.120205 0.158596
Si Si6 0.616621 0.969247 0.165752
O O1 0.189625 0.804254 0.500000
O O2 0.349701 0.775323 0.302548
O O3 0.166233 0.838125 0.253594
O O4 0.095069 0.755226 0.292126
O O5 0.854098 0.073957 0.215177
O O6 0.751177 0.989775 0.225227
O O7 0.863915 0.020422 0.000000
O O8 0.000000 0.000000 0.226206
O O9 0.052677 0.669672 0.254814
O O10 0.868309 0.612410 0.169078
O O11 0.103000 0.583598 0.212691
O O12 0.055362 0.639934 0.000000
O O13 0.980562 0.297277 0.500000
O O14 0.827813 0.130870 0.000000
O O15 0.500000 0.000000 0.228355
O O16 0.611234 0.971398 0.000000
#
# Coordination Sequence:
#
# PCOD8227830 Si02
#       6
#     8   8   8   8   8   8
#     4   9  18  33  51  67  86 118 153 184 222 271
#     4   9  16  26  41  64  94 121 146 179 219 263
#     4   9  16  27  47  71  91 115 150 188 222 258
#     4   9  18  33  50  66  88 118 151 184 223 271
#     4   9  16  28  47  69  92 119 149 183 223 263
#     4   9  14  24  43  64  87 118 150 176 210 262
#
# _framework density 16.748581999999999
#
# number of rings (size 3 to 8) (size 9 to 14) (size 15 to 20)
#    0.000    3.000    1.667    0.000    0.000    0.667 
#    3.000    0.000    0.000    2.000    0.000    0.000 
#    0.000    0.000    0.000    0.000    0.000    0.000 
#
# Total GULP energy -595079.327418 kJ/mol
# GULP energy per Si atom -12397.485988 kJ/mol
# Density = 1.671046 g / cm^3
# Si number density = 16.748582 Si / 1000 Ang^3
#
#
#
# Elastic Constant Matrix: (Units=GPa)
#
#
# Indices 1 2 3 4 5 6 
#
# 1 105.0951 86.6566 27.9112 0.0000 0.0000 0.0000
# 2 86.6566 171.7966 53.8440 0.0000 0.0000 0.0000
# 3 27.9112 53.8440 36.3457 0.0000 0.0000 0.0000
# 4 0.0000 0.0000 0.0000 0.3564 0.0000 0.0000
# 5 0.0000 0.0000 0.0000 0.0000 12.0627 0.0000
# 6 0.0000 0.0000 0.0000 0.0000 0.0000 34.0438
#
#
#
# Elastic Compliance Matrix: (Units=1/GPa)
#
#
# Indices 1 2 3 4 5 6 
#
# 1 0.016298 -0.008024 -0.000629 0.000000 0.000000 0.000000
# 2 -0.008024 0.014816 -0.015788 0.000000 0.000000 0.000000
# 3 -0.000629 -0.015788 0.051385 0.000000 0.000000 0.000000
# 4 0.000000 0.000000 0.000000 2.805731 0.000000 0.000000
# 5 0.000000 0.000000 0.000000 0.000000 0.082900 0.000000
# 6 0.000000 0.000000 0.000000 0.000000 0.000000 0.029374
#
#
# Mechanical properties :
#
#
# Convention : Reuss Voigt Hill
#
# Bulk Modulus (GPa) = 29.74554 72.22899 50.98726
# Shear Modulus (GPa) = 1.63367 18.94763 10.29065
#
# Velocity S-wave (km/s) = 0.98870 3.36713 2.48144
# Velocity P-wave (km/s) = 4.37058 7.63779 6.22245
#
# Compressibility (1/GPa) = 0.03361849
#
# Stress axis : x y z
#
# Youngs Moduli (GPa) = 61.35535 67.49285 19.46087
#
# Poissons Ratio (x) = 0.54156 0.01224
# Poissons Ratio (y) = 0.49232 0.30724
# Poissons Ratio (z) = 0.03860 1.06555
#
# Static dielectric constant tensor:
#      x y z
#    x 3.218740 0.000000 0.000000 
#    y 0.000000 3.219360 0.000000 
#    z 0.000000 0.000000 2.816720 
# 
# 
# High freq. dielectric constant tensor:
#      x y z
#    x 1.636990 0.000000 0.000000 
#    y 0.000000 1.653180 0.000000 
#    z 0.000000 0.000000 1.604940 
# 
# From -- ./inp_files/2902.got.cif
#   From: 2010.03.12/outbox.cif.g09.slc.cpg/sg55_2_cif.got.tgz:2902.got - 2010.04.16 15:19:21.
