data_PCOD8227782
_publ_section_title
;
Structure prediction by ZEFSAII (Michael W. Deem and Ramdas Pophale) SiO2 
 PCOD8227782
Probable space group: P B A M
;
_chemical_formula_sum "Si O2"
_cell_formula_units_Z 64
_cell_length_a 9.096851
_cell_length_b 22.435974
_cell_length_c 14.451566
_cell_angle_alpha 90.000000
_cell_angle_beta 90.000000
_cell_angle_gamma 90.000000
_cell_volume 2949.517111
_symmetry_space_group_name_H-M "P B A M"
_symmetry_group_IT_number 55
_symmetry_cell_setting 'orthorhombic'
loop_
_space_group_symop_operation_xyz
x,y,z
-x,-y,z
1/2+x,1/2-y,-z
1/2-x,1/2+y,-z
-x,-y,-z
x,y,-z
1/2-x,1/2+y,z
1/2+x,1/2-y,z
loop_
_atom_site_type_symbol
_atom_site_label
_atom_site_fract_x
_atom_site_fract_y
_atom_site_fract_z
Si Si1 0.793389 0.371377 0.395556
Si Si2 0.387466 0.548838 0.253252
Si Si3 0.635101 0.034505 0.246242
Si Si4 0.864487 0.624810 0.606302
Si Si5 0.468123 0.246687 0.191979
Si Si6 0.287912 0.750755 0.322929
Si Si7 0.454377 0.367045 0.895021
Si Si8 0.607608 0.130017 0.106083
O O1 0.774645 0.394646 0.500000
O O2 0.683663 0.409710 0.332111
O O3 0.751139 0.301871 0.392775
O O4 0.963509 0.373864 0.364628
O O5 0.500000 0.500000 0.296088
O O6 0.256762 0.510734 0.206446
O O7 0.466451 0.587417 0.174068
O O8 0.708587 0.075918 0.326056
O O9 0.562355 0.071243 0.161950
O O10 0.500000 0.000000 0.294187
O O11 0.843689 0.606237 0.500000
O O12 0.777385 0.686310 0.623953
O O13 0.544581 0.257116 0.291058
O O14 0.298502 0.247408 0.224222
O O15 0.509223 0.299671 0.121412
O O16 0.515118 0.185038 0.145430
O O17 0.280957 0.364077 0.877122
O O18 0.491717 0.386196 0.000000
O O19 0.564716 0.121842 0.000000
#
# Coordination Sequence:
#
# PCOD8227782 Si02
#       8
#     8   8   8   8   8   8   8   8
#     4  11  24  43  68 102 139 176 224 284 344 410
#     4  12  26  44  69  98 134 180 235 287 340 403
#     4  12  24  44  69  98 134 180 229 281 341 407
#     4  11  24  44  71 102 135 180 227 277 343 414
#     4  12  22  41  71  99 134 174 218 275 345 403
#     4  12  22  41  71 100 135 174 217 275 345 404
#     4  11  24  43  68 100 136 179 227 281 343 407
#     4  11  24  44  69 100 136 178 228 284 340 404
#
# _framework density 21.698466
#
# number of rings (size 3 to 8) (size 9 to 14) (size 15 to 20)
#    0.000    0.500    7.500    0.750    0.000    2.000 
#    0.000    2.500    0.000    0.000    0.000    0.000 
#    0.000    0.000    0.000    0.000    0.000    0.000 
#
# Total GULP energy -793435.312093 kJ/mol
# GULP energy per Si atom -12397.426751 kJ/mol
# Density = 2.164908 g / cm^3
# Si number density = 21.698466 Si / 1000 Ang^3
#
#
#
# Elastic Constant Matrix: (Units=GPa)
#
#
# Indices 1 2 3 4 5 6 
#
# 1 61.2391 40.8612 32.9446 0.0000 0.0000 0.0000
# 2 40.8612 136.5378 49.7465 0.0000 0.0000 0.0000
# 3 32.9446 49.7465 123.6450 0.0000 0.0000 0.0000
# 4 0.0000 0.0000 0.0000 12.4121 0.0000 0.0000
# 5 0.0000 0.0000 0.0000 0.0000 32.9354 0.0000
# 6 0.0000 0.0000 0.0000 0.0000 0.0000 39.7247
#
#
#
# Elastic Compliance Matrix: (Units=1/GPa)
#
#
# Indices 1 2 3 4 5 6 
#
# 1 0.021777 -0.005159 -0.003727 0.000000 0.000000 0.000000
# 2 -0.005159 0.009804 -0.002570 0.000000 0.000000 0.000000
# 3 -0.003727 -0.002570 0.010115 0.000000 0.000000 0.000000
# 4 0.000000 0.000000 0.000000 0.080566 0.000000 0.000000
# 5 0.000000 0.000000 0.000000 0.000000 0.030363 0.000000
# 6 0.000000 0.000000 0.000000 0.000000 0.000000 0.025173
#
#
# Mechanical properties :
#
#
# Convention : Reuss Voigt Hill
#
# Bulk Modulus (GPa) = 53.23671 63.16961 58.20316
# Shear Modulus (GPa) = 24.15801 30.20573 27.18187
#
# Velocity S-wave (km/s) = 3.34031 3.73509 3.54320
# Velocity P-wave (km/s) = 6.28211 6.91208 6.60461
#
# Compressibility (1/GPa) = 0.01878403
#
# Stress axis : x y z
#
# Youngs Moduli (GPa) = 45.92066 101.99578 98.86746
#
# Poissons Ratio (x) = 0.52623 0.36843
# Poissons Ratio (y) = 0.23692 0.25408
# Poissons Ratio (z) = 0.17112 0.26212
#
# Static dielectric constant tensor:
#      x y z
#    x 3.971690 0.000000 0.000000 
#    y 0.000000 4.128710 0.000000 
#    z 0.000000 0.000000 3.726070 
# 
# 
# High freq. dielectric constant tensor:
#      x y z
#    x 1.853130 0.000000 0.000000 
#    y 0.000000 1.867300 0.000000 
#    z 0.000000 0.000000 1.841520 
# 
# From -- ./inp_files/17833.got.cif
#   From: 2010.03.12/outbox.cif.g09.slc.cpg/sg55_9_cif.got.tgz:17833.got - 2010.04.16 15:19:21.
