data_PCOD8227893
_publ_section_title
;
Structure prediction by ZEFSAII (Michael W. Deem and Ramdas Pophale) SiO2 
 PCOD8227893
Probable space group: P C C N
;
_chemical_formula_sum "Si O2"
_cell_formula_units_Z 48
_cell_length_a 8.953691
_cell_length_b 17.900473
_cell_length_c 17.286251
_cell_angle_alpha 90.000000
_cell_angle_beta 90.000000
_cell_angle_gamma 90.000000
_cell_volume 2770.559134
_symmetry_space_group_name_H-M "P C C N"
_symmetry_group_IT_number 56
_symmetry_cell_setting 'orthorhombic'
loop_
_space_group_symop_operation_xyz
x,y,z
1/2-x,1/2-y,z
1/2+x,-y,1/2-z
-x,1/2+y,1/2-z
-x,-y,-z
1/2+x,1/2+y,-z
1/2-x,y,1/2+z
x,1/2-y,1/2+z
loop_
_atom_site_type_symbol
_atom_site_label
_atom_site_fract_x
_atom_site_fract_y
_atom_site_fract_z
Si Si1 0.403010 0.537981 0.933853
Si Si2 0.192245 0.068236 0.811681
Si Si3 0.996100 0.059440 0.227049
Si Si4 0.597229 0.716175 0.113529
Si Si5 0.818164 0.326148 0.473894
Si Si6 0.352504 0.814854 0.181924
O O1 0.294162 0.475953 0.894312
O O2 0.511541 0.571017 0.866074
O O3 0.500000 0.500000 0.000000
O O4 0.301210 0.604771 0.967838
O O5 0.349611 0.069888 0.769674
O O6 0.133715 0.151461 0.824775
O O7 0.072535 0.023545 0.758064
O O8 0.874062 0.118498 0.258190
O O9 0.750000 0.750000 0.078292
O O10 0.494491 0.685134 0.044055
O O11 0.513608 0.782046 0.159214
O O12 0.750000 0.250000 0.510650
O O13 0.732018 0.345240 0.394480
O O14 0.250000 0.750000 0.220097
#
# Coordination Sequence:
#
# PCOD8227893 Si02
#       6
#     8   8   8   8   8   8
#     4  10  21  35  60  79 117 152 187 234 301 336
#     4  10  22  35  59  82 116 149 197 232 283 347
#     4  10  22  36  57  85 111 151 193 239 274 341
#     4  10  17  33  59  80 110 147 191 224 287 341
#     4   9  19  36  59  83 111 153 186 234 286 361
#     4   9  20  33  60  83 109 150 195 231 282 349
#
# _framework density 17.325023000000002
#
# number of rings (size 3 to 8) (size 9 to 14) (size 15 to 20)
#    1.000    1.667    3.333    0.000    7.000    0.667 
#    0.000    0.833   11.000    0.000    0.000    0.000 
#    0.000    0.000    0.000    0.000    0.000    0.000 
#
# Total GULP energy -594739.041894 kJ/mol
# GULP energy per Si atom -12390.396706 kJ/mol
# Density = 1.728559 g / cm^3
# Si number density = 17.325023 Si / 1000 Ang^3
#
#
#
# Elastic Constant Matrix: (Units=GPa)
#
#
# Indices 1 2 3 4 5 6 
#
# 1 104.2120 32.6931 36.2236 0.0000 0.0000 0.0000
# 2 32.6931 73.5911 46.1677 0.0000 0.0000 0.0000
# 3 36.2236 46.1677 92.7991 0.0000 0.0000 0.0000
# 4 0.0000 0.0000 0.0000 16.9789 0.0000 0.0000
# 5 0.0000 0.0000 0.0000 0.0000 25.4983 0.0000
# 6 0.0000 0.0000 0.0000 0.0000 0.0000 28.9342
#
#
#
# Elastic Compliance Matrix: (Units=1/GPa)
#
#
# Indices 1 2 3 4 5 6 
#
# 1 0.011652 -0.003377 -0.002868 0.000000 0.000000 0.000000
# 2 -0.003377 0.020733 -0.008996 0.000000 0.000000 0.000000
# 3 -0.002868 -0.008996 0.016371 0.000000 0.000000 0.000000
# 4 0.000000 0.000000 0.000000 0.058897 0.000000 0.000000
# 5 0.000000 0.000000 0.000000 0.000000 0.039218 0.000000
# 6 0.000000 0.000000 0.000000 0.000000 0.000000 0.034561
#
#
# Mechanical properties :
#
#
# Convention : Reuss Voigt Hill
#
# Bulk Modulus (GPa) = 54.72604 55.64122 55.18363
# Shear Modulus (GPa) = 22.93503 24.65012 23.79257
#
# Velocity S-wave (km/s) = 3.64237 3.77610 3.70984
# Velocity P-wave (km/s) = 7.02464 7.15526 7.09025
#
# Compressibility (1/GPa) = 0.01827284
#
# Stress axis : x y z
#
# Youngs Moduli (GPa) = 85.82007 48.23271 61.08263
#
# Poissons Ratio (x) = 0.16289 0.17520
# Poissons Ratio (y) = 0.28983 0.54952
# Poissons Ratio (z) = 0.24615 0.43392
#
# Static dielectric constant tensor:
#      x y z
#    x 3.132620 0.000000 0.000000 
#    y 0.000000 3.398510 0.000000 
#    z 0.000000 0.000000 2.976760 
# 
# 
# High freq. dielectric constant tensor:
#      x y z
#    x 1.661960 0.000000 0.000000 
#    y 0.000000 1.681350 0.000000 
#    z 0.000000 0.000000 1.638710 
# 
# From -- ./inp_files/10759.got.cif
#   From: 2010.03.12/outbox.cif.g09.slc.cpg/sg56_6_cif.got.tgz:10759.got - 2010.04.16 15:33:40.
