data_PCOD8227268
_publ_section_title
;
Structure prediction by ZEFSAII (Michael W. Deem and Ramdas Pophale) SiO2 
 PCOD8227268
Probable space group: P B A M
;
_chemical_formula_sum "Si O2"
_cell_formula_units_Z 64
_cell_length_a 19.123512
_cell_length_b 12.127518
_cell_length_c 13.337107
_cell_angle_alpha 90.000000
_cell_angle_beta 90.000000
_cell_angle_gamma 90.000000
_cell_volume 3093.151672
_symmetry_space_group_name_H-M "P B A M"
_symmetry_group_IT_number 55
_symmetry_cell_setting 'orthorhombic'
loop_
_space_group_symop_operation_xyz
x,y,z
-x,-y,z
1/2+x,1/2-y,-z
1/2-x,1/2+y,-z
-x,-y,-z
x,y,-z
1/2-x,1/2+y,z
1/2+x,1/2-y,z
loop_
_atom_site_type_symbol
_atom_site_label
_atom_site_fract_x
_atom_site_fract_y
_atom_site_fract_z
Si Si1 0.894919 0.215313 0.223273
Si Si2 0.468635 0.671288 0.885044
Si Si3 0.742237 0.168095 0.232429
Si Si4 0.074912 0.016972 0.295054
Si Si5 0.925806 0.455279 0.712319
Si Si6 0.213168 0.495606 0.389940
Si Si7 0.682158 0.323394 0.610047
Si Si8 0.384113 0.891944 0.114248
O O1 0.812381 0.230942 0.193882
O O2 0.922476 0.322160 0.283374
O O3 0.948212 0.191912 0.131760
O O4 0.892221 0.104640 0.289053
O O5 0.437276 0.575497 0.814098
O O6 0.429746 0.784971 0.860195
O O7 0.456468 0.634791 0.000000
O O8 0.759344 0.064005 0.303860
O O9 0.687265 0.234842 0.302185
O O10 0.697840 0.132845 0.135354
O O11 0.120964 0.090631 0.367664
O O12 0.000000 0.000000 0.347503
O O13 0.868787 0.501498 0.635419
O O14 0.911311 0.503935 0.822826
O O15 0.000000 0.500000 0.672548
O O16 0.222714 0.439988 0.500000
O O17 0.242115 0.619278 0.392959
O O18 0.666891 0.271061 0.500000
O O19 0.391863 0.928113 0.000000
#
# Coordination Sequence:
#
# PCOD8227268 Si02
#       8
#     8   8   8   8   8   8   8   8
#     4  11  22  37  60  89 120 161 203 250 307 365
#     4  10  21  40  64  88 119 162 206 251 310 373
#     4  11  21  39  63  86 127 157 204 257 309 359
#     4  10  22  39  61  88 126 158 204 257 312 359
#     4  11  22  39  63  89 126 161 200 254 309 363
#     4  10  22  38  60  89 119 159 203 248 303 366
#     4  11  21  37  61  89 120 161 207 250 308 368
#     4  10  22  39  62  88 121 164 203 246 304 368
#
# _framework density 20.690871000000001
#
# number of rings (size 3 to 8) (size 9 to 14) (size 15 to 20)
#    0.000    1.500    5.000    0.375    0.000    4.000 
#    0.000    0.625    0.000    0.750    0.000    0.000 
#    0.000    0.000    0.000    0.000    0.000    0.000 
#
# Total GULP energy -793133.434332 kJ/mol
# GULP energy per Si atom -12392.709911 kJ/mol
# Density = 2.064378 g / cm^3
# Si number density = 20.690871 Si / 1000 Ang^3
#
#
#
# Elastic Constant Matrix: (Units=GPa)
#
#
# Indices 1 2 3 4 5 6 
#
# 1 103.5065 5.9614 19.3340 0.0000 0.0000 0.0000
# 2 5.9614 86.7814 12.9169 0.0000 0.0000 0.0000
# 3 19.3340 12.9169 69.4661 0.0000 0.0000 0.0000
# 4 0.0000 0.0000 0.0000 -0.4074 0.0000 0.0000
# 5 0.0000 0.0000 0.0000 0.0000 20.7361 0.0000
# 6 0.0000 0.0000 0.0000 0.0000 0.0000 32.6030
#
#
#
# Elastic Compliance Matrix: (Units=1/GPa)
#
#
# Indices 1 2 3 4 5 6 
#
# 1 0.010198 -0.000286 -0.002785 0.000000 0.000000 0.000000
# 2 -0.000286 0.011859 -0.002126 0.000000 0.000000 0.000000
# 3 -0.002785 -0.002126 0.015566 0.000000 0.000000 0.000000
# 4 0.000000 0.000000 0.000000 -2.454311 0.000000 0.000000
# 5 0.000000 0.000000 0.000000 0.000000 0.048225 0.000000
# 6 0.000000 0.000000 0.000000 0.000000 0.000000 0.030672
#
#
# Mechanical properties :
#
#
# Convention : Reuss Voigt Hill
#
# Bulk Modulus (GPa) = 36.72463 37.35319 37.03891
# Shear Modulus (GPa) = -2.15673 25.35577 11.59952
#
# Velocity S-wave (km/s) = -1.02207 3.50445 2.37029
# Velocity P-wave (km/s) = 4.04906 5.87087 5.04291
#
# Compressibility (1/GPa) = 0.02722968
#
# Stress axis : x y z
#
# Youngs Moduli (GPa) = 98.05905 84.32256 64.24291
#
# Poissons Ratio (x) = 0.02412 0.17893
# Poissons Ratio (y) = 0.02804 0.13655
# Poissons Ratio (z) = 0.27311 0.17923
#
# Static dielectric constant tensor:
#      x y z
#    x 3.874180 0.000000 0.000000 
#    y 0.000000 3.802920 0.000000 
#    z 0.000000 0.000000 3.457950 
# 
# 
# High freq. dielectric constant tensor:
#      x y z
#    x 1.821220 0.000000 0.000000 
#    y 0.000000 1.815660 0.000000 
#    z 0.000000 0.000000 1.781660 
# 
# From -- ./inp_files/19520.got.cif
#   From: 2010.03.12/outbox.cif.g09.slc.cpg/sg55_10_cif.got.tgz:19520.got - 2010.04.16 15:19:21.
