data_PCOD8227197
_publ_section_title
;
Structure prediction by ZEFSAII (Michael W. Deem and Ramdas Pophale) SiO2 
 PCOD8227197
Probable space group: P B A M
;
_chemical_formula_sum "Si O2"
_cell_formula_units_Z 56
_cell_length_a 18.406018
_cell_length_b 16.954455
_cell_length_c 9.034741
_cell_angle_alpha 90.000000
_cell_angle_beta 90.000000
_cell_angle_gamma 90.000000
_cell_volume 2819.417451
_symmetry_space_group_name_H-M "P B A M"
_symmetry_group_IT_number 55
_symmetry_cell_setting 'orthorhombic'
loop_
_space_group_symop_operation_xyz
x,y,z
-x,-y,z
1/2+x,1/2-y,-z
1/2-x,1/2+y,-z
-x,-y,-z
x,y,-z
1/2-x,1/2+y,z
1/2+x,1/2-y,z
loop_
_atom_site_type_symbol
_atom_site_label
_atom_site_fract_x
_atom_site_fract_y
_atom_site_fract_z
Si Si1 0.860472 0.441751 0.669267
Si Si2 0.120519 0.822420 0.168494
Si Si3 0.532024 0.829716 0.169904
Si Si4 0.301242 0.605350 0.327691
Si Si5 0.221699 0.267380 0.826085
Si Si6 0.112090 0.377662 0.328296
Si Si7 0.419761 0.481028 0.324665
O O1 0.876741 0.416585 0.500000
O O2 0.901771 0.384630 0.780462
O O3 0.775077 0.437390 0.703727
O O4 0.888601 0.529332 0.699576
O O5 0.054851 0.761153 0.187090
O O6 0.194377 0.778758 0.217738
O O7 0.106445 0.896417 0.271214
O O8 0.127285 0.851878 0.000000
O O9 0.463317 0.842175 0.273321
O O10 0.513023 0.849704 0.000000
O O11 0.311601 0.623888 0.500000
O O12 0.308465 0.686830 0.241406
O O13 0.364349 0.547854 0.267653
O O14 0.178341 0.341134 0.761547
O O15 0.209475 0.263862 0.000000
O O16 0.121974 0.357149 0.500000
O O17 0.500000 0.500000 0.262191
O O18 0.419843 0.478464 0.500000
#
# Coordination Sequence:
#
# PCOD8227197 Si02
#       7
#     8   8   8   8   8   8   8
#     4  10  21  39  62  88 120 160 205 250 304 367
#     4  10  23  42  62  88 123 162 206 250 305 367
#     4  11  23  40  61  91 127 161 200 248 304 367
#     4  10  21  39  62  89 121 160 206 254 308 365
#     4  11  23  41  63  91 123 162 208 254 305 365
#     4  11  24  40  61  91 124 158 201 251 303 362
#     4  10  23  41  63  93 126 162 210 261 308 363
#
# _framework density 19.862258000000001
#
# number of rings (size 3 to 8) (size 9 to 14) (size 15 to 20)
#    0.000    1.571    1.429    2.571    2.000    7.143 
#    0.000    0.000    0.000    0.000    0.000    0.000 
#    0.000    0.000    0.000    0.000    0.000    0.000 
#
# Total GULP energy -694746.568286 kJ/mol
# GULP energy per Si atom -12406.188719 kJ/mol
# Density = 1.981705 g / cm^3
# Si number density = 19.862258 Si / 1000 Ang^3
#
#
#
# Elastic Constant Matrix: (Units=GPa)
#
#
# Indices 1 2 3 4 5 6 
#
# 1 73.4567 14.7851 26.7783 0.0000 0.0000 0.0000
# 2 14.7851 88.5452 36.9383 0.0000 0.0000 0.0000
# 3 26.7783 36.9383 52.7055 0.0000 0.0000 0.0000
# 4 0.0000 0.0000 0.0000 14.8645 0.0000 0.0000
# 5 0.0000 0.0000 0.0000 0.0000 30.4894 0.0000
# 6 0.0000 0.0000 0.0000 0.0000 0.0000 31.2470
#
#
#
# Elastic Compliance Matrix: (Units=1/GPa)
#
#
# Indices 1 2 3 4 5 6 
#
# 1 0.016779 0.001066 -0.009272 0.000000 0.000000 0.000000
# 2 0.001066 0.016028 -0.011775 0.000000 0.000000 0.000000
# 3 -0.009272 -0.011775 0.031937 0.000000 0.000000 0.000000
# 4 0.000000 0.000000 0.000000 0.067274 0.000000 0.000000
# 5 0.000000 0.000000 0.000000 0.000000 0.032798 0.000000
# 6 0.000000 0.000000 0.000000 0.000000 0.000000 0.032003
#
#
# Mechanical properties :
#
#
# Convention : Reuss Voigt Hill
#
# Bulk Modulus (GPa) = 40.35187 41.30118 40.82653
# Shear Modulus (GPa) = 20.40477 24.40057 22.40267
#
# Velocity S-wave (km/s) = 3.20865 3.50878 3.36207
# Velocity P-wave (km/s) = 5.83842 6.10363 5.97250
#
# Compressibility (1/GPa) = 0.02478200
#
# Stress axis : x y z
#
# Youngs Moduli (GPa) = 59.59829 62.39233 31.31208
#
# Poissons Ratio (x) = -0.06654 0.29034
# Poissons Ratio (y) = -0.06356 0.36869
# Poissons Ratio (z) = 0.55262 0.73465
#
# Static dielectric constant tensor:
#      x y z
#    x 3.853320 0.000000 0.000000 
#    y 0.000000 3.590020 0.000000 
#    z 0.000000 0.000000 3.583210 
# 
# 
# High freq. dielectric constant tensor:
#      x y z
#    x 1.786980 0.000000 0.000000 
#    y 0.000000 1.782350 0.000000 
#    z 0.000000 0.000000 1.773360 
# 
# From -- ./inp_files/8739.got.cif
#   From: 2010.03.12/outbox.cif.g09.slc.cpg/sg55_5_cif.got.tgz:8739.got - 2010.04.16 15:19:21.
