data_PCOD8227351
_publ_section_title
;
Structure prediction by ZEFSAII (Michael W. Deem and Ramdas Pophale) SiO2 
 PCOD8227351
Probable space group: P B A M
;
_chemical_formula_sum "Si O2"
_cell_formula_units_Z 32
_cell_length_a 4.968934
_cell_length_b 11.971260
_cell_length_c 22.055598
_cell_angle_alpha 90.000000
_cell_angle_beta 90.000000
_cell_angle_gamma 90.000000
_cell_volume 1311.964032
_symmetry_space_group_name_H-M "P B A M"
_symmetry_group_IT_number 55
_symmetry_cell_setting 'orthorhombic'
loop_
_space_group_symop_operation_xyz
x,y,z
-x,-y,z
1/2+x,1/2-y,-z
1/2-x,1/2+y,-z
-x,-y,-z
x,y,-z
1/2-x,1/2+y,z
1/2+x,1/2-y,z
loop_
_atom_site_type_symbol
_atom_site_label
_atom_site_fract_x
_atom_site_fract_y
_atom_site_fract_z
Si Si1 0.751505 0.176536 0.875081
Si Si2 0.500000 0.500000 0.348175
Si Si3 0.889947 0.174846 0.000000
Si Si4 0.146837 0.827099 0.255068
Si Si5 0.239807 0.676433 0.569774
O O1 0.439803 0.212090 0.876167
O O2 0.822601 0.106895 0.937185
O O3 0.814986 0.114169 0.811473
O O4 0.315537 0.421122 0.305903
O O5 0.706531 0.431797 0.389914
O O6 0.697708 0.285247 0.000000
O O7 0.351631 0.725010 0.263213
O O8 0.267777 0.639532 0.500000
O O9 0.444724 0.777322 0.584922
#
# Coordination Sequence:
#
# PCOD8227351 Si02
#       5
#     8   4   4   8   8
#     4   8  14  26  43  66  97 131 171 218 264 312
#     4  12  23  38  62  85 112 150 186 218 272 327
#     4   8  12  20  40  65  88 125 172 212 260 315
#     4  10  22  37  53  79 113 145 182 227 271 322
#     4  10  23  42  62  87 116 144 181 227 270 318
#
# _framework density 24.390913999999999
#
# number of rings (size 3 to 8) (size 9 to 14) (size 15 to 20)
#    0.000    2.500    0.000    1.875    0.000    4.000 
#    0.000    3.750    0.000    0.750    0.000    0.000 
#    0.000   30.000    0.000    0.000    0.000    4.000 
#
# Total GULP energy -396537.689408 kJ/mol
# GULP energy per Si atom -12391.802794 kJ/mol
# Density = 2.433540 g / cm^3
# Si number density = 24.390914 Si / 1000 Ang^3
#
#
#
# Elastic Constant Matrix: (Units=GPa)
#
#
# Indices 1 2 3 4 5 6 
#
# 1 74.5204 -2.7338 6.7856 0.0000 0.0000 0.0000
# 2 -2.7338 54.2759 59.5054 0.0000 0.0000 0.0000
# 3 6.7856 59.5054 184.9147 0.0000 0.0000 0.0000
# 4 0.0000 0.0000 0.0000 -8.2118 0.0000 0.0000
# 5 0.0000 0.0000 0.0000 0.0000 19.1327 0.0000
# 6 0.0000 0.0000 0.0000 0.0000 0.0000 3.6202
#
#
#
# Elastic Compliance Matrix: (Units=1/GPa)
#
#
# Indices 1 2 3 4 5 6 
#
# 1 0.013590 0.001902 -0.001111 0.000000 0.000000 0.000000
# 2 0.001902 0.028734 -0.009317 0.000000 0.000000 0.000000
# 3 -0.001111 -0.009317 0.008447 0.000000 0.000000 0.000000
# 4 0.000000 0.000000 0.000000 -0.121775 0.000000 0.000000
# 5 0.000000 0.000000 0.000000 0.000000 0.052267 0.000000
# 6 0.000000 0.000000 0.000000 0.000000 0.000000 0.276225
#
#
# Mechanical properties :
#
#
# Convention : Reuss Voigt Hill
#
# Bulk Modulus (GPa) = 29.65486 48.98059 39.31773
# Shear Modulus (GPa) = 17.49610 19.58514 18.54062
#
# Velocity S-wave (km/s) = 2.68119 2.83674 2.76006
# Velocity P-wave (km/s) = 4.66579 5.55469 5.12953
#
# Compressibility (1/GPa) = 0.03372128
#
# Stress axis : x y z
#
# Youngs Moduli (GPa) = 73.58300 34.80150 118.38923
#
# Poissons Ratio (x) = -0.06621 0.13152
# Poissons Ratio (y) = -0.13999 1.10298
# Poissons Ratio (z) = 0.08174 0.32423
#
# Static dielectric constant tensor:
#      x y z
#    x 4.250790 0.000000 0.000000 
#    y 0.000000 3.529970 0.000000 
#    z 0.000000 0.000000 5.403160 
# 
# 
# High freq. dielectric constant tensor:
#      x y z
#    x 1.977100 0.000000 0.000000 
#    y 0.000000 1.887650 0.000000 
#    z 0.000000 0.000000 2.016910 
# 
# From -- ./inp_files/23218.got.cif
#   From: 2010.03.12/outbox.cif.g09.slc.cpg/sg55_12_cif.got.tgz:23218.got - 2010.04.16 15:19:21.
