data_PCOD8227665
_publ_section_title
;
Structure prediction by ZEFSAII (Michael W. Deem and Ramdas Pophale) SiO2 
 PCOD8227665
Probable space group: P B A M
;
_chemical_formula_sum "Si O2"
_cell_formula_units_Z 56
_cell_length_a 19.054956
_cell_length_b 8.868319
_cell_length_c 19.272980
_cell_angle_alpha 90.000000
_cell_angle_beta 90.000000
_cell_angle_gamma 90.000000
_cell_volume 3256.852781
_symmetry_space_group_name_H-M "P B A M"
_symmetry_group_IT_number 55
_symmetry_cell_setting 'orthorhombic'
loop_
_space_group_symop_operation_xyz
x,y,z
-x,-y,z
1/2+x,1/2-y,-z
1/2-x,1/2+y,-z
-x,-y,-z
x,y,-z
1/2-x,1/2+y,z
1/2+x,1/2-y,z
loop_
_atom_site_type_symbol
_atom_site_label
_atom_site_fract_x
_atom_site_fract_y
_atom_site_fract_z
Si Si1 0.323724 0.322953 0.811654
Si Si2 0.681041 0.167541 0.671437
Si Si3 0.181041 0.667542 0.671437
Si Si4 0.417845 0.828441 0.078626
Si Si5 0.323724 0.677048 0.188346
Si Si6 0.418557 0.000000 0.581701
Si Si7 0.917846 0.328440 0.078626
O O1 0.348859 0.258490 0.737231
O O2 0.250000 0.250000 0.833004
O O3 0.315762 0.500000 0.806205
O O4 0.380043 0.285519 0.870084
O O5 0.750000 0.249999 0.640015
O O6 0.651142 0.258489 0.737231
O O7 0.704368 0.999999 0.696588
O O8 0.619563 0.149749 0.613413
O O9 0.119562 0.649750 0.613413
O O10 0.380042 0.714483 0.129916
O O11 0.500000 0.801663 0.086505
O O12 0.398337 0.000001 0.098197
O O13 0.394018 0.793612 0.000000
O O14 0.408460 1.000000 0.500000
O O15 0.500000 0.000000 0.603064
O O16 0.894019 0.293610 0.000000
#
# Coordination Sequence:
#
# PCOD8227665 Si02
#       7
#     8   8   8   8   8   8   8
#     4  11  21  34  54  78 108 141 178 224 272 317
#     4   9  18  33  56  80 108 141 181 225 268 324
#     4   9  18  33  56  80 108 141 181 225 268 324
#     4   9  19  36  55  75 103 140 182 226 272 325
#     4  11  21  34  54  78 108 141 178 224 272 317
#     4   9  20  36  56  84 114 144 180 221 270 330
#     4   9  19  36  55  75 103 140 182 226 272 325
#
# _framework density 17.194514000000002
#
# number of rings (size 3 to 8) (size 9 to 14) (size 15 to 20)
#    0.857    1.571    0.000    6.000    0.000    3.429 
#    0.000    1.429    0.000    2.571    0.000    8.000 
#    0.000    0.000    0.000    0.000    0.000    0.000 
#
# Total GULP energy -694046.174974 kJ/mol
# GULP energy per Si atom -12393.681696 kJ/mol
# Density = 1.715538 g / cm^3
# Si number density = 17.194514 Si / 1000 Ang^3
#
#
#
# Elastic Constant Matrix: (Units=GPa)
#
#
# Indices 1 2 3 4 5 6 
#
# 1 96.9116 47.7916 71.8325 0.0000 0.0000 0.0000
# 2 47.7916 126.2506 49.3161 0.0000 0.0000 0.0000
# 3 71.8325 49.3161 102.1344 0.0000 0.0000 0.0000
# 4 0.0000 0.0000 0.0000 21.8725 0.0000 0.0000
# 5 0.0000 0.0000 0.0000 0.0000 37.4947 0.0000
# 6 0.0000 0.0000 0.0000 0.0000 0.0000 32.2981
#
#
#
# Elastic Compliance Matrix: (Units=1/GPa)
#
#
# Indices 1 2 3 4 5 6 
#
# 1 0.022365 -0.002862 -0.014348 0.000000 0.000000 0.000000
# 2 -0.002862 0.010128 -0.002878 0.000000 0.000000 0.000000
# 3 -0.014348 -0.002878 0.021271 0.000000 0.000000 0.000000
# 4 0.000000 0.000000 0.000000 0.045719 0.000000 0.000000
# 5 0.000000 0.000000 0.000000 0.000000 0.026670 0.000000
# 6 0.000000 0.000000 0.000000 0.000000 0.000000 0.030962
#
#
# Mechanical properties :
#
#
# Convention : Reuss Voigt Hill
#
# Bulk Modulus (GPa) = 73.58257 73.68632 73.63444
# Shear Modulus (GPa) = 24.77461 28.75683 26.76572
#
# Velocity S-wave (km/s) = 3.79996 4.09399 3.94971
# Velocity P-wave (km/s) = 7.88290 8.08055 7.98233
#
# Compressibility (1/GPa) = 0.01359018
#
# Stress axis : x y z
#
# Youngs Moduli (GPa) = 44.71371 98.73496 47.01140
#
# Poissons Ratio (x) = 0.28253 0.67450
# Poissons Ratio (y) = 0.12795 0.13529
# Poissons Ratio (z) = 0.64153 0.28414
#
# Static dielectric constant tensor:
#      x y z
#    x 3.111090 0.000000 0.000000 
#    y 0.000000 3.167140 0.000000 
#    z 0.000000 0.000000 3.089160 
# 
# 
# High freq. dielectric constant tensor:
#      x y z
#    x 1.658960 0.000000 0.000000 
#    y 0.000000 1.659220 0.000000 
#    z 0.000000 0.000000 1.658960 
# 
# From -- ./inp_files/23057.got.cif
#   From: 2010.03.12/outbox.cif.g09.slc.cpg/sg55_12_cif.got.tgz:23057.got - 2010.04.16 15:19:21.
