data_PCOD8227084
_publ_section_title
;
Structure prediction by ZEFSAII (Michael W. Deem and Ramdas Pophale) SiO2 
 PCOD8227084
Probable space group: P B A M
;
_chemical_formula_sum "Si O2"
_cell_formula_units_Z 56
_cell_length_a 8.384622
_cell_length_b 14.828847
_cell_length_c 21.558270
_cell_angle_alpha 90.000000
_cell_angle_beta 90.000000
_cell_angle_gamma 90.000000
_cell_volume 2680.431909
_symmetry_space_group_name_H-M "P B A M"
_symmetry_group_IT_number 55
_symmetry_cell_setting 'orthorhombic'
loop_
_space_group_symop_operation_xyz
x,y,z
-x,-y,z
1/2+x,1/2-y,-z
1/2-x,1/2+y,-z
-x,-y,-z
x,y,-z
1/2-x,1/2+y,z
1/2+x,1/2-y,z
loop_
_atom_site_type_symbol
_atom_site_label
_atom_site_fract_x
_atom_site_fract_y
_atom_site_fract_z
Si Si1 0.078289 0.093084 0.762618
Si Si2 0.339669 0.295688 0.571183
Si Si3 0.840721 0.857701 0.629888
Si Si4 0.878347 0.152752 0.872556
Si Si5 0.708792 0.315230 0.070308
Si Si6 0.820489 0.519977 0.571513
Si Si7 0.319532 0.024398 0.860693
O O1 0.120007 0.151652 0.702487
O O2 0.237856 0.071473 0.801365
O O3 0.952772 0.151236 0.803349
O O4 0.000000 0.000000 0.740550
O O5 0.335598 0.264018 0.500000
O O6 0.302848 0.210373 0.614456
O O7 0.513770 0.331229 0.586304
O O8 0.212656 0.374991 0.583933
O O9 0.793627 0.960241 0.614581
O O10 0.758280 0.235873 0.882129
O O11 0.023228 0.159863 0.921224
O O12 0.780563 0.061331 0.883937
O O13 0.817534 0.402997 0.083605
O O14 0.738301 0.283553 0.000000
O O15 0.788369 0.494546 0.500000
O O16 0.000000 0.500000 0.591249
O O17 0.500000 0.000000 0.843086
#
# Coordination Sequence:
#
# PCOD8227084 Si02
#       7
#     8   8   8   8   8   8   8
#     4   9  21  41  62  87 121 161 207 253 301 359
#     4  11  23  38  59  88 121 157 197 247 308 365
#     4  12  23  39  62  88 119 157 204 251 299 365
#     4  10  22  40  60  87 127 164 202 257 308 353
#     4  11  22  37  62  93 123 163 211 251 298 362
#     4  10  21  38  59  84 117 155 196 248 306 360
#     4  10  22  41  63  88 123 164 200 249 312 361
#
# _framework density 20.892154999999999
#
# number of rings (size 3 to 8) (size 9 to 14) (size 15 to 20)
#    0.000    1.571    0.000    6.000    0.000    7.143 
#    0.000    4.286    0.000    0.000    0.000    0.000 
#    0.000    0.000    0.000    0.000    0.000    0.000 
#
# Total GULP energy -694649.660443 kJ/mol
# GULP energy per Si atom -12404.458222 kJ/mol
# Density = 2.084460 g / cm^3
# Si number density = 20.892155 Si / 1000 Ang^3
#
#
#
# Elastic Constant Matrix: (Units=GPa)
#
#
# Indices 1 2 3 4 5 6 
#
# 1 95.2466 30.6931 32.0757 0.0000 0.0000 0.0000
# 2 30.6931 108.7677 58.6666 0.0000 0.0000 0.0000
# 3 32.0757 58.6666 119.1873 0.0000 0.0000 0.0000
# 4 0.0000 0.0000 0.0000 29.9110 0.0000 0.0000
# 5 0.0000 0.0000 0.0000 0.0000 22.4796 0.0000
# 6 0.0000 0.0000 0.0000 0.0000 0.0000 38.5314
#
#
#
# Elastic Compliance Matrix: (Units=1/GPa)
#
#
# Indices 1 2 3 4 5 6 
#
# 1 0.011928 -0.002225 -0.002115 0.000000 0.000000 0.000000
# 2 -0.002225 0.012932 -0.005767 0.000000 0.000000 0.000000
# 3 -0.002115 -0.005767 0.011798 0.000000 0.000000 0.000000
# 4 0.000000 0.000000 0.000000 0.033432 0.000000 0.000000
# 5 0.000000 0.000000 0.000000 0.000000 0.044485 0.000000
# 6 0.000000 0.000000 0.000000 0.000000 0.000000 0.025953
#
#
# Mechanical properties :
#
#
# Convention : Reuss Voigt Hill
#
# Bulk Modulus (GPa) = 60.80968 62.89695 61.85331
# Shear Modulus (GPa) = 30.07991 31.63547 30.85769
#
# Velocity S-wave (km/s) = 3.79855 3.89553 3.84734
# Velocity P-wave (km/s) = 6.95761 7.09961 7.02896
#
# Compressibility (1/GPa) = 0.01644475
#
# Stress axis : x y z
#
# Youngs Moduli (GPa) = 83.83365 77.32590 84.76186
#
# Poissons Ratio (x) = 0.17208 0.17925
# Poissons Ratio (y) = 0.18656 0.48879
# Poissons Ratio (z) = 0.17729 0.44591
#
# Static dielectric constant tensor:
#      x y z
#    x 3.810240 0.000000 0.000000 
#    y 0.000000 3.912560 0.000000 
#    z 0.000000 0.000000 3.560850 
# 
# 
# High freq. dielectric constant tensor:
#      x y z
#    x 1.824870 0.000000 0.000000 
#    y 0.000000 1.825300 0.000000 
#    z 0.000000 0.000000 1.803520 
# 
# From -- ./inp_files/22618.got.cif
#   From: 2010.03.12/outbox.cif.g09.slc.cpg/sg55_12_cif.got.tgz:22618.got - 2010.04.16 15:19:21.
