data_PCOD8227520
_publ_section_title
;
Structure prediction by ZEFSAII (Michael W. Deem and Ramdas Pophale) SiO2 
 PCOD8227520
Probable space group: P B A M
;
_chemical_formula_sum "Si O2"
_cell_formula_units_Z 48
_cell_length_a 13.889762
_cell_length_b 9.793760
_cell_length_c 16.338305
_cell_angle_alpha 90.000000
_cell_angle_beta 90.000000
_cell_angle_gamma 90.000000
_cell_volume 2222.548570
_symmetry_space_group_name_H-M "P B A M"
_symmetry_group_IT_number 55
_symmetry_cell_setting 'orthorhombic'
loop_
_space_group_symop_operation_xyz
x,y,z
-x,-y,z
1/2+x,1/2-y,-z
1/2-x,1/2+y,-z
-x,-y,-z
x,y,-z
1/2-x,1/2+y,z
1/2+x,1/2-y,z
loop_
_atom_site_type_symbol
_atom_site_label
_atom_site_fract_x
_atom_site_fract_y
_atom_site_fract_z
Si Si1 0.231605 0.308538 0.808062
Si Si2 0.548017 0.132799 0.091421
Si Si3 0.579850 0.608262 0.092723
Si Si4 0.750080 0.456621 0.301790
Si Si5 0.091683 0.913298 0.410279
Si Si6 0.425118 0.109925 0.404048
O O1 0.143574 0.302760 0.870296
O O2 0.326715 0.375921 0.849702
O O3 0.243339 0.159640 0.768035
O O4 0.199962 0.411725 0.737507
O O5 0.465398 0.243681 0.091354
O O6 0.500000 0.000000 0.135669
O O7 0.578396 0.089841 0.000000
O O8 0.500000 0.500000 0.126945
O O9 0.610264 0.564071 0.000000
O O10 0.650179 0.505431 0.341208
O O11 0.816419 0.413948 0.376527
O O12 0.144865 0.895596 0.500000
O O13 0.054472 0.766055 0.376932
O O14 0.000000 0.000000 0.428530
O O15 0.430021 0.091910 0.500000
O O16 0.500000 0.000000 0.364342
#
# Coordination Sequence:
#
# PCOD8227520 Si02
#       6
#     8   8   8   8   8   8
#     4  12  25  40  63  96 135 172 215 268 339 399
#     4  10  22  42  67  93 124 168 219 270 324 389
#     4  10  22  42  66  92 125 172 223 269 321 387
#     4  12  25  42  60  96 134 169 207 264 335 390
#     4  10  23  44  68  93 124 170 222 268 319 385
#     4  10  23  44  69  95 125 170 222 267 317 385
#
# _framework density 21.596827999999999
#
# number of rings (size 3 to 8) (size 9 to 14) (size 15 to 20)
#    0.000    1.333    1.667    3.000    2.333    4.000 
#    0.000    6.667    0.000    0.000    0.000    0.000 
#    0.000    0.000    0.000    0.000    0.000    0.000 
#
# Total GULP energy -594805.378555 kJ/mol
# GULP energy per Si atom -12391.778720 kJ/mol
# Density = 2.154767 g / cm^3
# Si number density = 21.596828 Si / 1000 Ang^3
#
#
#
# Elastic Constant Matrix: (Units=GPa)
#
#
# Indices 1 2 3 4 5 6 
#
# 1 93.2720 40.2129 33.9953 0.0000 0.0000 0.0000
# 2 40.2129 125.8645 32.1942 0.0000 0.0000 0.0000
# 3 33.9953 32.1942 37.6599 0.0000 0.0000 0.0000
# 4 0.0000 0.0000 0.0000 31.3834 0.0000 0.0000
# 5 0.0000 0.0000 0.0000 0.0000 25.4555 0.0000
# 6 0.0000 0.0000 0.0000 0.0000 0.0000 40.9922
#
#
#
# Elastic Compliance Matrix: (Units=1/GPa)
#
#
# Indices 1 2 3 4 5 6 
#
# 1 0.016308 -0.001849 -0.013140 0.000000 0.000000 0.000000
# 2 -0.001849 0.010378 -0.007203 0.000000 0.000000 0.000000
# 3 -0.013140 -0.007203 0.044572 0.000000 0.000000 0.000000
# 4 0.000000 0.000000 0.000000 0.031864 0.000000 0.000000
# 5 0.000000 0.000000 0.000000 0.000000 0.039284 0.000000
# 6 0.000000 0.000000 0.000000 0.000000 0.000000 0.024395
#
#
# Mechanical properties :
#
#
# Convention : Reuss Voigt Hill
#
# Bulk Modulus (GPa) = 37.21036 52.17791 44.69413
# Shear Modulus (GPa) = 22.71245 29.59248 26.15246
#
# Velocity S-wave (km/s) = 3.24644 3.70567 3.48363
# Velocity P-wave (km/s) = 5.59638 6.52087 6.07623
#
# Compressibility (1/GPa) = 0.02687424
#
# Stress axis : x y z
#
# Youngs Moduli (GPa) = 61.32030 96.35565 22.43547
#
# Poissons Ratio (x) = 0.17818 0.29480
# Poissons Ratio (y) = 0.11339 0.16160
# Poissons Ratio (z) = 0.80575 0.69402
#
# Static dielectric constant tensor:
#      x y z
#    x 3.691670 0.000000 0.000000 
#    y 0.000000 3.953640 0.000000 
#    z 0.000000 0.000000 4.100060 
# 
# 
# High freq. dielectric constant tensor:
#      x y z
#    x 1.836470 0.000000 0.000000 
#    y 0.000000 1.869840 0.000000 
#    z 0.000000 0.000000 1.847870 
# 
# From -- ./inp_files/21492.got.cif
#   From: 2010.03.12/outbox.cif.g09.slc.cpg/sg55_11_cif.got.tgz:21492.got - 2010.04.16 15:19:21.
