data_PCOD8227591
_publ_section_title
;
Structure prediction by ZEFSAII (Michael W. Deem and Ramdas Pophale) SiO2 
 PCOD8227591
Probable space group: P B A M
;
_chemical_formula_sum "Si O2"
_cell_formula_units_Z 40
_cell_length_a 9.292349
_cell_length_b 16.819669
_cell_length_c 12.311051
_cell_angle_alpha 90.000000
_cell_angle_beta 90.000000
_cell_angle_gamma 90.000000
_cell_volume 1924.146291
_symmetry_space_group_name_H-M "P B A M"
_symmetry_group_IT_number 55
_symmetry_cell_setting 'orthorhombic'
loop_
_space_group_symop_operation_xyz
x,y,z
-x,-y,z
1/2+x,1/2-y,-z
1/2-x,1/2+y,-z
-x,-y,-z
x,y,-z
1/2-x,1/2+y,z
1/2+x,1/2-y,z
loop_
_atom_site_type_symbol
_atom_site_label
_atom_site_fract_x
_atom_site_fract_y
_atom_site_fract_z
Si Si1 0.079578 0.669641 0.000000
Si Si2 0.624222 0.551256 0.811842
Si Si3 0.621270 0.937464 0.798055
Si Si4 0.236352 0.837401 0.000000
Si Si5 0.005574 0.840362 0.374238
Si Si6 0.673297 0.819039 0.623908
O O1 0.140606 0.622784 0.897228
O O2 0.148584 0.756312 0.000000
O O3 0.906940 0.677798 0.000000
O O4 0.500000 0.500000 0.871840
O O5 0.737799 0.487008 0.771888
O O6 0.559065 0.589830 0.703223
O O7 0.694185 0.614509 0.892577
O O8 0.586977 0.885318 0.691923
O O9 0.500000 0.000000 0.828217
O O10 0.019590 0.867090 0.500000
O O11 0.107452 0.766079 0.348720
O O12 0.841860 0.816614 0.345757
O O13 0.647093 0.842229 0.500000
#
# Coordination Sequence:
#
# PCOD8227591 Si02
#       6
#     4   8   8   4   8   8
#     4  12  28  47  68  93 131 172 213 267 321 386
#     4  12  25  43  68  99 128 170 214 266 325 381
#     4  12  25  44  68  94 133 169 212 268 326 379
#     4  12  28  46  68  95 129 171 217 263 321 390
#     4  10  23  43  66  95 133 173 216 263 316 381
#     4  10  23  43  66  95 131 173 218 263 316 382
#
# _framework density 20.788437999999999
#
# number of rings (size 3 to 8) (size 9 to 14) (size 15 to 20)
#    0.000    0.800    4.000    2.400    5.600    4.800 
#    0.000    0.000    0.000    0.000    0.000    0.000 
#    0.000    0.000    0.000    0.000    0.000    0.000 
#
# Total GULP energy -496103.376056 kJ/mol
# GULP energy per Si atom -12402.584401 kJ/mol
# Density = 2.074112 g / cm^3
# Si number density = 20.788438 Si / 1000 Ang^3
#
#
#
# Elastic Constant Matrix: (Units=GPa)
#
#
# Indices 1 2 3 4 5 6 
#
# 1 50.3314 37.7290 14.1949 0.0000 0.0000 0.0000
# 2 37.7290 124.1068 61.0093 0.0000 0.0000 0.0000
# 3 14.1949 61.0093 98.0781 0.0000 0.0000 0.0000
# 4 0.0000 0.0000 0.0000 27.4455 0.0000 0.0000
# 5 0.0000 0.0000 0.0000 0.0000 31.7617 0.0000
# 6 0.0000 0.0000 0.0000 0.0000 0.0000 38.9052
#
#
#
# Elastic Compliance Matrix: (Units=1/GPa)
#
#
# Indices 1 2 3 4 5 6 
#
# 1 0.025918 -0.008694 0.001657 0.000000 0.000000 0.000000
# 2 -0.008694 0.014523 -0.007776 0.000000 0.000000 0.000000
# 3 0.001657 -0.007776 0.014793 0.000000 0.000000 0.000000
# 4 0.000000 0.000000 0.000000 0.036436 0.000000 0.000000
# 5 0.000000 0.000000 0.000000 0.000000 0.031485 0.000000
# 6 0.000000 0.000000 0.000000 0.000000 0.000000 0.025704
#
#
# Mechanical properties :
#
#
# Convention : Reuss Voigt Hill
#
# Bulk Modulus (GPa) = 39.04929 55.37587 47.21258
# Shear Modulus (GPa) = 26.73524 30.26134 28.49829
#
# Velocity S-wave (km/s) = 3.59006 3.81948 3.70655
# Velocity P-wave (km/s) = 6.00080 6.79315 6.40923
#
# Compressibility (1/GPa) = 0.02560866
#
# Stress axis : x y z
#
# Youngs Moduli (GPa) = 38.58347 68.85675 67.59929
#
# Poissons Ratio (x) = 0.59861 -0.11199
# Poissons Ratio (y) = 0.33543 0.52563
# Poissons Ratio (z) = -0.06392 0.53541
#
# Static dielectric constant tensor:
#      x y z
#    x 5.730630 0.000000 0.000000 
#    y 0.000000 3.857530 0.000000 
#    z 0.000000 0.000000 3.770300 
# 
# 
# High freq. dielectric constant tensor:
#      x y z
#    x 1.825650 0.000000 0.000000 
#    y 0.000000 1.829120 0.000000 
#    z 0.000000 0.000000 1.819770 
# 
# From -- ./inp_files/11900.got.cif
#   From: 2010.03.12/outbox.cif.g09.slc.cpg/sg55_6_cif.got.tgz:11900.got - 2010.04.16 15:19:21.
