data_PCOD8227420
_publ_section_title
;
Structure prediction by ZEFSAII (Michael W. Deem and Ramdas Pophale) SiO2 
 PCOD8227420
Probable space group: P B A M
;
_chemical_formula_sum "Si O2"
_cell_formula_units_Z 64
_cell_length_a 23.888789
_cell_length_b 15.099382
_cell_length_c 9.068657
_cell_angle_alpha 90.000000
_cell_angle_beta 90.000000
_cell_angle_gamma 90.000000
_cell_volume 3271.118544
_symmetry_space_group_name_H-M "P B A M"
_symmetry_group_IT_number 55
_symmetry_cell_setting 'orthorhombic'
loop_
_space_group_symop_operation_xyz
x,y,z
-x,-y,z
1/2+x,1/2-y,-z
1/2-x,1/2+y,-z
-x,-y,-z
x,y,-z
1/2-x,1/2+y,z
1/2+x,1/2-y,z
loop_
_atom_site_type_symbol
_atom_site_label
_atom_site_fract_x
_atom_site_fract_y
_atom_site_fract_z
Si Si1 0.178988 0.259955 0.673408
Si Si2 0.875569 0.347000 0.672783
Si Si3 0.374635 0.333519 0.171429
Si Si4 0.450701 0.758961 0.327587
Si Si5 0.752486 0.407568 0.326885
Si Si6 0.247110 0.905094 0.172942
Si Si7 0.026856 0.905933 0.330828
Si Si8 0.477368 0.097377 0.164066
O O1 0.187805 0.274875 0.500000
O O2 0.114291 0.250841 0.717874
O O3 0.209132 0.168724 0.723075
O O4 0.204510 0.345870 0.753922
O O5 0.884708 0.347039 0.500000
O O6 0.891208 0.251559 0.734649
O O7 0.813531 0.373767 0.717894
O O8 0.919655 0.413141 0.746108
O O9 0.311694 0.359856 0.208353
O O10 0.418363 0.406820 0.227223
O O11 0.382898 0.314833 0.000000
O O12 0.456285 0.778587 0.500000
O O13 0.481893 0.668413 0.283726
O O14 0.477682 0.840344 0.242409
O O15 0.747222 0.427597 0.500000
O O16 0.742402 0.497094 0.238742
O O17 0.259330 0.912157 0.000000
O O18 0.045435 0.893185 0.500000
O O19 0.000000 0.000000 0.303852
O O20 0.500000 0.000000 0.154756
O O21 0.465870 0.134815 0.000000
#
# Coordination Sequence:
#
# PCOD8227420 Si02
#       8
#     8   8   8   8   8   8   8   8
#     4  10  22  42  64  89 123 161 205 253 300 360
#     4  11  22  40  66  92 118 155 206 260 306 354
#     4  11  23  40  62  90 123 161 204 252 306 364
#     4  10  22  40  62  90 122 159 204 251 299 354
#     4  10  23  41  65  93 120 158 205 252 305 360
#     4  11  25  41  61  91 126 162 202 249 306 367
#     4  10  22  39  63  93 122 159 203 250 305 359
#     4  11  25  42  61  89 125 164 202 246 305 366
#
# _framework density 19.565173999999999
#
# number of rings (size 3 to 8) (size 9 to 14) (size 15 to 20)
#    0.000    1.500    2.500    1.500    3.500    4.750 
#    0.000    0.000    0.000    0.000    0.000    0.000 
#    0.000    0.000    0.000    0.000    0.000    0.000 
#
# Total GULP energy -793809.250836 kJ/mol
# GULP energy per Si atom -12403.269544 kJ/mol
# Density = 1.952064 g / cm^3
# Si number density = 19.565174 Si / 1000 Ang^3
#
#
#
# Elastic Constant Matrix: (Units=GPa)
#
#
# Indices 1 2 3 4 5 6 
#
# 1 115.3997 24.6415 51.6075 0.0000 0.0000 0.0000
# 2 24.6415 94.4280 34.8369 0.0000 0.0000 0.0000
# 3 51.6075 34.8369 69.7719 0.0000 0.0000 0.0000
# 4 0.0000 0.0000 0.0000 26.3467 0.0000 0.0000
# 5 0.0000 0.0000 0.0000 0.0000 -11.1914 0.0000
# 6 0.0000 0.0000 0.0000 0.0000 0.0000 21.8339
#
#
#
# Elastic Compliance Matrix: (Units=1/GPa)
#
#
# Indices 1 2 3 4 5 6 
#
# 1 0.012951 0.000189 -0.009674 0.000000 0.000000 0.000000
# 2 0.000189 0.012984 -0.006623 0.000000 0.000000 0.000000
# 3 -0.009674 -0.006623 0.024795 0.000000 0.000000 0.000000
# 4 0.000000 0.000000 0.000000 0.037955 0.000000 0.000000
# 5 0.000000 0.000000 0.000000 0.000000 -0.089354 0.000000
# 6 0.000000 0.000000 0.000000 0.000000 0.000000 0.045800
#
#
# Mechanical properties :
#
#
# Convention : Reuss Voigt Hill
#
# Bulk Modulus (GPa) = 54.01107 55.75239 54.88173
# Shear Modulus (GPa) = 59.86659 18.63208 39.24934
#
# Velocity S-wave (km/s) = 5.53760 3.08930 4.48379
# Velocity P-wave (km/s) = 8.27963 6.42515 7.41063
#
# Compressibility (1/GPa) = 0.01851472
#
# Stress axis : x y z
#
# Youngs Moduli (GPa) = 77.21122 77.01761 40.33100
#
# Poissons Ratio (x) = -0.01458 0.39017
# Poissons Ratio (y) = -0.01462 0.26711
# Poissons Ratio (z) = 0.74696 0.51008
#
# Static dielectric constant tensor:
#      x y z
#    x 3.856640 0.000000 0.000000 
#    y 0.000000 3.598850 0.000000 
#    z 0.000000 0.000000 3.672540 
# 
# 
# High freq. dielectric constant tensor:
#      x y z
#    x 1.777780 0.000000 0.000000 
#    y 0.000000 1.767370 0.000000 
#    z 0.000000 0.000000 1.762750 
# 
# From -- ./inp_files/6732.got.cif
#   From: 2010.03.12/outbox.cif.g09.slc.cpg/sg55_4_cif.got.tgz:6732.got - 2010.04.16 15:19:21.
