data_PCOD8227804
_publ_section_title
;
Structure prediction by ZEFSAII (Michael W. Deem and Ramdas Pophale) SiO2 
 PCOD8227804
Probable space group: P B A M
;
_chemical_formula_sum "Si O2"
_cell_formula_units_Z 48
_cell_length_a 9.556146
_cell_length_b 12.696058
_cell_length_c 17.652361
_cell_angle_alpha 90.000000
_cell_angle_beta 90.000000
_cell_angle_gamma 90.000000
_cell_volume 2141.679475
_symmetry_space_group_name_H-M "P B A M"
_symmetry_group_IT_number 55
_symmetry_cell_setting 'orthorhombic'
loop_
_space_group_symop_operation_xyz
x,y,z
-x,-y,z
1/2+x,1/2-y,-z
1/2-x,1/2+y,-z
-x,-y,-z
x,y,-z
1/2-x,1/2+y,z
1/2+x,1/2-y,z
loop_
_atom_site_type_symbol
_atom_site_label
_atom_site_fract_x
_atom_site_fract_y
_atom_site_fract_z
Si Si1 0.401025 0.596391 0.581596
Si Si2 0.535922 0.199406 0.134803
Si Si3 0.745655 0.048063 0.197538
Si Si4 0.553032 0.712065 0.714716
Si Si5 0.131179 0.565464 0.661111
Si Si6 0.727991 0.375440 0.084703
O O1 0.500000 0.500000 0.569066
O O2 0.394579 0.658312 0.500000
O O3 0.451051 0.662665 0.652991
O O4 0.251224 0.545814 0.600128
O O5 0.637052 0.098786 0.137897
O O6 0.544961 0.241890 0.220481
O O7 0.608372 0.286015 0.081411
O O8 0.378605 0.173441 0.108989
O O9 0.843250 0.128512 0.244591
O O10 0.659070 0.980274 0.256361
O O11 0.827028 0.965376 0.143048
O O12 0.624489 0.808085 0.670217
O O13 0.000000 0.500000 0.628147
O O14 0.742499 0.421723 0.000000
#
# Coordination Sequence:
#
# PCOD8227804 Si02
#       6
#     8   8   8   8   8   8
#     4  11  26  45  70 105 146 190 231 289 362 420
#     4  12  24  46  70 101 138 182 242 287 351 432
#     4  12  22  45  71 105 134 180 246 288 346 420
#     4  12  24  44  76 105 139 186 239 297 340 428
#     4  12  24  44  74 107 139 181 241 295 352 423
#     4  12  27  44  68 101 144 186 230 299 364 415
#
# _framework density 22.412316000000001
#
# number of rings (size 3 to 8) (size 9 to 14) (size 15 to 20)
#    0.000    0.167    6.667    3.000    0.000    3.000 
#    0.000    2.500    0.000    0.000    0.000    0.000 
#    0.000    0.000    0.000    0.000    0.000    0.000 
#
# Total GULP energy -594872.129217 kJ/mol
# GULP energy per Si atom -12393.169359 kJ/mol
# Density = 2.236130 g / cm^3
# Si number density = 22.412316 Si / 1000 Ang^3
#
#
#
# Elastic Constant Matrix: (Units=GPa)
#
#
# Indices 1 2 3 4 5 6 
#
# 1 110.3353 45.7846 43.7168 0.0000 0.0000 0.0000
# 2 45.7846 99.2923 28.8263 0.0000 0.0000 0.0000
# 3 43.7168 28.8263 125.9731 0.0000 0.0000 0.0000
# 4 0.0000 0.0000 0.0000 19.7911 0.0000 0.0000
# 5 0.0000 0.0000 0.0000 0.0000 36.6331 0.0000
# 6 0.0000 0.0000 0.0000 0.0000 0.0000 33.4063
#
#
#
# Elastic Compliance Matrix: (Units=1/GPa)
#
#
# Indices 1 2 3 4 5 6 
#
# 1 0.012292 -0.004745 -0.003180 0.000000 0.000000 0.000000
# 2 -0.004745 0.012619 -0.001241 0.000000 0.000000 0.000000
# 3 -0.003180 -0.001241 0.009326 0.000000 0.000000 0.000000
# 4 0.000000 0.000000 0.000000 0.050528 0.000000 0.000000
# 5 0.000000 0.000000 0.000000 0.000000 0.027298 0.000000
# 6 0.000000 0.000000 0.000000 0.000000 0.000000 0.029934
#
#
# Mechanical properties :
#
#
# Convention : Reuss Voigt Hill
#
# Bulk Modulus (GPa) = 62.87122 63.58399 63.22760
# Shear Modulus (GPa) = 30.18756 32.45096 31.31926
#
# Velocity S-wave (km/s) = 3.67402 3.80927 3.74225
# Velocity P-wave (km/s) = 6.79050 6.91224 6.85164
#
# Compressibility (1/GPa) = 0.01590553
#
# Stress axis : x y z
#
# Youngs Moduli (GPa) = 81.35254 79.24264 107.22966
#
# Poissons Ratio (x) = 0.37599 0.34099
# Poissons Ratio (y) = 0.38600 0.13308
# Poissons Ratio (z) = 0.25870 0.09835
#
# Static dielectric constant tensor:
#      x y z
#    x 4.005530 0.000000 0.000000 
#    y 0.000000 4.164220 0.000000 
#    z 0.000000 0.000000 4.357170 
# 
# 
# High freq. dielectric constant tensor:
#      x y z
#    x 1.888220 0.000000 0.000000 
#    y 0.000000 1.886730 0.000000 
#    z 0.000000 0.000000 1.882970 
# 
# From -- ./inp_files/20798.got.cif
#   From: 2010.03.12/outbox.cif.g09.slc.cpg/sg55_11_cif.got.tgz:20798.got - 2010.04.16 15:19:21.
