data_PCOD8227700
_publ_section_title
;
Structure prediction by ZEFSAII (Michael W. Deem and Ramdas Pophale) SiO2 
 PCOD8227700
Probable space group: P B A M
;
_chemical_formula_sum "Si O2"
_cell_formula_units_Z 56
_cell_length_a 32.626412
_cell_length_b 4.994788
_cell_length_c 16.687626
_cell_angle_alpha 90.000000
_cell_angle_beta 90.000000
_cell_angle_gamma 90.000000
_cell_volume 2719.449094
_symmetry_space_group_name_H-M "P B A M"
_symmetry_group_IT_number 55
_symmetry_cell_setting 'orthorhombic'
loop_
_space_group_symop_operation_xyz
x,y,z
-x,-y,z
1/2+x,1/2-y,-z
1/2-x,1/2+y,-z
-x,-y,-z
x,y,-z
1/2-x,1/2+y,z
1/2+x,1/2-y,z
loop_
_atom_site_type_symbol
_atom_site_label
_atom_site_fract_x
_atom_site_fract_y
_atom_site_fract_z
Si Si1 0.648649 0.674000 0.591130
Si Si2 0.458850 0.830051 0.086453
Si Si3 0.110422 0.297562 0.336846
Si Si4 0.526596 0.261349 0.743018
Si Si5 0.371089 0.076663 0.090038
Si Si6 0.722816 0.509948 0.699726
Si Si7 0.843205 0.913898 0.817898
O O1 0.655876 0.764576 0.500000
O O2 0.618150 0.418352 0.592842
O O3 0.691750 0.584306 0.628717
O O4 0.628163 0.913928 0.640753
O O5 0.458649 0.646183 0.166809
O O6 0.500000 0.000000 0.083346
O O7 0.419155 0.016120 0.094783
O O8 0.455582 0.670896 0.000000
O O9 0.062427 0.314480 0.318283
O O10 0.132847 0.187427 0.259189
O O11 0.500000 0.500000 0.704933
O O12 0.500000 0.000000 0.754163
O O13 0.366157 0.337427 0.143589
O O14 0.342267 0.832328 0.119994
O O15 0.356948 0.141234 0.000000
O O16 0.738814 0.207241 0.691466
O O17 0.701303 0.516630 0.787564
#
# Coordination Sequence:
#
# PCOD8227700 Si02
#       7
#     8   8   8   8   8   8   8
#     4  11  24  42  68  97 126 159 192 244 311 384
#     4   9  20  34  53  85 127 167 205 257 321 366
#     4  11  22  40  64  89 125 164 214 252 302 373
#     4  11  23  36  59  86 121 166 213 266 307 352
#     4  11  22  37  59  87 123 170 217 265 307 351
#     4  11  23  40  66  97 125 157 188 238 306 375
#     4  11  22  39  62  86 123 163 212 253 300 369
#
# _framework density 20.592409
#
# number of rings (size 3 to 8) (size 9 to 14) (size 15 to 20)
#    0.000    1.286    1.429    6.000    4.000    0.857 
#    0.000    0.000    0.000   17.143    0.000    0.000 
#    0.000    0.000    0.000    0.000    0.000    0.000 
#
# Total GULP energy -694125.158704 kJ/mol
# GULP energy per Si atom -12395.092120 kJ/mol
# Density = 2.054554 g / cm^3
# Si number density = 20.592409 Si / 1000 Ang^3
#
#
#
# Elastic Constant Matrix: (Units=GPa)
#
#
# Indices 1 2 3 4 5 6 
#
# 1 86.6526 29.8992 54.0271 0.0000 0.0000 0.0000
# 2 29.8992 101.9897 23.7382 0.0000 0.0000 0.0000
# 3 54.0271 23.7382 96.6304 0.0000 0.0000 0.0000
# 4 0.0000 0.0000 0.0000 31.4384 0.0000 0.0000
# 5 0.0000 0.0000 0.0000 0.0000 23.6897 0.0000
# 6 0.0000 0.0000 0.0000 0.0000 0.0000 36.6137
#
#
#
# Elastic Compliance Matrix: (Units=1/GPa)
#
#
# Indices 1 2 3 4 5 6 
#
# 1 0.018667 -0.003228 -0.009644 0.000000 0.000000 0.000000
# 2 -0.003228 0.010958 -0.000887 0.000000 0.000000 0.000000
# 3 -0.009644 -0.000887 0.015959 0.000000 0.000000 0.000000
# 4 0.000000 0.000000 0.000000 0.031808 0.000000 0.000000
# 5 0.000000 0.000000 0.000000 0.000000 0.042213 0.000000
# 6 0.000000 0.000000 0.000000 0.000000 0.000000 0.027312
#
#
# Mechanical properties :
#
#
# Convention : Reuss Voigt Hill
#
# Bulk Modulus (GPa) = 55.35411 55.62242 55.48826
# Shear Modulus (GPa) = 27.70760 30.18889 28.94825
#
# Velocity S-wave (km/s) = 3.67212 3.83302 3.75343
# Velocity P-wave (km/s) = 6.70212 6.83075 6.76674
#
# Compressibility (1/GPa) = 0.01806551
#
# Stress axis : x y z
#
# Youngs Moduli (GPa) = 53.57055 91.26047 62.66174
#
# Poissons Ratio (x) = 0.29457 0.60431
# Poissons Ratio (y) = 0.17291 0.05559
# Poissons Ratio (z) = 0.51663 0.08097
#
# Static dielectric constant tensor:
#      x y z
#    x 3.929220 0.000000 0.000000 
#    y 0.000000 3.766530 0.000000 
#    z 0.000000 0.000000 4.106820 
# 
# 
# High freq. dielectric constant tensor:
#      x y z
#    x 1.800400 0.000000 0.000000 
#    y 0.000000 1.809760 0.000000 
#    z 0.000000 0.000000 1.799170 
# 
# From -- ./inp_files/20154.got.cif
#   From: 2010.03.12/outbox.cif.g09.slc.cpg/sg55_11_cif.got.tgz:20154.got - 2010.04.16 15:19:21.
