data_PCOD8227732
_publ_section_title
;
Structure prediction by ZEFSAII (Michael W. Deem and Ramdas Pophale) SiO2 
 PCOD8227732
Probable space group: P B A M
;
_chemical_formula_sum "Si O2"
_cell_formula_units_Z 48
_cell_length_a 12.953579
_cell_length_b 9.244678
_cell_length_c 18.774064
_cell_angle_alpha 90.000000
_cell_angle_beta 90.000000
_cell_angle_gamma 90.000000
_cell_volume 2248.225457
_symmetry_space_group_name_H-M "P B A M"
_symmetry_group_IT_number 55
_symmetry_cell_setting 'orthorhombic'
loop_
_space_group_symop_operation_xyz
x,y,z
-x,-y,z
1/2+x,1/2-y,-z
1/2-x,1/2+y,-z
-x,-y,-z
x,y,-z
1/2-x,1/2+y,z
1/2+x,1/2-y,z
loop_
_atom_site_type_symbol
_atom_site_label
_atom_site_fract_x
_atom_site_fract_y
_atom_site_fract_z
Si Si1 0.085862 0.388594 0.774919
Si Si2 0.619131 0.523778 0.083927
Si Si3 0.294055 0.115645 0.301199
Si Si4 0.562704 0.357670 0.328328
Si Si5 0.750794 0.764075 0.850745
Si Si6 0.451048 0.156141 0.580786
O O1 0.158791 0.458009 0.714177
O O2 0.035066 0.249472 0.737463
O O3 0.152756 0.346214 0.843749
O O4 0.000000 0.500000 0.802314
O O5 0.500000 0.500000 0.111124
O O6 0.701708 0.409200 0.115216
O O7 0.659936 0.685388 0.104386
O O8 0.621152 0.506222 0.000000
O O9 0.180554 0.095326 0.331090
O O10 0.295427 0.205839 0.227636
O O11 0.358950 0.190465 0.364136
O O12 0.500000 0.500000 0.313173
O O13 0.535554 0.280376 0.403283
O O14 0.411258 0.169974 0.500000
O O15 0.500000 0.000000 0.595340
#
# Coordination Sequence:
#
# PCOD8227732 Si02
#       6
#     8   8   8   8   8   8
#     4  11  22  42  65  99 138 172 225 281 336 403
#     4  11  26  47  70 103 145 183 225 280 345 417
#     4  11  23  41  68  98 133 178 226 279 335 406
#     4  11  25  38  67  97 131 168 223 287 336 401
#     4  11  25  41  71 103 135 182 229 280 339 404
#     4  11  24  45  67  90 133 184 225 279 349 407
#
# _framework density 21.350172000000001
#
# number of rings (size 3 to 8) (size 9 to 14) (size 15 to 20)
#    0.000    1.000    5.000    0.500    7.000    3.667 
#    0.000    1.667    0.000    4.000    0.000    0.000 
#    0.000    0.000    0.000    0.000    0.000    0.000 
#
# Total GULP energy -595050.750912 kJ/mol
# GULP energy per Si atom -12396.890644 kJ/mol
# Density = 2.130158 g / cm^3
# Si number density = 21.350172 Si / 1000 Ang^3
#
#
#
# Elastic Constant Matrix: (Units=GPa)
#
#
# Indices 1 2 3 4 5 6 
#
# 1 117.0153 52.0298 48.2570 0.0000 0.0000 0.0000
# 2 52.0298 112.2946 30.1440 0.0000 0.0000 0.0000
# 3 48.2570 30.1440 102.8976 0.0000 0.0000 0.0000
# 4 0.0000 0.0000 0.0000 21.4837 0.0000 0.0000
# 5 0.0000 0.0000 0.0000 0.0000 35.9504 0.0000
# 6 0.0000 0.0000 0.0000 0.0000 0.0000 38.2715
#
#
#
# Elastic Compliance Matrix: (Units=1/GPa)
#
#
# Indices 1 2 3 4 5 6 
#
# 1 0.012421 -0.004549 -0.004493 0.000000 0.000000 0.000000
# 2 -0.004549 0.011331 -0.001186 0.000000 0.000000 0.000000
# 3 -0.004493 -0.001186 0.012173 0.000000 0.000000 0.000000
# 4 0.000000 0.000000 0.000000 0.046547 0.000000 0.000000
# 5 0.000000 0.000000 0.000000 0.000000 0.027816 0.000000
# 6 0.000000 0.000000 0.000000 0.000000 0.000000 0.026129
#
#
# Mechanical properties :
#
#
# Convention : Reuss Voigt Hill
#
# Bulk Modulus (GPa) = 64.64265 65.89656 65.26960
# Shear Modulus (GPa) = 30.85840 32.59289 31.72565
#
# Velocity S-wave (km/s) = 3.80590 3.91139 3.85901
# Velocity P-wave (km/s) = 7.04672 7.16452 7.10586
#
# Compressibility (1/GPa) = 0.01546966
#
# Stress axis : x y z
#
# Youngs Moduli (GPa) = 80.50568 88.25075 82.15007
#
# Poissons Ratio (x) = 0.40148 0.36908
# Poissons Ratio (y) = 0.36624 0.09743
# Poissons Ratio (z) = 0.36169 0.10467
#
# Static dielectric constant tensor:
#      x y z
#    x 4.205930 0.000000 0.000000 
#    y 0.000000 3.944740 0.000000 
#    z 0.000000 0.000000 3.691060 
# 
# 
# High freq. dielectric constant tensor:
#      x y z
#    x 1.849720 0.000000 0.000000 
#    y 0.000000 1.846280 0.000000 
#    z 0.000000 0.000000 1.814810 
# 
# From -- ./inp_files/21510.got.cif
#   From: 2010.03.12/outbox.cif.g09.slc.cpg/sg55_11_cif.got.tgz:21510.got - 2010.04.16 15:19:21.
