data_PCOD8227916
_publ_section_title
;
Structure prediction by ZEFSAII (Michael W. Deem and Ramdas Pophale) SiO2 
 PCOD8227916
Probable space group: P C C N
;
_chemical_formula_sum "Si O2"
_cell_formula_units_Z 64
_cell_length_a 12.464572
_cell_length_b 13.817335
_cell_length_c 18.008188
_cell_angle_alpha 90.000000
_cell_angle_beta 90.000000
_cell_angle_gamma 90.000000
_cell_volume 3101.499201
_symmetry_space_group_name_H-M "P C C N"
_symmetry_group_IT_number 56
_symmetry_cell_setting 'orthorhombic'
loop_
_space_group_symop_operation_xyz
x,y,z
1/2-x,1/2-y,z
1/2+x,-y,1/2-z
-x,1/2+y,1/2-z
-x,-y,-z
1/2+x,1/2+y,-z
1/2-x,y,1/2+z
x,1/2-y,1/2+z
loop_
_atom_site_type_symbol
_atom_site_label
_atom_site_fract_x
_atom_site_fract_y
_atom_site_fract_z
Si Si1 0.828163 0.167696 0.069348
Si Si2 0.044862 0.146908 0.264352
Si Si3 0.200593 0.649149 0.260066
Si Si4 0.660393 0.830602 0.084240
Si Si5 0.561777 0.716122 0.961858
Si Si6 0.280238 0.028282 0.681005
Si Si7 0.145023 0.300391 0.185217
Si Si8 0.196456 0.032696 0.011077
O O1 0.750000 0.250000 0.034765
O O2 0.791254 0.141608 0.151774
O O3 0.944045 0.216495 0.071747
O O4 0.835981 0.069902 0.022811
O O5 0.103517 0.128584 0.342347
O O6 0.108613 0.084715 0.201203
O O7 0.048599 0.259868 0.236720
O O8 0.919048 0.124381 0.269274
O O9 0.250000 0.750000 0.231345
O O10 0.280436 0.569380 0.227416
O O11 0.750000 0.750000 0.103193
O O12 0.709635 0.920898 0.039092
O O13 0.567145 0.781551 0.035390
O O14 0.636759 0.768593 0.901031
O O15 0.598186 0.607938 0.983714
O O16 0.168698 0.086494 0.697816
O O17 0.269762 0.007322 0.594203
O O18 0.250000 0.250000 0.218784
#
# Coordination Sequence:
#
# PCOD8227916 Si02
#       8
#     8   8   8   8   8   8   8   8
#     4  11  25  43  61  89 134 180 216 265 324 398
#     4  11  22  40  65  96 129 169 220 263 332 388
#     4  11  26  45  62  89 136 178 219 269 323 391
#     4  10  21  37  64 100 125 155 215 286 323 381
#     4  11  19  40  68  92 124 169 210 266 335 371
#     4  11  22  39  67  95 125 172 220 274 323 394
#     4  10  17  37  66  91 119 161 209 263 321 380
#     4  11  21  39  66  94 125 162 220 271 322 388
#
# _framework density 20.635180999999999
#
# number of rings (size 3 to 8) (size 9 to 14) (size 15 to 20)
#    0.000    1.250    5.000    2.625    0.000    4.500 
#    2.250    1.250    0.000    0.000    0.000    0.000 
#    0.000    0.000    0.000    0.000    0.000    0.000 
#
# Total GULP energy -793274.238523 kJ/mol
# GULP energy per Si atom -12394.909977 kJ/mol
# Density = 2.058821 g / cm^3
# Si number density = 20.635181 Si / 1000 Ang^3
#
#
#
# Elastic Constant Matrix: (Units=GPa)
#
#
# Indices 1 2 3 4 5 6 
#
# 1 78.0456 34.3472 16.3938 0.0000 0.0000 0.0000
# 2 34.3472 108.0895 26.8584 0.0000 0.0000 0.0000
# 3 16.3938 26.8584 97.2511 0.0000 0.0000 0.0000
# 4 0.0000 0.0000 0.0000 32.7754 0.0000 0.0000
# 5 0.0000 0.0000 0.0000 0.0000 21.1943 0.0000
# 6 0.0000 0.0000 0.0000 0.0000 0.0000 22.2638
#
#
#
# Elastic Compliance Matrix: (Units=1/GPa)
#
#
# Indices 1 2 3 4 5 6 
#
# 1 0.015049 -0.004458 -0.001306 0.000000 0.000000 0.000000
# 2 -0.004458 0.011254 -0.002357 0.000000 0.000000 0.000000
# 3 -0.001306 -0.002357 0.011154 0.000000 0.000000 0.000000
# 4 0.000000 0.000000 0.000000 0.030511 0.000000 0.000000
# 5 0.000000 0.000000 0.000000 0.000000 0.047182 0.000000
# 6 0.000000 0.000000 0.000000 0.000000 0.000000 0.044916
#
#
# Mechanical properties :
#
#
# Convention : Reuss Voigt Hill
#
# Bulk Modulus (GPa) = 47.13331 48.73167 47.93249
# Shear Modulus (GPa) = 27.26617 28.96582 28.11600
#
# Velocity S-wave (km/s) = 3.63897 3.75068 3.69525
# Velocity P-wave (km/s) = 6.36765 6.51336 6.44092
#
# Compressibility (1/GPa) = 0.02121642
#
# Stress axis : x y z
#
# Youngs Moduli (GPa) = 66.44936 88.86015 89.65720
#
# Poissons Ratio (x) = 0.39610 0.11707
# Poissons Ratio (y) = 0.29621 0.21128
# Poissons Ratio (z) = 0.08677 0.20940
#
# Static dielectric constant tensor:
#      x y z
#    x 3.587160 0.000000 0.000000 
#    y 0.000000 3.820950 0.000000 
#    z 0.000000 0.000000 3.688530 
# 
# 
# High freq. dielectric constant tensor:
#      x y z
#    x 1.790650 0.000000 0.000000 
#    y 0.000000 1.802170 0.000000 
#    z 0.000000 0.000000 1.813690 
# 
# From -- ./inp_files/15808.got.cif
#   From: 2010.03.12/outbox.cif.g09.slc.cpg/sg56_8_cif.got.tgz:15808.got - 2010.04.16 15:33:40.
