data_PCOD8227719
_publ_section_title
;
Structure prediction by ZEFSAII (Michael W. Deem and Ramdas Pophale) SiO2 
 PCOD8227719
Probable space group: P B A M
;
_chemical_formula_sum "Si O2"
_cell_formula_units_Z 40
_cell_length_a 17.101275
_cell_length_b 9.713331
_cell_length_c 11.434846
_cell_angle_alpha 90.000000
_cell_angle_beta 90.000000
_cell_angle_gamma 90.000000
_cell_volume 1899.446209
_symmetry_space_group_name_H-M "P B A M"
_symmetry_group_IT_number 55
_symmetry_cell_setting 'orthorhombic'
loop_
_space_group_symop_operation_xyz
x,y,z
-x,-y,z
1/2+x,1/2-y,-z
1/2-x,1/2+y,-z
-x,-y,-z
x,y,-z
1/2-x,1/2+y,z
1/2+x,1/2-y,z
loop_
_atom_site_type_symbol
_atom_site_label
_atom_site_fract_x
_atom_site_fract_y
_atom_site_fract_z
Si Si1 0.815773 0.494139 0.243053
Si Si2 0.427045 0.802985 0.633814
Si Si3 0.578927 0.739586 0.244773
Si Si4 0.651522 0.487374 0.636191
Si Si5 0.971837 0.278150 0.000000
Si Si6 0.377801 0.939596 0.000000
O O1 0.864602 0.581191 0.335874
O O2 0.844999 0.336700 0.243959
O O3 0.726437 0.495944 0.281261
O O4 0.823000 0.562610 0.114666
O O5 0.450319 0.817989 0.500000
O O6 0.505591 0.827225 0.707561
O O7 0.391934 0.653980 0.661538
O O8 0.592961 0.609191 0.327518
O O9 0.556039 0.692396 0.113335
O O10 0.674791 0.502405 0.500000
O O11 0.930381 0.425471 0.000000
O O12 0.065582 0.305395 0.000000
#
# Coordination Sequence:
#
# PCOD8227719 Si02
#       6
#     8   8   8   8   4   4
#     4  11  22  39  65  90 118 159 209 254 304 366
#     4  11  23  39  61  89 121 162 208 253 304 362
#     4  11  22  40  65  90 119 164 208 250 306 368
#     4  11  25  42  57  86 133 166 194 255 321 362
#     4   9  18  37  63  92 121 151 195 261 308 345
#     4   9  18  37  62  91 123 150 191 261 314 343
#
# _framework density 21.058771
#
# number of rings (size 3 to 8) (size 9 to 14) (size 15 to 20)
#    0.000    1.400    2.000    3.600    0.000    8.000 
#    0.000    7.000    0.000    0.000    0.000    0.000 
#    0.000    0.000    0.000    0.000    0.000    0.000 
#
# Total GULP energy -496205.112037 kJ/mol
# GULP energy per Si atom -12405.127801 kJ/mol
# Density = 2.101084 g / cm^3
# Si number density = 21.058771 Si / 1000 Ang^3
#
#
#
# Elastic Constant Matrix: (Units=GPa)
#
#
# Indices 1 2 3 4 5 6 
#
# 1 68.6997 -7.1309 40.9389 0.0000 0.0000 0.0000
# 2 -7.1309 50.4145 23.3609 0.0000 0.0000 0.0000
# 3 40.9389 23.3609 114.1024 0.0000 0.0000 0.0000
# 4 0.0000 0.0000 0.0000 25.9355 0.0000 0.0000
# 5 0.0000 0.0000 0.0000 0.0000 39.7856 0.0000
# 6 0.0000 0.0000 0.0000 0.0000 0.0000 36.3889
#
#
#
# Elastic Compliance Matrix: (Units=1/GPa)
#
#
# Indices 1 2 3 4 5 6 
#
# 1 0.020518 0.006975 -0.008790 0.000000 0.000000 0.000000
# 2 0.006975 0.024286 -0.007475 0.000000 0.000000 0.000000
# 3 -0.008790 -0.007475 0.013448 0.000000 0.000000 0.000000
# 4 0.000000 0.000000 0.000000 0.038557 0.000000 0.000000
# 5 0.000000 0.000000 0.000000 0.000000 0.025135 0.000000
# 6 0.000000 0.000000 0.000000 0.000000 0.000000 0.027481
#
#
# Mechanical properties :
#
#
# Convention : Reuss Voigt Hill
#
# Bulk Modulus (GPa) = 25.20601 38.61715 31.91158
# Shear Modulus (GPa) = 27.58959 32.15852 29.87405
#
# Velocity S-wave (km/s) = 3.62349 3.91203 3.77052
# Velocity P-wave (km/s) = 5.43154 6.22759 5.84314
#
# Compressibility (1/GPa) = 0.03967307
#
# Stress axis : x y z
#
# Youngs Moduli (GPa) = 48.73773 41.17636 74.36003
#
# Poissons Ratio (x) = -0.28721 0.65360
# Poissons Ratio (y) = -0.33995 0.55582
# Poissons Ratio (z) = 0.42839 0.30778
#
# Static dielectric constant tensor:
#      x y z
#    x 3.631770 0.000000 0.000000 
#    y 0.000000 3.617670 0.000000 
#    z 0.000000 0.000000 4.032640 
# 
# 
# High freq. dielectric constant tensor:
#      x y z
#    x 1.824220 0.000000 0.000000 
#    y 0.000000 1.811800 0.000000 
#    z 0.000000 0.000000 1.840740 
# 
# From -- ./inp_files/13969.got.cif
#   From: 2010.03.12/outbox.cif.g09.slc.cpg/sg55_7_cif.got.tgz:13969.got - 2010.04.16 15:19:21.
