data_PCOD8227996
_publ_section_title
;
Structure prediction by ZEFSAII (Michael W. Deem and Ramdas Pophale) SiO2 
 PCOD8227996
Probable space group: P C C N
;
_chemical_formula_sum "Si O2"
_cell_formula_units_Z 48
_cell_length_a 9.836713
_cell_length_b 16.575635
_cell_length_c 13.670339
_cell_angle_alpha 90.000000
_cell_angle_beta 90.000000
_cell_angle_gamma 90.000000
_cell_volume 2228.945552
_symmetry_space_group_name_H-M "P C C N"
_symmetry_group_IT_number 56
_symmetry_cell_setting 'orthorhombic'
loop_
_space_group_symop_operation_xyz
x,y,z
1/2-x,1/2-y,z
1/2+x,-y,1/2-z
-x,1/2+y,1/2-z
-x,-y,-z
1/2+x,1/2+y,-z
1/2-x,y,1/2+z
x,1/2-y,1/2+z
loop_
_atom_site_type_symbol
_atom_site_label
_atom_site_fract_x
_atom_site_fract_y
_atom_site_fract_z
Si Si1 0.838853 0.589462 0.176911
Si Si2 0.438523 0.914064 0.031098
Si Si3 0.202847 0.838276 0.138670
Si Si4 0.066343 0.399937 0.410410
Si Si5 0.980890 0.573868 0.375152
Si Si6 0.214095 0.600106 0.848755
O O1 0.695640 0.632043 0.151343
O O2 0.891959 0.609831 0.285751
O O3 0.815442 0.494258 0.165731
O O4 0.945397 0.626306 0.097965
O O5 0.300894 0.910942 0.098496
O O6 0.391549 0.867967 0.932176
O O7 0.500000 0.000000 0.000000
O O8 0.250000 0.750000 0.109822
O O9 0.185621 0.847488 0.254302
O O10 0.053681 0.836011 0.091868
O O11 0.104576 0.414657 0.524519
O O12 0.004843 0.479193 0.357719
O O13 0.129806 0.614963 0.381910
#
# Coordination Sequence:
#
# PCOD8227996 Si02
#       6
#     8   8   8   8   8   8
#     4  10  20  34  65  94 125 158 209 278 319 370
#     4  10  22  39  63  94 122 168 221 270 318 381
#     4  12  24  40  61  92 131 175 213 261 331 406
#     4  10  22  36  58  97 125 164 207 273 321 381
#     4  10  18  35  62  88 128 155 210 267 328 363
#     4  10  20  36  60  91 124 162 207 260 317 386
#
# _framework density 21.534846000000002
#
# number of rings (size 3 to 8) (size 9 to 14) (size 15 to 20)
#    0.000    1.667    5.000    0.000    2.333    2.000 
#    0.000    0.833    0.000    0.000    4.333    0.000 
#    0.000    0.000    0.000    0.000    0.000    0.000 
#
# Total GULP energy -594651.161315 kJ/mol
# GULP energy per Si atom -12388.565861 kJ/mol
# Density = 2.148583 g / cm^3
# Si number density = 21.534846 Si / 1000 Ang^3
#
#
#
# Elastic Constant Matrix: (Units=GPa)
#
#
# Indices 1 2 3 4 5 6 
#
# 1 174.9801 32.7957 78.4033 0.0000 0.0000 0.0000
# 2 32.7957 34.7353 23.6671 0.0000 0.0000 0.0000
# 3 78.4033 23.6671 145.4099 0.0000 0.0000 0.0000
# 4 0.0000 0.0000 0.0000 8.8841 0.0000 0.0000
# 5 0.0000 0.0000 0.0000 0.0000 44.4794 0.0000
# 6 0.0000 0.0000 0.0000 0.0000 0.0000 19.4063
#
#
#
# Elastic Compliance Matrix: (Units=1/GPa)
#
#
# Indices 1 2 3 4 5 6 
#
# 1 0.008354 -0.005419 -0.003622 0.000000 0.000000 0.000000
# 2 -0.005419 0.035896 -0.002920 0.000000 0.000000 0.000000
# 3 -0.003622 -0.002920 0.009305 0.000000 0.000000 0.000000
# 4 0.000000 0.000000 0.000000 0.112561 0.000000 0.000000
# 5 0.000000 0.000000 0.000000 0.000000 0.022482 0.000000
# 6 0.000000 0.000000 0.000000 0.000000 0.000000 0.051530
#
#
# Mechanical properties :
#
#
# Convention : Reuss Voigt Hill
#
# Bulk Modulus (GPa) = 33.74829 69.42860 51.58844
# Shear Modulus (GPa) = 18.25299 29.23791 23.74545
#
# Velocity S-wave (km/s) = 2.91452 3.68870 3.32422
# Velocity P-wave (km/s) = 5.19917 7.10296 6.22429
#
# Compressibility (1/GPa) = 0.02963113
#
# Stress axis : x y z
#
# Youngs Moduli (GPa) = 119.70895 27.85857 107.46391
#
# Poissons Ratio (x) = 0.15097 0.38925
# Poissons Ratio (y) = 0.64872 0.31384
# Poissons Ratio (z) = 0.43360 0.08136
#
# Static dielectric constant tensor:
#      x y z
#    x 4.228410 0.000000 0.000000 
#    y 0.000000 3.201330 0.000000 
#    z 0.000000 0.000000 4.139540 
# 
# 
# High freq. dielectric constant tensor:
#      x y z
#    x 1.856810 0.000000 0.000000 
#    y 0.000000 1.770710 0.000000 
#    z 0.000000 0.000000 1.863610 
# 
# From -- ./inp_files/10698.got.cif
#   From: 2010.03.12/outbox.cif.g09.slc.cpg/sg56_6_cif.got.tgz:10698.got - 2010.04.16 15:33:40.
