data_PCOD8227018
_publ_section_title
;
Structure prediction by ZEFSAII (Michael W. Deem and Ramdas Pophale) SiO2 
 PCOD8227018
Probable space group: P B A M
;
_chemical_formula_sum "Si O2"
_cell_formula_units_Z 64
_cell_length_a 32.407846
_cell_length_b 10.720544
_cell_length_c 9.409887
_cell_angle_alpha 90.000000
_cell_angle_beta 90.000000
_cell_angle_gamma 90.000000
_cell_volume 3269.274584
_symmetry_space_group_name_H-M "P B A M"
_symmetry_group_IT_number 55
_symmetry_cell_setting 'orthorhombic'
loop_
_space_group_symop_operation_xyz
x,y,z
-x,-y,z
1/2+x,1/2-y,-z
1/2-x,1/2+y,-z
-x,-y,-z
x,y,-z
1/2-x,1/2+y,z
1/2+x,1/2-y,z
loop_
_atom_site_type_symbol
_atom_site_label
_atom_site_fract_x
_atom_site_fract_y
_atom_site_fract_z
Si Si1 0.026153 0.878737 0.833025
Si Si2 0.397188 0.849321 0.341414
Si Si3 0.007409 0.357831 0.335708
Si Si4 0.778469 0.534301 0.666661
Si Si5 0.142638 0.613317 0.340071
Si Si6 0.172064 0.275297 0.155969
Si Si7 0.118929 0.846730 0.834357
Si Si8 0.697477 0.502862 0.843336
O O1 0.074339 0.907360 0.799789
O O2 0.015685 0.749033 0.753654
O O3 0.018135 0.857187 0.000000
O O4 0.000000 0.000000 0.779650
O O5 0.383647 0.808273 0.500000
O O6 0.444919 0.826488 0.318097
O O7 0.373365 0.767374 0.224994
O O8 0.385976 0.993432 0.319221
O O9 0.992832 0.349327 0.500000
O O10 0.000000 0.500000 0.279643
O O11 0.774276 0.559585 0.500000
O O12 0.809399 0.418231 0.696523
O O13 0.797442 0.655762 0.737832
O O14 0.733677 0.515026 0.730617
O O15 0.139742 0.664440 0.500000
O O16 0.123578 0.713252 0.236387
O O17 0.189247 0.140080 0.134167
O O18 0.169628 0.340621 0.000000
O O19 0.156166 0.934058 0.779983
O O20 0.123224 0.824292 0.000000
O O21 0.709303 0.558803 0.000000
#
# Coordination Sequence:
#
# PCOD8227018 Si02
#       8
#     8   8   8   8   8   8   8   8
#     4  10  23  41  62  87 122 162 201 249 303 361
#     4   9  19  36  58  85 117 151 189 236 290 343
#     4  10  21  38  62  90 121 156 198 252 304 354
#     4  10  22  39  59  84 116 150 188 236 289 341
#     4   9  19  37  59  85 116 151 189 233 284 343
#     4  10  21  37  59  84 113 149 191 236 284 340
#     4  10  22  39  58  83 115 152 193 237 287 344
#     4  10  23  39  57  82 113 149 192 236 283 341
#
# _framework density 19.576207
#
# number of rings (size 3 to 8) (size 9 to 14) (size 15 to 20)
#    0.000    2.250    0.000    2.250    3.500    6.500 
#    0.000    0.000    0.000    0.000    0.000    0.000 
#    0.000    0.000    0.000    0.000    0.000    0.000 
#
# Total GULP energy -793360.066951 kJ/mol
# GULP energy per Si atom -12396.251046 kJ/mol
# Density = 1.953165 g / cm^3
# Si number density = 19.576207 Si / 1000 Ang^3
#
#
#
# Elastic Constant Matrix: (Units=GPa)
#
#
# Indices 1 2 3 4 5 6 
#
# 1 99.5093 24.4440 43.5129 0.0000 0.0000 0.0000
# 2 24.4440 61.4663 28.0806 0.0000 0.0000 0.0000
# 3 43.5129 28.0806 79.2990 0.0000 0.0000 0.0000
# 4 0.0000 0.0000 0.0000 -28.0546 0.0000 0.0000
# 5 0.0000 0.0000 0.0000 0.0000 42.3224 0.0000
# 6 0.0000 0.0000 0.0000 0.0000 0.0000 21.9066
#
#
#
# Elastic Compliance Matrix: (Units=1/GPa)
#
#
# Indices 1 2 3 4 5 6 
#
# 1 0.013505 -0.002368 -0.006572 0.000000 0.000000 0.000000
# 2 -0.002368 0.019824 -0.005720 0.000000 0.000000 0.000000
# 3 -0.006572 -0.005720 0.018242 0.000000 0.000000 0.000000
# 4 0.000000 0.000000 0.000000 -0.035645 0.000000 0.000000
# 5 0.000000 0.000000 0.000000 0.000000 0.023628 0.000000
# 6 0.000000 0.000000 0.000000 0.000000 0.000000 0.045648
#
#
# Mechanical properties :
#
#
# Convention : Reuss Voigt Hill
#
# Bulk Modulus (GPa) = 44.94321 48.03886 46.49104
# Shear Modulus (GPa) = 41.00364 16.85069 28.92717
#
# Velocity S-wave (km/s) = 4.58161 2.93708 3.84822
# Velocity P-wave (km/s) = 7.14115 6.00788 6.59889
#
# Compressibility (1/GPa) = 0.02225030
#
# Stress axis : x y z
#
# Youngs Moduli (GPa) = 74.04838 50.44324 54.81813
#
# Poissons Ratio (x) = 0.11947 0.36024
# Poissons Ratio (y) = 0.17537 0.31358
# Poissons Ratio (z) = 0.48662 0.28856
#
# Static dielectric constant tensor:
#      x y z
#    x 4.296230 0.000000 0.000000 
#    y 0.000000 3.394780 0.000000 
#    z 0.000000 0.000000 1.732270 
# 
# 
# High freq. dielectric constant tensor:
#      x y z
#    x 1.775830 0.000000 0.000000 
#    y 0.000000 1.749850 0.000000 
#    z 0.000000 0.000000 1.764120 
# 
# From -- ./inp_files/10803.got.cif
#   From: 2010.03.12/outbox.cif.g09.slc.cpg/sg55_6_cif.got.tgz:10803.got - 2010.04.16 15:19:21.
