data_PCOD8227741
_publ_section_title
;
Structure prediction by ZEFSAII (Michael W. Deem and Ramdas Pophale) SiO2 
 PCOD8227741
Probable space group: P B A M
;
_chemical_formula_sum "Si O2"
_cell_formula_units_Z 40
_cell_length_a 8.619756
_cell_length_b 17.961919
_cell_length_c 12.571416
_cell_angle_alpha 90.000000
_cell_angle_beta 90.000000
_cell_angle_gamma 90.000000
_cell_volume 1946.399139
_symmetry_space_group_name_H-M "P B A M"
_symmetry_group_IT_number 55
_symmetry_cell_setting 'orthorhombic'
loop_
_space_group_symop_operation_xyz
x,y,z
-x,-y,z
1/2+x,1/2-y,-z
1/2-x,1/2+y,-z
-x,-y,-z
x,y,-z
1/2-x,1/2+y,z
1/2+x,1/2-y,z
loop_
_atom_site_type_symbol
_atom_site_label
_atom_site_fract_x
_atom_site_fract_y
_atom_site_fract_z
Si Si1 0.063782 0.420357 0.700980
Si Si2 0.970837 0.155240 0.118435
Si Si3 0.075956 0.656779 0.500000
Si Si4 0.614987 0.191613 0.118855
Si Si5 0.059492 0.181130 0.500000
Si Si6 0.072424 0.923279 0.675480
O O1 0.035506 0.365455 0.800047
O O2 0.242830 0.426646 0.668107
O O3 0.000000 0.500000 0.737261
O O4 0.963968 0.391774 0.602590
O O5 0.798036 0.185801 0.123052
O O6 0.989472 0.089387 0.204055
O O7 0.080100 0.223648 0.151439
O O8 0.011347 0.124874 0.000000
O O9 0.256860 0.673702 0.500000
O O10 0.976816 0.731809 0.500000
O O11 0.550602 0.174818 0.000000
O O12 0.985510 0.144654 0.604209
O O13 0.000000 0.000000 0.632591
#
# Coordination Sequence:
#
# PCOD8227741 Si02
#       6
#     8   8   4   8   4   8
#     4  11  23  39  59  85 118 153 191 235 286 340
#     4   9  19  36  58  84 114 149 190 235 282 335
#     4  12  25  42  63  86 114 148 190 236 285 340
#     4   9  19  36  58  84 114 149 190 235 282 335
#     4  12  25  42  63  86 114 148 190 236 285 340
#     4  11  23  39  59  85 118 153 191 235 286 340
#
# _framework density 20.550768999999999
#
# number of rings (size 3 to 8) (size 9 to 14) (size 15 to 20)
#    0.000    1.600    0.000    4.800    0.000    7.200 
#    0.000    0.000    0.000    0.000    0.000    0.000 
#    0.000    0.000    0.000    0.000    0.000    0.000 
#
# Total GULP energy -496155.626442 kJ/mol
# GULP energy per Si atom -12403.890661 kJ/mol
# Density = 2.050399 g / cm^3
# Si number density = 20.550769 Si / 1000 Ang^3
#
#
#
# Elastic Constant Matrix: (Units=GPa)
#
#
# Indices 1 2 3 4 5 6 
#
# 1 74.4686 7.3818 18.2698 0.0000 0.0000 0.0000
# 2 7.3818 57.0881 11.0696 0.0000 0.0000 0.0000
# 3 18.2698 11.0696 81.9486 0.0000 0.0000 0.0000
# 4 0.0000 0.0000 0.0000 83.4531 0.0000 0.0000
# 5 0.0000 0.0000 0.0000 0.0000 5.3220 0.0000
# 6 0.0000 0.0000 0.0000 0.0000 0.0000 33.3816
#
#
#
# Elastic Compliance Matrix: (Units=1/GPa)
#
#
# Indices 1 2 3 4 5 6 
#
# 1 0.014294 -0.001263 -0.003016 0.000000 0.000000 0.000000
# 2 -0.001263 0.018100 -0.002163 0.000000 0.000000 0.000000
# 3 -0.003016 -0.002163 0.013167 0.000000 0.000000 0.000000
# 4 0.000000 0.000000 0.000000 0.011983 0.000000 0.000000
# 5 0.000000 0.000000 0.000000 0.000000 0.187900 0.000000
# 6 0.000000 0.000000 0.000000 0.000000 0.000000 0.029957
#
#
# Mechanical properties :
#
#
# Convention : Reuss Voigt Hill
#
# Bulk Modulus (GPa) = 30.60412 31.88308 31.24360
# Shear Modulus (GPa) = 16.71250 36.21695 26.46472
#
# Velocity S-wave (km/s) = 2.85481 4.20255 3.59245
# Velocity P-wave (km/s) = 5.07847 6.25272 5.69594
#
# Compressibility (1/GPa) = 0.03267534
#
# Stress axis : x y z
#
# Youngs Moduli (GPa) = 69.96109 55.24978 75.94533
#
# Poissons Ratio (x) = 0.06980 0.22905
# Poissons Ratio (y) = 0.08839 0.16429
# Poissons Ratio (z) = 0.21100 0.11952
#
# Static dielectric constant tensor:
#      x y z
#    x 3.704840 0.000000 0.000000 
#    y 0.000000 3.747480 0.000000 
#    z 0.000000 0.000000 4.156150 
# 
# 
# High freq. dielectric constant tensor:
#      x y z
#    x 1.806860 0.000000 0.000000 
#    y 0.000000 1.802180 0.000000 
#    z 0.000000 0.000000 1.818090 
# 
# From -- ./inp_files/17136.got.cif
#   From: 2010.03.12/outbox.cif.g09.slc.cpg/sg55_9_cif.got.tgz:17136.got - 2010.04.16 15:19:21.
