data_PCOD8227930
_publ_section_title
;
Structure prediction by ZEFSAII (Michael W. Deem and Ramdas Pophale) SiO2 
 PCOD8227930
Probable space group: P C C N
;
_chemical_formula_sum "Si O2"
_cell_formula_units_Z 56
_cell_length_a 26.693234
_cell_length_b 21.448097
_cell_length_c 5.147542
_cell_angle_alpha 90.000000
_cell_angle_beta 90.000000
_cell_angle_gamma 90.000000
_cell_volume 2947.065969
_symmetry_space_group_name_H-M "P C C N"
_symmetry_group_IT_number 56
_symmetry_cell_setting 'orthorhombic'
loop_
_space_group_symop_operation_xyz
x,y,z
1/2-x,1/2-y,z
1/2+x,-y,1/2-z
-x,1/2+y,1/2-z
-x,-y,-z
1/2+x,1/2+y,-z
1/2-x,y,1/2+z
x,1/2-y,1/2+z
loop_
_atom_site_type_symbol
_atom_site_label
_atom_site_fract_x
_atom_site_fract_y
_atom_site_fract_z
Si Si1 0.272020 0.680059 0.760130
Si Si2 0.873580 0.379521 0.796700
Si Si3 0.458490 0.787298 0.114928
Si Si4 0.103868 0.553619 0.709506
Si Si5 0.923237 0.711964 0.112374
Si Si6 0.006652 0.064215 0.846466
Si Si7 0.432808 0.080145 0.819886
O O1 0.250000 0.750000 0.789999
O O2 0.244946 0.645006 0.521967
O O3 0.332073 0.675430 0.730017
O O4 0.928371 0.349278 0.812012
O O5 0.869899 0.428105 0.559859
O O6 0.863162 0.419336 0.055785
O O7 0.443537 0.735370 0.327616
O O8 0.517349 0.801454 0.112672
O O9 0.101069 0.478369 0.732721
O O10 0.049123 0.587412 0.720318
O O11 0.905255 0.751870 0.357431
O O12 0.899851 0.641760 0.110709
O O13 0.035713 0.058125 0.572924
O O14 0.035272 0.104917 0.065108
O O15 0.000000 0.000000 0.000000
#
# Coordination Sequence:
#
# PCOD8227930 Si02
#       7
#     8   8   8   8   8   8   8
#     4  10  23  40  59  74  95 127 172 207 273 338
#     4  12  23  35  55  75  99 120 169 228 267 325
#     4  10  21  32  47  66  96 125 164 215 270 285
#     4  11  21  33  49  78  97 125 165 212 274 303
#     4  10  20  33  46  68  95 137 177 206 240 304
#     4  10  18  30  48  70  99 134 168 205 258 321
#     4  11  20  33  51  67 103 138 169 212 255 311
#
# _framework density 19.001947999999999
#
# number of rings (size 3 to 8) (size 9 to 14) (size 15 to 20)
#    0.000    1.429    0.000    8.571    4.000    2.286 
#    0.000    0.000    0.000    0.000    0.000    0.000 
#    0.000    0.000    0.000    0.000    0.000   50.000 
#
# Total GULP energy -693888.807583 kJ/mol
# GULP energy per Si atom -12390.871564 kJ/mol
# Density = 1.895870 g / cm^3
# Si number density = 19.001948 Si / 1000 Ang^3
#
#
#
# Elastic Constant Matrix: (Units=GPa)
#
#
# Indices 1 2 3 4 5 6 
#
# 1 28.1860 9.1989 13.1825 0.0000 0.0000 0.0000
# 2 9.1989 88.4184 16.5663 0.0000 0.0000 0.0000
# 3 13.1825 16.5663 131.6851 0.0000 0.0000 0.0000
# 4 0.0000 0.0000 0.0000 24.4683 0.0000 0.0000
# 5 0.0000 0.0000 0.0000 0.0000 17.1353 0.0000
# 6 0.0000 0.0000 0.0000 0.0000 0.0000 21.9354
#
#
#
# Elastic Compliance Matrix: (Units=1/GPa)
#
#
# Indices 1 2 3 4 5 6 
#
# 1 0.038157 -0.003333 -0.003400 0.000000 0.000000 0.000000
# 2 -0.003333 0.011874 -0.001160 0.000000 0.000000 0.000000
# 3 -0.003400 -0.001160 0.008080 0.000000 0.000000 0.000000
# 4 0.000000 0.000000 0.000000 0.040869 0.000000 0.000000
# 5 0.000000 0.000000 0.000000 0.000000 0.058359 0.000000
# 6 0.000000 0.000000 0.000000 0.000000 0.000000 0.045588
#
#
# Mechanical properties :
#
#
# Convention : Reuss Voigt Hill
#
# Bulk Modulus (GPa) = 23.62705 36.24275 29.93490
# Shear Modulus (GPa) = 21.47564 26.66394 24.06979
#
# Velocity S-wave (km/s) = 3.36546 3.75002 3.56294
# Velocity P-wave (km/s) = 5.25003 6.15344 5.71960
#
# Compressibility (1/GPa) = 0.04232436
#
# Stress axis : x y z
#
# Youngs Moduli (GPa) = 26.20776 84.21800 123.75883
#
# Poissons Ratio (x) = 0.28067 0.42084
# Poissons Ratio (y) = 0.08734 0.14358
# Poissons Ratio (z) = 0.08912 0.09771
#
# Static dielectric constant tensor:
#      x y z
#    x 2.911250 0.000000 0.000000 
#    y 0.000000 3.434840 0.000000 
#    z 0.000000 0.000000 4.668990 
# 
# 
# High freq. dielectric constant tensor:
#      x y z
#    x 1.647130 0.000000 0.000000 
#    y 0.000000 1.730450 0.000000 
#    z 0.000000 0.000000 1.781630 
# 
# From -- ./inp_files/1083.got.cif
#   From: 2010.03.12/outbox.cif.g09.slc.cpg/sg56_1_cif.got.tgz:1083.got - 2010.04.16 15:33:40.
