data_PCOD8227633
_publ_section_title
;
Structure prediction by ZEFSAII (Michael W. Deem and Ramdas Pophale) SiO2 
 PCOD8227633
Probable space group: P B A M
;
_chemical_formula_sum "Si O2"
_cell_formula_units_Z 56
_cell_length_a 11.921898
_cell_length_b 24.059498
_cell_length_c 13.131781
_cell_angle_alpha 90.000000
_cell_angle_beta 90.000000
_cell_angle_gamma 90.000000
_cell_volume 3766.652842
_symmetry_space_group_name_H-M "P B A M"
_symmetry_group_IT_number 55
_symmetry_cell_setting 'orthorhombic'
loop_
_space_group_symop_operation_xyz
x,y,z
-x,-y,z
1/2+x,1/2-y,-z
1/2-x,1/2+y,-z
-x,-y,-z
x,y,-z
1/2-x,1/2+y,z
1/2+x,1/2-y,z
loop_
_atom_site_type_symbol
_atom_site_label
_atom_site_fract_x
_atom_site_fract_y
_atom_site_fract_z
Si Si1 0.350559 0.209461 0.118961
Si Si2 0.894373 0.167823 0.879260
Si Si3 0.514804 0.888518 0.805035
Si Si4 0.278010 0.923638 0.118522
Si Si5 0.279701 0.042837 0.789512
Si Si6 0.859152 0.864821 0.119010
Si Si7 0.070787 0.555908 0.386177
O O1 0.355698 0.272038 0.162287
O O2 0.446403 0.174450 0.176470
O O3 0.227326 0.185134 0.141181
O O4 0.379533 0.207520 0.000000
O O5 0.810103 0.121026 0.837087
O O6 0.019920 0.154926 0.841883
O O7 0.888343 0.168615 0.000000
O O8 0.401680 0.899991 0.864958
O O9 0.610928 0.931144 0.847979
O O10 0.502282 0.899185 0.682816
O O11 0.256582 0.980366 0.177757
O O12 0.257962 0.934763 0.000000
O O13 0.172262 0.080350 0.816464
O O14 0.308236 0.044443 0.668074
O O15 0.860594 0.880697 0.000000
O O16 0.090036 0.579247 0.500000
O O17 0.000000 0.500000 0.389033
#
# Coordination Sequence:
#
# PCOD8227633 Si02
#       7
#     8   8   8   8   8   8   8
#     4   9  17  29  45  63  92 124 154 192 221 257
#     4   9  20  30  40  64  92 133 166 179 212 258
#     4   9  17  29  44  71  89 113 154 183 234 275
#     4  11  19  27  41  66  99 126 153 187 217 261
#     4   9  17  30  44  68  91 117 153 180 230 277
#     4   9  17  30  44  61  93 126 157 184 214 262
#     4   9  16  30  47  69  95 111 140 193 236 283
#
# _framework density 14.867311000000001
#
# number of rings (size 3 to 8) (size 9 to 14) (size 15 to 20)
#    0.857    1.857    1.429    1.286    2.000    2.857 
#    0.000    2.143    0.000    0.000    0.000    8.000 
#    0.000    0.000    0.000    0.000    0.000    0.000 
#
# Total GULP energy -694014.779131 kJ/mol
# GULP energy per Si atom -12393.121056 kJ/mol
# Density = 1.483347 g / cm^3
# Si number density = 14.867311 Si / 1000 Ang^3
#
#
#
# Elastic Constant Matrix: (Units=GPa)
#
#
# Indices 1 2 3 4 5 6 
#
# 1 74.8544 52.5566 10.9237 0.0000 0.0000 0.0000
# 2 52.5566 111.5526 19.8732 0.0000 0.0000 0.0000
# 3 10.9237 19.8732 50.3993 0.0000 0.0000 0.0000
# 4 0.0000 0.0000 0.0000 7.8126 0.0000 0.0000
# 5 0.0000 0.0000 0.0000 0.0000 7.4256 0.0000
# 6 0.0000 0.0000 0.0000 0.0000 0.0000 22.1877
#
#
#
# Elastic Compliance Matrix: (Units=1/GPa)
#
#
# Indices 1 2 3 4 5 6 
#
# 1 0.019984 -0.009296 -0.000666 0.000000 0.000000 0.000000
# 2 -0.009296 0.013966 -0.003492 0.000000 0.000000 0.000000
# 3 -0.000666 -0.003492 0.021363 0.000000 0.000000 0.000000
# 4 0.000000 0.000000 0.000000 0.127998 0.000000 0.000000
# 5 0.000000 0.000000 0.000000 0.000000 0.134670 0.000000
# 6 0.000000 0.000000 0.000000 0.000000 0.000000 0.045070
#
#
# Mechanical properties :
#
#
# Convention : Reuss Voigt Hill
#
# Bulk Modulus (GPa) = 35.20588 44.83482 40.02035
# Shear Modulus (GPa) = 12.51792 17.71537 15.11665
#
# Velocity S-wave (km/s) = 2.90483 3.45565 3.19214
# Velocity P-wave (km/s) = 5.91457 6.79295 6.36892
#
# Compressibility (1/GPa) = 0.02840435
#
# Stress axis : x y z
#
# Youngs Moduli (GPa) = 50.04110 71.60033 46.81022
#
# Poissons Ratio (x) = 0.66563 0.03116
# Poissons Ratio (y) = 0.46520 0.16347
# Poissons Ratio (z) = 0.03331 0.25004
#
# Static dielectric constant tensor:
#      x y z
#    x 2.866590 0.000000 0.000000 
#    y 0.000000 2.959490 0.000000 
#    z 0.000000 0.000000 2.647730 
# 
# 
# High freq. dielectric constant tensor:
#      x y z
#    x 1.562590 0.000000 0.000000 
#    y 0.000000 1.572960 0.000000 
#    z 0.000000 0.000000 1.521500 
# 
# From -- ./inp_files/13511.got.cif
#   From: 2010.03.12/outbox.cif.g09.slc.cpg/sg55_7_cif.got.tgz:13511.got - 2010.04.16 15:19:21.
