data_PCOD8227870
_publ_section_title
;
Structure prediction by ZEFSAII (Michael W. Deem and Ramdas Pophale) SiO2 
 PCOD8227870
Probable space group: P C C N
;
_chemical_formula_sum "Si O2"
_cell_formula_units_Z 64
_cell_length_a 20.376425
_cell_length_b 9.337381
_cell_length_c 18.156023
_cell_angle_alpha 90.000000
_cell_angle_beta 90.000000
_cell_angle_gamma 90.000000
_cell_volume 3454.409303
_symmetry_space_group_name_H-M "P C C N"
_symmetry_group_IT_number 56
_symmetry_cell_setting 'orthorhombic'
loop_
_space_group_symop_operation_xyz
x,y,z
1/2-x,1/2-y,z
1/2+x,-y,1/2-z
-x,1/2+y,1/2-z
-x,-y,-z
1/2+x,1/2+y,-z
1/2-x,y,1/2+z
x,1/2-y,1/2+z
loop_
_atom_site_type_symbol
_atom_site_label
_atom_site_fract_x
_atom_site_fract_y
_atom_site_fract_z
Si Si1 0.491051 0.802117 0.171478
Si Si2 0.180813 0.294866 0.145139
Si Si3 0.894744 0.810119 0.559150
Si Si4 0.999704 0.351260 0.045130
Si Si5 0.952839 0.892113 0.294492
Si Si6 0.105110 0.781246 0.040977
Si Si7 0.667148 0.571233 0.985406
Si Si8 0.691375 0.476843 0.476788
O O1 0.560837 0.837653 0.131232
O O2 0.505966 0.677668 0.229210
O O3 0.438133 0.746426 0.113314
O O4 0.457807 0.935730 0.214855
O O5 0.250000 0.250000 0.186034
O O6 0.120552 0.321167 0.202430
O O7 0.170833 0.168468 0.086817
O O8 0.184432 0.442723 0.100888
O O9 0.848744 0.667451 0.558833
O O10 0.854729 0.954888 0.540777
O O11 0.938986 0.765591 0.488243
O O12 0.007962 0.366796 0.130866
O O13 0.933108 0.266350 0.032200
O O14 0.000000 0.500000 0.000000
O O15 0.171767 0.687109 0.041023
O O16 0.115094 0.949225 0.033121
O O17 0.734590 0.489935 0.004787
#
# Coordination Sequence:
#
# PCOD8227870 Si02
#       8
#     8   8   8   8   8   8   8   8
#     4  11  25  34  58  80 124 156 184 245 289 365
#     4   9  18  35  57  77 106 146 194 242 275 336
#     4  10  18  37  54  84 108 147 189 229 297 334
#     4  11  17  35  62  73 106 151 190 232 280 351
#     4  12  21  39  55  86 111 158 204 225 296 349
#     4  11  20  35  54  89 116 145 186 241 311 329
#     4  10  21  29  57  92 109 137 192 259 279 332
#     4  10  16  35  60  79 112 147 192 236 287 351
#
# _framework density 18.527045999999999
#
# number of rings (size 3 to 8) (size 9 to 14) (size 15 to 20)
#    0.000    1.500    7.500    1.500    1.750    3.000 
#    0.000    1.250    0.000    0.000    0.000    1.750 
#    0.000    0.000    0.000    0.000    0.000    0.000 
#
# Total GULP energy -792873.183119 kJ/mol
# GULP energy per Si atom -12388.643486 kJ/mol
# Density = 1.848488 g / cm^3
# Si number density = 18.527046 Si / 1000 Ang^3
#
#
#
# Elastic Constant Matrix: (Units=GPa)
#
#
# Indices 1 2 3 4 5 6 
#
# 1 92.4685 26.2737 19.9139 0.0000 0.0000 0.0000
# 2 26.2737 84.5117 17.9039 0.0000 0.0000 0.0000
# 3 19.9139 17.9039 56.9788 0.0000 0.0000 0.0000
# 4 0.0000 0.0000 0.0000 20.4704 0.0000 0.0000
# 5 0.0000 0.0000 0.0000 0.0000 18.9503 0.0000
# 6 0.0000 0.0000 0.0000 0.0000 0.0000 26.2284
#
#
#
# Elastic Compliance Matrix: (Units=1/GPa)
#
#
# Indices 1 2 3 4 5 6 
#
# 1 0.012433 -0.003155 -0.003354 0.000000 0.000000 0.000000
# 2 -0.003155 0.013477 -0.003132 0.000000 0.000000 0.000000
# 3 -0.003354 -0.003132 0.019707 0.000000 0.000000 0.000000
# 4 0.000000 0.000000 0.000000 0.048851 0.000000 0.000000
# 5 0.000000 0.000000 0.000000 0.000000 0.052770 0.000000
# 6 0.000000 0.000000 0.000000 0.000000 0.000000 0.038127
#
#
# Mechanical properties :
#
#
# Convention : Reuss Voigt Hill
#
# Bulk Modulus (GPa) = 37.97227 40.23801 39.10514
# Shear Modulus (GPa) = 23.42748 24.45432 23.94090
#
# Velocity S-wave (km/s) = 3.55984 3.63702 3.59864
# Velocity P-wave (km/s) = 6.11855 6.27717 6.19837
#
# Compressibility (1/GPa) = 0.02633501
#
# Stress axis : x y z
#
# Youngs Moduli (GPa) = 80.42968 74.20035 50.74384
#
# Poissons Ratio (x) = 0.23409 0.17020
# Poissons Ratio (y) = 0.25374 0.15894
# Poissons Ratio (z) = 0.26977 0.23241
#
# Static dielectric constant tensor:
#      x y z
#    x 3.901490 0.000000 0.000000 
#    y 0.000000 3.951260 0.000000 
#    z 0.000000 0.000000 3.507440 
# 
# 
# High freq. dielectric constant tensor:
#      x y z
#    x 1.732180 0.000000 0.000000 
#    y 0.000000 1.722940 0.000000 
#    z 0.000000 0.000000 1.670770 
# 
# From -- ./inp_files/19533.got.cif
#   From: 2010.03.12/outbox.cif.g09.slc.cpg/sg56_10_cif.got.tgz:19533.got - 2010.04.16 15:33:40.
