data_PCOD8227503
_publ_section_title
;
Structure prediction by ZEFSAII (Michael W. Deem and Ramdas Pophale) SiO2 
 PCOD8227503
Probable space group: P B A M
;
_chemical_formula_sum "Si O2"
_cell_formula_units_Z 64
_cell_length_a 11.712743
_cell_length_b 18.837598
_cell_length_c 13.871752
_cell_angle_alpha 90.000000
_cell_angle_beta 90.000000
_cell_angle_gamma 90.000000
_cell_volume 3060.662586
_symmetry_space_group_name_H-M "P B A M"
_symmetry_group_IT_number 55
_symmetry_cell_setting 'orthorhombic'
loop_
_space_group_symop_operation_xyz
x,y,z
-x,-y,z
1/2+x,1/2-y,-z
1/2-x,1/2+y,-z
-x,-y,-z
x,y,-z
1/2-x,1/2+y,z
1/2+x,1/2-y,z
loop_
_atom_site_type_symbol
_atom_site_label
_atom_site_fract_x
_atom_site_fract_y
_atom_site_fract_z
Si Si1 0.787712 0.236879 0.111893
Si Si2 0.831255 0.664370 0.392981
Si Si3 0.503541 0.077152 0.723706
Si Si4 0.608740 0.647551 0.728713
Si Si5 0.120833 0.983373 0.848333
Si Si6 0.162706 0.400933 0.897575
Si Si7 0.747560 0.880087 0.222974
Si Si8 0.609785 0.326124 0.608035
O O1 0.887140 0.202619 0.180175
O O2 0.679621 0.183549 0.117338
O O3 0.743053 0.311368 0.154404
O O4 0.829394 0.245889 0.000000
O O5 0.806704 0.634441 0.500000
O O6 0.949889 0.632139 0.354433
O O7 0.731535 0.642888 0.321117
O O8 0.841922 0.747815 0.396890
O O9 0.588212 0.066126 0.813850
O O10 0.384117 0.102765 0.764276
O O11 0.500000 0.000000 0.673598
O O12 0.581556 0.566097 0.757846
O O13 0.515683 0.675000 0.653904
O O14 0.210851 0.935763 0.906760
O O15 0.183528 0.056554 0.825250
O O16 0.000000 0.000000 0.903024
O O17 0.100490 0.414320 0.000000
O O18 0.801749 0.870231 0.328286
O O19 0.603650 0.358589 0.500000
#
# Coordination Sequence:
#
# PCOD8227503 Si02
#       8
#     8   8   8   8   8   8   8   8
#     4  10  22  41  68  98 128 165 215 269 330 387
#     4  11  23  40  66  96 125 168 219 269 329 391
#     4  12  23  42  65  90 132 174 212 270 327 388
#     4  11  20  44  68  92 133 172 217 269 330 391
#     4  11  22  41  68  90 129 173 213 266 332 385
#     4  10  22  44  67  92 128 175 219 265 328 399
#     4  12  23  41  64  96 133 166 214 279 325 387
#     4  11  24  41  67  99 130 175 222 276 334 388
#
# _framework density 20.910505000000001
#
# number of rings (size 3 to 8) (size 9 to 14) (size 15 to 20)
#    0.000    1.000    6.250    1.125    0.000    2.250 
#    0.000    5.000    0.000    0.000    0.000    0.000 
#    0.000    0.000    0.000    0.000    0.000    0.000 
#
# Total GULP energy -793298.560616 kJ/mol
# GULP energy per Si atom -12395.290010 kJ/mol
# Density = 2.086291 g / cm^3
# Si number density = 20.910505 Si / 1000 Ang^3
#
#
#
# Elastic Constant Matrix: (Units=GPa)
#
#
# Indices 1 2 3 4 5 6 
#
# 1 103.3018 13.7749 25.4333 0.0000 0.0000 0.0000
# 2 13.7749 100.3533 21.8584 0.0000 0.0000 0.0000
# 3 25.4333 21.8584 118.0633 0.0000 0.0000 0.0000
# 4 0.0000 0.0000 0.0000 -1.7570 0.0000 0.0000
# 5 0.0000 0.0000 0.0000 0.0000 10.7286 0.0000
# 6 0.0000 0.0000 0.0000 0.0000 0.0000 23.5293
#
#
#
# Elastic Compliance Matrix: (Units=1/GPa)
#
#
# Indices 1 2 3 4 5 6 
#
# 1 0.010313 -0.000971 -0.002042 0.000000 0.000000 0.000000
# 2 -0.000971 0.010475 -0.001730 0.000000 0.000000 0.000000
# 3 -0.002042 -0.001730 0.009230 0.000000 0.000000 0.000000
# 4 0.000000 0.000000 0.000000 -0.569146 0.000000 0.000000
# 5 0.000000 0.000000 0.000000 0.000000 0.093209 0.000000
# 6 0.000000 0.000000 0.000000 0.000000 0.000000 0.042500
#
#
# Mechanical properties :
#
#
# Convention : Reuss Voigt Hill
#
# Bulk Modulus (GPa) = 48.70438 49.31684 49.01061
# Shear Modulus (GPa) = -12.91689 23.87697 5.48004
#
# Velocity S-wave (km/s) = -2.48810 3.38281 1.62062
# Velocity P-wave (km/s) = 3.88435 6.23649 5.19529
#
# Compressibility (1/GPa) = 0.02053203
#
# Stress axis : x y z
#
# Youngs Moduli (GPa) = 96.96944 95.46616 108.33992
#
# Poissons Ratio (x) = 0.09268 0.22121
# Poissons Ratio (y) = 0.09414 0.18745
# Poissons Ratio (z) = 0.19799 0.16518
#
# Static dielectric constant tensor:
#      x y z
#    x 3.739480 0.000000 0.000000 
#    y 0.000000 3.932280 0.000000 
#    z 0.000000 0.000000 4.158620 
# 
# 
# High freq. dielectric constant tensor:
#      x y z
#    x 1.815910 0.000000 0.000000 
#    y 0.000000 1.827200 0.000000 
#    z 0.000000 0.000000 1.817950 
# 
# From -- ./inp_files/18577.got.cif
#   From: 2010.03.12/outbox.cif.g09.slc.cpg/sg55_10_cif.got.tgz:18577.got - 2010.04.16 15:19:21.
