data_PCOD8227693
_publ_section_title
;
Structure prediction by ZEFSAII (Michael W. Deem and Ramdas Pophale) SiO2 
 PCOD8227693
Probable space group: P B A M
;
_chemical_formula_sum "Si O2"
_cell_formula_units_Z 64
_cell_length_a 14.442753
_cell_length_b 24.225463
_cell_length_c 8.848575
_cell_angle_alpha 90.000000
_cell_angle_beta 90.000000
_cell_angle_gamma 90.000000
_cell_volume 3095.960467
_symmetry_space_group_name_H-M "P B A M"
_symmetry_group_IT_number 55
_symmetry_cell_setting 'orthorhombic'
loop_
_space_group_symop_operation_xyz
x,y,z
-x,-y,z
1/2+x,1/2-y,-z
1/2-x,1/2+y,-z
-x,-y,-z
x,y,-z
1/2-x,1/2+y,z
1/2+x,1/2-y,z
loop_
_atom_site_type_symbol
_atom_site_label
_atom_site_fract_x
_atom_site_fract_y
_atom_site_fract_z
Si Si1 0.950888 0.443481 0.178921
Si Si2 0.448997 0.366122 0.329712
Si Si3 0.765171 0.471103 0.323547
Si Si4 0.821407 0.699696 0.176058
Si Si5 0.000336 0.331992 0.676652
Si Si6 0.249842 0.904701 0.668821
Si Si7 0.431225 0.548721 0.822750
Si Si8 0.147793 0.755470 0.676339
O O1 0.846834 0.437959 0.241785
O O2 0.000000 0.500000 0.234036
O O3 0.007317 0.391308 0.243137
O O4 0.949170 0.439841 0.000000
O O5 0.489094 0.362435 0.500000
O O6 0.361065 0.406854 0.325190
O O7 0.525868 0.391773 0.219612
O O8 0.418448 0.305736 0.270211
O O9 0.766635 0.456983 0.500000
O O10 0.786871 0.535088 0.291142
O O11 0.666595 0.454422 0.258824
O O12 0.919219 0.708143 0.259940
O O13 0.788446 0.637345 0.207954
O O14 0.745485 0.743358 0.236406
O O15 0.835311 0.709212 0.000000
O O16 0.014772 0.340598 0.500000
O O17 0.902388 0.302312 0.710802
O O18 0.281938 0.886332 0.500000
O O19 0.500000 0.500000 0.767405
O O20 0.414340 0.544793 0.000000
O O21 0.169337 0.763885 0.500000
#
# Coordination Sequence:
#
# PCOD8227693 Si02
#       8
#     8   8   8   8   8   8   8   8
#     4  11  25  44  65  93 128 161 198 255 320 378
#     4   9  17  34  57  82 113 153 203 253 297 351
#     4  11  22  37  59  86 118 163 209 249 300 364
#     4  11  22  36  61  93 123 157 195 247 309 364
#     4  11  23  43  69  93 122 163 210 257 305 368
#     4   9  18  33  56  84 116 155 204 252 290 350
#     4  11  22  34  52  84 126 166 203 251 310 369
#     4   9  21  42  65  90 118 155 204 256 302 355
#
# _framework density 20.672098999999999
#
# number of rings (size 3 to 8) (size 9 to 14) (size 15 to 20)
#    0.000    1.750    1.250    4.125    0.000    7.500 
#    2.250    0.000    0.000    0.000    0.000    0.000 
#    0.000    0.000    0.000    0.000    0.000    0.000 
#
# Total GULP energy -793713.077569 kJ/mol
# GULP energy per Si atom -12401.766837 kJ/mol
# Density = 2.062505 g / cm^3
# Si number density = 20.672099 Si / 1000 Ang^3
#
#
#
# Elastic Constant Matrix: (Units=GPa)
#
#
# Indices 1 2 3 4 5 6 
#
# 1 112.4817 30.7062 45.9607 0.0000 0.0000 0.0000
# 2 30.7062 71.4407 31.2054 0.0000 0.0000 0.0000
# 3 45.9607 31.2054 94.0977 0.0000 0.0000 0.0000
# 4 0.0000 0.0000 0.0000 24.5121 0.0000 0.0000
# 5 0.0000 0.0000 0.0000 0.0000 34.7854 0.0000
# 6 0.0000 0.0000 0.0000 0.0000 0.0000 30.7619
#
#
#
# Elastic Compliance Matrix: (Units=1/GPa)
#
#
# Indices 1 2 3 4 5 6 
#
# 1 0.011612 -0.002939 -0.004697 0.000000 0.000000 0.000000
# 2 -0.002939 0.017113 -0.004239 0.000000 0.000000 0.000000
# 3 -0.004697 -0.004239 0.014327 0.000000 0.000000 0.000000
# 4 0.000000 0.000000 0.000000 0.040796 0.000000 0.000000
# 5 0.000000 0.000000 0.000000 0.000000 0.028748 0.000000
# 6 0.000000 0.000000 0.000000 0.000000 0.000000 0.032508
#
#
# Mechanical properties :
#
#
# Convention : Reuss Voigt Hill
#
# Bulk Modulus (GPa) = 51.81160 54.86274 53.33717
# Shear Modulus (GPa) = 28.52441 29.35506 28.93973
#
# Velocity S-wave (km/s) = 3.71866 3.77242 3.74564
# Velocity P-wave (km/s) = 6.59969 6.75070 6.67562
#
# Compressibility (1/GPa) = 0.01930070
#
# Stress axis : x y z
#
# Youngs Moduli (GPa) = 86.11829 58.43586 69.79689
#
# Poissons Ratio (x) = 0.17176 0.32783
# Poissons Ratio (y) = 0.25313 0.29590
# Poissons Ratio (z) = 0.40449 0.24773
#
# Static dielectric constant tensor:
#      x y z
#    x 3.765560 0.000000 0.000000 
#    y 0.000000 3.602480 0.000000 
#    z 0.000000 0.000000 3.585080 
# 
# 
# High freq. dielectric constant tensor:
#      x y z
#    x 1.813870 0.000000 0.000000 
#    y 0.000000 1.793430 0.000000 
#    z 0.000000 0.000000 1.803990 
# 
# From -- ./inp_files/6532.got.cif
#   From: 2010.03.12/outbox.cif.g09.slc.cpg/sg55_4_cif.got.tgz:6532.got - 2010.04.16 15:19:21.
