data_PCOD8227387
_publ_section_title
;
Structure prediction by ZEFSAII (Michael W. Deem and Ramdas Pophale) SiO2 
 PCOD8227387
Probable space group: P B A M
;
_chemical_formula_sum "Si O2"
_cell_formula_units_Z 48
_cell_length_a 13.908274
_cell_length_b 20.156292
_cell_length_c 8.797980
_cell_angle_alpha 90.000000
_cell_angle_beta 90.000000
_cell_angle_gamma 90.000000
_cell_volume 2466.418956
_symmetry_space_group_name_H-M "P B A M"
_symmetry_group_IT_number 55
_symmetry_cell_setting 'orthorhombic'
loop_
_space_group_symop_operation_xyz
x,y,z
-x,-y,z
1/2+x,1/2-y,-z
1/2-x,1/2+y,-z
-x,-y,-z
x,y,-z
1/2-x,1/2+y,z
1/2+x,1/2-y,z
loop_
_atom_site_type_symbol
_atom_site_label
_atom_site_fract_x
_atom_site_fract_y
_atom_site_fract_z
Si Si1 0.055558 0.315970 0.173174
Si Si2 0.749164 0.890162 0.820814
Si Si3 0.762830 0.237887 0.174949
Si Si4 0.442840 0.563695 0.323232
Si Si5 0.049983 0.801698 0.675185
Si Si6 0.447897 0.066868 0.321912
O O1 0.168318 0.306040 0.194677
O O2 0.004734 0.247644 0.213980
O O3 0.019290 0.373278 0.283317
O O4 0.029014 0.334251 0.000000
O O5 0.752424 0.813388 0.767064
O O6 0.841427 0.929156 0.760132
O O7 0.653611 0.925766 0.761296
O O8 0.750197 0.894639 0.000000
O O9 0.838119 0.201195 0.283190
O O10 0.797402 0.238684 0.000000
O O11 0.500000 0.500000 0.259711
O O12 0.419600 0.555258 0.500000
O O13 0.511541 0.625498 0.290319
O O14 0.034279 0.781567 0.500000
O O15 0.427507 0.066030 0.500000
O O16 0.500000 0.000000 0.266683
#
# Coordination Sequence:
#
# PCOD8227387 Si02
#       6
#     8   8   8   8   8   8
#     4  11  22  39  62  89 122 157 201 251 300 358
#     4  11  22  39  64  91 121 162 204 248 308 366
#     4  10  22  38  60  90 124 160 199 253 308 356
#     4  10  23  42  62  89 127 166 204 251 305 361
#     4  11  22  36  61  91 119 158 205 250 299 358
#     4  11  25  43  63  90 125 162 202 251 304 361
#
# _framework density 19.461413
#
# number of rings (size 3 to 8) (size 9 to 14) (size 15 to 20)
#    0.000    1.333    3.333    2.000    0.000    5.667 
#    0.000    5.000    0.000    0.000    0.000    0.000 
#    0.000    0.000    0.000    0.000    0.000    0.000 
#
# Total GULP energy -595441.300424 kJ/mol
# GULP energy per Si atom -12405.027092 kJ/mol
# Density = 1.941712 g / cm^3
# Si number density = 19.461413 Si / 1000 Ang^3
#
#
#
# Elastic Constant Matrix: (Units=GPa)
#
#
# Indices 1 2 3 4 5 6 
#
# 1 133.2592 60.8464 48.9728 0.0000 0.0000 0.0000
# 2 60.8464 117.9063 35.3701 0.0000 0.0000 0.0000
# 3 48.9728 35.3701 46.0479 0.0000 0.0000 0.0000
# 4 0.0000 0.0000 0.0000 8.7086 0.0000 0.0000
# 5 0.0000 0.0000 0.0000 0.0000 31.3916 0.0000
# 6 0.0000 0.0000 0.0000 0.0000 0.0000 31.4789
#
#
#
# Elastic Compliance Matrix: (Units=1/GPa)
#
#
# Indices 1 2 3 4 5 6 
#
# 1 0.013293 -0.003403 -0.011523 0.000000 0.000000 0.000000
# 2 -0.003403 0.011892 -0.005515 0.000000 0.000000 0.000000
# 3 -0.011523 -0.005515 0.038208 0.000000 0.000000 0.000000
# 4 0.000000 0.000000 0.000000 0.114829 0.000000 0.000000
# 5 0.000000 0.000000 0.000000 0.000000 0.031856 0.000000
# 6 0.000000 0.000000 0.000000 0.000000 0.000000 0.031767
#
#
# Mechanical properties :
#
#
# Convention : Reuss Voigt Hill
#
# Bulk Modulus (GPa) = 44.42506 65.28799 54.85653
# Shear Modulus (GPa) = 17.22770 24.45078 20.83924
#
# Velocity S-wave (km/s) = 2.97850 3.54838 3.27585
# Velocity P-wave (km/s) = 5.89113 7.09988 6.52356
#
# Compressibility (1/GPa) = 0.02250982
#
# Stress axis : x y z
#
# Youngs Moduli (GPa) = 75.22888 84.09049 26.17260
#
# Poissons Ratio (x) = 0.28616 0.30159
# Poissons Ratio (y) = 0.25601 0.14435
# Poissons Ratio (z) = 0.86687 0.46378
#
# Static dielectric constant tensor:
#      x y z
#    x 3.519390 0.000000 0.000000 
#    y 0.000000 5.113630 0.000000 
#    z 0.000000 0.000000 3.581370 
# 
# 
# High freq. dielectric constant tensor:
#      x y z
#    x 1.772660 0.000000 0.000000 
#    y 0.000000 1.754850 0.000000 
#    z 0.000000 0.000000 1.762410 
# 
# From -- ./inp_files/5809.got.cif
#   From: 2010.03.12/outbox.cif.g09.slc.cpg/sg55_3_cif.got.tgz:5809.got - 2010.04.16 15:19:21.
