data_PCOD8227851
_publ_section_title
;
Structure prediction by ZEFSAII (Michael W. Deem and Ramdas Pophale) SiO2 
 PCOD8227851
Probable space group: P C C N
;
_chemical_formula_sum "Si O2"
_cell_formula_units_Z 64
_cell_length_a 15.450123
_cell_length_b 36.236023
_cell_length_c 5.303383
_cell_angle_alpha 90.000000
_cell_angle_beta 90.000000
_cell_angle_gamma 90.000000
_cell_volume 2969.104342
_symmetry_space_group_name_H-M "P C C N"
_symmetry_group_IT_number 56
_symmetry_cell_setting 'orthorhombic'
loop_
_space_group_symop_operation_xyz
x,y,z
1/2-x,1/2-y,z
1/2+x,-y,1/2-z
-x,1/2+y,1/2-z
-x,-y,-z
1/2+x,1/2+y,-z
1/2-x,y,1/2+z
x,1/2-y,1/2+z
loop_
_atom_site_type_symbol
_atom_site_label
_atom_site_fract_x
_atom_site_fract_y
_atom_site_fract_z
Si Si1 0.196156 0.337472 0.488162
Si Si2 0.851699 0.385614 0.004639
Si Si3 0.350643 0.046076 0.991830
Si Si4 0.340558 0.645200 0.995331
Si Si5 0.694145 0.034506 0.983989
Si Si6 0.570563 0.728239 0.994013
Si Si7 0.156796 0.422878 0.491899
Si Si8 0.366694 0.771750 0.494514
O O1 0.243235 0.328859 0.225787
O O2 0.112329 0.311951 0.504936
O O3 0.165221 0.379293 0.497870
O O4 0.893913 0.366980 0.254114
O O5 0.749274 0.376954 0.002182
O O6 0.866982 0.429579 0.006840
O O7 0.893946 0.367054 0.754806
O O8 0.394401 0.064298 0.240152
O O9 0.249411 0.056854 0.989491
O O10 0.394660 0.063377 0.741030
O O11 0.364251 0.002074 0.993375
O O12 0.320662 0.688625 0.994936
O O13 0.762909 0.034834 0.209335
O O14 0.600575 0.749647 0.742588
O O15 0.468668 0.721736 0.994656
O O16 0.336571 0.749952 0.744330
#
# Coordination Sequence:
#
# PCOD8227851 Si02
#       8
#     8   8   8   8   8   8   8   8
#     4  12  21  32  53  74 103 131 149 196 254 294
#     4  10  19  30  43  75 107 123 156 199 242 293
#     4  10  16  25  41  61  96 134 161 184 218 287
#     4  10  18  32  50  68  98 130 152 199 251 280
#     4  12  16  25  41  63  99 138 158 185 233 279
#     4  10  23  40  54  73  96 123 165 206 234 291
#     4  10  16  27  38  64  94 126 152 190 226 280
#     4  10  21  39  57  70  90 125 168 204 239 282
#
# _framework density 21.555323000000001
#
# number of rings (size 3 to 8) (size 9 to 14) (size 15 to 20)
#    0.000    1.500    7.500    1.500    0.000    1.500 
#    0.000    7.500    0.000    0.000    0.000    0.000 
#    0.000   11.000    0.000    0.000    0.000    0.000 
#
# Total GULP energy -793360.925754 kJ/mol
# GULP energy per Si atom -12396.264465 kJ/mol
# Density = 2.150626 g / cm^3
# Si number density = 21.555323 Si / 1000 Ang^3
#
#
#
# Elastic Constant Matrix: (Units=GPa)
#
#
# Indices 1 2 3 4 5 6 
#
# 1 12.3757 26.2409 5.3822 0.0000 0.0000 0.0000
# 2 26.2409 143.9297 45.3728 0.0000 0.0000 0.0000
# 3 5.3822 45.3728 208.4040 0.0000 0.0000 0.0000
# 4 0.0000 0.0000 0.0000 34.5067 0.0000 0.0000
# 5 0.0000 0.0000 0.0000 0.0000 20.7027 0.0000
# 6 0.0000 0.0000 0.0000 0.0000 0.0000 2.5842
#
#
#
# Elastic Compliance Matrix: (Units=1/GPa)
#
#
# Indices 1 2 3 4 5 6 
#
# 1 0.132476 -0.024775 0.001972 0.000000 0.000000 0.000000
# 2 -0.024775 0.012093 -0.001993 0.000000 0.000000 0.000000
# 3 0.001972 -0.001993 0.005181 0.000000 0.000000 0.000000
# 4 0.000000 0.000000 0.000000 0.028980 0.000000 0.000000
# 5 0.000000 0.000000 0.000000 0.000000 0.048303 0.000000
# 6 0.000000 0.000000 0.000000 0.000000 0.000000 0.386973
#
#
# Mechanical properties :
#
#
# Convention : Reuss Voigt Hill
#
# Bulk Modulus (GPa) = 9.98398 57.63349 33.80873
# Shear Modulus (GPa) = 7.17377 30.73960 18.95669
#
# Velocity S-wave (km/s) = 1.82628 3.78044 2.96876
# Velocity P-wave (km/s) = 3.01478 6.77135 5.24119
#
# Compressibility (1/GPa) = 0.10016047
#
# Stress axis : x y z
#
# Youngs Moduli (GPa) = 7.54851 82.69270 193.00032
#
# Poissons Ratio (x) = 2.04868 -0.38069
# Poissons Ratio (y) = 0.18701 0.38465
# Poissons Ratio (z) = -0.01489 0.16481
#
# Static dielectric constant tensor:
#      x y z
#    x 3.008650 0.000000 0.000000 
#    y 0.000000 4.044580 0.000000 
#    z 0.000000 0.000000 6.885410 
# 
# 
# High freq. dielectric constant tensor:
#      x y z
#    x 1.755540 0.000000 0.000000 
#    y 0.000000 1.864240 0.000000 
#    z 0.000000 0.000000 1.890070 
# 
# From -- ./inp_files/775.got.cif
#   From: 2010.03.12/outbox.cif.g09.slc.cpg/sg56_1_cif.got.tgz:775.got - 2010.04.16 15:33:40.
