data_PCOD8227836
_publ_section_title
;
Structure prediction by ZEFSAII (Michael W. Deem and Ramdas Pophale) SiO2 
 PCOD8227836
Probable space group: P B A M
;
_chemical_formula_sum "Si O2"
_cell_formula_units_Z 32
_cell_length_a 15.649651
_cell_length_b 13.118227
_cell_length_c 7.539943
_cell_angle_alpha 90.000000
_cell_angle_beta 90.000000
_cell_angle_gamma 90.000000
_cell_volume 1547.917682
_symmetry_space_group_name_H-M "P B A M"
_symmetry_group_IT_number 55
_symmetry_cell_setting 'orthorhombic'
loop_
_space_group_symop_operation_xyz
x,y,z
-x,-y,z
1/2+x,1/2-y,-z
1/2-x,1/2+y,-z
-x,-y,-z
x,y,-z
1/2-x,1/2+y,z
1/2+x,1/2-y,z
loop_
_atom_site_type_symbol
_atom_site_label
_atom_site_fract_x
_atom_site_fract_y
_atom_site_fract_z
Si Si1 0.906969 0.515052 0.793860
Si Si2 0.736663 0.423257 0.793285
Si Si3 0.509878 0.336707 0.500000
Si Si4 0.634765 0.523208 0.500000
Si Si5 0.614114 0.242964 0.795719
O O1 0.837135 0.429412 0.736862
O O2 0.866142 0.625544 0.749796
O O3 0.000000 0.500000 0.699163
O O4 0.923102 0.503919 0.000000
O O5 0.689329 0.509677 0.679070
O O6 0.698373 0.310926 0.751017
O O7 0.724831 0.451710 0.000000
O O8 0.561779 0.439928 0.500000
O O9 0.409076 0.364760 0.500000
O O10 0.532990 0.274768 0.677777
O O11 0.586985 0.257591 0.000000
#
# Coordination Sequence:
#
# PCOD8227836 Si02
#       5
#     8   8   4   4   8
#     4   9  18  35  57  81 111 145 182 226 271 322
#     4   9  18  34  55  78 107 144 182 222 270 323
#     4   9  18  33  52  77 111 141 175 224 268 322
#     4   9  18  33  52  77 109 141 175 224 274 317
#     4   9  18  34  55  78 108 145 181 220 270 323
#
# _framework density 20.672934000000001
#
# number of rings (size 3 to 8) (size 9 to 14) (size 15 to 20)
#    0.000    3.000    0.000    0.000    0.000    2.000 
#    4.500    7.500    0.000    0.000    0.000    0.000 
#    0.000    0.000    0.000    0.000    0.000    0.000 
#
# Total GULP energy -396438.989904 kJ/mol
# GULP energy per Si atom -12388.718435 kJ/mol
# Density = 2.062588 g / cm^3
# Si number density = 20.672934 Si / 1000 Ang^3
#
#
#
# Elastic Constant Matrix: (Units=GPa)
#
#
# Indices 1 2 3 4 5 6 
#
# 1 146.8300 68.0408 30.8258 0.0000 0.0000 0.0000
# 2 68.0408 79.1459 26.0437 0.0000 0.0000 0.0000
# 3 30.8258 26.0437 75.7246 0.0000 0.0000 0.0000
# 4 0.0000 0.0000 0.0000 33.0727 0.0000 0.0000
# 5 0.0000 0.0000 0.0000 0.0000 63.8981 0.0000
# 6 0.0000 0.0000 0.0000 0.0000 0.0000 29.8194
#
#
#
# Elastic Compliance Matrix: (Units=1/GPa)
#
#
# Indices 1 2 3 4 5 6 
#
# 1 0.011458 -0.009377 -0.001439 0.000000 0.000000 0.000000
# 2 -0.009377 0.021921 -0.003722 0.000000 0.000000 0.000000
# 3 -0.001439 -0.003722 0.015072 0.000000 0.000000 0.000000
# 4 0.000000 0.000000 0.000000 0.030236 0.000000 0.000000
# 5 0.000000 0.000000 0.000000 0.000000 0.015650 0.000000
# 6 0.000000 0.000000 0.000000 0.000000 0.000000 0.033535
#
#
# Mechanical properties :
#
#
# Convention : Reuss Voigt Hill
#
# Bulk Modulus (GPa) = 51.61502 61.28012 56.44757
# Shear Modulus (GPa) = 30.59865 37.14406 33.87136
#
# Velocity S-wave (km/s) = 3.85142 4.24341 4.05216
# Velocity P-wave (km/s) = 6.69325 7.32910 7.01838
#
# Compressibility (1/GPa) = 0.01937421
#
# Stress axis : x y z
#
# Youngs Moduli (GPa) = 87.27636 45.61926 66.34903
#
# Poissons Ratio (x) = 0.42775 0.09550
# Poissons Ratio (y) = 0.81835 0.24696
# Poissons Ratio (z) = 0.12563 0.16980
#
# Static dielectric constant tensor:
#      x y z
#    x 4.052400 0.000000 0.000000 
#    y 0.000000 3.721810 0.000000 
#    z 0.000000 0.000000 3.723060 
# 
# 
# High freq. dielectric constant tensor:
#      x y z
#    x 1.800770 0.000000 0.000000 
#    y 0.000000 1.789720 0.000000 
#    z 0.000000 0.000000 1.804930 
# 
# From -- ./inp_files/3358.got.cif
#   From: 2010.03.12/outbox.cif.g09.slc.cpg/sg55_2_cif.got.tgz:3358.got - 2010.04.16 15:19:21.
