data_PCOD8227153
_publ_section_title
;
Structure prediction by ZEFSAII (Michael W. Deem and Ramdas Pophale) SiO2 
 PCOD8227153
Probable space group: P B A M
;
_chemical_formula_sum "Si O2"
_cell_formula_units_Z 48
_cell_length_a 7.524420
_cell_length_b 28.509986
_cell_length_c 10.992879
_cell_angle_alpha 90.000000
_cell_angle_beta 90.000000
_cell_angle_gamma 90.000000
_cell_volume 2358.204593
_symmetry_space_group_name_H-M "P B A M"
_symmetry_group_IT_number 55
_symmetry_cell_setting 'orthorhombic'
loop_
_space_group_symop_operation_xyz
x,y,z
-x,-y,z
1/2+x,1/2-y,-z
1/2-x,1/2+y,-z
-x,-y,-z
x,y,-z
1/2-x,1/2+y,z
1/2+x,1/2-y,z
loop_
_atom_site_type_symbol
_atom_site_label
_atom_site_fract_x
_atom_site_fract_y
_atom_site_fract_z
Si Si1 0.632246 0.108514 0.357193
Si Si2 0.286610 0.673607 0.000000
Si Si3 0.469320 0.447294 0.640197
Si Si4 0.194278 0.301496 0.250302
Si Si5 0.448602 0.767465 0.000000
Si Si6 0.164386 0.715084 0.365094
Si Si7 0.246554 0.123764 0.746029
O O1 0.599544 0.120149 0.500000
O O2 0.758960 0.146157 0.282936
O O3 0.441567 0.102591 0.288954
O O4 0.757945 0.062793 0.344819
O O5 0.457475 0.709485 0.000000
O O6 0.266079 0.638878 0.113172
O O7 0.152980 0.717826 0.000000
O O8 0.500000 0.500000 0.686013
O O9 0.527684 0.441133 0.500000
O O10 0.595483 0.413914 0.719724
O O11 0.330979 0.260357 0.278589
O O12 0.035819 0.301315 0.350210
O O13 0.135078 0.294342 0.113830
O O14 0.213676 0.730609 0.500000
O O15 0.292652 0.672060 0.327621
#
# Coordination Sequence:
#
# PCOD8227153 Si02
#       7
#     8   4   8   8   4   8   8
#     4  10  21  38  63  95 127 161 205 260 323 385
#     4  12  24  40  59  88 127 174 228 257 309 368
#     4  10  23  43  69  98 123 157 210 267 331 397
#     4  11  21  34  53  82 119 162 207 245 302 364
#     4  12  20  40  56  83 126 172 225 253 284 368
#     4  11  21  33  51  81 119 157 198 249 308 370
#     4  11  22  41  61  90 126 170 207 263 318 377
#
# _framework density 20.354467
#
# number of rings (size 3 to 8) (size 9 to 14) (size 15 to 20)
#    0.000    1.167    5.000    4.000    2.333    2.000 
#    0.000    2.917    0.000    1.000    0.000    0.000 
#    0.000    0.000    0.000    0.000    0.000    0.000 
#
# Total GULP energy -594673.560622 kJ/mol
# GULP energy per Si atom -12389.032513 kJ/mol
# Density = 2.030814 g / cm^3
# Si number density = 20.354467 Si / 1000 Ang^3
#
#
#
# Elastic Constant Matrix: (Units=GPa)
#
#
# Indices 1 2 3 4 5 6 
#
# 1 69.5497 40.8591 35.0123 0.0000 0.0000 0.0000
# 2 40.8591 88.6844 33.9087 0.0000 0.0000 0.0000
# 3 35.0123 33.9087 111.5582 0.0000 0.0000 0.0000
# 4 0.0000 0.0000 0.0000 31.1704 0.0000 0.0000
# 5 0.0000 0.0000 0.0000 0.0000 21.4354 0.0000
# 6 0.0000 0.0000 0.0000 0.0000 0.0000 33.2484
#
#
#
# Elastic Compliance Matrix: (Units=1/GPa)
#
#
# Indices 1 2 3 4 5 6 
#
# 1 0.021317 -0.008218 -0.004192 0.000000 0.000000 0.000000
# 2 -0.008218 0.015927 -0.002262 0.000000 0.000000 0.000000
# 3 -0.004192 -0.002262 0.010967 0.000000 0.000000 0.000000
# 4 0.000000 0.000000 0.000000 0.032082 0.000000 0.000000
# 5 0.000000 0.000000 0.000000 0.000000 0.046652 0.000000
# 6 0.000000 0.000000 0.000000 0.000000 0.000000 0.030077
#
#
# Mechanical properties :
#
#
# Convention : Reuss Voigt Hill
#
# Bulk Modulus (GPa) = 53.00443 54.37248 53.68846
# Shear Modulus (GPa) = 25.95320 27.83832 26.89576
#
# Velocity S-wave (km/s) = 3.57467 3.70222 3.63901
# Velocity P-wave (km/s) = 6.56772 6.71164 6.64007
#
# Compressibility (1/GPa) = 0.01886635
#
# Stress axis : x y z
#
# Youngs Moduli (GPa) = 46.91168 62.78609 91.18133
#
# Poissons Ratio (x) = 0.51599 0.38225
# Poissons Ratio (y) = 0.38553 0.20624
# Poissons Ratio (z) = 0.19666 0.14201
#
# Static dielectric constant tensor:
#      x y z
#    x 3.699930 0.000000 0.000000 
#    y 0.000000 3.851160 0.000000 
#    z 0.000000 0.000000 3.643330 
# 
# 
# High freq. dielectric constant tensor:
#      x y z
#    x 1.794160 0.000000 0.000000 
#    y 0.000000 1.778120 0.000000 
#    z 0.000000 0.000000 1.796210 
# 
# From -- ./inp_files/12326.got.cif
#   From: 2010.03.12/outbox.cif.g09.slc.cpg/sg55_7_cif.got.tgz:12326.got - 2010.04.16 15:19:21.
