data_PCOD8227297
_publ_section_title
;
Structure prediction by ZEFSAII (Michael W. Deem and Ramdas Pophale) SiO2 
 PCOD8227297
Probable space group: P B A M
;
_chemical_formula_sum "Si O2"
_cell_formula_units_Z 32
_cell_length_a 10.422663
_cell_length_b 19.264498
_cell_length_c 7.436272
_cell_angle_alpha 90.000000
_cell_angle_beta 90.000000
_cell_angle_gamma 90.000000
_cell_volume 1493.109501
_symmetry_space_group_name_H-M "P B A M"
_symmetry_group_IT_number 55
_symmetry_cell_setting 'orthorhombic'
loop_
_space_group_symop_operation_xyz
x,y,z
-x,-y,z
1/2+x,1/2-y,-z
1/2-x,1/2+y,-z
-x,-y,-z
x,y,-z
1/2-x,1/2+y,z
1/2+x,1/2-y,z
loop_
_atom_site_type_symbol
_atom_site_label
_atom_site_fract_x
_atom_site_fract_y
_atom_site_fract_z
Si Si1 0.965292 0.179422 0.000000
Si Si2 0.453989 0.577969 0.292407
Si Si3 0.406485 0.898422 0.287647
Si Si4 0.676170 0.952574 0.288931
Si Si5 0.318527 0.792771 0.000000
O O1 0.962209 0.130981 0.176744
O O2 0.093877 0.224843 0.000000
O O3 0.834147 0.224817 0.000000
O O4 0.500000 0.500000 0.262694
O O5 0.467384 0.600255 0.500000
O O6 0.307240 0.582129 0.220392
O O7 0.385621 0.886174 0.500000
O O8 0.557595 0.903286 0.237716
O O9 0.340629 0.969117 0.215236
O O10 0.347745 0.834501 0.181619
O O11 0.682639 0.962651 0.500000
#
# Coordination Sequence:
#
# PCOD8227297 Si02
#       5
#     4   8   8   8   4
#     4  12  29  44  60  91 127 165 215 251 296 372
#     4  10  21  40  68  95 123 157 203 263 320 360
#     4   9  19  38  63  92 127 157 198 253 304 364
#     4   8  16  33  64 100 121 151 201 253 310 363
#     4  12  28  43  60  86 121 173 211 240 300 369
#
# _framework density 21.431782999999999
#
# number of rings (size 3 to 8) (size 9 to 14) (size 15 to 20)
#    0.000    2.250    0.000    3.375    3.500    7.000 
#    0.000    0.000    0.000    0.000    0.000    0.000 
#    0.000    0.000    0.000    0.000    0.000    0.000 
#
# Total GULP energy -396711.819505 kJ/mol
# GULP energy per Si atom -12397.244360 kJ/mol
# Density = 2.138300 g / cm^3
# Si number density = 21.431783 Si / 1000 Ang^3
#
#
#
# Elastic Constant Matrix: (Units=GPa)
#
#
# Indices 1 2 3 4 5 6 
#
# 1 135.6603 34.6670 32.6927 0.0000 0.0000 0.0000
# 2 34.6670 69.1241 40.8721 0.0000 0.0000 0.0000
# 3 32.6927 40.8721 99.3378 0.0000 0.0000 0.0000
# 4 0.0000 0.0000 0.0000 14.5064 0.0000 0.0000
# 5 0.0000 0.0000 0.0000 0.0000 19.8016 0.0000
# 6 0.0000 0.0000 0.0000 0.0000 0.0000 34.7216
#
#
#
# Elastic Compliance Matrix: (Units=1/GPa)
#
#
# Indices 1 2 3 4 5 6 
#
# 1 0.008599 -0.003488 -0.001395 0.000000 0.000000 0.000000
# 2 -0.003488 0.020532 -0.007300 0.000000 0.000000 0.000000
# 3 -0.001395 -0.007300 0.013529 0.000000 0.000000 0.000000
# 4 0.000000 0.000000 0.000000 0.068935 0.000000 0.000000
# 5 0.000000 0.000000 0.000000 0.000000 0.050501 0.000000
# 6 0.000000 0.000000 0.000000 0.000000 0.000000 0.028800
#
#
# Mechanical properties :
#
#
# Convention : Reuss Voigt Hill
#
# Bulk Modulus (GPa) = 54.65965 57.84287 56.25126
# Shear Modulus (GPa) = 22.58757 26.86529 24.72643
#
# Velocity S-wave (km/s) = 3.24995 3.54436 3.40034
# Velocity P-wave (km/s) = 6.29621 6.61799 6.45911
#
# Compressibility (1/GPa) = 0.01829503
#
# Stress axis : x y z
#
# Youngs Moduli (GPa) = 116.29596 48.70376 73.91333
#
# Poissons Ratio (x) = 0.16986 0.10310
# Poissons Ratio (y) = 0.40560 0.53958
# Poissons Ratio (z) = 0.16223 0.35554
#
# Static dielectric constant tensor:
#      x y z
#    x 5.125350 0.000000 0.000000 
#    y 0.000000 3.504900 0.000000 
#    z 0.000000 0.000000 3.708340 
# 
# 
# High freq. dielectric constant tensor:
#      x y z
#    x 1.858500 0.000000 0.000000 
#    y 0.000000 1.806020 0.000000 
#    z 0.000000 0.000000 1.840200 
# 
# From -- ./inp_files/3537.got.cif
#   From: 2010.03.12/outbox.cif.g09.slc.cpg/sg55_2_cif.got.tgz:3537.got - 2010.04.16 15:19:21.
