data_PCOD8227626
_publ_section_title
;
Structure prediction by ZEFSAII (Michael W. Deem and Ramdas Pophale) SiO2 
 PCOD8227626
Probable space group: P B A M
;
_chemical_formula_sum "Si O2"
_cell_formula_units_Z 48
_cell_length_a 26.198975
_cell_length_b 5.074652
_cell_length_c 15.818027
_cell_angle_alpha 90.000000
_cell_angle_beta 90.000000
_cell_angle_gamma 90.000000
_cell_volume 2103.017460
_symmetry_space_group_name_H-M "P B A M"
_symmetry_group_IT_number 55
_symmetry_cell_setting 'orthorhombic'
loop_
_space_group_symop_operation_xyz
x,y,z
-x,-y,z
1/2+x,1/2-y,-z
1/2-x,1/2+y,-z
-x,-y,-z
x,y,-z
1/2-x,1/2+y,z
1/2+x,1/2-y,z
loop_
_atom_site_type_symbol
_atom_site_label
_atom_site_fract_x
_atom_site_fract_y
_atom_site_fract_z
Si Si1 0.056433 0.615583 0.672619
Si Si2 0.718576 0.052133 0.821681
Si Si3 0.156233 0.262024 0.324147
Si Si4 0.099271 0.962617 0.198218
Si Si5 0.616333 0.051319 0.096778
Si Si6 0.213242 0.214887 0.500000
Si Si7 0.535113 0.746696 0.500000
O O1 0.100660 0.399285 0.682555
O O2 0.054161 0.835207 0.746139
O O3 0.070028 0.758417 0.583643
O O4 0.000000 0.500000 0.669335
O O5 0.764218 0.254709 0.837638
O O6 0.698586 0.065136 0.724410
O O7 0.675054 0.132556 0.889048
O O8 0.175897 0.198684 0.418351
O O9 0.146976 0.001973 0.264884
O O10 0.111966 0.749082 0.126615
O O11 0.083051 0.237315 0.151964
O O12 0.599486 0.074063 0.000000
O O13 0.245973 0.480764 0.500000
O O14 0.500000 0.500000 0.500000
O O15 0.500000 0.000000 0.500000
#
# Coordination Sequence:
#
# PCOD8227626 Si02
#       7
#     8   8   8   8   8   4   4
#     4  11  25  45  73 105 142 185 241 292 351 417
#     4  11  22  38  65  95 133 175 224 280 342 411
#     4  11  25  45  68 102 142 188 237 289 346 407
#     4  11  23  43  71 101 137 186 223 286 355 414
#     4  11  24  44  70 103 138 176 225 287 359 427
#     4  12  29  45  71 103 143 199 244 286 333 417
#     4  10  25  41  62 100 140 172 216 286 337 379
#
# _framework density 22.824349000000002
#
# number of rings (size 3 to 8) (size 9 to 14) (size 15 to 20)
#    0.000    1.000    3.333    4.000    7.000    1.333 
#    0.000    0.000    0.000    3.000    0.000    0.000 
#    0.000    0.000    0.000    0.000    0.000    0.000 
#
# Total GULP energy -594797.143852 kJ/mol
# GULP energy per Si atom -12391.607164 kJ/mol
# Density = 2.277240 g / cm^3
# Si number density = 22.824349 Si / 1000 Ang^3
#
#
#
# Elastic Constant Matrix: (Units=GPa)
#
#
# Indices 1 2 3 4 5 6 
#
# 1 56.7664 22.9364 16.1808 0.0000 0.0000 0.0000
# 2 22.9364 119.3379 41.8053 0.0000 0.0000 0.0000
# 3 16.1808 41.8053 168.5590 0.0000 0.0000 0.0000
# 4 0.0000 0.0000 0.0000 31.9371 0.0000 0.0000
# 5 0.0000 0.0000 0.0000 0.0000 25.3846 0.0000
# 6 0.0000 0.0000 0.0000 0.0000 0.0000 27.8096
#
#
#
# Elastic Compliance Matrix: (Units=1/GPa)
#
#
# Indices 1 2 3 4 5 6 
#
# 1 0.019258 -0.003344 -0.001019 0.000000 0.000000 0.000000
# 2 -0.003344 0.009758 -0.002099 0.000000 0.000000 0.000000
# 3 -0.001019 -0.002099 0.006551 0.000000 0.000000 0.000000
# 4 0.000000 0.000000 0.000000 0.031312 0.000000 0.000000
# 5 0.000000 0.000000 0.000000 0.000000 0.039394 0.000000
# 6 0.000000 0.000000 0.000000 0.000000 0.000000 0.035959
#
#
# Mechanical properties :
#
#
# Convention : Reuss Voigt Hill
#
# Bulk Modulus (GPa) = 44.16664 56.27870 50.22267
# Shear Modulus (GPa) = 30.73084 34.60898 32.66991
#
# Velocity S-wave (km/s) = 3.67332 3.89822 3.78744
# Velocity P-wave (km/s) = 6.11422 6.70614 6.41701
#
# Compressibility (1/GPa) = 0.02264153
#
# Stress axis : x y z
#
# Youngs Moduli (GPa) = 51.92701 102.48392 152.64686
#
# Poissons Ratio (x) = 0.34273 0.15558
# Poissons Ratio (y) = 0.17366 0.32041
# Poissons Ratio (z) = 0.05292 0.21512
#
# Static dielectric constant tensor:
#      x y z
#    x 3.790170 0.000000 0.000000 
#    y 0.000000 4.283020 0.000000 
#    z 0.000000 0.000000 4.527220 
# 
# 
# High freq. dielectric constant tensor:
#      x y z
#    x 1.873550 0.000000 0.000000 
#    y 0.000000 1.914450 0.000000 
#    z 0.000000 0.000000 1.908030 
# 
# From -- ./inp_files/20062.got.cif
#   From: 2010.03.12/outbox.cif.g09.slc.cpg/sg55_11_cif.got.tgz:20062.got - 2010.04.16 15:19:21.
