data_PCOD8227252
_publ_section_title
;
Structure prediction by ZEFSAII (Michael W. Deem and Ramdas Pophale) SiO2 
 PCOD8227252
Probable space group: P B A M
;
_chemical_formula_sum "Si O2"
_cell_formula_units_Z 64
_cell_length_a 23.706355
_cell_length_b 15.433009
_cell_length_c 8.649604
_cell_angle_alpha 90.000000
_cell_angle_beta 90.000000
_cell_angle_gamma 90.000000
_cell_volume 3164.547493
_symmetry_space_group_name_H-M "P B A M"
_symmetry_group_IT_number 55
_symmetry_cell_setting 'orthorhombic'
loop_
_space_group_symop_operation_xyz
x,y,z
-x,-y,z
1/2+x,1/2-y,-z
1/2-x,1/2+y,-z
-x,-y,-z
x,y,-z
1/2-x,1/2+y,z
1/2+x,1/2-y,z
loop_
_atom_site_type_symbol
_atom_site_label
_atom_site_fract_x
_atom_site_fract_y
_atom_site_fract_z
Si Si1 0.892965 0.409056 0.677735
Si Si2 0.915805 0.995764 0.680986
Si Si3 0.499825 0.175796 0.181690
Si Si4 0.995659 0.130113 0.816533
Si Si5 0.886038 0.590497 0.179769
Si Si6 0.774919 0.334127 0.321630
Si Si7 0.295275 0.514807 0.179523
Si Si8 0.732917 0.161895 0.177164
O O1 0.910681 0.406483 0.500000
O O2 0.947184 0.383585 0.776457
O O3 0.873162 0.504632 0.723735
O O4 0.841488 0.343886 0.712451
O O5 0.925571 0.007104 0.500000
O O6 0.850627 0.983306 0.716570
O O7 0.949518 0.912193 0.739829
O O8 0.938702 0.081336 0.766684
O O9 0.491488 0.272281 0.247690
O O10 0.557543 0.134852 0.247292
O O11 0.505421 0.181001 0.000000
O O12 0.002254 0.125462 0.000000
O O13 0.834318 0.656760 0.203438
O O14 0.892128 0.564945 0.000000
O O15 0.761687 0.355293 0.500000
O O16 0.740616 0.399711 0.214259
O O17 0.758252 0.235752 0.285596
O O18 0.259727 0.429997 0.223753
O O19 0.312084 0.515406 0.000000
O O20 0.747017 0.184833 0.000000
#
# Coordination Sequence:
#
# PCOD8227252 Si02
#       8
#     8   8   8   8   8   8   8   8
#     4  11  24  41  61  89 125 162 200 247 307 370
#     4  11  23  39  61  89 125 164 199 251 316 369
#     4  10  23  39  63  91 119 155 204 256 302 356
#     4  10  21  40  62  90 121 161 209 255 301 365
#     4  10  21  42  65  90 119 156 203 254 305 359
#     4  11  25  42  62  93 129 166 205 256 318 376
#     4  11  23  42  67  94 123 165 213 260 307 372
#     4  10  23  41  66  94 122 162 210 258 311 371
#
# _framework density 20.224060000000001
#
# number of rings (size 3 to 8) (size 9 to 14) (size 15 to 20)
#    0.000    1.500    1.250    3.750    3.500    6.000 
#    0.000    0.000    0.000    0.000    0.000    0.000 
#    0.000    0.000    0.000    0.000    0.000    0.000 
#
# Total GULP energy -793962.345769 kJ/mol
# GULP energy per Si atom -12405.661653 kJ/mol
# Density = 2.017803 g / cm^3
# Si number density = 20.224060 Si / 1000 Ang^3
#
#
#
# Elastic Constant Matrix: (Units=GPa)
#
#
# Indices 1 2 3 4 5 6 
#
# 1 105.4417 19.2466 31.8303 0.0000 0.0000 0.0000
# 2 19.2466 93.9427 27.0978 0.0000 0.0000 0.0000
# 3 31.8303 27.0978 42.0039 0.0000 0.0000 0.0000
# 4 0.0000 0.0000 0.0000 10.9047 0.0000 0.0000
# 5 0.0000 0.0000 0.0000 0.0000 27.5704 0.0000
# 6 0.0000 0.0000 0.0000 0.0000 0.0000 25.1444
#
#
#
# Elastic Compliance Matrix: (Units=1/GPa)
#
#
# Indices 1 2 3 4 5 6 
#
# 1 0.012300 0.000207 -0.009455 0.000000 0.000000 0.000000
# 2 0.000207 0.013082 -0.008597 0.000000 0.000000 0.000000
# 3 -0.009455 -0.008597 0.036518 0.000000 0.000000 0.000000
# 4 0.000000 0.000000 0.000000 0.091704 0.000000 0.000000
# 5 0.000000 0.000000 0.000000 0.000000 0.036271 0.000000
# 6 0.000000 0.000000 0.000000 0.000000 0.000000 0.039770
#
#
# Mechanical properties :
#
#
# Convention : Reuss Voigt Hill
#
# Bulk Modulus (GPa) = 38.15048 44.19308 41.17178
# Shear Modulus (GPa) = 18.24350 23.60482 20.92416
#
# Velocity S-wave (km/s) = 3.00670 3.42009 3.22004
# Velocity P-wave (km/s) = 5.56404 6.12333 5.85037
#
# Compressibility (1/GPa) = 0.02621199
#
# Stress axis : x y z
#
# Youngs Moduli (GPa) = 81.29927 76.44085 27.38389
#
# Poissons Ratio (x) = -0.01584 0.25891
# Poissons Ratio (y) = -0.01684 0.23541
# Poissons Ratio (z) = 0.76866 0.65713
#
# Static dielectric constant tensor:
#      x y z
#    x 3.727440 0.000000 0.000000 
#    y 0.000000 3.725390 0.000000 
#    z 0.000000 0.000000 3.590010 
# 
# 
# High freq. dielectric constant tensor:
#      x y z
#    x 1.801360 0.000000 0.000000 
#    y 0.000000 1.794190 0.000000 
#    z 0.000000 0.000000 1.787280 
# 
# From -- ./inp_files/9641.got.cif
#   From: 2010.03.12/outbox.cif.g09.slc.cpg/sg55_5_cif.got.tgz:9641.got - 2010.04.16 15:19:21.
