data_PCOD8227416
_publ_section_title
;
Structure prediction by ZEFSAII (Michael W. Deem and Ramdas Pophale) SiO2 
 PCOD8227416
Probable space group: P B A M
;
_chemical_formula_sum "Si O2"
_cell_formula_units_Z 48
_cell_length_a 23.180230
_cell_length_b 11.698610
_cell_length_c 8.881063
_cell_angle_alpha 90.000000
_cell_angle_beta 90.000000
_cell_angle_gamma 90.000000
_cell_volume 2408.335318
_symmetry_space_group_name_H-M "P B A M"
_symmetry_group_IT_number 55
_symmetry_cell_setting 'orthorhombic'
loop_
_space_group_symop_operation_xyz
x,y,z
-x,-y,z
1/2+x,1/2-y,-z
1/2-x,1/2+y,-z
-x,-y,-z
x,y,-z
1/2-x,1/2+y,z
1/2+x,1/2-y,z
loop_
_atom_site_type_symbol
_atom_site_label
_atom_site_fract_x
_atom_site_fract_y
_atom_site_fract_z
Si Si1 0.621385 0.228876 0.820397
Si Si2 0.270151 0.627486 0.822720
Si Si3 0.349211 0.181448 0.324079
Si Si4 0.340949 0.412192 0.164841
Si Si5 0.933264 0.492422 0.821377
Si Si6 0.050140 0.068472 0.833900
O O1 0.684975 0.272395 0.768132
O O2 0.572516 0.315611 0.753178
O O3 0.604379 0.102185 0.765506
O O4 0.619198 0.239158 0.000000
O O5 0.211031 0.634042 0.734283
O O6 0.291874 0.500483 0.782260
O O7 0.259222 0.639783 0.000000
O O8 0.354254 0.161447 0.500000
O O9 0.350818 0.315390 0.287923
O O10 0.403671 0.119423 0.247272
O O11 0.397991 0.483139 0.145943
O O12 0.324636 0.359093 0.000000
O O13 0.000000 0.500000 0.767180
O O14 0.930980 0.482855 0.000000
O O15 0.025616 0.101739 0.000000
O O16 0.000000 0.000000 0.742539
#
# Coordination Sequence:
#
# PCOD8227416 Si02
#       6
#     8   8   8   8   8   8
#     4   8  16  32  55  87 117 143 181 238 297 342
#     4   9  19  38  62  87 113 146 194 250 300 343
#     4  12  26  39  56  83 121 160 195 236 293 364
#     4   9  19  36  59  86 112 143 191 243 291 342
#     4  10  22  39  62  90 118 154 203 248 294 354
#     4   8  14  26  53  88 115 136 170 232 292 333
#
# _framework density 19.930779999999999
#
# number of rings (size 3 to 8) (size 9 to 14) (size 15 to 20)
#    0.000    2.667    0.000    3.500    4.667    1.000 
#    0.000    0.000    0.000    1.500    0.000    0.000 
#    0.000    0.000    0.000    0.000    0.000    0.000 
#
# Total GULP energy -594757.498199 kJ/mol
# GULP energy per Si atom -12390.781212 kJ/mol
# Density = 1.988542 g / cm^3
# Si number density = 19.930780 Si / 1000 Ang^3
#
#
#
# Elastic Constant Matrix: (Units=GPa)
#
#
# Indices 1 2 3 4 5 6 
#
# 1 49.9284 31.9144 20.1755 0.0000 0.0000 0.0000
# 2 31.9144 107.8366 27.5895 0.0000 0.0000 0.0000
# 3 20.1755 27.5895 40.5028 0.0000 0.0000 0.0000
# 4 0.0000 0.0000 0.0000 11.7600 0.0000 0.0000
# 5 0.0000 0.0000 0.0000 0.0000 1.6594 0.0000
# 6 0.0000 0.0000 0.0000 0.0000 0.0000 1.4671
#
#
#
# Elastic Compliance Matrix: (Units=1/GPa)
#
#
# Indices 1 2 3 4 5 6 
#
# 1 0.027647 -0.005642 -0.009929 0.000000 0.000000 0.000000
# 2 -0.005642 0.012382 -0.005624 0.000000 0.000000 0.000000
# 3 -0.009929 -0.005624 0.033466 0.000000 0.000000 0.000000
# 4 0.000000 0.000000 0.000000 0.085034 0.000000 0.000000
# 5 0.000000 0.000000 0.000000 0.000000 0.602624 0.000000
# 6 0.000000 0.000000 0.000000 0.000000 0.000000 0.681606
#
#
# Mechanical properties :
#
#
# Convention : Reuss Voigt Hill
#
# Bulk Modulus (GPa) = 32.14775 39.73629 35.94202
# Shear Modulus (GPa) = 3.34333 10.88320 7.11326
#
# Velocity S-wave (km/s) = 1.29658 2.33931 1.89122
# Velocity P-wave (km/s) = 4.29024 5.22273 4.77928
#
# Compressibility (1/GPa) = 0.03110638
#
# Stress axis : x y z
#
# Youngs Moduli (GPa) = 36.17021 80.76322 29.88096
#
# Poissons Ratio (x) = 0.45567 0.29667
# Poissons Ratio (y) = 0.20407 0.16804
# Poissons Ratio (z) = 0.35912 0.45420
#
# Static dielectric constant tensor:
#      x y z
#    x 3.867220 0.000000 0.000000 
#    y 0.000000 5.239150 0.000000 
#    z 0.000000 0.000000 3.161510 
# 
# 
# High freq. dielectric constant tensor:
#      x y z
#    x 1.790210 0.000000 0.000000 
#    y 0.000000 1.787980 0.000000 
#    z 0.000000 0.000000 1.713370 
# 
# From -- ./inp_files/9448.got.cif
#   From: 2010.03.12/outbox.cif.g09.slc.cpg/sg55_5_cif.got.tgz:9448.got - 2010.04.16 15:19:21.
