data_PCOD8227867
_publ_section_title
;
Structure prediction by ZEFSAII (Michael W. Deem and Ramdas Pophale) SiO2 
 PCOD8227867
Probable space group: P C C N
;
_chemical_formula_sum "Si O2"
_cell_formula_units_Z 56
_cell_length_a 8.666219
_cell_length_b 21.144195
_cell_length_c 16.163648
_cell_angle_alpha 90.000000
_cell_angle_beta 90.000000
_cell_angle_gamma 90.000000
_cell_volume 2961.830487
_symmetry_space_group_name_H-M "P C C N"
_symmetry_group_IT_number 56
_symmetry_cell_setting 'orthorhombic'
loop_
_space_group_symop_operation_xyz
x,y,z
1/2-x,1/2-y,z
1/2+x,-y,1/2-z
-x,1/2+y,1/2-z
-x,-y,-z
1/2+x,1/2+y,-z
1/2-x,y,1/2+z
x,1/2-y,1/2+z
loop_
_atom_site_type_symbol
_atom_site_label
_atom_site_fract_x
_atom_site_fract_y
_atom_site_fract_z
Si Si1 0.596184 0.430809 0.407001
Si Si2 0.083708 0.260034 0.713961
Si Si3 0.902773 0.144489 0.654543
Si Si4 0.228753 0.820379 0.007662
Si Si5 0.569260 0.645499 0.920749
Si Si6 0.134956 0.067214 0.549477
Si Si7 0.905989 0.120556 0.235542
O O1 0.702487 0.371053 0.428958
O O2 0.437957 0.430361 0.458342
O O3 0.685546 0.496044 0.427057
O O4 0.555441 0.427356 0.309759
O O5 0.250000 0.250000 0.759101
O O6 0.118597 0.288446 0.622149
O O7 0.004278 0.192524 0.707353
O O8 0.969534 0.309033 0.761540
O O9 0.815473 0.180244 0.580426
O O10 0.777254 0.117552 0.718649
O O11 0.011596 0.089530 0.618451
O O12 0.250000 0.750000 0.045442
O O13 0.049957 0.838955 0.994404
O O14 0.717007 0.611325 0.957849
O O15 0.492288 0.600185 0.849708
#
# Coordination Sequence:
#
# PCOD8227867 Si02
#       7
#     8   8   8   8   8   8   8
#     4  10  23  38  52  81 122 150 186 237 292 331
#     4  10  17  31  59  85 107 134 186 240 276 323
#     4  10  16  33  58  80 105 145 191 224 279 337
#     4  10  18  33  55  80 109 150 191 227 281 350
#     4   9  19  34  60  82 103 147 197 233 271 341
#     4  10  21  38  58  79 113 158 191 231 278 342
#     4   9  20  34  53  83 109 142 178 239 275 335
#
# _framework density 18.907226000000001
#
# number of rings (size 3 to 8) (size 9 to 14) (size 15 to 20)
#    0.857    1.429    2.857    0.429    0.000    2.857 
#    0.000    4.286    0.000    0.000    0.000    0.000 
#    0.000    0.000    0.000    0.000    0.000    0.000 
#
# Total GULP energy -694080.358311 kJ/mol
# GULP energy per Si atom -12394.292113 kJ/mol
# Density = 1.886419 g / cm^3
# Si number density = 18.907226 Si / 1000 Ang^3
#
#
#
# Elastic Constant Matrix: (Units=GPa)
#
#
# Indices 1 2 3 4 5 6 
#
# 1 113.0583 34.2694 19.5015 0.0000 0.0000 0.0000
# 2 34.2694 87.5368 10.1545 0.0000 0.0000 0.0000
# 3 19.5015 10.1545 35.2111 0.0000 0.0000 0.0000
# 4 0.0000 0.0000 0.0000 18.6108 0.0000 0.0000
# 5 0.0000 0.0000 0.0000 0.0000 13.5727 0.0000
# 6 0.0000 0.0000 0.0000 0.0000 0.0000 25.3754
#
#
#
# Elastic Compliance Matrix: (Units=1/GPa)
#
#
# Indices 1 2 3 4 5 6 
#
# 1 0.010804 -0.003658 -0.004929 0.000000 0.000000 0.000000
# 2 -0.003658 0.013058 -0.001740 0.000000 0.000000 0.000000
# 3 -0.004929 -0.001740 0.031632 0.000000 0.000000 0.000000
# 4 0.000000 0.000000 0.000000 0.053732 0.000000 0.000000
# 5 0.000000 0.000000 0.000000 0.000000 0.073677 0.000000
# 6 0.000000 0.000000 0.000000 0.000000 0.000000 0.039408
#
#
# Mechanical properties :
#
#
# Convention : Reuss Voigt Hill
#
# Bulk Modulus (GPa) = 28.70242 40.40633 34.55438
# Shear Modulus (GPa) = 19.64041 22.97050 21.30545
#
# Velocity S-wave (km/s) = 3.22650 3.48933 3.36049
# Velocity P-wave (km/s) = 5.39389 6.13605 5.77690
#
# Compressibility (1/GPa) = 0.03484027
#
# Stress axis : x y z
#
# Youngs Moduli (GPa) = 92.55922 76.58389 31.61393
#
# Poissons Ratio (x) = 0.28013 0.15582
# Poissons Ratio (y) = 0.33856 0.05500
# Poissons Ratio (z) = 0.45621 0.13324
#
# Static dielectric constant tensor:
#      x y z
#    x 3.444420 0.000000 0.000000 
#    y 0.000000 3.299930 0.000000 
#    z 0.000000 0.000000 3.078330 
# 
# 
# High freq. dielectric constant tensor:
#      x y z
#    x 1.736230 0.000000 0.000000 
#    y 0.000000 1.723650 0.000000 
#    z 0.000000 0.000000 1.699850 
# 
# From -- ./inp_files/15157.got.cif
#   From: 2010.03.12/outbox.cif.g09.slc.cpg/sg56_8_cif.got.tgz:15157.got - 2010.04.16 15:33:40.
