data_PCOD8227370
_publ_section_title
;
Structure prediction by ZEFSAII (Michael W. Deem and Ramdas Pophale) SiO2 
 PCOD8227370
Probable space group: P B A M
;
_chemical_formula_sum "Si O2"
_cell_formula_units_Z 48
_cell_length_a 9.612445
_cell_length_b 34.357209
_cell_length_c 7.745218
_cell_angle_alpha 90.000000
_cell_angle_beta 90.000000
_cell_angle_gamma 90.000000
_cell_volume 2557.910772
_symmetry_space_group_name_H-M "P B A M"
_symmetry_group_IT_number 55
_symmetry_cell_setting 'orthorhombic'
loop_
_space_group_symop_operation_xyz
x,y,z
-x,-y,z
1/2+x,1/2-y,-z
1/2-x,1/2+y,-z
-x,-y,-z
x,y,-z
1/2-x,1/2+y,z
1/2+x,1/2-y,z
loop_
_atom_site_type_symbol
_atom_site_label
_atom_site_fract_x
_atom_site_fract_y
_atom_site_fract_z
Si Si1 0.650342 0.849692 0.198934
Si Si2 0.344890 0.495672 0.300170
Si Si3 0.328692 0.844698 0.200118
Si Si4 0.167723 0.078065 0.202651
Si Si5 0.158619 0.285785 0.500000
Si Si6 0.141286 0.914405 0.197012
Si Si7 0.836432 0.291124 0.500000
O O1 0.487539 0.858448 0.217333
O O2 0.729768 0.888147 0.265290
O O3 0.696301 0.815098 0.325555
O O4 0.688979 0.838957 0.000000
O O5 0.500000 0.500000 0.222554
O O6 0.346647 0.487170 0.500000
O O7 0.266322 0.536217 0.258768
O O8 0.281074 0.456444 0.215645
O O9 0.298527 0.808379 0.325049
O O10 0.235873 0.880135 0.275132
O O11 0.295565 0.833410 0.000000
O O12 0.012873 0.084307 0.285167
O O13 0.154730 0.078552 0.000000
O O14 0.236325 0.245305 0.500000
O O15 0.995049 0.277017 0.500000
O O16 0.123574 0.903342 0.000000
#
# Coordination Sequence:
#
# PCOD8227370 Si02
#       7
#     8   8   8   8   4   8   4
#     4   9  19  36  55  75 103 136 166 202 251 301
#     4   9  17  27  42  69 102 134 167 208 254 291
#     4   9  19  36  55  75 103 136 166 202 251 301
#     4   9  17  30  49  72  98 132 173 212 248 290
#     4  10  22  38  56  79 104 131 163 202 251 304
#     4   9  17  30  49  72  98 132 173 212 248 290
#     4  10  22  38  56  79 104 131 163 202 251 304
#
# _framework density 18.765314
#
# number of rings (size 3 to 8) (size 9 to 14) (size 15 to 20)
#    0.000    2.833    0.000    0.500    2.333    4.000 
#    0.000    0.833    0.000    5.000    0.000    0.000 
#    0.000    0.000    0.000    0.000    0.000    0.000 
#
# Total GULP energy -594851.520962 kJ/mol
# GULP energy per Si atom -12392.740020 kJ/mol
# Density = 1.872260 g / cm^3
# Si number density = 18.765314 Si / 1000 Ang^3
#
#
#
# Elastic Constant Matrix: (Units=GPa)
#
#
# Indices 1 2 3 4 5 6 
#
# 1 32.4025 23.6808 17.9790 0.0000 0.0000 0.0000
# 2 23.6808 87.4789 33.6770 0.0000 0.0000 0.0000
# 3 17.9790 33.6770 67.5646 0.0000 0.0000 0.0000
# 4 0.0000 0.0000 0.0000 29.3475 0.0000 0.0000
# 5 0.0000 0.0000 0.0000 0.0000 15.5029 0.0000
# 6 0.0000 0.0000 0.0000 0.0000 0.0000 32.6874
#
#
#
# Elastic Compliance Matrix: (Units=1/GPa)
#
#
# Indices 1 2 3 4 5 6 
#
# 1 0.040727 -0.008480 -0.006611 0.000000 0.000000 0.000000
# 2 -0.008480 0.015911 -0.005674 0.000000 0.000000 0.000000
# 3 -0.006611 -0.005674 0.019388 0.000000 0.000000 0.000000
# 4 0.000000 0.000000 0.000000 0.034074 0.000000 0.000000
# 5 0.000000 0.000000 0.000000 0.000000 0.064504 0.000000
# 6 0.000000 0.000000 0.000000 0.000000 0.000000 0.030593
#
#
# Mechanical properties :
#
#
# Convention : Reuss Voigt Hill
#
# Bulk Modulus (GPa) = 28.98842 37.56884 33.27863
# Shear Modulus (GPa) = 19.36279 22.98152 21.17216
#
# Velocity S-wave (km/s) = 3.21571 3.50334 3.36260
# Velocity P-wave (km/s) = 5.41010 6.03559 5.73138
#
# Compressibility (1/GPa) = 0.03449654
#
# Stress axis : x y z
#
# Youngs Moduli (GPa) = 24.55346 62.84821 51.57800
#
# Poissons Ratio (x) = 0.53295 0.34097
# Poissons Ratio (y) = 0.20821 0.29267
# Poissons Ratio (z) = 0.16232 0.35662
#
# Static dielectric constant tensor:
#      x y z
#    x 3.446480 0.000000 0.000000 
#    y 0.000000 3.477210 0.000000 
#    z 0.000000 0.000000 3.473790 
# 
# 
# High freq. dielectric constant tensor:
#      x y z
#    x 1.696580 0.000000 0.000000 
#    y 0.000000 1.729350 0.000000 
#    z 0.000000 0.000000 1.733160 
# 
# From -- ./inp_files/2919.got.cif
#   From: 2010.03.12/outbox.cif.g09.slc.cpg/sg55_2_cif.got.tgz:2919.got - 2010.04.16 15:19:21.
