data_PCOD8227319
_publ_section_title
;
Structure prediction by ZEFSAII (Michael W. Deem and Ramdas Pophale) SiO2 
 PCOD8227319
Probable space group: P B A M
;
_chemical_formula_sum "Si O2"
_cell_formula_units_Z 64
_cell_length_a 14.299065
_cell_length_b 24.795067
_cell_length_c 8.863290
_cell_angle_alpha 90.000000
_cell_angle_beta 90.000000
_cell_angle_gamma 90.000000
_cell_volume 3142.446451
_symmetry_space_group_name_H-M "P B A M"
_symmetry_group_IT_number 55
_symmetry_cell_setting 'orthorhombic'
loop_
_space_group_symop_operation_xyz
x,y,z
-x,-y,z
1/2+x,1/2-y,-z
1/2-x,1/2+y,-z
-x,-y,-z
x,y,-z
1/2-x,1/2+y,z
1/2+x,1/2-y,z
loop_
_atom_site_type_symbol
_atom_site_label
_atom_site_fract_x
_atom_site_fract_y
_atom_site_fract_z
Si Si1 0.068688 0.246172 0.675047
Si Si2 0.892822 0.495220 0.321920
Si Si3 0.793330 0.394694 0.175756
Si Si4 0.885904 0.281715 0.172906
Si Si5 0.585190 0.368009 0.823009
Si Si6 0.771150 0.694990 0.828259
Si Si7 0.442567 0.446160 0.326515
Si Si8 0.252439 0.429219 0.174955
O O1 0.070032 0.230434 0.500000
O O2 0.087203 0.194016 0.776012
O O3 0.149334 0.288949 0.710737
O O4 0.972233 0.275209 0.715585
O O5 0.884783 0.498582 0.500000
O O6 0.848826 0.438888 0.269827
O O7 0.838522 0.545719 0.252248
O O8 0.000000 0.500000 0.267840
O O9 0.831947 0.335944 0.218295
O O10 0.683636 0.396067 0.219085
O O11 0.807154 0.407208 0.000000
O O12 0.819858 0.230733 0.198780
O O13 0.920606 0.284372 0.000000
O O14 0.500004 0.396260 0.739069
O O15 0.566181 0.370991 0.000000
O O16 0.743223 0.634036 0.793141
O O17 0.807834 0.701679 0.000000
O O18 0.500000 0.500000 0.301898
O O19 0.421392 0.433935 0.500000
O O20 0.345643 0.455641 0.241276
O O21 0.247794 0.443579 0.000000
#
# Coordination Sequence:
#
# PCOD8227319 Si02
#       8
#     8   8   8   8   8   8   8   8
#     4  12  25  38  60  94 129 167 207 255 319 384
#     4  11  26  45  64  90 130 173 212 267 328 379
#     4  10  22  41  68  95 122 163 216 269 314 374
#     4  10  21  41  66  93 127 167 212 262 319 378
#     4  11  22  41  66  94 128 167 214 262 310 375
#     4  10  22  43  66  92 125 165 210 260 314 371
#     4  11  24  41  64  97 133 167 204 256 324 386
#     4  11  24  42  68  96 124 168 220 267 314 377
#
# _framework density 20.366299000000001
#
# number of rings (size 3 to 8) (size 9 to 14) (size 15 to 20)
#    0.000    1.250    1.250    4.125    1.750    8.000 
#    0.000    0.000    0.000    0.000    0.000    0.000 
#    0.000    0.000    0.000    0.000    0.000    0.000 
#
# Total GULP energy -794054.844706 kJ/mol
# GULP energy per Si atom -12407.106949 kJ/mol
# Density = 2.031994 g / cm^3
# Si number density = 20.366299 Si / 1000 Ang^3
#
#
#
# Elastic Constant Matrix: (Units=GPa)
#
#
# Indices 1 2 3 4 5 6 
#
# 1 94.4972 5.5033 23.2690 0.0000 0.0000 0.0000
# 2 5.5033 63.5217 16.2303 0.0000 0.0000 0.0000
# 3 23.2690 16.2303 40.4865 0.0000 0.0000 0.0000
# 4 0.0000 0.0000 0.0000 30.4124 0.0000 0.0000
# 5 0.0000 0.0000 0.0000 0.0000 22.0038 0.0000
# 6 0.0000 0.0000 0.0000 0.0000 0.0000 35.0423
#
#
#
# Elastic Compliance Matrix: (Units=1/GPa)
#
#
# Indices 1 2 3 4 5 6 
#
# 1 0.012366 0.000830 -0.007440 0.000000 0.000000 0.000000
# 2 0.000830 0.017595 -0.007530 0.000000 0.000000 0.000000
# 3 -0.007440 -0.007530 0.031994 0.000000 0.000000 0.000000
# 4 0.000000 0.000000 0.000000 0.032881 0.000000 0.000000
# 5 0.000000 0.000000 0.000000 0.000000 0.045447 0.000000
# 6 0.000000 0.000000 0.000000 0.000000 0.000000 0.028537
#
#
# Mechanical properties :
#
#
# Convention : Reuss Voigt Hill
#
# Bulk Modulus (GPa) = 29.69629 32.05673 30.87651
# Shear Modulus (GPa) = 24.00091 27.72522 25.86306
#
# Velocity S-wave (km/s) = 3.43660 3.69362 3.56742
# Velocity P-wave (km/s) = 5.50996 5.82792 5.67117
#
# Compressibility (1/GPa) = 0.03367424
#
# Stress axis : x y z
#
# Youngs Moduli (GPa) = 80.86711 56.83493 31.25566
#
# Poissons Ratio (x) = -0.04715 0.23253
# Poissons Ratio (y) = -0.06708 0.23536
# Poissons Ratio (z) = 0.60163 0.42798
#
# Static dielectric constant tensor:
#      x y z
#    x 3.829830 0.000000 0.000000 
#    y 0.000000 3.719060 0.000000 
#    z 0.000000 0.000000 3.675160 
# 
# 
# High freq. dielectric constant tensor:
#      x y z
#    x 1.808220 0.000000 0.000000 
#    y 0.000000 1.807800 0.000000 
#    z 0.000000 0.000000 1.796160 
# 
# From -- ./inp_files/6593.got.cif
#   From: 2010.03.12/outbox.cif.g09.slc.cpg/sg55_4_cif.got.tgz:6593.got - 2010.04.16 15:19:21.
