data_PCOD8227960
_publ_section_title
;
Structure prediction by ZEFSAII (Michael W. Deem and Ramdas Pophale) SiO2 
 PCOD8227960
Probable space group: P C C N
;
_chemical_formula_sum "Si O2"
_cell_formula_units_Z 60
_cell_length_a 29.080222
_cell_length_b 13.244589
_cell_length_c 9.053060
_cell_angle_alpha 90.000000
_cell_angle_beta 90.000000
_cell_angle_gamma 90.000000
_cell_volume 3486.836651
_symmetry_space_group_name_H-M "P C C N"
_symmetry_group_IT_number 56
_symmetry_cell_setting 'orthorhombic'
loop_
_space_group_symop_operation_xyz
x,y,z
1/2-x,1/2-y,z
1/2+x,-y,1/2-z
-x,1/2+y,1/2-z
-x,-y,-z
1/2+x,1/2+y,-z
1/2-x,y,1/2+z
x,1/2-y,1/2+z
loop_
_atom_site_type_symbol
_atom_site_label
_atom_site_fract_x
_atom_site_fract_y
_atom_site_fract_z
Si Si1 0.750000 0.750000 0.568123
Si Si2 0.937397 0.135430 0.297209
Si Si3 0.952218 0.328995 0.128111
Si Si4 0.612987 0.842308 0.406999
Si Si5 0.539187 0.551591 0.700266
Si Si6 0.813080 0.688902 0.821646
Si Si7 0.887694 0.555434 0.706502
Si Si8 0.052343 0.335604 0.084226
O O1 0.784164 0.686243 0.670418
O O2 0.720281 0.675838 0.462491
O O3 0.926531 0.242923 0.220695
O O4 0.928206 0.149903 0.471271
O O5 0.898364 0.061940 0.230381
O O6 0.988383 0.092423 0.258961
O O7 0.956340 0.431597 0.225034
O O8 0.003014 0.283894 0.101909
O O9 0.659205 0.796491 0.332121
O O10 0.624454 0.922037 0.535848
O O11 0.587004 0.747343 0.481534
O O12 0.579190 0.892625 0.289308
O O13 0.548396 0.570089 0.526911
O O14 0.846143 0.591669 0.813326
O O15 0.931899 0.620975 0.757287
#
# Coordination Sequence:
#
# PCOD8227960 Si02
#       8
#     4   8   8   8   8   8   8   8
#     4  10  20  38  60  86 118 142 170 218 292 362
#     4  11  23  36  52  71 109 150 204 248 278 319
#     4  11  22  35  49  72 101 152 200 246 276 310
#     4  11  22  31  54  81 109 150 188 225 271 346
#     4  11  21  35  50  74 108 154 202 243 278 322
#     4  10  21  37  58  87 117 145 171 224 284 354
#     4  11  21  35  51  79 111 151 185 225 279 336
#     4  10  18  34  49  70 106 145 199 230 277 318
#
# _framework density 17.207574999999999
#
# number of rings (size 3 to 8) (size 9 to 14) (size 15 to 20)
#    0.000    1.333    5.333    2.400    5.600    0.533 
#    0.000    0.000    0.000    0.000    0.000    0.000 
#    0.000   18.133    0.000    0.000    0.000    0.000 
#
# Total GULP energy -743732.503123 kJ/mol
# GULP energy per Si atom -12395.541719 kJ/mol
# Density = 1.716841 g / cm^3
# Si number density = 17.207575 Si / 1000 Ang^3
#
#
#
# Elastic Constant Matrix: (Units=GPa)
#
#
# Indices 1 2 3 4 5 6 
#
# 1 70.6786 29.8872 31.5331 0.0000 0.0000 0.0000
# 2 29.8872 111.3015 32.6412 0.0000 0.0000 0.0000
# 3 31.5331 32.6412 75.5977 0.0000 0.0000 0.0000
# 4 0.0000 0.0000 0.0000 24.3281 0.0000 0.0000
# 5 0.0000 0.0000 0.0000 0.0000 23.2417 0.0000
# 6 0.0000 0.0000 0.0000 0.0000 0.0000 16.7161
#
#
#
# Elastic Compliance Matrix: (Units=1/GPa)
#
#
# Indices 1 2 3 4 5 6 
#
# 1 0.018248 -0.003055 -0.006292 0.000000 0.000000 0.000000
# 2 -0.003055 0.010799 -0.003388 0.000000 0.000000 0.000000
# 3 -0.006292 -0.003388 0.017316 0.000000 0.000000 0.000000
# 4 0.000000 0.000000 0.000000 0.041105 0.000000 0.000000
# 5 0.000000 0.000000 0.000000 0.000000 0.043026 0.000000
# 6 0.000000 0.000000 0.000000 0.000000 0.000000 0.059823
#
#
# Mechanical properties :
#
#
# Convention : Reuss Voigt Hill
#
# Bulk Modulus (GPa) = 47.86789 49.52231 48.69510
# Shear Modulus (GPa) = 22.44671 23.75827 23.10249
#
# Velocity S-wave (km/s) = 3.61566 3.71979 3.66809
# Velocity P-wave (km/s) = 6.73119 6.87684 6.80441
#
# Compressibility (1/GPa) = 0.02089083
#
# Stress axis : x y z
#
# Youngs Moduli (GPa) = 54.80185 92.60506 57.75116
#
# Poissons Ratio (x) = 0.28286 0.36340
# Poissons Ratio (y) = 0.16739 0.19569
# Poissons Ratio (z) = 0.34484 0.31379
#
# Static dielectric constant tensor:
#      x y z
#    x 3.154820 0.000000 0.000000 
#    y 0.000000 3.125070 0.000000 
#    z 0.000000 0.000000 3.232730 
# 
# 
# High freq. dielectric constant tensor:
#      x y z
#    x 1.633960 0.000000 0.000000 
#    y 0.000000 1.644460 0.000000 
#    z 0.000000 0.000000 1.671220 
# 
# From -- ./inp_files/4972.got.cif
#   From: 2010.03.12/outbox.cif.g09.slc.cpg/sg56_3_cif.got.tgz:4972.got - 2010.04.16 15:33:40.
