data_PCOD8227346
_publ_section_title
;
Structure prediction by ZEFSAII (Michael W. Deem and Ramdas Pophale) SiO2 
 PCOD8227346
Probable space group: P B A M
;
_chemical_formula_sum "Si O2"
_cell_formula_units_Z 40
_cell_length_a 8.227673
_cell_length_b 15.717161
_cell_length_c 15.018995
_cell_angle_alpha 90.000000
_cell_angle_beta 90.000000
_cell_angle_gamma 90.000000
_cell_volume 1942.191269
_symmetry_space_group_name_H-M "P B A M"
_symmetry_group_IT_number 55
_symmetry_cell_setting 'orthorhombic'
loop_
_space_group_symop_operation_xyz
x,y,z
-x,-y,z
1/2+x,1/2-y,-z
1/2-x,1/2+y,-z
-x,-y,-z
x,y,-z
1/2-x,1/2+y,z
1/2+x,1/2-y,z
loop_
_atom_site_type_symbol
_atom_site_label
_atom_site_fract_x
_atom_site_fract_y
_atom_site_fract_z
Si Si1 0.493244 0.358994 0.500000
Si Si2 0.000000 0.500000 0.348233
Si Si3 0.895513 0.661944 0.750967
Si Si4 0.824364 0.545202 0.102620
Si Si5 0.000000 0.000000 0.205815
Si Si6 0.250033 0.495046 0.500000
Si Si7 0.951706 0.173146 0.307451
O O1 0.312501 0.398416 0.500000
O O2 0.611117 0.437245 0.500000
O O3 0.516958 0.306883 0.591954
O O4 0.000138 0.583328 0.286588
O O5 0.844282 0.490064 0.409207
O O6 0.839861 0.637821 0.851271
O O7 0.741799 0.674642 0.687393
O O8 0.994389 0.749454 0.755852
O O9 0.667691 0.498381 0.148030
O O10 0.000000 0.500000 0.114144
O O11 0.780714 0.557818 0.000000
O O12 0.987899 0.917188 0.269023
#
# Coordination Sequence:
#
# PCOD8227346 Si02
#       7
#     4   4   8   8   4   4   8
#     4  11  22  38  58  92 129 165 233 260 314 386
#     4  11  22  42  61  88 128 172 215 272 322 375
#     4  11  25  42  64  94 131 169 221 263 335 395
#     4  10  22  42  72  99 126 168 213 270 333 396
#     4  10  23  45  68  96 136 174 220 269 333 388
#     4  10  22  36  64  87 121 171 221 270 317 371
#     4  11  26  40  66  94 129 181 213 272 324 384
#
# _framework density 20.595293999999999
#
# number of rings (size 3 to 8) (size 9 to 14) (size 15 to 20)
#    0.000    1.400    3.000    1.500    8.400    2.400 
#    0.000    5.000    0.000    0.000    0.000    0.000 
#    0.000    0.000    0.000    0.000    0.000    0.000 
#
# Total GULP energy -495701.382137 kJ/mol
# GULP energy per Si atom -12392.534553 kJ/mol
# Density = 2.054842 g / cm^3
# Si number density = 20.595294 Si / 1000 Ang^3
#
#
#
# Elastic Constant Matrix: (Units=GPa)
#
#
# Indices 1 2 3 4 5 6 
#
# 1 99.4904 35.3838 36.1217 0.0000 0.0000 0.0000
# 2 35.3838 131.8803 40.0358 0.0000 0.0000 0.0000
# 3 36.1217 40.0358 132.3369 0.0000 0.0000 0.0000
# 4 0.0000 0.0000 0.0000 19.6987 0.0000 0.0000
# 5 0.0000 0.0000 0.0000 0.0000 20.0812 0.0000
# 6 0.0000 0.0000 0.0000 0.0000 0.0000 25.0537
#
#
#
# Elastic Compliance Matrix: (Units=1/GPa)
#
#
# Indices 1 2 3 4 5 6 
#
# 1 0.011815 -0.002413 -0.002495 0.000000 0.000000 0.000000
# 2 -0.002413 0.008842 -0.002016 0.000000 0.000000 0.000000
# 3 -0.002495 -0.002016 0.008848 0.000000 0.000000 0.000000
# 4 0.000000 0.000000 0.000000 0.050765 0.000000 0.000000
# 5 0.000000 0.000000 0.000000 0.000000 0.049798 0.000000
# 6 0.000000 0.000000 0.000000 0.000000 0.000000 0.039914
#
#
# Mechanical properties :
#
#
# Convention : Reuss Voigt Hill
#
# Bulk Modulus (GPa) = 63.87126 65.19890 64.53508
# Shear Modulus (GPa) = 26.44820 29.77781 28.11300
#
# Velocity S-wave (km/s) = 3.58744 3.80657 3.69863
# Velocity P-wave (km/s) = 6.94547 7.14464 7.04576
#
# Compressibility (1/GPa) = 0.01565649
#
# Stress axis : x y z
#
# Youngs Moduli (GPa) = 84.63713 113.09544 113.02554
#
# Poissons Ratio (x) = 0.27285 0.28201
# Poissons Ratio (y) = 0.20419 0.22791
# Poissons Ratio (z) = 0.21118 0.22805
#
# Static dielectric constant tensor:
#      x y z
#    x 3.990610 0.000000 0.000000 
#    y 0.000000 3.773690 0.000000 
#    z 0.000000 0.000000 3.915500 
# 
# 
# High freq. dielectric constant tensor:
#      x y z
#    x 1.821180 0.000000 0.000000 
#    y 0.000000 1.787550 0.000000 
#    z 0.000000 0.000000 1.808480 
# 
# From -- ./inp_files/17151.got.cif
#   From: 2010.03.12/outbox.cif.g09.slc.cpg/sg55_9_cif.got.tgz:17151.got - 2010.04.16 15:19:21.
