data_PCOD8227013
_publ_section_title
;
Structure prediction by ZEFSAII (Michael W. Deem and Ramdas Pophale) SiO2 
 PCOD8227013
Probable space group: P B A M
;
_chemical_formula_sum "Si O2"
_cell_formula_units_Z 48
_cell_length_a 22.993937
_cell_length_b 11.665936
_cell_length_c 9.313264
_cell_angle_alpha 90.000000
_cell_angle_beta 90.000000
_cell_angle_gamma 90.000000
_cell_volume 2498.243928
_symmetry_space_group_name_H-M "P B A M"
_symmetry_group_IT_number 55
_symmetry_cell_setting 'orthorhombic'
loop_
_space_group_symop_operation_xyz
x,y,z
-x,-y,z
1/2+x,1/2-y,-z
1/2-x,1/2+y,-z
-x,-y,-z
x,y,-z
1/2-x,1/2+y,z
1/2+x,1/2-y,z
loop_
_atom_site_type_symbol
_atom_site_label
_atom_site_fract_x
_atom_site_fract_y
_atom_site_fract_z
Si Si1 0.618405 0.223632 0.662985
Si Si2 0.275264 0.613344 0.669245
Si Si3 0.338477 0.169613 0.836727
Si Si4 0.343461 0.436132 0.164052
Si Si5 0.933877 0.514037 0.832593
Si Si6 0.063617 0.047050 0.657581
O O1 0.624801 0.179515 0.500000
O O2 0.678783 0.286127 0.712315
O O3 0.602395 0.116344 0.760648
O O4 0.566096 0.315635 0.678360
O O5 0.272106 0.598784 0.500000
O O6 0.211617 0.636588 0.727346
O O7 0.293719 0.491576 0.737097
O O8 0.349872 0.302191 0.812334
O O9 0.398130 0.102296 0.801716
O O10 0.318510 0.143743 0.000000
O O11 0.404859 0.487046 0.211010
O O12 0.330318 0.468414 0.000000
O O13 0.000000 0.500000 0.771764
O O14 0.937142 0.543270 0.000000
O O15 0.092555 0.020431 0.500000
O O16 0.000000 0.000000 0.659255
#
# Coordination Sequence:
#
# PCOD8227013 Si02
#       6
#     8   8   8   8   8   8
#     4   9  20  38  58  85 116 148 191 240 289 346
#     4  10  22  40  62  88 118 151 193 243 300 356
#     4  10  23  40  59  86 119 154 194 243 294 349
#     4  10  21  37  58  86 117 147 192 242 291 352
#     4  10  23  41  60  84 119 160 198 239 292 350
#     4   9  19  36  58  84 116 151 190 239 291 342
#
# _framework density 19.213495999999999
#
# number of rings (size 3 to 8) (size 9 to 14) (size 15 to 20)
#    0.000    2.333    0.000    2.000    4.667    6.000 
#    0.000    0.000    0.000    0.000    0.000    0.000 
#    0.000    0.000    0.000    0.000    0.000    0.000 
#
# Total GULP energy -595010.119201 kJ/mol
# GULP energy per Si atom -12396.044150 kJ/mol
# Density = 1.916977 g / cm^3
# Si number density = 19.213496 Si / 1000 Ang^3
#
#
#
# Elastic Constant Matrix: (Units=GPa)
#
#
# Indices 1 2 3 4 5 6 
#
# 1 94.0545 48.0997 50.3332 0.0000 0.0000 0.0000
# 2 48.0997 112.4802 64.4475 0.0000 0.0000 0.0000
# 3 50.3332 64.4475 89.2018 0.0000 0.0000 0.0000
# 4 0.0000 0.0000 0.0000 22.4425 0.0000 0.0000
# 5 0.0000 0.0000 0.0000 0.0000 31.7008 0.0000
# 6 0.0000 0.0000 0.0000 0.0000 0.0000 18.8641
#
#
#
# Elastic Compliance Matrix: (Units=1/GPa)
#
#
# Indices 1 2 3 4 5 6 
#
# 1 0.015732 -0.002801 -0.006854 0.000000 0.000000 0.000000
# 2 -0.002801 0.015669 -0.009740 0.000000 0.000000 0.000000
# 3 -0.006854 -0.009740 0.022115 0.000000 0.000000 0.000000
# 4 0.000000 0.000000 0.000000 0.044558 0.000000 0.000000
# 5 0.000000 0.000000 0.000000 0.000000 0.031545 0.000000
# 6 0.000000 0.000000 0.000000 0.000000 0.000000 0.053011
#
#
# Mechanical properties :
#
#
# Convention : Reuss Voigt Hill
#
# Bulk Modulus (GPa) = 67.90276 69.05524 68.47900
# Shear Modulus (GPa) = 22.09177 23.45855 22.77516
#
# Velocity S-wave (km/s) = 3.39456 3.49799 3.44666
# Velocity P-wave (km/s) = 7.12614 7.23420 7.18037
#
# Compressibility (1/GPa) = 0.01472694
#
# Stress axis : x y z
#
# Youngs Moduli (GPa) = 63.56453 63.82008 45.21780
#
# Poissons Ratio (x) = 0.17873 0.30990
# Poissons Ratio (y) = 0.17802 0.44044
# Poissons Ratio (z) = 0.43565 0.62164
#
# Static dielectric constant tensor:
#      x y z
#    x 2.916200 0.000000 0.000000 
#    y 0.000000 3.523810 0.000000 
#    z 0.000000 0.000000 3.729520 
# 
# 
# High freq. dielectric constant tensor:
#      x y z
#    x 1.745880 0.000000 0.000000 
#    y 0.000000 1.749400 0.000000 
#    z 0.000000 0.000000 1.750360 
# 
# From -- ./inp_files/9450.got.cif
#   From: 2010.03.12/outbox.cif.g09.slc.cpg/sg55_5_cif.got.tgz:9450.got - 2010.04.16 15:19:21.
