data_PCOD8227175
_publ_section_title
;
Structure prediction by ZEFSAII (Michael W. Deem and Ramdas Pophale) SiO2 
 PCOD8227175
Probable space group: P B A M
;
_chemical_formula_sum "Si O2"
_cell_formula_units_Z 56
_cell_length_a 14.492115
_cell_length_b 13.874168
_cell_length_c 13.710648
_cell_angle_alpha 90.000000
_cell_angle_beta 90.000000
_cell_angle_gamma 90.000000
_cell_volume 2756.745674
_symmetry_space_group_name_H-M "P B A M"
_symmetry_group_IT_number 55
_symmetry_cell_setting 'orthorhombic'
loop_
_space_group_symop_operation_xyz
x,y,z
-x,-y,z
1/2+x,1/2-y,-z
1/2-x,1/2+y,-z
-x,-y,-z
x,y,-z
1/2-x,1/2+y,z
1/2+x,1/2-y,z
loop_
_atom_site_type_symbol
_atom_site_label
_atom_site_fract_x
_atom_site_fract_y
_atom_site_fract_z
Si Si1 0.740201 0.591219 0.893018
Si Si2 0.106037 0.519454 0.385991
Si Si3 0.452854 0.907480 0.891650
Si Si4 0.278375 0.844115 0.308797
Si Si5 0.948011 0.764431 0.250200
Si Si6 0.910871 0.934674 0.108024
Si Si7 0.110575 0.740896 0.610500
O O1 0.846545 0.563656 0.896137
O O2 0.729955 0.661263 0.799289
O O3 0.680720 0.496283 0.874389
O O4 0.712300 0.637341 0.000000
O O5 0.117107 0.497289 0.500000
O O6 0.179853 0.450405 0.330938
O O7 0.131343 0.629998 0.360198
O O8 0.000000 0.500000 0.353587
O O9 0.477461 0.816004 0.827218
O O10 0.500000 0.000000 0.842583
O O11 0.492232 0.887758 0.000000
O O12 0.363013 0.770166 0.316133
O O13 0.201715 0.807345 0.383983
O O14 0.915006 0.857114 0.192249
O O15 0.033128 0.787892 0.320565
O O16 0.907269 0.886398 0.000000
O O17 0.000000 0.000000 0.116562
O O18 0.073653 0.744166 0.500000
#
# Coordination Sequence:
#
# PCOD8227175 Si02
#       7
#     8   8   8   8   8   8   8
#     4   9  20  37  59  87 122 159 197 244 293 359
#     4  10  21  41  67  90 118 159 208 257 310 368
#     4   9  19  35  58  90 124 153 193 247 297 350
#     4  11  23  38  67  91 124 158 205 255 309 370
#     4  11  23  36  62  91 118 161 200 252 297 369
#     4  10  21  39  60  84 121 163 202 240 294 366
#     4  11  25  42  62  92 122 156 207 262 315 366
#
# _framework density 20.313807000000001
#
# number of rings (size 3 to 8) (size 9 to 14) (size 15 to 20)
#    0.000    1.857    1.429    1.714    6.000    1.143 
#    0.000    0.714    0.000    8.143    0.000    0.000 
#    0.000    0.000    0.000    0.000    0.000    0.000 
#
# Total GULP energy -694156.419554 kJ/mol
# GULP energy per Si atom -12395.650349 kJ/mol
# Density = 2.026757 g / cm^3
# Si number density = 20.313807 Si / 1000 Ang^3
#
#
#
# Elastic Constant Matrix: (Units=GPa)
#
#
# Indices 1 2 3 4 5 6 
#
# 1 67.8334 29.7516 32.8597 0.0000 0.0000 0.0000
# 2 29.7516 54.8254 16.5591 0.0000 0.0000 0.0000
# 3 32.8597 16.5591 77.8522 0.0000 0.0000 0.0000
# 4 0.0000 0.0000 0.0000 30.5321 0.0000 0.0000
# 5 0.0000 0.0000 0.0000 0.0000 26.6726 0.0000
# 6 0.0000 0.0000 0.0000 0.0000 0.0000 37.3092
#
#
#
# Elastic Compliance Matrix: (Units=1/GPa)
#
#
# Indices 1 2 3 4 5 6 
#
# 1 0.022797 -0.010115 -0.007471 0.000000 0.000000 0.000000
# 2 -0.010115 0.023980 -0.000831 0.000000 0.000000 0.000000
# 3 -0.007471 -0.000831 0.016175 0.000000 0.000000 0.000000
# 4 0.000000 0.000000 0.000000 0.032752 0.000000 0.000000
# 5 0.000000 0.000000 0.000000 0.000000 0.037492 0.000000
# 6 0.000000 0.000000 0.000000 0.000000 0.000000 0.026803
#
#
# Mechanical properties :
#
#
# Convention : Reuss Voigt Hill
#
# Bulk Modulus (GPa) = 38.28745 39.87243 39.07994
# Shear Modulus (GPa) = 24.32632 26.99216 25.65924
#
# Velocity S-wave (km/s) = 3.46428 3.64917 3.55793
# Velocity P-wave (km/s) = 5.90683 6.11769 6.01318
#
# Compressibility (1/GPa) = 0.02611822
#
# Stress axis : x y z
#
# Youngs Moduli (GPa) = 43.86484 41.70203 61.82412
#
# Poissons Ratio (x) = 0.42181 0.46188
# Poissons Ratio (y) = 0.44368 0.05139
# Poissons Ratio (z) = 0.32771 0.03466
#
# Static dielectric constant tensor:
#      x y z
#    x 3.649130 0.000000 0.000000 
#    y 0.000000 3.341140 0.000000 
#    z 0.000000 0.000000 4.135130 
# 
# 
# High freq. dielectric constant tensor:
#      x y z
#    x 1.793120 0.000000 0.000000 
#    y 0.000000 1.771010 0.000000 
#    z 0.000000 0.000000 1.810030 
# 
# From -- ./inp_files/18935.got.cif
#   From: 2010.03.12/outbox.cif.g09.slc.cpg/sg55_10_cif.got.tgz:18935.got - 2010.04.16 15:19:21.
