data_PCOD8227526
_publ_section_title
;
Structure prediction by ZEFSAII (Michael W. Deem and Ramdas Pophale) SiO2 
 PCOD8227526
Probable space group: P B A M
;
_chemical_formula_sum "Si O2"
_cell_formula_units_Z 32
_cell_length_a 11.430661
_cell_length_b 11.049574
_cell_length_c 9.947610
_cell_angle_alpha 90.000000
_cell_angle_beta 90.000000
_cell_angle_gamma 90.000000
_cell_volume 1256.422283
_symmetry_space_group_name_H-M "P B A M"
_symmetry_group_IT_number 55
_symmetry_cell_setting 'orthorhombic'
loop_
_space_group_symop_operation_xyz
x,y,z
-x,-y,z
1/2+x,1/2-y,-z
1/2-x,1/2+y,-z
-x,-y,-z
x,y,-z
1/2-x,1/2+y,z
1/2+x,1/2-y,z
loop_
_atom_site_type_symbol
_atom_site_label
_atom_site_fract_x
_atom_site_fract_y
_atom_site_fract_z
Si Si1 0.294734 0.718339 0.150659
Si Si2 0.592298 0.899427 0.265105
Si Si3 0.519094 0.347423 0.350197
Si Si4 0.232060 0.920515 0.353839
O O1 0.167455 0.654116 0.140184
O O2 0.387146 0.633679 0.230323
O O3 0.285036 0.842446 0.233106
O O4 0.340239 0.744832 0.000000
O O5 0.530510 0.790210 0.343150
O O6 0.500000 0.000000 0.215828
O O7 0.692529 0.956856 0.361099
O O8 0.574129 0.363695 0.500000
O O9 0.408743 0.441510 0.330936
O O10 0.245288 0.855560 0.500000
#
# Coordination Sequence:
#
# PCOD8227526 Si02
#       4
#     8   8   8   8
#     4  11  25  42  63  96 137 175 216 271 330 394
#     4  11  23  42  69  99 127 171 225 268 325 385
#     4  10  22  42  68  98 133 170 217 276 329 387
#     4  10  22  42  68  99 130 170 223 277 327 382
#
# _framework density 25.469144
#
# number of rings (size 3 to 8) (size 9 to 14) (size 15 to 20)
#    0.000    1.500    2.500    1.500    0.000   10.500 
#    0.000    3.750    0.000    0.000    0.000    0.000 
#    0.000    0.000    0.000    0.000    0.000    0.000 
#
# Total GULP energy -396528.969127 kJ/mol
# GULP energy per Si atom -12391.530285 kJ/mol
# Density = 2.541117 g / cm^3
# Si number density = 25.469144 Si / 1000 Ang^3
#
#
#
# Elastic Constant Matrix: (Units=GPa)
#
#
# Indices 1 2 3 4 5 6 
#
# 1 137.4597 28.8220 47.2407 0.0000 0.0000 0.0000
# 2 28.8220 56.7663 23.2078 0.0000 0.0000 0.0000
# 3 47.2407 23.2078 193.9481 0.0000 0.0000 0.0000
# 4 0.0000 0.0000 0.0000 20.2959 0.0000 0.0000
# 5 0.0000 0.0000 0.0000 0.0000 26.8369 0.0000
# 6 0.0000 0.0000 0.0000 0.0000 0.0000 58.8184
#
#
#
# Elastic Compliance Matrix: (Units=1/GPa)
#
#
# Indices 1 2 3 4 5 6 
#
# 1 0.008620 -0.003699 -0.001657 0.000000 0.000000 0.000000
# 2 -0.003699 0.020110 -0.001505 0.000000 0.000000 0.000000
# 3 -0.001657 -0.001505 0.005740 0.000000 0.000000 0.000000
# 4 0.000000 0.000000 0.000000 0.049271 0.000000 0.000000
# 5 0.000000 0.000000 0.000000 0.000000 0.037262 0.000000
# 6 0.000000 0.000000 0.000000 0.000000 0.000000 0.017001
#
#
# Mechanical properties :
#
#
# Convention : Reuss Voigt Hill
#
# Bulk Modulus (GPa) = 48.20094 65.19056 56.69575
# Shear Modulus (GPa) = 31.51742 40.45048 35.98395
#
# Velocity S-wave (km/s) = 3.52159 3.98957 3.76286
# Velocity P-wave (km/s) = 5.95834 6.84643 6.41777
#
# Compressibility (1/GPa) = 0.02074648
#
# Stress axis : x y z
#
# Youngs Moduli (GPa) = 116.01023 49.72730 174.22418
#
# Poissons Ratio (x) = 0.18395 0.28868
# Poissons Ratio (y) = 0.42914 0.26226
# Poissons Ratio (z) = 0.19222 0.07485
#
# Static dielectric constant tensor:
#      x y z
#    x 5.139810 0.000000 0.000000 
#    y 0.000000 4.852440 0.000000 
#    z 0.000000 0.000000 4.005160 
# 
# 
# High freq. dielectric constant tensor:
#      x y z
#    x 2.045130 0.000000 0.000000 
#    y 0.000000 2.038980 0.000000 
#    z 0.000000 0.000000 1.974240 
# 
# From -- ./inp_files/3419.got.cif
#   From: 2010.03.12/outbox.cif.g09.slc.cpg/sg55_2_cif.got.tgz:3419.got - 2010.04.16 15:19:21.
