data_PCOD8227049
_publ_section_title
;
Structure prediction by ZEFSAII (Michael W. Deem and Ramdas Pophale) SiO2 
 PCOD8227049
Probable space group: P B A M
;
_chemical_formula_sum "Si O2"
_cell_formula_units_Z 52
_cell_length_a 18.432316
_cell_length_b 18.627596
_cell_length_c 7.692718
_cell_angle_alpha 90.000000
_cell_angle_beta 90.000000
_cell_angle_gamma 90.000000
_cell_volume 2641.292693
_symmetry_space_group_name_H-M "P B A M"
_symmetry_group_IT_number 55
_symmetry_cell_setting 'orthorhombic'
loop_
_space_group_symop_operation_xyz
x,y,z
-x,-y,z
1/2+x,1/2-y,-z
1/2-x,1/2+y,-z
-x,-y,-z
x,y,-z
1/2-x,1/2+y,z
1/2+x,1/2-y,z
loop_
_atom_site_type_symbol
_atom_site_label
_atom_site_fract_x
_atom_site_fract_y
_atom_site_fract_z
Si Si1 0.780135 0.540272 0.708426
Si Si2 0.832348 0.385112 0.301480
Si Si3 0.372468 0.827858 0.692336
Si Si4 0.454203 0.326220 0.000000
Si Si5 0.601579 0.407028 0.000000
Si Si6 0.320473 0.677330 0.295737
Si Si7 0.024156 0.689037 0.814655
Si Si8 0.163463 0.942479 0.000000
O O1 0.762808 0.540770 0.500000
O O2 0.812385 0.463904 0.768310
O O3 0.838945 0.599610 0.771060
O O4 0.708650 0.554419 0.820955
O O5 0.854017 0.390877 0.500000
O O6 0.765695 0.330958 0.270769
O O7 0.902686 0.354783 0.209000
O O8 0.340859 0.823663 0.500000
O O9 0.343769 0.754950 0.782591
O O10 0.460272 0.829343 0.680698
O O11 0.518486 0.383558 0.000000
O O12 0.458569 0.274884 0.172744
O O13 0.378351 0.367191 0.000000
O O14 0.639828 0.380927 0.177225
O O15 0.605744 0.492874 0.000000
O O16 0.341873 0.666089 0.500000
O O17 0.990856 0.664467 0.000000
#
# Coordination Sequence:
#
# PCOD8227049 Si02
#       8
#     8   8   8   4   4   8   8   4
#     4  10  24  42  62  94 126 158 209 256 299 369
#     4  10  21  39  60  88 124 160 206 256 307 361
#     4  10  21  40  62  87 122 165 206 251 310 360
#     4  10  25  41  57  96 126 156 207 256 298 370
#     4  12  21  42  68  84 126 162 202 253 302 366
#     4  10  21  37  64  92 115 161 211 253 304 361
#     4  10  22  37  59  87 126 158 201 253 298 361
#     4  12  25  39  69  88 124 168 199 248 324 354
#
# _framework density 19.687331
#
# number of rings (size 3 to 8) (size 9 to 14) (size 15 to 20)
#    0.462    1.231    3.077    0.692    5.385    0.615 
#    0.000    4.615    0.000    1.846    0.000    0.000 
#    0.000    0.000    0.000    0.000    0.000    0.000 
#
# Total GULP energy -644379.074940 kJ/mol
# GULP energy per Si atom -12391.905287 kJ/mol
# Density = 1.964252 g / cm^3
# Si number density = 19.687331 Si / 1000 Ang^3
#
#
#
# Elastic Constant Matrix: (Units=GPa)
#
#
# Indices 1 2 3 4 5 6 
#
# 1 111.7082 71.9289 26.8108 0.0000 0.0000 0.0000
# 2 71.9289 108.0427 28.5045 0.0000 0.0000 0.0000
# 3 26.8108 28.5045 61.9427 0.0000 0.0000 0.0000
# 4 0.0000 0.0000 0.0000 16.3490 0.0000 0.0000
# 5 0.0000 0.0000 0.0000 0.0000 25.2368 0.0000
# 6 0.0000 0.0000 0.0000 0.0000 0.0000 46.0327
#
#
#
# Elastic Compliance Matrix: (Units=1/GPa)
#
#
# Indices 1 2 3 4 5 6 
#
# 1 0.015950 -0.010013 -0.002296 0.000000 0.000000 0.000000
# 2 -0.010013 0.016820 -0.003406 0.000000 0.000000 0.000000
# 3 -0.002296 -0.003406 0.018705 0.000000 0.000000 0.000000
# 4 0.000000 0.000000 0.000000 0.061166 0.000000 0.000000
# 5 0.000000 0.000000 0.000000 0.000000 0.039625 0.000000
# 6 0.000000 0.000000 0.000000 0.000000 0.000000 0.021724
#
#
# Mechanical properties :
#
#
# Convention : Reuss Voigt Hill
#
# Bulk Modulus (GPa) = 49.88758 59.57579 54.73168
# Shear Modulus (GPa) = 23.57343 27.82032 25.69688
#
# Velocity S-wave (km/s) = 3.46409 3.76321 3.61674
# Velocity P-wave (km/s) = 6.43388 7.01491 6.73067
#
# Compressibility (1/GPa) = 0.02004507
#
# Stress axis : x y z
#
# Youngs Moduli (GPa) = 62.69424 59.45128 53.46079
#
# Poissons Ratio (x) = 0.59530 0.12275
# Poissons Ratio (y) = 0.62777 0.18211
# Poissons Ratio (z) = 0.14395 0.20251
#
# Static dielectric constant tensor:
#      x y z
#    x 3.381760 0.000000 0.000000 
#    y 0.000000 3.841540 0.000000 
#    z 0.000000 0.000000 3.517310 
# 
# 
# High freq. dielectric constant tensor:
#      x y z
#    x 1.762590 0.000000 0.000000 
#    y 0.000000 1.773640 0.000000 
#    z 0.000000 0.000000 1.761410 
# 
# From -- ./inp_files/7666.got.cif
#   From: 2010.03.12/outbox.cif.g09.slc.cpg/sg55_4_cif.got.tgz:7666.got - 2010.04.16 15:19:21.
