data_PCOD8227222
_publ_section_title
;
Structure prediction by ZEFSAII (Michael W. Deem and Ramdas Pophale) SiO2 
 PCOD8227222
Probable space group: P B A M
;
_chemical_formula_sum "Si O2"
_cell_formula_units_Z 56
_cell_length_a 14.538751
_cell_length_b 14.627862
_cell_length_c 13.860260
_cell_angle_alpha 90.000000
_cell_angle_beta 90.000000
_cell_angle_gamma 90.000000
_cell_volume 2947.673182
_symmetry_space_group_name_H-M "P B A M"
_symmetry_group_IT_number 55
_symmetry_cell_setting 'orthorhombic'
loop_
_space_group_symop_operation_xyz
x,y,z
-x,-y,z
1/2+x,1/2-y,-z
1/2-x,1/2+y,-z
-x,-y,-z
x,y,-z
1/2-x,1/2+y,z
1/2+x,1/2-y,z
loop_
_atom_site_type_symbol
_atom_site_label
_atom_site_fract_x
_atom_site_fract_y
_atom_site_fract_z
Si Si1 0.756429 0.636168 0.893553
Si Si2 0.107082 0.483992 0.387534
Si Si3 0.458024 0.909932 0.108513
Si Si4 0.312749 0.796045 0.302097
Si Si5 0.002109 0.752433 0.246492
Si Si6 0.943423 0.089276 0.107870
Si Si7 0.153862 0.685699 0.610296
O O1 0.848290 0.575747 0.888129
O O2 0.761102 0.705565 0.802715
O O3 0.666519 0.571926 0.884716
O O4 0.754230 0.686485 0.000000
O O5 0.112166 0.458769 0.500000
O O6 0.156149 0.399768 0.331202
O O7 0.163193 0.577605 0.363843
O O8 0.000000 0.500000 0.357245
O O9 0.496118 0.827256 0.169134
O O10 0.500000 0.000000 0.156200
O O11 0.494297 0.896008 0.000000
O O12 0.403640 0.734026 0.296892
O O13 0.247724 0.743071 0.376615
O O14 0.028538 0.841769 0.189781
O O15 0.075588 0.733312 0.328093
O O16 0.968739 0.124476 0.000000
O O17 0.000000 0.000000 0.132365
O O18 0.122602 0.694074 0.500000
#
# Coordination Sequence:
#
# PCOD8227222 Si02
#       7
#     8   8   8   8   8   8   8
#     4   9  19  35  56  85 117 153 195 241 292 358
#     4  10  21  39  64  89 119 159 207 255 306 367
#     4   9  19  35  57  88 123 151 187 247 307 359
#     4  11  22  38  65  90 122 161 199 255 313 371
#     4  11  22  37  61  89 114 161 202 255 301 374
#     4  10  21  40  61  83 119 165 209 246 295 372
#     4  11  24  40  61  93 122 157 207 258 312 365
#
# _framework density 18.998035000000002
#
# number of rings (size 3 to 8) (size 9 to 14) (size 15 to 20)
#    0.000    1.857    2.857    0.857    4.000    2.286 
#    0.000    0.000    0.000    1.286    0.000    0.000 
#    0.000    0.000    0.000    0.000    0.000    0.000 
#
# Total GULP energy -693953.065416 kJ/mol
# GULP energy per Si atom -12392.019025 kJ/mol
# Density = 1.895479 g / cm^3
# Si number density = 18.998035 Si / 1000 Ang^3
#
#
#
# Elastic Constant Matrix: (Units=GPa)
#
#
# Indices 1 2 3 4 5 6 
#
# 1 111.0078 63.8386 48.3563 0.0000 0.0000 0.0000
# 2 63.8386 96.8719 53.1053 0.0000 0.0000 0.0000
# 3 48.3563 53.1053 106.3745 0.0000 0.0000 0.0000
# 4 0.0000 0.0000 0.0000 30.2188 0.0000 0.0000
# 5 0.0000 0.0000 0.0000 0.0000 24.7298 0.0000
# 6 0.0000 0.0000 0.0000 0.0000 0.0000 30.5805
#
#
#
# Elastic Compliance Matrix: (Units=1/GPa)
#
#
# Indices 1 2 3 4 5 6 
#
# 1 0.015009 -0.008468 -0.002595 0.000000 0.000000 0.000000
# 2 -0.008468 0.018990 -0.005631 0.000000 0.000000 0.000000
# 3 -0.002595 -0.005631 0.013392 0.000000 0.000000 0.000000
# 4 0.000000 0.000000 0.000000 0.033092 0.000000 0.000000
# 5 0.000000 0.000000 0.000000 0.000000 0.040437 0.000000
# 6 0.000000 0.000000 0.000000 0.000000 0.000000 0.032701
#
#
# Mechanical properties :
#
#
# Convention : Reuss Voigt Hill
#
# Bulk Modulus (GPa) = 71.41829 71.65051 71.53440
# Shear Modulus (GPa) = 26.08564 27.03609 26.56087
#
# Velocity S-wave (km/s) = 3.70952 3.77649 3.74315
# Velocity P-wave (km/s) = 7.48475 7.53740 7.51112
#
# Compressibility (1/GPa) = 0.01400202
#
# Stress axis : x y z
#
# Youngs Moduli (GPa) = 66.62803 52.65848 74.67301
#
# Poissons Ratio (x) = 0.44591 0.19380
# Poissons Ratio (y) = 0.56421 0.42049
# Poissons Ratio (z) = 0.17292 0.29652
#
# Static dielectric constant tensor:
#      x y z
#    x 3.679920 0.000000 0.000000 
#    y 0.000000 3.380470 0.000000 
#    z 0.000000 0.000000 3.800120 
# 
# 
# High freq. dielectric constant tensor:
#      x y z
#    x 1.744350 0.000000 0.000000 
#    y 0.000000 1.708250 0.000000 
#    z 0.000000 0.000000 1.759490 
# 
# From -- ./inp_files/18936.got.cif
#   From: 2010.03.12/outbox.cif.g09.slc.cpg/sg55_10_cif.got.tgz:18936.got - 2010.04.16 15:19:21.
