data_PCOD8227317
_publ_section_title
;
Structure prediction by ZEFSAII (Michael W. Deem and Ramdas Pophale) SiO2 
 PCOD8227317
Probable space group: P B A M
;
_chemical_formula_sum "Si O2"
_cell_formula_units_Z 48
_cell_length_a 11.573789
_cell_length_b 23.723529
_cell_length_c 8.600689
_cell_angle_alpha 90.000000
_cell_angle_beta 90.000000
_cell_angle_gamma 90.000000
_cell_volume 2361.500803
_symmetry_space_group_name_H-M "P B A M"
_symmetry_group_IT_number 55
_symmetry_cell_setting 'orthorhombic'
loop_
_space_group_symop_operation_xyz
x,y,z
-x,-y,z
1/2+x,1/2-y,-z
1/2-x,1/2+y,-z
-x,-y,-z
x,y,-z
1/2-x,1/2+y,z
1/2+x,1/2-y,z
loop_
_atom_site_type_symbol
_atom_site_label
_atom_site_fract_x
_atom_site_fract_y
_atom_site_fract_z
Si Si1 0.321625 0.203806 0.819617
Si Si2 0.748730 0.968917 0.820281
Si Si3 0.219705 0.414229 0.321071
Si Si4 0.889543 0.171328 0.181087
Si Si5 0.125881 0.133669 0.680066
Si Si6 0.977645 0.399965 0.177905
O O1 0.358598 0.265590 0.765850
O O2 0.209509 0.185463 0.722920
O O3 0.428804 0.162272 0.787413
O O4 0.285917 0.201686 0.000000
O O5 0.842811 0.922083 0.776691
O O6 0.620708 0.945783 0.786423
O O7 0.770456 0.024471 0.719367
O O8 0.764138 0.984412 0.000000
O O9 0.245402 0.401011 0.500000
O O10 0.279362 0.367532 0.213704
O O11 0.083127 0.412484 0.291107
O O12 0.995518 0.150215 0.283263
O O13 0.922335 0.169490 0.000000
O O14 0.138842 0.119379 0.500000
O O15 0.019746 0.405142 0.000000
#
# Coordination Sequence:
#
# PCOD8227317 Si02
#       6
#     8   8   8   8   8   8
#     4   9  21  41  65  88 116 160 209 249 290 356
#     4  10  21  41  66  89 118 162 210 248 292 361
#     4  12  25  38  57  92 129 159 198 253 313 358
#     4  11  24  42  63  87 119 165 212 248 290 358
#     4  11  23  40  63  92 125 155 193 251 314 363
#     4   9  19  38  63  91 119 157 204 251 298 356
#
# _framework density 20.326056000000001
#
# number of rings (size 3 to 8) (size 9 to 14) (size 15 to 20)
#    0.000    1.667    0.000    5.500    2.333    7.333 
#    0.000    3.333    0.000    0.000    0.000    0.000 
#    0.000    0.000    0.000    0.000    0.000    0.000 
#
# Total GULP energy -595539.000039 kJ/mol
# GULP energy per Si atom -12407.062501 kJ/mol
# Density = 2.027979 g / cm^3
# Si number density = 20.326056 Si / 1000 Ang^3
#
#
#
# Elastic Constant Matrix: (Units=GPa)
#
#
# Indices 1 2 3 4 5 6 
#
# 1 46.9426 16.6585 24.2251 0.0000 0.0000 0.0000
# 2 16.6585 118.2891 23.9009 0.0000 0.0000 0.0000
# 3 24.2251 23.9009 62.7269 0.0000 0.0000 0.0000
# 4 0.0000 0.0000 0.0000 22.7668 0.0000 0.0000
# 5 0.0000 0.0000 0.0000 0.0000 27.4621 0.0000
# 6 0.0000 0.0000 0.0000 0.0000 0.0000 19.3180
#
#
#
# Elastic Compliance Matrix: (Units=1/GPa)
#
#
# Indices 1 2 3 4 5 6 
#
# 1 0.026968 -0.001835 -0.009716 0.000000 0.000000 0.000000
# 2 -0.001835 0.009284 -0.002829 0.000000 0.000000 0.000000
# 3 -0.009716 -0.002829 0.020772 0.000000 0.000000 0.000000
# 4 0.000000 0.000000 0.000000 0.043924 0.000000 0.000000
# 5 0.000000 0.000000 0.000000 0.000000 0.036414 0.000000
# 6 0.000000 0.000000 0.000000 0.000000 0.000000 0.051765
#
#
# Mechanical properties :
#
#
# Convention : Reuss Voigt Hill
#
# Bulk Modulus (GPa) = 35.37948 39.72528 37.55238
# Shear Modulus (GPa) = 21.99673 24.78766 23.39219
#
# Velocity S-wave (km/s) = 3.29324 3.49592 3.39609
# Velocity P-wave (km/s) = 5.64839 5.99014 5.82177
#
# Compressibility (1/GPa) = 0.02826497
#
# Stress axis : x y z
#
# Youngs Moduli (GPa) = 37.08157 107.71420 48.14122
#
# Poissons Ratio (x) = 0.19762 0.46773
# Poissons Ratio (y) = 0.06803 0.13619
# Poissons Ratio (z) = 0.36028 0.30471
#
# Static dielectric constant tensor:
#      x y z
#    x 3.535700 0.000000 0.000000 
#    y 0.000000 3.890260 0.000000 
#    z 0.000000 0.000000 3.574420 
# 
# 
# High freq. dielectric constant tensor:
#      x y z
#    x 1.790580 0.000000 0.000000 
#    y 0.000000 1.805100 0.000000 
#    z 0.000000 0.000000 1.791890 
# 
# From -- ./inp_files/4080.got.cif
#   From: 2010.03.12/outbox.cif.g09.slc.cpg/sg55_3_cif.got.tgz:4080.got - 2010.04.16 15:19:21.
