data_PCOD8227422
_publ_section_title
;
Structure prediction by ZEFSAII (Michael W. Deem and Ramdas Pophale) SiO2 
 PCOD8227422
Probable space group: P B A M
;
_chemical_formula_sum "Si O2"
_cell_formula_units_Z 28
_cell_length_a 17.934733
_cell_length_b 5.253115
_cell_length_c 10.244660
_cell_angle_alpha 90.000000
_cell_angle_beta 90.000000
_cell_angle_gamma 90.000000
_cell_volume 965.182355
_symmetry_space_group_name_H-M "P B A M"
_symmetry_group_IT_number 55
_symmetry_cell_setting 'orthorhombic'
loop_
_space_group_symop_operation_xyz
x,y,z
-x,-y,z
1/2+x,1/2-y,-z
1/2-x,1/2+y,-z
-x,-y,-z
x,y,-z
1/2-x,1/2+y,z
1/2+x,1/2-y,z
loop_
_atom_site_type_symbol
_atom_site_label
_atom_site_fract_x
_atom_site_fract_y
_atom_site_fract_z
Si Si1 0.915303 0.928463 0.855742
Si Si2 0.215248 0.788079 0.350791
Si Si3 0.917185 0.539541 0.647390
Si Si4 0.200648 0.797023 0.000000
O O1 0.880923 0.746248 0.744520
O O2 0.917375 0.794304 0.000000
O O3 0.854595 0.164810 0.871966
O O4 0.000000 0.000000 0.817340
O O5 0.243886 0.813356 0.500000
O O6 0.241460 0.049754 0.282254
O O7 0.125947 0.731461 0.347148
O O8 0.915654 0.650144 0.500000
O O9 0.000000 0.500000 0.698810
O O10 0.264204 0.017837 0.000000
#
# Coordination Sequence:
#
# PCOD8227422 Si02
#       4
#     8   8   8   4
#     4   9  22  44  65  99 136 185 228 279 349 420
#     4   9  19  37  60  88 127 173 218 269 334 399
#     4  10  22  39  64 101 138 181 234 286 339 410
#     4  10  23  44  73 106 136 174 234 296 343 408
#
# _framework density 29.010059999999999
#
# number of rings (size 3 to 8) (size 9 to 14) (size 15 to 20)
#    0.857    1.714    0.000    0.000    0.000    8.000 
#    0.000    5.714    0.000    0.000    0.000    0.000 
#    0.000    0.000    0.000    0.000    0.000    0.000 
#
# Total GULP energy -346898.970121 kJ/mol
# GULP energy per Si atom -12389.248933 kJ/mol
# Density = 2.894403 g / cm^3
# Si number density = 29.010060 Si / 1000 Ang^3
#
#
#
# Elastic Constant Matrix: (Units=GPa)
#
#
# Indices 1 2 3 4 5 6 
#
# 1 178.4902 28.7373 -32.5346 0.0000 0.0000 0.0000
# 2 28.7373 78.1947 12.1609 0.0000 0.0000 0.0000
# 3 -32.5346 12.1609 117.8366 0.0000 0.0000 0.0000
# 4 0.0000 0.0000 0.0000 -40.2842 0.0000 0.0000
# 5 0.0000 0.0000 0.0000 0.0000 5.9910 0.0000
# 6 0.0000 0.0000 0.0000 0.0000 0.0000 40.3394
#
#
#
# Elastic Compliance Matrix: (Units=1/GPa)
#
#
# Indices 1 2 3 4 5 6 
#
# 1 0.006405 -0.002672 0.002044 0.000000 0.000000 0.000000
# 2 -0.002672 0.014112 -0.002194 0.000000 0.000000 0.000000
# 3 0.002044 -0.002194 0.009277 0.000000 0.000000 0.000000
# 4 0.000000 0.000000 0.000000 -0.024824 0.000000 0.000000
# 5 0.000000 0.000000 0.000000 0.000000 0.166916 0.000000
# 6 0.000000 0.000000 0.000000 0.000000 0.000000 0.024790
#
#
# Mechanical properties :
#
#
# Convention : Reuss Voigt Hill
#
# Bulk Modulus (GPa) = 41.40652 43.47208 42.43930
# Shear Modulus (GPa) = 23.76761 25.61975 24.69368
#
# Velocity S-wave (km/s) = 2.86543 2.97498 2.92072
# Velocity P-wave (km/s) = 5.02511 5.17865 5.10245
#
# Compressibility (1/GPa) = 0.02415078
#
# Stress axis : x y z
#
# Youngs Moduli (GPa) = 156.11920 70.86273 107.79140
#
# Poissons Ratio (x) = 0.18934 -0.22035
# Poissons Ratio (y) = 0.41714 0.23650
# Poissons Ratio (z) = -0.31915 0.15548
#
# Static dielectric constant tensor:
#      x y z
#    x 5.487680 0.000000 0.000000 
#    y 0.000000 5.083900 0.000000 
#    z 0.000000 0.000000 5.718920 
# 
# 
# High freq. dielectric constant tensor:
#      x y z
#    x 2.204150 0.000000 0.000000 
#    y 0.000000 2.144550 0.000000 
#    z 0.000000 0.000000 2.207310 
# 
# From -- ./inp_files/15093.got.cif
#   From: 2010.03.12/outbox.cif.g09.slc.cpg/sg55_8_cif.got.tgz:15093.got - 2010.04.16 15:19:21.
