data_PCOD8227811
_publ_section_title
;
Structure prediction by ZEFSAII (Michael W. Deem and Ramdas Pophale) SiO2 
 PCOD8227811
Probable space group: P B A M
;
_chemical_formula_sum "Si O2"
_cell_formula_units_Z 32
_cell_length_a 7.429287
_cell_length_b 18.687502
_cell_length_c 11.141713
_cell_angle_alpha 90.000000
_cell_angle_beta 90.000000
_cell_angle_gamma 90.000000
_cell_volume 1546.857671
_symmetry_space_group_name_H-M "P B A M"
_symmetry_group_IT_number 55
_symmetry_cell_setting 'orthorhombic'
loop_
_space_group_symop_operation_xyz
x,y,z
-x,-y,z
1/2+x,1/2-y,-z
1/2-x,1/2+y,-z
-x,-y,-z
x,y,-z
1/2-x,1/2+y,z
1/2+x,1/2-y,z
loop_
_atom_site_type_symbol
_atom_site_label
_atom_site_fract_x
_atom_site_fract_y
_atom_site_fract_z
Si Si1 0.800681 0.679528 0.362953
Si Si2 0.886877 0.145610 0.000000
Si Si3 0.823974 0.324367 0.254255
Si Si4 0.016719 0.916674 0.748454
Si Si5 0.020186 0.695095 0.000000
O O1 0.779549 0.704658 0.500000
O O2 0.744548 0.743518 0.274152
O O3 0.674204 0.612014 0.337663
O O4 0.006021 0.657998 0.337717
O O5 0.676302 0.161635 0.000000
O O6 0.936836 0.098413 0.114040
O O7 0.001265 0.218992 0.000000
O O8 0.669442 0.379614 0.289939
O O9 0.872359 0.333113 0.114998
O O10 0.000000 0.000000 0.724905
#
# Coordination Sequence:
#
# PCOD8227811 Si02
#       5
#     8   4   8   8   4
#     4  12  25  44  71 102 132 178 236 283 332 403
#     4  12  21  41  67 102 142 171 222 286 343 413
#     4  12  23  43  73 103 135 176 228 287 335 409
#     4  12  27  45  67 102 143 183 222 281 353 408
#     4  12  20  39  74 107 130 169 234 286 335 392
#
# _framework density 20.687100000000001
#
# number of rings (size 3 to 8) (size 9 to 14) (size 15 to 20)
#    0.000    0.000    7.500    3.375    0.000    2.500 
#    0.000    2.500    0.000    0.000    0.000    0.000 
#    0.000    0.000    0.000    0.000    0.000    0.000 
#
# Total GULP energy -397114.807977 kJ/mol
# GULP energy per Si atom -12409.837749 kJ/mol
# Density = 2.064002 g / cm^3
# Si number density = 20.687100 Si / 1000 Ang^3
#
#
#
# Elastic Constant Matrix: (Units=GPa)
#
#
# Indices 1 2 3 4 5 6 
#
# 1 152.0258 50.3664 30.2700 0.0000 0.0000 0.0000
# 2 50.3664 123.2891 5.7077 0.0000 0.0000 0.0000
# 3 30.2700 5.7077 93.0003 0.0000 0.0000 0.0000
# 4 0.0000 0.0000 0.0000 10.3530 0.0000 0.0000
# 5 0.0000 0.0000 0.0000 0.0000 17.7718 0.0000
# 6 0.0000 0.0000 0.0000 0.0000 0.0000 28.9795
#
#
#
# Elastic Compliance Matrix: (Units=1/GPa)
#
#
# Indices 1 2 3 4 5 6 
#
# 1 0.008128 -0.003207 -0.002449 0.000000 0.000000 0.000000
# 2 -0.003207 0.009400 0.000467 0.000000 0.000000 0.000000
# 3 -0.002449 0.000467 0.011521 0.000000 0.000000 0.000000
# 4 0.000000 0.000000 0.000000 0.096590 0.000000 0.000000
# 5 0.000000 0.000000 0.000000 0.000000 0.056269 0.000000
# 6 0.000000 0.000000 0.000000 0.000000 0.000000 0.034507
#
#
# Mechanical properties :
#
#
# Convention : Reuss Voigt Hill
#
# Bulk Modulus (GPa) = 53.55923 60.11149 56.83536
# Shear Modulus (GPa) = 21.45776 30.21894 25.83835
#
# Velocity S-wave (km/s) = 3.22414 3.82614 3.53796
# Velocity P-wave (km/s) = 6.30923 6.97421 6.65004
#
# Compressibility (1/GPa) = 0.01867092
#
# Stress axis : x y z
#
# Youngs Moduli (GPa) = 123.03311 106.38799 86.79805
#
# Poissons Ratio (x) = 0.34119 0.21254
# Poissons Ratio (y) = 0.39458 -0.04053
# Poissons Ratio (z) = 0.30127 -0.04968
#
# Static dielectric constant tensor:
#      x y z
#    x 4.189140 0.000000 0.000000 
#    y 0.000000 3.428770 0.000000 
#    z 0.000000 0.000000 3.788740 
# 
# 
# High freq. dielectric constant tensor:
#      x y z
#    x 1.836500 0.000000 0.000000 
#    y 0.000000 1.777000 0.000000 
#    z 0.000000 0.000000 1.818840 
# 
# From -- ./inp_files/11823.got.cif
#   From: 2010.03.12/outbox.cif.g09.slc.cpg/sg55_6_cif.got.tgz:11823.got - 2010.04.16 15:19:21.
