data_PCOD8227406
_publ_section_title
;
Structure prediction by ZEFSAII (Michael W. Deem and Ramdas Pophale) SiO2 
 PCOD8227406
Probable space group: P B A M
;
_chemical_formula_sum "Si O2"
_cell_formula_units_Z 32
_cell_length_a 4.890782
_cell_length_b 17.782165
_cell_length_c 13.429568
_cell_angle_alpha 90.000000
_cell_angle_beta 90.000000
_cell_angle_gamma 90.000000
_cell_volume 1167.951970
_symmetry_space_group_name_H-M "P B A M"
_symmetry_group_IT_number 55
_symmetry_cell_setting 'orthorhombic'
loop_
_space_group_symop_operation_xyz
x,y,z
-x,-y,z
1/2+x,1/2-y,-z
1/2-x,1/2+y,-z
-x,-y,-z
x,y,-z
1/2-x,1/2+y,z
1/2+x,1/2-y,z
loop_
_atom_site_type_symbol
_atom_site_label
_atom_site_fract_x
_atom_site_fract_y
_atom_site_fract_z
Si Si1 0.538439 0.589247 0.301760
Si Si2 0.560772 0.800004 0.000000
Si Si3 0.252653 0.443865 0.500000
Si Si4 0.756845 0.552466 0.890796
Si Si5 0.144096 0.697303 0.780688
O O1 0.500000 0.500000 0.295963
O O2 0.715363 0.608496 0.401149
O O3 0.709598 0.611718 0.200437
O O4 0.245326 0.631806 0.296385
O O5 0.644172 0.840182 0.893581
O O6 0.743437 0.724005 0.000000
O O7 0.500000 0.500000 0.500000
O O8 0.000000 0.500000 0.500000
O O9 0.500000 0.500000 0.909985
O O10 0.000000 0.500000 0.856669
O O11 0.822771 0.593091 0.000000
O O12 0.849841 0.732972 0.760283
#
# Coordination Sequence:
#
# PCOD8227406 Si02
#       5
#     8   4   4   8   8
#     4  10  22  40  65  90 122 161 211 256 309 369
#     4   8  16  34  55  78 115 162 198 234 298 378
#     4  10  22  40  62  90 122 160 201 252 309 366
#     4   9  18  32  51  81 116 146 183 240 298 346
#     4  10  22  39  60  87 123 162 204 251 310 371
#
# _framework density 27.398387
#
# number of rings (size 3 to 8) (size 9 to 14) (size 15 to 20)
#    0.000    2.500    0.000    0.750    1.750    8.000 
#    0.000    1.250    0.000    0.000    0.000    0.000 
#    0.000    0.000    0.000    0.000    0.000    0.000 
#
# Total GULP energy -396453.015772 kJ/mol
# GULP energy per Si atom -12389.156743 kJ/mol
# Density = 2.733603 g / cm^3
# Si number density = 27.398387 Si / 1000 Ang^3
#
#
#
# Elastic Constant Matrix: (Units=GPa)
#
#
# Indices 1 2 3 4 5 6 
#
# 1 98.7943 -1.3889 13.9767 0.0000 0.0000 0.0000
# 2 -1.3889 86.3513 7.4546 0.0000 0.0000 0.0000
# 3 13.9767 7.4546 205.1455 0.0000 0.0000 0.0000
# 4 0.0000 0.0000 0.0000 34.1270 0.0000 0.0000
# 5 0.0000 0.0000 0.0000 0.0000 43.0344 0.0000
# 6 0.0000 0.0000 0.0000 0.0000 0.0000 30.1899
#
#
#
# Elastic Compliance Matrix: (Units=1/GPa)
#
#
# Indices 1 2 3 4 5 6 
#
# 1 0.010225 0.000225 -0.000705 0.000000 0.000000 0.000000
# 2 0.000225 0.011622 -0.000438 0.000000 0.000000 0.000000
# 3 -0.000705 -0.000438 0.004939 0.000000 0.000000 0.000000
# 4 0.000000 0.000000 0.000000 0.029302 0.000000 0.000000
# 5 0.000000 0.000000 0.000000 0.000000 0.023237 0.000000
# 6 0.000000 0.000000 0.000000 0.000000 0.000000 0.033124
#
#
# Mechanical properties :
#
#
# Convention : Reuss Voigt Hill
#
# Bulk Modulus (GPa) = 40.07843 47.81955 43.94899
# Shear Modulus (GPa) = 40.78300 46.15349 43.46824
#
# Velocity S-wave (km/s) = 3.86232 4.10876 3.98744
# Velocity P-wave (km/s) = 5.87791 6.32460 6.10534
#
# Compressibility (1/GPa) = 0.02495108
#
# Stress axis : x y z
#
# Youngs Moduli (GPa) = 97.80026 86.04367 202.49010
#
# Poissons Ratio (x) = -0.01939 0.14272
# Poissons Ratio (y) = -0.02204 0.08862
# Poissons Ratio (z) = 0.06893 0.03766
#
# Static dielectric constant tensor:
#      x y z
#    x 5.302640 0.000000 0.000000 
#    y 0.000000 4.682000 0.000000 
#    z 0.000000 0.000000 19.925400 
# 
# 
# High freq. dielectric constant tensor:
#      x y z
#    x 2.130010 0.000000 0.000000 
#    y 0.000000 2.105370 0.000000 
#    z 0.000000 0.000000 2.094460 
# 
# From -- ./inp_files/16446.got.cif
#   From: 2010.03.12/outbox.cif.g09.slc.cpg/sg55_9_cif.got.tgz:16446.got - 2010.04.16 15:19:21.
