data_PCOD8227142
_publ_section_title
;
Structure prediction by ZEFSAII (Michael W. Deem and Ramdas Pophale) SiO2 
 PCOD8227142
Probable space group: P B A M
;
_chemical_formula_sum "Si O2"
_cell_formula_units_Z 48
_cell_length_a 28.525382
_cell_length_b 9.341943
_cell_length_c 8.337297
_cell_angle_alpha 90.000000
_cell_angle_beta 90.000000
_cell_angle_gamma 90.000000
_cell_volume 2221.743687
_symmetry_space_group_name_H-M "P B A M"
_symmetry_group_IT_number 55
_symmetry_cell_setting 'orthorhombic'
loop_
_space_group_symop_operation_xyz
x,y,z
-x,-y,z
1/2+x,1/2-y,-z
1/2-x,1/2+y,-z
-x,-y,-z
x,y,-z
1/2-x,1/2+y,z
1/2+x,1/2-y,z
loop_
_atom_site_type_symbol
_atom_site_label
_atom_site_fract_x
_atom_site_fract_y
_atom_site_fract_z
Si Si1 0.777379 0.298439 0.814876
Si Si2 0.539985 0.905668 0.317129
Si Si3 0.478510 0.642690 0.683727
Si Si4 0.803145 0.987531 0.686312
Si Si5 0.121279 0.210274 0.186360
Si Si6 0.859737 0.486384 0.688014
O O1 0.734296 0.361194 0.713464
O O2 0.821573 0.399958 0.786783
O O3 0.787534 0.134726 0.768943
O O4 0.762997 0.303288 0.000000
O O5 0.544792 0.961642 0.500000
O O6 0.523709 0.743736 0.305589
O O7 0.590899 0.928351 0.240236
O O8 0.500000 0.000000 0.229166
O O9 0.500000 0.500000 0.760150
O O10 0.462081 0.621660 0.500000
O O11 0.434218 0.699058 0.782238
O O12 0.809090 0.019433 0.500000
O O13 0.853015 0.934722 0.756272
O O14 0.143618 0.344023 0.281579
O O15 0.130092 0.235081 0.000000
O O16 0.852791 0.454063 0.500000
#
# Coordination Sequence:
#
# PCOD8227142 Si02
#       6
#     8   8   8   8   8   8
#     4  12  26  46  69 101 137 167 203 266 334 384
#     4   9  17  34  60  91 123 163 216 268 309 363
#     4  10  21  38  62  91 125 170 220 270 321 384
#     4  12  26  47  72  97 126 170 221 262 311 390
#     4  12  25  42  63  94 133 173 214 273 337 382
#     4  11  22  40  67  96 129 174 224 266 313 388
#
# _framework density 21.604652999999999
#
# number of rings (size 3 to 8) (size 9 to 14) (size 15 to 20)
#    0.000    1.000    1.667    6.000    2.333    0.333 
#    0.000    2.500    0.000    0.000    0.000    0.000 
#    0.000    0.000    0.000    0.000    0.000    0.000 
#
# Total GULP energy -595323.274072 kJ/mol
# GULP energy per Si atom -12402.568210 kJ/mol
# Density = 2.155548 g / cm^3
# Si number density = 21.604653 Si / 1000 Ang^3
#
#
#
# Elastic Constant Matrix: (Units=GPa)
#
#
# Indices 1 2 3 4 5 6 
#
# 1 87.1842 18.1606 13.7453 0.0000 0.0000 0.0000
# 2 18.1606 113.7611 7.7470 0.0000 0.0000 0.0000
# 3 13.7453 7.7470 74.3743 0.0000 0.0000 0.0000
# 4 0.0000 0.0000 0.0000 29.2410 0.0000 0.0000
# 5 0.0000 0.0000 0.0000 0.0000 19.6198 0.0000
# 6 0.0000 0.0000 0.0000 0.0000 0.0000 44.0511
#
#
#
# Elastic Compliance Matrix: (Units=1/GPa)
#
#
# Indices 1 2 3 4 5 6 
#
# 1 0.012170 -0.001802 -0.002062 0.000000 0.000000 0.000000
# 2 -0.001802 0.009120 -0.000617 0.000000 0.000000 0.000000
# 3 -0.002062 -0.000617 0.013891 0.000000 0.000000 0.000000
# 4 0.000000 0.000000 0.000000 0.034198 0.000000 0.000000
# 5 0.000000 0.000000 0.000000 0.000000 0.050969 0.000000
# 6 0.000000 0.000000 0.000000 0.000000 0.000000 0.022701
#
#
# Mechanical properties :
#
#
# Convention : Reuss Voigt Hill
#
# Bulk Modulus (GPa) = 38.13939 39.40285 38.77112
# Shear Modulus (GPa) = 31.10395 34.29348 32.69872
#
# Velocity S-wave (km/s) = 3.79844 3.98844 3.89460
# Velocity P-wave (km/s) = 6.07694 6.28394 6.18131
#
# Compressibility (1/GPa) = 0.02621961
#
# Stress axis : x y z
#
# Youngs Moduli (GPa) = 82.16625 109.64788 71.99037
#
# Poissons Ratio (x) = 0.19764 0.14841
# Poissons Ratio (y) = 0.14810 0.04441
# Poissons Ratio (z) = 0.16939 0.06764
#
# Static dielectric constant tensor:
#      x y z
#    x 4.090660 0.000000 0.000000 
#    y 0.000000 3.951330 0.000000 
#    z 0.000000 0.000000 3.676720 
# 
# 
# High freq. dielectric constant tensor:
#      x y z
#    x 1.861380 0.000000 0.000000 
#    y 0.000000 1.859230 0.000000 
#    z 0.000000 0.000000 1.829240 
# 
# From -- ./inp_files/10487.got.cif
#   From: 2010.03.12/outbox.cif.g09.slc.cpg/sg55_6_cif.got.tgz:10487.got - 2010.04.16 15:19:21.
