data_PCOD8227538
_publ_section_title
;
Structure prediction by ZEFSAII (Michael W. Deem and Ramdas Pophale) SiO2 
 PCOD8227538
Probable space group: P B A M
;
_chemical_formula_sum "Si O2"
_cell_formula_units_Z 56
_cell_length_a 9.614164
_cell_length_b 13.930532
_cell_length_c 18.384527
_cell_angle_alpha 90.000000
_cell_angle_beta 90.000000
_cell_angle_gamma 90.000000
_cell_volume 2462.247409
_symmetry_space_group_name_H-M "P B A M"
_symmetry_group_IT_number 55
_symmetry_cell_setting 'orthorhombic'
loop_
_space_group_symop_operation_xyz
x,y,z
-x,-y,z
1/2+x,1/2-y,-z
1/2-x,1/2+y,-z
-x,-y,-z
x,y,-z
1/2-x,1/2+y,z
1/2+x,1/2-y,z
loop_
_atom_site_type_symbol
_atom_site_label
_atom_site_fract_x
_atom_site_fract_y
_atom_site_fract_z
Si Si1 0.902125 0.085056 0.842697
Si Si2 0.275502 0.233749 0.220095
Si Si3 0.121909 0.434621 0.083962
Si Si4 0.912442 0.090462 0.582310
Si Si5 0.011119 0.256867 0.314420
Si Si6 0.375202 0.711732 0.917043
Si Si7 0.902643 0.582593 0.418213
O O1 0.837873 0.156170 0.781569
O O2 0.770899 0.036070 0.882324
O O3 0.990484 0.146772 0.901284
O O4 0.000000 0.000000 0.809746
O O5 0.125444 0.220525 0.257042
O O6 0.393306 0.182477 0.269283
O O7 0.254064 0.190563 0.138595
O O8 0.085146 0.322951 0.097337
O O9 0.000000 0.500000 0.119304
O O10 0.134943 0.459893 0.000000
O O11 0.950524 0.124934 0.500000
O O12 0.756135 0.050651 0.584020
O O13 0.937457 0.173444 0.640191
O O14 0.000000 0.000000 0.607301
O O15 0.087681 0.322589 0.371459
O O16 0.324509 0.695092 0.000000
O O17 0.953035 0.605986 0.500000
O O18 0.000000 0.500000 0.384688
#
# Coordination Sequence:
#
# PCOD8227538 Si02
#       7
#     8   8   8   8   8   8   8
#     4  11  24  44  67  95 130 174 228 290 348 425
#     4  11  25  46  67  99 133 179 236 283 348 421
#     4   9  20  39  65  99 130 162 214 279 350 418
#     4  10  23  42  71 108 144 187 235 281 338 404
#     4  12  23  47  69  98 144 187 233 280 343 410
#     4  10  22  44  71  96 133 177 230 295 355 416
#     4  10  23  43  69 109 146 185 236 281 335 401
#
# _framework density 22.743449999999999
#
# number of rings (size 3 to 8) (size 9 to 14) (size 15 to 20)
#    0.000    1.571    2.857    0.857    2.000    4.571 
#    2.571    5.000    0.000    0.000    0.000    0.000 
#    0.000    0.000    0.000    0.000    0.000    0.000 
#
# Total GULP energy -694162.684370 kJ/mol
# GULP energy per Si atom -12395.762221 kJ/mol
# Density = 2.269168 g / cm^3
# Si number density = 22.743450 Si / 1000 Ang^3
#
#
#
# Elastic Constant Matrix: (Units=GPa)
#
#
# Indices 1 2 3 4 5 6 
#
# 1 134.6262 23.6953 35.4372 0.0000 0.0000 0.0000
# 2 23.6953 50.6463 19.0454 0.0000 0.0000 0.0000
# 3 35.4372 19.0454 99.1335 0.0000 0.0000 0.0000
# 4 0.0000 0.0000 0.0000 29.3100 0.0000 0.0000
# 5 0.0000 0.0000 0.0000 0.0000 45.6055 0.0000
# 6 0.0000 0.0000 0.0000 0.0000 0.0000 47.9785
#
#
#
# Elastic Compliance Matrix: (Units=1/GPa)
#
#
# Indices 1 2 3 4 5 6 
#
# 1 0.008629 -0.003101 -0.002489 0.000000 0.000000 0.000000
# 2 -0.003101 0.022397 -0.003194 0.000000 0.000000 0.000000
# 3 -0.002489 -0.003194 0.011591 0.000000 0.000000 0.000000
# 4 0.000000 0.000000 0.000000 0.034118 0.000000 0.000000
# 5 0.000000 0.000000 0.000000 0.000000 0.021927 0.000000
# 6 0.000000 0.000000 0.000000 0.000000 0.000000 0.020843
#
#
# Mechanical properties :
#
#
# Convention : Reuss Voigt Hill
#
# Bulk Modulus (GPa) = 39.92326 48.97352 44.44839
# Shear Modulus (GPa) = 34.38262 38.32735 36.35499
#
# Velocity S-wave (km/s) = 3.89235 4.10958 4.00244
# Velocity P-wave (km/s) = 6.14755 6.64063 6.39884
#
# Compressibility (1/GPa) = 0.02504805
#
# Stress axis : x y z
#
# Youngs Moduli (GPa) = 115.88932 44.64901 86.27575
#
# Poissons Ratio (x) = 0.13847 0.21472
# Poissons Ratio (y) = 0.35940 0.27559
# Poissons Ratio (z) = 0.28842 0.14262
#
# Static dielectric constant tensor:
#      x y z
#    x 4.355880 0.000000 0.000000 
#    y 0.000000 3.904020 0.000000 
#    z 0.000000 0.000000 4.250330 
# 
# 
# High freq. dielectric constant tensor:
#      x y z
#    x 1.912160 0.000000 0.000000 
#    y 0.000000 1.871420 0.000000 
#    z 0.000000 0.000000 1.900940 
# 
# From -- ./inp_files/22612.got.cif
#   From: 2010.03.12/outbox.cif.g09.slc.cpg/sg55_12_cif.got.tgz:22612.got - 2010.04.16 15:19:21.
