data_PCOD8227396
_publ_section_title
;
Structure prediction by ZEFSAII (Michael W. Deem and Ramdas Pophale) SiO2 
 PCOD8227396
Probable space group: P B A M
;
_chemical_formula_sum "Si O2"
_cell_formula_units_Z 48
_cell_length_a 23.473252
_cell_length_b 11.697002
_cell_length_c 8.595564
_cell_angle_alpha 90.000000
_cell_angle_beta 90.000000
_cell_angle_gamma 90.000000
_cell_volume 2360.055432
_symmetry_space_group_name_H-M "P B A M"
_symmetry_group_IT_number 55
_symmetry_cell_setting 'orthorhombic'
loop_
_space_group_symop_operation_xyz
x,y,z
-x,-y,z
1/2+x,1/2-y,-z
1/2-x,1/2+y,-z
-x,-y,-z
x,y,-z
1/2-x,1/2+y,z
1/2+x,1/2-y,z
loop_
_atom_site_type_symbol
_atom_site_label
_atom_site_fract_x
_atom_site_fract_y
_atom_site_fract_z
Si Si1 0.565163 0.489579 0.184224
Si Si2 0.227177 0.377295 0.321888
Si Si3 0.874958 0.757599 0.185983
Si Si4 0.658692 0.671260 0.181103
Si Si5 0.556976 0.044177 0.178960
Si Si6 0.149038 0.590053 0.674779
O O1 0.500000 0.500000 0.250775
O O2 0.599169 0.377755 0.246671
O O3 0.602744 0.599491 0.233682
O O4 0.561566 0.479351 0.000000
O O5 0.242355 0.347360 0.500000
O O6 0.186420 0.274779 0.258602
O O7 0.283148 0.395661 0.216423
O O8 0.200659 0.502645 0.307322
O O9 0.919423 0.662316 0.249828
O O10 0.868446 0.755091 0.000000
O O11 0.667292 0.782672 0.285692
O O12 0.654028 0.701233 0.000000
O O13 0.500000 0.000000 0.264417
O O14 0.601547 0.942635 0.200018
O O15 0.543952 0.067181 0.000000
O O16 0.124460 0.584266 0.500000
#
# Coordination Sequence:
#
# PCOD8227396 Si02
#       6
#     8   8   8   8   8   8
#     4   9  20  37  59  88 120 154 193 241 297 349
#     4  10  22  40  60  84 116 152 191 240 298 351
#     4   9  18  35  59  87 117 149 191 239 288 348
#     4  11  23  37  61  89 116 150 194 244 292 352
#     4   9  18  32  57  88 114 146 191 241 290 340
#     4  10  22  39  57  82 117 154 192 236 292 353
#
# _framework density 20.338505000000001
#
# number of rings (size 3 to 8) (size 9 to 14) (size 15 to 20)
#    0.000    2.333    0.000    1.500    4.667    2.333 
#    0.000    0.833    0.000    2.500    0.000    0.000 
#    0.000    0.000    0.000    0.000    0.000    0.000 
#
# Total GULP energy -594908.437788 kJ/mol
# GULP energy per Si atom -12393.925787 kJ/mol
# Density = 2.029221 g / cm^3
# Si number density = 20.338505 Si / 1000 Ang^3
#
#
#
# Elastic Constant Matrix: (Units=GPa)
#
#
# Indices 1 2 3 4 5 6 
#
# 1 123.3271 52.8457 15.0356 0.0000 0.0000 0.0000
# 2 52.8457 115.9229 28.6749 0.0000 0.0000 0.0000
# 3 15.0356 28.6749 27.7166 0.0000 0.0000 0.0000
# 4 0.0000 0.0000 0.0000 17.2284 0.0000 0.0000
# 5 0.0000 0.0000 0.0000 0.0000 6.4722 0.0000
# 6 0.0000 0.0000 0.0000 0.0000 0.0000 23.9433
#
#
#
# Elastic Compliance Matrix: (Units=1/GPa)
#
#
# Indices 1 2 3 4 5 6 
#
# 1 0.010096 -0.004365 -0.000961 0.000000 0.000000 0.000000
# 2 -0.004365 0.013480 -0.011579 0.000000 0.000000 0.000000
# 3 -0.000961 -0.011579 0.048580 0.000000 0.000000 0.000000
# 4 0.000000 0.000000 0.000000 0.058044 0.000000 0.000000
# 5 0.000000 0.000000 0.000000 0.000000 0.154507 0.000000
# 6 0.000000 0.000000 0.000000 0.000000 0.000000 0.041765
#
#
# Mechanical properties :
#
#
# Convention : Reuss Voigt Hill
#
# Bulk Modulus (GPa) = 26.07761 51.11988 38.59874
# Shear Modulus (GPa) = 13.40255 20.88947 17.14601
#
# Velocity S-wave (km/s) = 2.56983 3.20830 2.90665
# Velocity P-wave (km/s) = 4.65350 6.23806 5.50311
#
# Compressibility (1/GPa) = 0.03834708
#
# Stress axis : x y z
#
# Youngs Moduli (GPa) = 99.04939 74.18263 20.58464
#
# Poissons Ratio (x) = 0.32378 0.01979
# Poissons Ratio (y) = 0.43232 0.23834
# Poissons Ratio (z) = 0.09521 0.85893
#
# Static dielectric constant tensor:
#      x y z
#    x 3.873140 0.000000 0.000000 
#    y 0.000000 3.725920 0.000000 
#    z 0.000000 0.000000 3.403060 
# 
# 
# High freq. dielectric constant tensor:
#      x y z
#    x 1.800940 0.000000 0.000000 
#    y 0.000000 1.798320 0.000000 
#    z 0.000000 0.000000 1.767780 
# 
# From -- ./inp_files/4039.got.cif
#   From: 2010.03.12/outbox.cif.g09.slc.cpg/sg55_3_cif.got.tgz:4039.got - 2010.04.16 15:19:21.
