data_PCOD8227303
_publ_section_title
;
Structure prediction by ZEFSAII (Michael W. Deem and Ramdas Pophale) SiO2 
 PCOD8227303
Probable space group: P B A M
;
_chemical_formula_sum "Si O2"
_cell_formula_units_Z 48
_cell_length_a 14.898311
_cell_length_b 10.117414
_cell_length_c 15.683145
_cell_angle_alpha 90.000000
_cell_angle_beta 90.000000
_cell_angle_gamma 90.000000
_cell_volume 2363.957776
_symmetry_space_group_name_H-M "P B A M"
_symmetry_group_IT_number 55
_symmetry_cell_setting 'orthorhombic'
loop_
_space_group_symop_operation_xyz
x,y,z
-x,-y,z
1/2+x,1/2-y,-z
1/2-x,1/2+y,-z
-x,-y,-z
x,y,-z
1/2-x,1/2+y,z
1/2+x,1/2-y,z
loop_
_atom_site_type_symbol
_atom_site_label
_atom_site_fract_x
_atom_site_fract_y
_atom_site_fract_z
Si Si1 0.155703 0.263620 0.208321
Si Si2 0.644018 0.480684 0.684280
Si Si3 0.651933 0.006978 0.676510
Si Si4 0.915355 0.593260 0.500000
Si Si5 0.494332 0.844164 0.902171
Si Si6 0.869441 0.246296 0.234951
Si Si7 0.917137 0.903624 0.500000
O O1 0.113487 0.134241 0.252228
O O2 0.110365 0.381724 0.263101
O O3 0.106049 0.285863 0.117688
O O4 0.264493 0.260866 0.204407
O O5 0.746133 0.507113 0.702656
O O6 0.595728 0.616764 0.713055
O O7 0.636135 0.439613 0.585590
O O8 0.611531 0.863042 0.696514
O O9 0.643790 0.052987 0.580013
O O10 0.941544 0.748101 0.500000
O O11 0.000000 0.500000 0.500000
O O12 0.570631 0.767941 0.848325
O O13 0.500000 0.000000 0.884331
O O14 0.515040 0.812217 0.000000
O O15 0.000000 0.000000 0.500000
#
# Coordination Sequence:
#
# PCOD8227303 Si02
#       7
#     8   8   8   4   8   8   4
#     4  10  21  42  67  95 127 169 211 263 320 379
#     4  10  23  41  63  88 127 172 208 262 320 368
#     4  10  21  41  63  88 121 170 218 257 305 375
#     4  12  27  38  58  90 124 168 221 266 304 366
#     4  11  24  42  70  99 128 167 211 265 325 394
#     4  10  23  40  69  97 127 168 216 260 322 384
#     4  12  27  40  54  90 132 166 211 266 318 364
#
# _framework density 20.304932000000001
#
# number of rings (size 3 to 8) (size 9 to 14) (size 15 to 20)
#    0.000    1.500    3.333    0.500    7.000    0.667 
#    0.000    1.667    0.000    0.000    0.000    0.000 
#    0.000    0.000    0.000    0.000    0.000    0.000 
#
# Total GULP energy -594765.303245 kJ/mol
# GULP energy per Si atom -12390.943818 kJ/mol
# Density = 2.025872 g / cm^3
# Si number density = 20.304932 Si / 1000 Ang^3
#
#
#
# Elastic Constant Matrix: (Units=GPa)
#
#
# Indices 1 2 3 4 5 6 
#
# 1 49.3390 32.3940 26.8448 0.0000 0.0000 0.0000
# 2 32.3940 181.4113 66.6032 0.0000 0.0000 0.0000
# 3 26.8448 66.6032 128.8998 0.0000 0.0000 0.0000
# 4 0.0000 0.0000 0.0000 30.6104 0.0000 0.0000
# 5 0.0000 0.0000 0.0000 0.0000 28.8254 0.0000
# 6 0.0000 0.0000 0.0000 0.0000 0.0000 19.0430
#
#
#
# Elastic Compliance Matrix: (Units=1/GPa)
#
#
# Indices 1 2 3 4 5 6 
#
# 1 0.024146 -0.003043 -0.003457 0.000000 0.000000 0.000000
# 2 -0.003043 0.007186 -0.003080 0.000000 0.000000 0.000000
# 3 -0.003457 -0.003080 0.010069 0.000000 0.000000 0.000000
# 4 0.000000 0.000000 0.000000 0.032669 0.000000 0.000000
# 5 0.000000 0.000000 0.000000 0.000000 0.034692 0.000000
# 6 0.000000 0.000000 0.000000 0.000000 0.000000 0.052513
#
#
# Mechanical properties :
#
#
# Convention : Reuss Voigt Hill
#
# Bulk Modulus (GPa) = 44.95577 67.92601 56.44089
# Shear Modulus (GPa) = 26.61746 31.28299 28.95022
#
# Velocity S-wave (km/s) = 3.62454 3.92938 3.78004
# Velocity P-wave (km/s) = 6.30118 7.35611 6.84898
#
# Compressibility (1/GPa) = 0.02224409
#
# Stress axis : x y z
#
# Youngs Moduli (GPa) = 41.41420 139.15431 99.31437
#
# Poissons Ratio (x) = 0.42340 0.34329
# Poissons Ratio (y) = 0.12601 0.30584
# Poissons Ratio (z) = 0.14315 0.42853
#
# Static dielectric constant tensor:
#      x y z
#    x 3.538750 0.000000 0.000000 
#    y 0.000000 0.389820 0.000000 
#    z 0.000000 0.000000 3.227180 
# 
# 
# High freq. dielectric constant tensor:
#      x y z
#    x 1.790700 0.000000 0.000000 
#    y 0.000000 1.813880 0.000000 
#    z 0.000000 0.000000 1.781650 
# 
# From -- ./inp_files/21528.got.cif
#   From: 2010.03.12/outbox.cif.g09.slc.cpg/sg55_11_cif.got.tgz:21528.got - 2010.04.16 15:19:21.
