data_PCOD8227829
_publ_section_title
;
Structure prediction by ZEFSAII (Michael W. Deem and Ramdas Pophale) SiO2 
 PCOD8227829
Probable space group: P B A M
;
_chemical_formula_sum "Si O2"
_cell_formula_units_Z 64
_cell_length_a 18.778913
_cell_length_b 21.526251
_cell_length_c 9.310077
_cell_angle_alpha 90.000000
_cell_angle_beta 90.000000
_cell_angle_gamma 90.000000
_cell_volume 3763.501754
_symmetry_space_group_name_H-M "P B A M"
_symmetry_group_IT_number 55
_symmetry_cell_setting 'orthorhombic'
loop_
_space_group_symop_operation_xyz
x,y,z
-x,-y,z
1/2+x,1/2-y,-z
1/2-x,1/2+y,-z
-x,-y,-z
x,y,-z
1/2-x,1/2+y,z
1/2+x,1/2-y,z
loop_
_atom_site_type_symbol
_atom_site_label
_atom_site_fract_x
_atom_site_fract_y
_atom_site_fract_z
Si Si1 0.673578 0.092170 0.331153
Si Si2 0.019282 0.930410 0.668212
Si Si3 0.921537 0.703788 0.333649
Si Si4 0.920449 0.344565 0.665321
Si Si5 0.874556 0.234500 0.839082
Si Si6 0.922840 0.483302 0.671006
Si Si7 0.467028 0.682762 0.162596
Si Si8 0.329224 0.377440 0.666594
O O1 0.660018 0.091770 0.500000
O O2 0.639172 0.156737 0.274597
O O3 0.634507 0.031880 0.264438
O O4 0.757053 0.085939 0.293676
O O5 0.004899 0.919898 0.500000
O O6 0.968300 0.883058 0.754268
O O7 0.102457 0.919365 0.706540
O O8 0.000000 0.000000 0.716162
O O9 0.910260 0.721506 0.500000
O O10 0.996348 0.669022 0.311204
O O11 0.916360 0.767774 0.243385
O O12 0.899742 0.334285 0.500000
O O13 0.870497 0.300376 0.759895
O O14 0.902504 0.413869 0.718659
O O15 0.954507 0.210208 0.836839
O O16 0.825603 0.185920 0.755613
O O17 0.845485 0.242115 0.000000
O O18 0.925518 0.486703 0.500000
O O19 0.000000 0.500000 0.734756
O O20 0.439479 0.672419 0.000000
O O21 0.331350 0.358882 0.500000
#
# Coordination Sequence:
#
# PCOD8227829 Si02
#       8
#     8   8   8   8   8   8   8   8
#     4   9  16  26  44  69  95 121 151 192 234 273
#     4   9  17  30  49  70  91 119 154 194 240 282
#     4   9  15  25  43  67  92 118 147 183 227 268
#     4   9  15  24  44  69  92 118 150 186 221 265
#     4   9  17  29  45  64  88 117 150 190 230 269
#     4   9  14  23  41  70 100 123 151 186 226 273
#     4   9  17  28  44  68  92 114 147 189 229 270
#     4   9  17  30  48  69  91 115 152 196 236 278
#
# _framework density 17.005438000000002
#
# number of rings (size 3 to 8) (size 9 to 14) (size 15 to 20)
#    0.000    3.000    1.250    0.750    0.000    3.250 
#    0.000    0.625    2.750    1.875    0.000    0.000 
#    0.000    0.000    0.000    0.000    0.000    0.000 
#
# Total GULP energy -793360.868253 kJ/mol
# GULP energy per Si atom -12396.263566 kJ/mol
# Density = 1.696673 g / cm^3
# Si number density = 17.005438 Si / 1000 Ang^3
#
#
#
# Elastic Constant Matrix: (Units=GPa)
#
#
# Indices 1 2 3 4 5 6 
#
# 1 63.8380 53.4010 26.2450 0.0000 0.0000 0.0000
# 2 53.4010 161.1502 56.3495 0.0000 0.0000 0.0000
# 3 26.2450 56.3495 65.3601 0.0000 0.0000 0.0000
# 4 0.0000 0.0000 0.0000 5.9413 0.0000 0.0000
# 5 0.0000 0.0000 0.0000 0.0000 7.9197 0.0000
# 6 0.0000 0.0000 0.0000 0.0000 0.0000 23.2826
#
#
#
# Elastic Compliance Matrix: (Units=1/GPa)
#
#
# Indices 1 2 3 4 5 6 
#
# 1 0.022278 -0.006091 -0.003695 0.000000 0.000000 0.000000
# 2 -0.006091 0.010548 -0.006649 0.000000 0.000000 0.000000
# 3 -0.003695 -0.006649 0.022516 0.000000 0.000000 0.000000
# 4 0.000000 0.000000 0.000000 0.168314 0.000000 0.000000
# 5 0.000000 0.000000 0.000000 0.000000 0.126267 0.000000
# 6 0.000000 0.000000 0.000000 0.000000 0.000000 0.042951
#
#
# Mechanical properties :
#
#
# Convention : Reuss Voigt Hill
#
# Bulk Modulus (GPa) = 44.49509 62.48214 53.48861
# Shear Modulus (GPa) = 11.54111 17.71889 14.63000
#
# Velocity S-wave (km/s) = 2.60796 3.23143 2.93629
# Velocity P-wave (km/s) = 5.94059 7.12356 6.55880
#
# Compressibility (1/GPa) = 0.02247439
#
# Stress axis : x y z
#
# Youngs Moduli (GPa) = 44.88638 94.80048 44.41363
#
# Poissons Ratio (x) = 0.57738 0.16410
# Poissons Ratio (y) = 0.27338 0.29529
# Poissons Ratio (z) = 0.16585 0.63030
#
# Static dielectric constant tensor:
#      x y z
#    x 2.944480 0.000000 0.000000 
#    y 0.000000 3.336670 0.000000 
#    z 0.000000 0.000000 3.032900 
# 
# 
# High freq. dielectric constant tensor:
#      x y z
#    x 1.621570 0.000000 0.000000 
#    y 0.000000 1.661120 0.000000 
#    z 0.000000 0.000000 1.628120 
# 
# From -- ./inp_files/9184.got.cif
#   From: 2010.03.12/outbox.cif.g09.slc.cpg/sg55_5_cif.got.tgz:9184.got - 2010.04.16 15:19:21.
