data_PCOD8227118
_publ_section_title
;
Structure prediction by ZEFSAII (Michael W. Deem and Ramdas Pophale) SiO2 
 PCOD8227118
Probable space group: P B A M
;
_chemical_formula_sum "Si O2"
_cell_formula_units_Z 48
_cell_length_a 18.735822
_cell_length_b 14.929256
_cell_length_c 8.413715
_cell_angle_alpha 90.000000
_cell_angle_beta 90.000000
_cell_angle_gamma 90.000000
_cell_volume 2353.416066
_symmetry_space_group_name_H-M "P B A M"
_symmetry_group_IT_number 55
_symmetry_cell_setting 'orthorhombic'
loop_
_space_group_symop_operation_xyz
x,y,z
-x,-y,z
1/2+x,1/2-y,-z
1/2-x,1/2+y,-z
-x,-y,-z
x,y,-z
1/2-x,1/2+y,z
1/2+x,1/2-y,z
loop_
_atom_site_type_symbol
_atom_site_label
_atom_site_fract_x
_atom_site_fract_y
_atom_site_fract_z
Si Si1 0.085534 0.256082 0.188760
Si Si2 0.257464 0.805676 0.185000
Si Si3 0.028452 0.598079 0.186487
Si Si4 0.436512 0.558910 0.814302
Si Si5 0.181225 0.639043 0.315769
Si Si6 0.207136 0.989344 0.683286
O O1 0.164366 0.280116 0.251074
O O2 0.063593 0.159092 0.260004
O O3 0.029737 0.330388 0.247503
O O4 0.087758 0.252166 0.000000
O O5 0.203597 0.723635 0.210290
O O6 0.230518 0.888483 0.286866
O O7 0.259202 0.831816 0.000000
O O8 0.099837 0.614656 0.283587
O O9 0.000000 0.500000 0.227902
O O10 0.043962 0.608636 0.000000
O O11 0.500000 0.500000 0.735784
O O12 0.361749 0.510399 0.787717
O O13 0.450892 0.567654 0.000000
O O14 0.191783 0.662614 0.500000
O O15 0.229027 0.554620 0.264019
O O16 0.187233 0.002577 0.500000
#
# Coordination Sequence:
#
# PCOD8227118 Si02
#       6
#     8   8   8   8   8   8
#     4   9  19  37  60  90 121 153 200 253 303 352
#     4  11  22  39  66  91 117 157 206 255 303 359
#     4  10  21  38  62  91 123 159 204 255 302 357
#     4  10  21  38  61  88 119 157 206 255 300 356
#     4  11  24  41  60  90 128 163 201 248 306 369
#     4  11  24  41  61  88 126 162 201 250 305 368
#
# _framework density 20.395882
#
# number of rings (size 3 to 8) (size 9 to 14) (size 15 to 20)
#    0.000    1.667    1.667    2.500    2.333    4.000 
#    0.000    2.500    0.000    0.000    0.000    0.000 
#    0.000    0.000    0.000    0.000    0.000    0.000 
#
# Total GULP energy -595438.809957 kJ/mol
# GULP energy per Si atom -12404.975207 kJ/mol
# Density = 2.034946 g / cm^3
# Si number density = 20.395882 Si / 1000 Ang^3
#
#
#
# Elastic Constant Matrix: (Units=GPa)
#
#
# Indices 1 2 3 4 5 6 
#
# 1 147.1711 71.0674 8.5946 0.0000 0.0000 0.0000
# 2 71.0674 166.7998 8.7196 0.0000 0.0000 0.0000
# 3 8.5946 8.7196 25.8601 0.0000 0.0000 0.0000
# 4 0.0000 0.0000 0.0000 9.6974 0.0000 0.0000
# 5 0.0000 0.0000 0.0000 0.0000 21.5723 0.0000
# 6 0.0000 0.0000 0.0000 0.0000 0.0000 44.6057
#
#
#
# Elastic Compliance Matrix: (Units=1/GPa)
#
#
# Indices 1 2 3 4 5 6 
#
# 1 0.008624 -0.003588 -0.001656 0.000000 0.000000 0.000000
# 2 -0.003588 0.007595 -0.001369 0.000000 0.000000 0.000000
# 3 -0.001656 -0.001369 0.039682 0.000000 0.000000 0.000000
# 4 0.000000 0.000000 0.000000 0.103121 0.000000 0.000000
# 5 0.000000 0.000000 0.000000 0.000000 0.046356 0.000000
# 6 0.000000 0.000000 0.000000 0.000000 0.000000 0.022419
#
#
# Mechanical properties :
#
#
# Convention : Reuss Voigt Hill
#
# Bulk Modulus (GPa) = 23.43274 57.39935 40.41604
# Shear Modulus (GPa) = 19.58884 31.93838 25.76361
#
# Velocity S-wave (km/s) = 3.10244 3.96147 3.55798
# Velocity P-wave (km/s) = 4.93431 7.00914 6.06117
#
# Compressibility (1/GPa) = 0.04267533
#
# Stress axis : x y z
#
# Youngs Moduli (GPa) = 115.95464 131.65865 25.20056
#
# Poissons Ratio (x) = 0.47237 0.04174
# Poissons Ratio (y) = 0.41602 0.03449
# Poissons Ratio (z) = 0.19207 0.18019
#
# Static dielectric constant tensor:
#      x y z
#    x 3.752570 0.000000 0.000000 
#    y 0.000000 3.766820 0.000000 
#    z 0.000000 0.000000 3.380760 
# 
# 
# High freq. dielectric constant tensor:
#      x y z
#    x 1.807540 0.000000 0.000000 
#    y 0.000000 1.814430 0.000000 
#    z 0.000000 0.000000 1.772110 
# 
# From -- ./inp_files/5571.got.cif
#   From: 2010.03.12/outbox.cif.g09.slc.cpg/sg55_3_cif.got.tgz:5571.got - 2010.04.16 15:19:21.
