data_PCOD8227185
_publ_section_title
;
Structure prediction by ZEFSAII (Michael W. Deem and Ramdas Pophale) SiO2 
 PCOD8227185
Probable space group: P B A M
;
_chemical_formula_sum "Si O2"
_cell_formula_units_Z 64
_cell_length_a 14.948179
_cell_length_b 24.523358
_cell_length_c 8.893831
_cell_angle_alpha 90.000000
_cell_angle_beta 90.000000
_cell_angle_gamma 90.000000
_cell_volume 3260.296522
_symmetry_space_group_name_H-M "P B A M"
_symmetry_group_IT_number 55
_symmetry_cell_setting 'orthorhombic'
loop_
_space_group_symop_operation_xyz
x,y,z
-x,-y,z
1/2+x,1/2-y,-z
1/2-x,1/2+y,-z
-x,-y,-z
x,y,-z
1/2-x,1/2+y,z
1/2+x,1/2-y,z
loop_
_atom_site_type_symbol
_atom_site_label
_atom_site_fract_x
_atom_site_fract_y
_atom_site_fract_z
Si Si1 0.185801 0.142826 0.825750
Si Si2 0.825568 0.436562 0.677835
Si Si3 0.504173 0.103477 0.824152
Si Si4 0.189747 0.860524 0.674836
Si Si5 0.808069 0.550464 0.823341
Si Si6 0.776084 0.247088 0.168555
Si Si7 0.487797 0.665702 0.325388
Si Si8 0.477253 0.225687 0.170712
O O1 0.258228 0.109472 0.733428
O O2 0.201886 0.207294 0.798966
O O3 0.086031 0.130739 0.765093
O O4 0.193620 0.126704 0.000000
O O5 0.824905 0.437645 0.500000
O O6 0.925610 0.425055 0.732837
O O7 0.791471 0.494042 0.739544
O O8 0.595413 0.073980 0.778440
O O9 0.515144 0.166939 0.780857
O O10 0.481730 0.097312 0.000000
O O11 0.206348 0.871552 0.500000
O O12 0.230841 0.908648 0.772151
O O13 0.235594 0.802932 0.717149
O O14 0.084752 0.858388 0.715491
O O15 0.800486 0.540915 0.000000
O O16 0.870651 0.277226 0.186690
O O17 0.765479 0.223360 0.000000
O O18 0.466607 0.660459 0.500000
O O19 0.482286 0.729134 0.280290
O O20 0.505744 0.240148 0.000000
#
# Coordination Sequence:
#
# PCOD8227185 Si02
#       8
#     8   8   8   8   8   8   8   8
#     4  11  22  39  63  89 119 160 207 251 297 358
#     4  12  25  41  62  89 124 159 199 252 309 362
#     4  10  21  39  61  88 121 161 204 248 295 354
#     4  10  22  40  60  86 124 159 197 250 307 359
#     4  11  24  41  64  88 117 160 210 253 297 357
#     4   9  18  34  58  84 115 155 197 241 292 353
#     4  10  22  38  57  88 126 161 197 248 310 363
#     4   9  17  34  57  84 119 158 198 239 288 352
#
# _framework density 19.630116999999998
#
# number of rings (size 3 to 8) (size 9 to 14) (size 15 to 20)
#    0.000    1.750    1.250    3.000    1.750    5.500 
#    0.000    0.625    0.000    3.750    0.000    0.000 
#    0.000    0.000    0.000    0.000    0.000    0.000 
#
# Total GULP energy -793879.019054 kJ/mol
# GULP energy per Si atom -12404.359673 kJ/mol
# Density = 1.958544 g / cm^3
# Si number density = 19.630117 Si / 1000 Ang^3
#
#
#
# Elastic Constant Matrix: (Units=GPa)
#
#
# Indices 1 2 3 4 5 6 
#
# 1 88.2324 22.3025 41.7514 0.0000 0.0000 0.0000
# 2 22.3025 46.6389 23.9423 0.0000 0.0000 0.0000
# 3 41.7514 23.9423 85.5317 0.0000 0.0000 0.0000
# 4 0.0000 0.0000 0.0000 19.9542 0.0000 0.0000
# 5 0.0000 0.0000 0.0000 0.0000 31.6837 0.0000
# 6 0.0000 0.0000 0.0000 0.0000 0.0000 15.0656
#
#
#
# Elastic Compliance Matrix: (Units=1/GPa)
#
#
# Indices 1 2 3 4 5 6 
#
# 1 0.015377 -0.004087 -0.006362 0.000000 0.000000 0.000000
# 2 -0.004087 0.026126 -0.005318 0.000000 0.000000 0.000000
# 3 -0.006362 -0.005318 0.016286 0.000000 0.000000 0.000000
# 4 0.000000 0.000000 0.000000 0.050115 0.000000 0.000000
# 5 0.000000 0.000000 0.000000 0.000000 0.031562 0.000000
# 6 0.000000 0.000000 0.000000 0.000000 0.000000 0.066376
#
#
# Mechanical properties :
#
#
# Convention : Reuss Voigt Hill
#
# Bulk Modulus (GPa) = 38.08939 44.04392 41.06665
# Shear Modulus (GPa) = 20.31457 22.16782 21.24119
#
# Velocity S-wave (km/s) = 3.22043 3.36412 3.29305
# Velocity P-wave (km/s) = 5.76835 6.12987 5.95186
#
# Compressibility (1/GPa) = 0.02625403
#
# Stress axis : x y z
#
# Youngs Moduli (GPa) = 65.03027 38.27621 61.40294
#
# Poissons Ratio (x) = 0.15645 0.39066
# Poissons Ratio (y) = 0.26580 0.32654
# Poissons Ratio (z) = 0.41374 0.20355
#
# Static dielectric constant tensor:
#      x y z
#    x 3.605050 0.000000 0.000000 
#    y 0.000000 3.496610 0.000000 
#    z 0.000000 0.000000 3.559960 
# 
# 
# High freq. dielectric constant tensor:
#      x y z
#    x 1.769800 0.000000 0.000000 
#    y 0.000000 1.756630 0.000000 
#    z 0.000000 0.000000 1.766030 
# 
# From -- ./inp_files/6491.got.cif
#   From: 2010.03.12/outbox.cif.g09.slc.cpg/sg55_4_cif.got.tgz:6491.got - 2010.04.16 15:19:21.
