data_PCOD8227664
_publ_section_title
;
Structure prediction by ZEFSAII (Michael W. Deem and Ramdas Pophale) SiO2 
 PCOD8227664
Probable space group: P B A M
;
_chemical_formula_sum "Si O2"
_cell_formula_units_Z 56
_cell_length_a 22.775448
_cell_length_b 9.752312
_cell_length_c 14.180368
_cell_angle_alpha 90.000000
_cell_angle_beta 90.000000
_cell_angle_gamma 90.000000
_cell_volume 3149.647975
_symmetry_space_group_name_H-M "P B A M"
_symmetry_group_IT_number 55
_symmetry_cell_setting 'orthorhombic'
loop_
_space_group_symop_operation_xyz
x,y,z
-x,-y,z
1/2+x,1/2-y,-z
1/2-x,1/2+y,-z
-x,-y,-z
x,y,-z
1/2-x,1/2+y,z
1/2+x,1/2-y,z
loop_
_atom_site_type_symbol
_atom_site_label
_atom_site_fract_x
_atom_site_fract_y
_atom_site_fract_z
Si Si1 0.822254 0.481666 0.701637
Si Si2 0.806414 0.094618 0.897529
Si Si3 0.124514 0.770463 0.391543
Si Si4 0.126353 0.259076 0.611331
Si Si5 0.808813 0.414091 0.100945
Si Si6 0.316282 0.510145 0.701952
Si Si7 0.000181 0.152572 0.388633
O O1 0.832903 0.331374 0.662094
O O2 0.859792 0.585732 0.639398
O O3 0.844998 0.476126 0.810702
O O4 0.753310 0.515074 0.696931
O O5 0.748845 0.004322 0.906608
O O6 0.791748 0.255082 0.879207
O O7 0.840932 0.033496 0.806315
O O8 0.839933 0.080891 0.000000
O O9 0.126013 0.731099 0.500000
O O10 0.150643 0.922119 0.377389
O O11 0.057386 0.765533 0.352352
O O12 0.137584 0.235842 0.500000
O O13 0.058911 0.232668 0.639720
O O14 0.168789 0.166361 0.675858
O O15 0.843003 0.426240 0.000000
O O16 0.994565 0.138126 0.500000
O O17 0.000000 0.000000 0.343865
#
# Coordination Sequence:
#
# PCOD8227664 Si02
#       7
#     8   8   8   8   8   8   8
#     4  11  23  34  49  83 115 141 172 213 270 329
#     4   9  18  32  51  76 105 139 177 218 262 311
#     4  11  21  35  55  76 105 143 183 220 259 313
#     4  11  23  37  54  76 108 145 182 224 261 307
#     4   9  18  33  52  75 106 141 177 218 261 311
#     4  11  21  34  53  79 110 146 175 208 265 330
#     4   9  18  36  57  74  94 134 192 234 258 296
#
# _framework density 17.779764
#
# number of rings (size 3 to 8) (size 9 to 14) (size 15 to 20)
#    0.000    1.857    2.857    1.714    6.000    4.000 
#    0.000    2.143    0.000    0.000    0.000    6.000 
#    0.000    0.000    0.000    0.000    0.000    0.000 
#
# Total GULP energy -693843.009761 kJ/mol
# GULP energy per Si atom -12390.053746 kJ/mol
# Density = 1.773930 g / cm^3
# Si number density = 17.779764 Si / 1000 Ang^3
#
#
#
# Elastic Constant Matrix: (Units=GPa)
#
#
# Indices 1 2 3 4 5 6 
#
# 1 66.7352 15.0776 38.7694 0.0000 0.0000 0.0000
# 2 15.0776 61.4598 26.1871 0.0000 0.0000 0.0000
# 3 38.7694 26.1871 102.9108 0.0000 0.0000 0.0000
# 4 0.0000 0.0000 0.0000 28.4988 0.0000 0.0000
# 5 0.0000 0.0000 0.0000 0.0000 2.2436 0.0000
# 6 0.0000 0.0000 0.0000 0.0000 0.0000 20.0024
#
#
#
# Elastic Compliance Matrix: (Units=1/GPa)
#
#
# Indices 1 2 3 4 5 6 
#
# 1 0.019367 -0.001842 -0.006827 0.000000 0.000000 0.000000
# 2 -0.001842 0.018425 -0.003994 0.000000 0.000000 0.000000
# 3 -0.006827 -0.003994 0.013306 0.000000 0.000000 0.000000
# 4 0.000000 0.000000 0.000000 0.035089 0.000000 0.000000
# 5 0.000000 0.000000 0.000000 0.000000 0.445711 0.000000
# 6 0.000000 0.000000 0.000000 0.000000 0.000000 0.049994
#
#
# Mechanical properties :
#
#
# Convention : Reuss Voigt Hill
#
# Bulk Modulus (GPa) = 38.80555 43.46378 41.13467
# Shear Modulus (GPa) = 8.11940 20.22042 14.16991
#
# Velocity S-wave (km/s) = 2.13929 3.37600 2.82613
# Velocity P-wave (km/s) = 5.28915 6.30042 5.81680
#
# Compressibility (1/GPa) = 0.02576951
#
# Stress axis : x y z
#
# Youngs Moduli (GPa) = 51.63388 54.27493 75.15607
#
# Poissons Ratio (x) = 0.09999 0.51312
# Poissons Ratio (y) = 0.09512 0.30021
# Poissons Ratio (z) = 0.35252 0.21680
#
# Static dielectric constant tensor:
#      x y z
#    x 3.072930 0.000000 0.000000 
#    y 0.000000 3.324490 0.000000 
#    z 0.000000 0.000000 3.858240 
# 
# 
# High freq. dielectric constant tensor:
#      x y z
#    x 1.645610 0.000000 0.000000 
#    y 0.000000 1.700100 0.000000 
#    z 0.000000 0.000000 1.691660 
# 
# From -- ./inp_files/17613.got.cif
#   From: 2010.03.12/outbox.cif.g09.slc.cpg/sg55_9_cif.got.tgz:17613.got - 2010.04.16 15:19:21.
