data_PCOD8227353
_publ_section_title
;
Structure prediction by ZEFSAII (Michael W. Deem and Ramdas Pophale) SiO2 
 PCOD8227353
Probable space group: P B A M
;
_chemical_formula_sum "Si O2"
_cell_formula_units_Z 64
_cell_length_a 29.713778
_cell_length_b 14.423986
_cell_length_c 8.867981
_cell_angle_alpha 90.000000
_cell_angle_beta 90.000000
_cell_angle_gamma 90.000000
_cell_volume 3800.737890
_symmetry_space_group_name_H-M "P B A M"
_symmetry_group_IT_number 55
_symmetry_cell_setting 'orthorhombic'
loop_
_space_group_symop_operation_xyz
x,y,z
-x,-y,z
1/2+x,1/2-y,-z
1/2-x,1/2+y,-z
-x,-y,-z
x,y,-z
1/2-x,1/2+y,z
1/2+x,1/2-y,z
loop_
_atom_site_type_symbol
_atom_site_label
_atom_site_fract_x
_atom_site_fract_y
_atom_site_fract_z
Si Si1 0.550179 0.609127 0.675021
Si Si2 0.448451 0.605368 0.324927
Si Si3 0.634132 0.676649 0.823889
Si Si4 0.778802 0.498361 0.668569
Si Si5 0.863195 0.833148 0.173063
Si Si6 0.288848 0.209960 0.320739
Si Si7 0.825671 0.005633 0.669100
Si Si8 0.292913 0.819857 0.172781
O O1 0.553998 0.634096 0.500000
O O2 0.564556 0.502183 0.701946
O O3 0.499136 0.624427 0.731317
O O4 0.582279 0.678377 0.768481
O O5 0.443927 0.630580 0.500000
O O6 0.414857 0.669956 0.229020
O O7 0.663318 0.752446 0.735783
O O8 0.652575 0.574962 0.787823
O O9 0.636649 0.697515 0.000000
O O10 0.799025 0.501938 0.500000
O O11 0.785551 0.395915 0.737797
O O12 0.726786 0.524535 0.665409
O O13 0.802951 0.576332 0.768948
O O14 0.834770 0.901854 0.277678
O O15 0.840168 0.733278 0.193135
O O16 0.861503 0.865884 0.000000
O O17 0.286685 0.214953 0.500000
O O18 0.247403 0.269850 0.260306
O O19 0.845745 0.020333 0.500000
O O20 0.277658 0.824007 0.000000
#
# Coordination Sequence:
#
# PCOD8227353 Si02
#       8
#     8   8   8   8   8   8   8   8
#     4   9  18  33  51  74 102 134 172 210 252 302
#     4   9  18  32  52  74 100 136 173 210 252 300
#     4  12  23  33  49  77 105 137 172 207 256 309
#     4  10  22  37  54  73  97 135 180 219 253 293
#     4  11  22  33  48  76 107 138 173 209 255 307
#     4  11  22  37  54  73  99 135 177 216 251 296
#     4  11  20  32  50  72 101 138 176 214 250 292
#     4  11  23  35  51  75 105 137 169 211 258 304
#
# _framework density 16.838835
#
# number of rings (size 3 to 8) (size 9 to 14) (size 15 to 20)
#    0.000    1.500    3.750    3.375    0.000    3.500 
#    0.000    1.250    0.000    0.000    0.000    0.875 
#    0.000    7.000    0.000    0.000    0.000    0.000 
#
# Total GULP energy -793651.222521 kJ/mol
# GULP energy per Si atom -12400.800352 kJ/mol
# Density = 1.680051 g / cm^3
# Si number density = 16.838835 Si / 1000 Ang^3
#
#
#
# Elastic Constant Matrix: (Units=GPa)
#
#
# Indices 1 2 3 4 5 6 
#
# 1 90.4710 36.2969 35.0021 0.0000 0.0000 0.0000
# 2 36.2969 90.7818 36.1718 0.0000 0.0000 0.0000
# 3 35.0021 36.1718 78.3878 0.0000 0.0000 0.0000
# 4 0.0000 0.0000 0.0000 24.0394 0.0000 0.0000
# 5 0.0000 0.0000 0.0000 0.0000 24.5154 0.0000
# 6 0.0000 0.0000 0.0000 0.0000 0.0000 23.7298
#
#
#
# Elastic Compliance Matrix: (Units=1/GPa)
#
#
# Indices 1 2 3 4 5 6 
#
# 1 0.014417 -0.003920 -0.004629 0.000000 0.000000 0.000000
# 2 -0.003920 0.014563 -0.004970 0.000000 0.000000 0.000000
# 3 -0.004629 -0.004970 0.017117 0.000000 0.000000 0.000000
# 4 0.000000 0.000000 0.000000 0.041598 0.000000 0.000000
# 5 0.000000 0.000000 0.000000 0.000000 0.040791 0.000000
# 6 0.000000 0.000000 0.000000 0.000000 0.000000 0.042141
#
#
# Mechanical properties :
#
#
# Convention : Reuss Voigt Hill
#
# Bulk Modulus (GPa) = 52.46493 52.73136 52.59814
# Shear Modulus (GPa) = 24.50781 24.60156 24.55469
#
# Velocity S-wave (km/s) = 3.81915 3.82645 3.82280
# Velocity P-wave (km/s) = 7.11847 7.13482 7.12665
#
# Compressibility (1/GPa) = 0.01906035
#
# Stress axis : x y z
#
# Youngs Moduli (GPa) = 69.36413 68.66790 58.42109
#
# Poissons Ratio (x) = 0.26917 0.27041
# Poissons Ratio (y) = 0.27190 0.29033
# Poissons Ratio (z) = 0.32106 0.34126
#
# Static dielectric constant tensor:
#      x y z
#    x 3.201610 0.000000 0.000000 
#    y 0.000000 3.039710 0.000000 
#    z 0.000000 0.000000 3.205090 
# 
# 
# High freq. dielectric constant tensor:
#      x y z
#    x 1.643390 0.000000 0.000000 
#    y 0.000000 1.620520 0.000000 
#    z 0.000000 0.000000 1.656270 
# 
# From -- ./inp_files/6952.got.cif
#   From: 2010.03.12/outbox.cif.g09.slc.cpg/sg55_4_cif.got.tgz:6952.got - 2010.04.16 15:19:21.
