data_PCOD8227472
_publ_section_title
;
Structure prediction by ZEFSAII (Michael W. Deem and Ramdas Pophale) SiO2 
 PCOD8227472
Probable space group: P B A M
;
_chemical_formula_sum "Si O2"
_cell_formula_units_Z 40
_cell_length_a 7.587064
_cell_length_b 29.627173
_cell_length_c 8.814156
_cell_angle_alpha 90.000000
_cell_angle_beta 90.000000
_cell_angle_gamma 90.000000
_cell_volume 1981.274699
_symmetry_space_group_name_H-M "P B A M"
_symmetry_group_IT_number 55
_symmetry_cell_setting 'orthorhombic'
loop_
_space_group_symop_operation_xyz
x,y,z
-x,-y,z
1/2+x,1/2-y,-z
1/2-x,1/2+y,-z
-x,-y,-z
x,y,-z
1/2-x,1/2+y,z
1/2+x,1/2-y,z
loop_
_atom_site_type_symbol
_atom_site_label
_atom_site_fract_x
_atom_site_fract_y
_atom_site_fract_z
Si Si1 0.338806 0.394749 0.821429
Si Si2 0.311149 0.710659 0.333495
Si Si3 0.781601 0.194907 0.668488
Si Si4 0.538591 0.051652 0.677088
Si Si5 0.217625 0.114100 0.681057
O O1 0.239880 0.348623 0.769856
O O2 0.214483 0.435516 0.768081
O O3 0.532509 0.401646 0.751567
O O4 0.358891 0.394685 0.000000
O O5 0.225963 0.719098 0.500000
O O6 0.511888 0.698005 0.348063
O O7 0.285363 0.758693 0.247675
O O8 0.225557 0.665105 0.261587
O O9 0.695704 0.188579 0.500000
O O10 0.573371 0.060138 0.500000
O O11 0.370333 0.080341 0.734067
O O12 0.500000 0.000000 0.713509
O O13 0.193693 0.114628 0.500000
#
# Coordination Sequence:
#
# PCOD8227472 Si02
#       5
#     8   8   8   8   8
#     4  11  23  38  56  82 121 160 190 230 289 353
#     4   8  15  27  50  80 105 139 187 236 279 325
#     4   9  17  31  52  79 109 145 194 239 279 332
#     4  10  22  40  65  92 113 143 194 252 300 341
#     4   9  19  38  62  85 113 149 193 242 286 337
#
# _framework density 20.189022999999999
#
# number of rings (size 3 to 8) (size 9 to 14) (size 15 to 20)
#    0.000    2.600    0.000    3.000    2.800    2.000 
#    0.000    8.000    0.000    0.000    0.000    0.000 
#    0.000    0.000    0.000    0.000    0.000    0.000 
#
# Total GULP energy -495632.431392 kJ/mol
# GULP energy per Si atom -12390.810785 kJ/mol
# Density = 2.014307 g / cm^3
# Si number density = 20.189023 Si / 1000 Ang^3
#
#
#
# Elastic Constant Matrix: (Units=GPa)
#
#
# Indices 1 2 3 4 5 6 
#
# 1 50.0042 19.4198 19.6828 0.0000 0.0000 0.0000
# 2 19.4198 99.8519 19.4243 0.0000 0.0000 0.0000
# 3 19.6828 19.4243 57.8162 0.0000 0.0000 0.0000
# 4 0.0000 0.0000 0.0000 7.6381 0.0000 0.0000
# 5 0.0000 0.0000 0.0000 0.0000 11.3421 0.0000
# 6 0.0000 0.0000 0.0000 0.0000 0.0000 35.7658
#
#
#
# Elastic Compliance Matrix: (Units=1/GPa)
#
#
# Indices 1 2 3 4 5 6 
#
# 1 0.024070 -0.003303 -0.007085 0.000000 0.000000 0.000000
# 2 -0.003303 0.011168 -0.002628 0.000000 0.000000 0.000000
# 3 -0.007085 -0.002628 0.020591 0.000000 0.000000 0.000000
# 4 0.000000 0.000000 0.000000 0.130922 0.000000 0.000000
# 5 0.000000 0.000000 0.000000 0.000000 0.088167 0.000000
# 6 0.000000 0.000000 0.000000 0.000000 0.000000 0.027960
#
#
# Mechanical properties :
#
#
# Convention : Reuss Voigt Hill
#
# Bulk Modulus (GPa) = 33.55887 36.08068 34.81978
# Shear Modulus (GPa) = 14.75615 20.89223 17.82419
#
# Velocity S-wave (km/s) = 2.70645 3.22037 2.97453
# Velocity P-wave (km/s) = 5.14052 5.63364 5.39272
#
# Compressibility (1/GPa) = 0.02979838
#
# Stress axis : x y z
#
# Youngs Moduli (GPa) = 41.54591 89.53832 48.56530
#
# Poissons Ratio (x) = 0.29575 0.34406
# Poissons Ratio (y) = 0.13723 0.12762
# Poissons Ratio (z) = 0.29433 0.23528
#
# Static dielectric constant tensor:
#      x y z
#    x 3.548450 0.000000 0.000000 
#    y 0.000000 4.170100 0.000000 
#    z 0.000000 0.000000 3.253200 
# 
# 
# High freq. dielectric constant tensor:
#      x y z
#    x 1.787440 0.000000 0.000000 
#    y 0.000000 1.804580 0.000000 
#    z 0.000000 0.000000 1.733870 
# 
# From -- ./inp_files/2514.got.cif
#   From: 2010.03.12/outbox.cif.g09.slc.cpg/sg55_2_cif.got.tgz:2514.got - 2010.04.16 15:19:21.
