data_PCOD8227106
_publ_section_title
;
Structure prediction by ZEFSAII (Michael W. Deem and Ramdas Pophale) SiO2 
 PCOD8227106
Probable space group: P B A M
;
_chemical_formula_sum "Si O2"
_cell_formula_units_Z 48
_cell_length_a 30.426221
_cell_length_b 9.296120
_cell_length_c 8.624835
_cell_angle_alpha 90.000000
_cell_angle_beta 90.000000
_cell_angle_gamma 90.000000
_cell_volume 2439.498369
_symmetry_space_group_name_H-M "P B A M"
_symmetry_group_IT_number 55
_symmetry_cell_setting 'orthorhombic'
loop_
_space_group_symop_operation_xyz
x,y,z
-x,-y,z
1/2+x,1/2-y,-z
1/2-x,1/2+y,-z
-x,-y,-z
x,y,-z
1/2-x,1/2+y,z
1/2+x,1/2-y,z
loop_
_atom_site_type_symbol
_atom_site_label
_atom_site_fract_x
_atom_site_fract_y
_atom_site_fract_z
Si Si1 0.713929 0.621515 0.678951
Si Si2 0.458847 0.588311 0.816752
Si Si3 0.040258 0.402198 0.319658
Si Si4 0.376029 0.409865 0.182599
Si Si5 0.716005 0.925494 0.177036
Si Si6 0.115584 0.579890 0.822702
O O1 0.712544 0.667462 0.500000
O O2 0.668135 0.545812 0.726591
O O3 0.753855 0.513068 0.705488
O O4 0.721580 0.757936 0.787759
O O5 0.500000 0.500000 0.746234
O O6 0.461320 0.753234 0.770384
O O7 0.413965 0.515773 0.755739
O O8 0.459852 0.576649 0.000000
O O9 0.035992 0.368580 0.500000
O O10 0.085626 0.484128 0.287959
O O11 0.000000 0.500000 0.260251
O O12 0.389802 0.246727 0.223436
O O13 0.367185 0.425635 0.000000
O O14 0.665553 0.971763 0.202316
O O15 0.730612 0.952682 0.000000
O O16 0.100875 0.556011 0.000000
#
# Coordination Sequence:
#
# PCOD8227106 Si02
#       6
#     8   8   8   8   8   8
#     4  11  22  36  57  86 116 148 188 233 281 333
#     4  10  21  38  61  85 108 141 187 233 273 322
#     4  11  24  38  54  81 116 150 181 220 275 333
#     4   9  19  37  59  83 111 144 184 230 282 334
#     4  10  21  39  60  82 112 151 191 232 282 335
#     4   9  19  37  61  83 105 141 187 231 273 323
#
# _framework density 19.676175000000001
#
# number of rings (size 3 to 8) (size 9 to 14) (size 15 to 20)
#    0.000    2.000    0.000    4.500    0.000    8.333 
#    0.000    1.667    0.000    0.000    0.000    0.000 
#    0.000    0.000    0.000    0.000    0.000    0.000 
#
# Total GULP energy -595405.255415 kJ/mol
# GULP energy per Si atom -12404.276154 kJ/mol
# Density = 1.963139 g / cm^3
# Si number density = 19.676175 Si / 1000 Ang^3
#
#
#
# Elastic Constant Matrix: (Units=GPa)
#
#
# Indices 1 2 3 4 5 6 
#
# 1 123.0598 57.4320 27.9672 0.0000 0.0000 0.0000
# 2 57.4320 79.6744 5.2351 0.0000 0.0000 0.0000
# 3 27.9672 5.2351 41.1338 0.0000 0.0000 0.0000
# 4 0.0000 0.0000 0.0000 19.2386 0.0000 0.0000
# 5 0.0000 0.0000 0.0000 0.0000 22.8754 0.0000
# 6 0.0000 0.0000 0.0000 0.0000 0.0000 39.6282
#
#
#
# Elastic Compliance Matrix: (Units=1/GPa)
#
#
# Indices 1 2 3 4 5 6 
#
# 1 0.014856 -0.010130 -0.008812 0.000000 0.000000 0.000000
# 2 -0.010130 0.019564 0.004398 0.000000 0.000000 0.000000
# 3 -0.008812 0.004398 0.029742 0.000000 0.000000 0.000000
# 4 0.000000 0.000000 0.000000 0.051979 0.000000 0.000000
# 5 0.000000 0.000000 0.000000 0.000000 0.043715 0.000000
# 6 0.000000 0.000000 0.000000 0.000000 0.000000 0.025235
#
#
# Mechanical properties :
#
#
# Convention : Reuss Voigt Hill
#
# Bulk Modulus (GPa) = 28.51068 47.23742 37.87405
# Shear Modulus (GPa) = 22.13646 26.56401 24.35023
#
# Velocity S-wave (km/s) = 3.35780 3.67830 3.52170
# Velocity P-wave (km/s) = 5.43640 6.48841 5.98556
#
# Compressibility (1/GPa) = 0.03507457
#
# Stress axis : x y z
#
# Youngs Moduli (GPa) = 67.31093 51.11371 33.62201
#
# Poissons Ratio (x) = 0.51778 0.29627
# Poissons Ratio (y) = 0.68186 -0.14785
# Poissons Ratio (z) = 0.59313 -0.22477
#
# Static dielectric constant tensor:
#      x y z
#    x 3.815880 0.000000 0.000000 
#    y 0.000000 3.430570 0.000000 
#    z 0.000000 0.000000 3.393180 
# 
# 
# High freq. dielectric constant tensor:
#      x y z
#    x 1.779320 0.000000 0.000000 
#    y 0.000000 1.761720 0.000000 
#    z 0.000000 0.000000 1.758690 
# 
# From -- ./inp_files/2773.got.cif
#   From: 2010.03.12/outbox.cif.g09.slc.cpg/sg55_2_cif.got.tgz:2773.got - 2010.04.16 15:19:21.
