data_PCOD8227201
_publ_section_title
;
Structure prediction by ZEFSAII (Michael W. Deem and Ramdas Pophale) SiO2 
 PCOD8227201
Probable space group: P B A M
;
_chemical_formula_sum "Si O2"
_cell_formula_units_Z 48
_cell_length_a 16.706295
_cell_length_b 16.847861
_cell_length_c 8.641790
_cell_angle_alpha 90.000000
_cell_angle_beta 90.000000
_cell_angle_gamma 90.000000
_cell_volume 2432.364326
_symmetry_space_group_name_H-M "P B A M"
_symmetry_group_IT_number 55
_symmetry_cell_setting 'orthorhombic'
loop_
_space_group_symop_operation_xyz
x,y,z
-x,-y,z
1/2+x,1/2-y,-z
1/2-x,1/2+y,-z
-x,-y,-z
x,y,-z
1/2-x,1/2+y,z
1/2+x,1/2-y,z
loop_
_atom_site_type_symbol
_atom_site_label
_atom_site_fract_x
_atom_site_fract_y
_atom_site_fract_z
Si Si1 0.588744 0.997548 0.818632
Si Si2 0.175518 0.357762 0.323527
Si Si3 0.849040 0.820599 0.679982
Si Si4 0.502852 0.408116 0.179692
Si Si5 0.182769 0.654915 0.182482
Si Si6 0.143155 0.820377 0.321205
O O1 0.637062 0.922371 0.752513
O O2 0.500000 0.000000 0.743903
O O3 0.635126 0.078438 0.786091
O O4 0.581490 0.986845 0.000000
O O5 0.155742 0.379454 0.500000
O O6 0.139377 0.272051 0.279321
O O7 0.270309 0.358945 0.294274
O O8 0.827312 0.829961 0.500000
O O9 0.929519 0.866651 0.718513
O O10 0.776150 0.856440 0.778325
O O11 0.500000 0.500000 0.225685
O O12 0.417768 0.369534 0.216907
O O13 0.523039 0.396281 0.000000
O O14 0.143910 0.729129 0.269962
O O15 0.172480 0.666837 0.000000
O O16 0.117278 0.824740 0.500000
#
# Coordination Sequence:
#
# PCOD8227201 Si02
#       6
#     8   8   8   8   8   8
#     4  10  23  39  58  88 122 156 197 244 294 349
#     4   9  21  40  61  88 117 154 198 242 296 355
#     4  10  22  41  63  89 120 157 202 249 303 360
#     4  11  25  41  61  91 123 157 201 249 303 364
#     4  10  21  39  62  89 121 160 203 247 300 357
#     4  10  22  41  63  89 121 158 201 248 303 360
#
# _framework density 19.733885000000001
#
# number of rings (size 3 to 8) (size 9 to 14) (size 15 to 20)
#    0.000    2.000    0.000    3.000    4.667    7.000 
#    0.000    0.000    0.000    0.000    0.000    0.000 
#    0.000    0.000    0.000    0.000    0.000    0.000 
#
# Total GULP energy -595421.694707 kJ/mol
# GULP energy per Si atom -12404.618640 kJ/mol
# Density = 1.968897 g / cm^3
# Si number density = 19.733885 Si / 1000 Ang^3
#
#
#
# Elastic Constant Matrix: (Units=GPa)
#
#
# Indices 1 2 3 4 5 6 
#
# 1 102.9444 72.5322 17.6760 0.0000 0.0000 0.0000
# 2 72.5322 126.3993 24.4507 0.0000 0.0000 0.0000
# 3 17.6760 24.4507 36.2756 0.0000 0.0000 0.0000
# 4 0.0000 0.0000 0.0000 26.3637 0.0000 0.0000
# 5 0.0000 0.0000 0.0000 0.0000 27.7608 0.0000
# 6 0.0000 0.0000 0.0000 0.0000 0.0000 31.6653
#
#
#
# Elastic Compliance Matrix: (Units=1/GPa)
#
#
# Indices 1 2 3 4 5 6 
#
# 1 0.016420 -0.009055 -0.001897 0.000000 0.000000 0.000000
# 2 -0.009055 0.014091 -0.005086 0.000000 0.000000 0.000000
# 3 -0.001897 -0.005086 0.031919 0.000000 0.000000 0.000000
# 4 0.000000 0.000000 0.000000 0.037931 0.000000 0.000000
# 5 0.000000 0.000000 0.000000 0.000000 0.036022 0.000000
# 6 0.000000 0.000000 0.000000 0.000000 0.000000 0.031580
#
#
# Mechanical properties :
#
#
# Convention : Reuss Voigt Hill
#
# Bulk Modulus (GPa) = 32.94479 54.99299 43.96889
# Shear Modulus (GPa) = 23.79161 27.22201 25.50681
#
# Velocity S-wave (km/s) = 3.47597 3.71813 3.59909
# Velocity P-wave (km/s) = 5.73067 6.80885 6.29290
#
# Compressibility (1/GPa) = 0.03035381
#
# Stress axis : x y z
#
# Youngs Moduli (GPa) = 60.90175 70.96529 31.32918
#
# Poissons Ratio (x) = 0.64261 0.05945
# Poissons Ratio (y) = 0.55148 0.15933
# Poissons Ratio (z) = 0.11556 0.36090
#
# Static dielectric constant tensor:
#      x y z
#    x 3.705680 0.000000 0.000000 
#    y 0.000000 3.636470 0.000000 
#    z 0.000000 0.000000 3.497770 
# 
# 
# High freq. dielectric constant tensor:
#      x y z
#    x 1.776270 0.000000 0.000000 
#    y 0.000000 1.776520 0.000000 
#    z 0.000000 0.000000 1.769700 
# 
# From -- ./inp_files/5647.got.cif
#   From: 2010.03.12/outbox.cif.g09.slc.cpg/sg55_3_cif.got.tgz:5647.got - 2010.04.16 15:19:21.
