data_PCOD8227216
_publ_section_title
;
Structure prediction by ZEFSAII (Michael W. Deem and Ramdas Pophale) SiO2 
 PCOD8227216
Probable space group: P B A M
;
_chemical_formula_sum "Si O2"
_cell_formula_units_Z 36
_cell_length_a 5.156953
_cell_length_b 12.804476
_cell_length_c 22.961888
_cell_angle_alpha 90.000000
_cell_angle_beta 90.000000
_cell_angle_gamma 90.000000
_cell_volume 1516.221247
_symmetry_space_group_name_H-M "P B A M"
_symmetry_group_IT_number 55
_symmetry_cell_setting 'orthorhombic'
loop_
_space_group_symop_operation_xyz
x,y,z
-x,-y,z
1/2+x,1/2-y,-z
1/2-x,1/2+y,-z
-x,-y,-z
x,y,-z
1/2-x,1/2+y,z
1/2+x,1/2-y,z
loop_
_atom_site_type_symbol
_atom_site_label
_atom_site_fract_x
_atom_site_fract_y
_atom_site_fract_z
Si Si1 0.663634 0.816841 0.434781
Si Si2 0.355878 0.315633 0.931969
Si Si3 0.500000 0.500000 0.857698
Si Si4 0.294477 0.684735 0.211060
Si Si5 0.744887 0.934308 0.320911
O O1 0.692641 0.863499 0.500000
O O2 0.375191 0.773505 0.424910
O O3 0.710362 0.907812 0.388720
O O4 0.631745 0.265314 0.914145
O O5 0.324144 0.424890 0.898177
O O6 0.339147 0.341236 0.000000
O O7 0.692369 0.430374 0.817803
O O8 0.547304 0.749079 0.190776
O O9 0.272217 0.669164 0.280998
O O10 0.500000 0.000000 0.298528
O O11 0.000000 0.000000 0.311993
#
# Coordination Sequence:
#
# PCOD8227216 Si02
#       5
#     8   8   4   8   8
#     4  10  21  39  63  91 125 167 215 271 336 401
#     4  10  23  44  69 101 138 177 221 274 338 398
#     4  12  25  44  70 102 135 178 232 280 328 402
#     4  12  27  45  67  95 136 180 224 280 336 396
#     4  12  24  42  65  93 129 171 224 278 333 402
#
# _framework density 23.743234999999999
#
# number of rings (size 3 to 8) (size 9 to 14) (size 15 to 20)
#    0.000    0.889    1.111    5.667    0.000    3.556 
#    0.000    3.333    0.000    0.000    0.000    0.000 
#    0.000    0.000    0.000    0.000    0.000    0.000 
#
# Total GULP energy -446639.210114 kJ/mol
# GULP energy per Si atom -12406.644725 kJ/mol
# Density = 2.368919 g / cm^3
# Si number density = 23.743235 Si / 1000 Ang^3
#
#
#
# Elastic Constant Matrix: (Units=GPa)
#
#
# Indices 1 2 3 4 5 6 
#
# 1 143.8042 46.2726 40.8768 0.0000 0.0000 0.0000
# 2 46.2726 118.7242 65.0177 0.0000 0.0000 0.0000
# 3 40.8768 65.0177 105.3492 0.0000 0.0000 0.0000
# 4 0.0000 0.0000 0.0000 64.8549 0.0000 0.0000
# 5 0.0000 0.0000 0.0000 0.0000 36.0728 0.0000
# 6 0.0000 0.0000 0.0000 0.0000 0.0000 28.6793
#
#
#
# Elastic Compliance Matrix: (Units=1/GPa)
#
#
# Indices 1 2 3 4 5 6 
#
# 1 0.008176 -0.002189 -0.001821 0.000000 0.000000 0.000000
# 2 -0.002189 0.013309 -0.007365 0.000000 0.000000 0.000000
# 3 -0.001821 -0.007365 0.014744 0.000000 0.000000 0.000000
# 4 0.000000 0.000000 0.000000 0.015419 0.000000 0.000000
# 5 0.000000 0.000000 0.000000 0.000000 0.027722 0.000000
# 6 0.000000 0.000000 0.000000 0.000000 0.000000 0.034868
#
#
# Mechanical properties :
#
#
# Convention : Reuss Voigt Hill
#
# Bulk Modulus (GPa) = 74.18815 74.69017 74.43916
# Shear Modulus (GPa) = 35.34033 40.30212 37.82123
#
# Velocity S-wave (km/s) = 3.86221 4.12444 3.99548
# Velocity P-wave (km/s) = 7.15561 7.36255 7.25982
#
# Compressibility (1/GPa) = 0.01347924
#
# Stress axis : x y z
#
# Youngs Moduli (GPa) = 122.30860 75.13609 67.82402
#
# Poissons Ratio (x) = 0.16449 0.12353
# Poissons Ratio (y) = 0.26775 0.49949
# Poissons Ratio (z) = 0.22276 0.55334
#
# Static dielectric constant tensor:
#      x y z
#    x 4.250670 0.000000 0.000000 
#    y 0.000000 4.006870 0.000000 
#    z 0.000000 0.000000 4.658410 
# 
# 
# High freq. dielectric constant tensor:
#      x y z
#    x 1.944700 0.000000 0.000000 
#    y 0.000000 1.924930 0.000000 
#    z 0.000000 0.000000 1.976300 
# 
# From -- ./inp_files/23237.got.cif
#   From: 2010.03.12/outbox.cif.g09.slc.cpg/sg55_12_cif.got.tgz:23237.got - 2010.04.16 15:19:21.
