data_PCOD8227120
_publ_section_title
;
Structure prediction by ZEFSAII (Michael W. Deem and Ramdas Pophale) SiO2 
 PCOD8227120
Probable space group: P B A M
;
_chemical_formula_sum "Si O2"
_cell_formula_units_Z 56
_cell_length_a 10.625009
_cell_length_b 12.410050
_cell_length_c 21.325316
_cell_angle_alpha 90.000000
_cell_angle_beta 90.000000
_cell_angle_gamma 90.000000
_cell_volume 2811.889909
_symmetry_space_group_name_H-M "P B A M"
_symmetry_group_IT_number 55
_symmetry_cell_setting 'orthorhombic'
loop_
_space_group_symop_operation_xyz
x,y,z
-x,-y,z
1/2+x,1/2-y,-z
1/2-x,1/2+y,-z
-x,-y,-z
x,y,-z
1/2-x,1/2+y,z
1/2+x,1/2-y,z
loop_
_atom_site_type_symbol
_atom_site_label
_atom_site_fract_x
_atom_site_fract_y
_atom_site_fract_z
Si Si1 0.062229 0.608393 0.071372
Si Si2 0.120475 0.244422 0.325590
Si Si3 0.368650 0.329611 0.729584
Si Si4 0.884138 0.575928 0.571882
Si Si5 0.658679 0.464631 0.069980
Si Si6 0.559040 0.659394 0.871437
Si Si7 0.136718 0.010774 0.372716
O O1 0.208476 0.589552 0.074314
O O2 0.036084 0.716020 0.110744
O O3 0.000000 0.500000 0.100667
O O4 0.013403 0.624789 0.000000
O O5 0.230835 0.276784 0.277355
O O6 0.111338 0.319451 0.385823
O O7 0.983782 0.246778 0.292756
O O8 0.163079 0.130164 0.350801
O O9 0.390882 0.354582 0.801673
O O10 0.368348 0.438564 0.689732
O O11 0.899063 0.611657 0.500000
O O12 0.748711 0.519342 0.580187
O O13 0.000000 0.500000 0.591990
O O14 0.573195 0.401870 0.120151
O O15 0.660287 0.593544 0.085659
O O16 0.604335 0.449112 0.000000
O O17 0.000000 0.000000 0.406982
#
# Coordination Sequence:
#
# PCOD8227120 Si02
#       7
#     8   8   8   8   8   8   8
#     4  10  23  40  61  89 125 159 200 257 314 371
#     4  10  21  40  58  87 122 160 191 247 304 350
#     4  10  23  36  62  86 119 157 200 244 302 355
#     4  10  21  38  61  89 119 157 202 245 294 358
#     4  10  23  40  62  88 119 160 205 260 315 364
#     4  11  23  38  63  89 116 159 209 251 306 378
#     4   9  20  38  59  84 120 158 194 246 298 354
#
# _framework density 19.915430000000001
#
# number of rings (size 3 to 8) (size 9 to 14) (size 15 to 20)
#    0.000    2.000    0.000    2.571   10.000    0.857 
#    0.000   10.714    0.000    0.000    0.000    0.000 
#    0.000    0.000    0.000    0.000    0.000    0.000 
#
# Total GULP energy -694125.663597 kJ/mol
# GULP energy per Si atom -12395.101136 kJ/mol
# Density = 1.987010 g / cm^3
# Si number density = 19.915430 Si / 1000 Ang^3
#
#
#
# Elastic Constant Matrix: (Units=GPa)
#
#
# Indices 1 2 3 4 5 6 
#
# 1 120.7109 46.8496 48.9812 0.0000 0.0000 0.0000
# 2 46.8496 123.7651 41.5779 0.0000 0.0000 0.0000
# 3 48.9812 41.5779 99.0114 0.0000 0.0000 0.0000
# 4 0.0000 0.0000 0.0000 13.0248 0.0000 0.0000
# 5 0.0000 0.0000 0.0000 0.0000 27.3158 0.0000
# 6 0.0000 0.0000 0.0000 0.0000 0.0000 29.3955
#
#
#
# Elastic Compliance Matrix: (Units=1/GPa)
#
#
# Indices 1 2 3 4 5 6 
#
# 1 0.011113 -0.002747 -0.004344 0.000000 0.000000 0.000000
# 2 -0.002747 0.010086 -0.002876 0.000000 0.000000 0.000000
# 3 -0.004344 -0.002876 0.013457 0.000000 0.000000 0.000000
# 4 0.000000 0.000000 0.000000 0.076777 0.000000 0.000000
# 5 0.000000 0.000000 0.000000 0.000000 0.036609 0.000000
# 6 0.000000 0.000000 0.000000 0.000000 0.000000 0.034019
#
#
# Mechanical properties :
#
#
# Convention : Reuss Voigt Hill
#
# Bulk Modulus (GPa) = 67.93231 68.70053 68.31642
# Shear Modulus (GPa) = 24.16597 27.68581 25.92589
#
# Velocity S-wave (km/s) = 3.48721 3.73254 3.61196
# Velocity P-wave (km/s) = 7.09920 7.29019 7.19533
#
# Compressibility (1/GPa) = 0.01472054
#
# Stress axis : x y z
#
# Youngs Moduli (GPa) = 89.98261 99.14634 74.31247
#
# Poissons Ratio (x) = 0.27240 0.32281
# Poissons Ratio (y) = 0.24722 0.21375
# Poissons Ratio (z) = 0.39089 0.28517
#
# Static dielectric constant tensor:
#      x y z
#    x 3.898220 0.000000 0.000000 
#    y 0.000000 3.714950 0.000000 
#    z 0.000000 0.000000 3.442900 
# 
# 
# High freq. dielectric constant tensor:
#      x y z
#    x 1.792120 0.000000 0.000000 
#    y 0.000000 1.784700 0.000000 
#    z 0.000000 0.000000 1.761970 
# 
# From -- ./inp_files/22837.got.cif
#   From: 2010.03.12/outbox.cif.g09.slc.cpg/sg55_12_cif.got.tgz:22837.got - 2010.04.16 15:19:21.
