data_PCOD8227901
_publ_section_title
;
Structure prediction by ZEFSAII (Michael W. Deem and Ramdas Pophale) SiO2 
 PCOD8227901
Probable space group: P C C N
;
_chemical_formula_sum "Si O2"
_cell_formula_units_Z 32
_cell_length_a 8.398637
_cell_length_b 5.236287
_cell_length_c 35.203083
_cell_angle_alpha 90.000000
_cell_angle_beta 90.000000
_cell_angle_gamma 90.000000
_cell_volume 1548.149699
_symmetry_space_group_name_H-M "P C C N"
_symmetry_group_IT_number 56
_symmetry_cell_setting 'orthorhombic'
loop_
_space_group_symop_operation_xyz
x,y,z
1/2-x,1/2-y,z
1/2+x,-y,1/2-z
-x,1/2+y,1/2-z
-x,-y,-z
1/2+x,1/2+y,-z
1/2-x,y,1/2+z
x,1/2-y,1/2+z
loop_
_atom_site_type_symbol
_atom_site_label
_atom_site_fract_x
_atom_site_fract_y
_atom_site_fract_z
Si Si1 0.648411 0.007623 0.027440
Si Si2 0.073675 0.340542 0.265605
Si Si3 0.923931 0.019791 0.614622
Si Si4 0.430846 0.477859 0.852732
O O1 0.750000 0.750000 0.024421
O O2 0.586698 0.053559 0.069837
O O3 0.750000 0.250000 0.014336
O O4 0.500000 0.000000 0.000000
O O5 0.250000 0.250000 0.255447
O O6 0.055931 0.442637 0.308089
O O7 0.035767 0.588714 0.239755
O O8 0.015906 0.759105 0.625589
O O9 0.016230 0.261144 0.633301
O O10 0.751749 0.998418 0.634212
#
# Coordination Sequence:
#
# PCOD8227901 Si02
#       4
#     8   8   8   8
#     4  12  23  40  64 102 133 167 210 271 320 379
#     4  12  25  40  64  98 131 165 212 271 328 377
#     4  10  17  34  63  90 111 162 233 246 279 375
#     4  10  18  34  63  88 112 161 229 250 280 376
#
# _framework density 20.669834999999999
#
# number of rings (size 3 to 8) (size 9 to 14) (size 15 to 20)
#    0.000    1.000    7.500    3.000    3.500    0.000 
#    0.000    0.000    0.000   15.000    0.000    0.000 
#    0.000    0.000    0.000    0.000    0.000    0.000 
#
# Total GULP energy -396593.337849 kJ/mol
# GULP energy per Si atom -12393.541808 kJ/mol
# Density = 2.062279 g / cm^3
# Si number density = 20.669835 Si / 1000 Ang^3
#
#
#
# Elastic Constant Matrix: (Units=GPa)
#
#
# Indices 1 2 3 4 5 6 
#
# 1 49.7126 43.9169 64.0128 0.0000 0.0000 0.0000
# 2 43.9169 241.1961 78.6229 0.0000 0.0000 0.0000
# 3 64.0128 78.6229 154.6432 0.0000 0.0000 0.0000
# 4 0.0000 0.0000 0.0000 -8.0989 0.0000 0.0000
# 5 0.0000 0.0000 0.0000 0.0000 0.7120 0.0000
# 6 0.0000 0.0000 0.0000 0.0000 0.0000 22.5611
#
#
#
# Elastic Compliance Matrix: (Units=1/GPa)
#
#
# Indices 1 2 3 4 5 6 
#
# 1 0.044302 -0.002504 -0.017065 0.000000 0.000000 0.000000
# 2 -0.002504 0.005111 -0.001562 0.000000 0.000000 0.000000
# 3 -0.017065 -0.001562 0.014325 0.000000 0.000000 0.000000
# 4 0.000000 0.000000 0.000000 -0.123473 0.000000 0.000000
# 5 0.000000 0.000000 0.000000 0.000000 1.404573 0.000000
# 6 0.000000 0.000000 0.000000 0.000000 0.000000 0.044324
#
#
# Mechanical properties :
#
#
# Convention : Reuss Voigt Hill
#
# Bulk Modulus (GPa) = 46.56533 90.96188 68.76361
# Shear Modulus (GPa) = 3.47565 20.30145 11.88855
#
# Velocity S-wave (km/s) = 1.29814 3.13737 2.40086
# Velocity P-wave (km/s) = 4.98236 7.56484 6.40510
#
# Compressibility (1/GPa) = 0.02147521
#
# Stress axis : x y z
#
# Youngs Moduli (GPa) = 22.57257 195.65268 69.80950
#
# Poissons Ratio (x) = 0.48985 1.19132
# Poissons Ratio (y) = 0.05651 0.10906
# Poissons Ratio (z) = 0.38521 0.30565
#
# Static dielectric constant tensor:
#      x y z
#    x 3.194300 0.000000 0.000000 
#    y 0.000000 5.888790 0.000000 
#    z 0.000000 0.000000 2.759870 
# 
# 
# High freq. dielectric constant tensor:
#      x y z
#    x 1.742630 0.000000 0.000000 
#    y 0.000000 1.858330 0.000000 
#    z 0.000000 0.000000 1.817110 
# 
# From -- ./inp_files/22641.got.cif
#   From: 2010.03.12/outbox.cif.g09.slc.cpg/sg56_12_cif.got.tgz:22641.got - 2010.04.16 15:33:40.
