data_PCOD8227336
_publ_section_title
;
Structure prediction by ZEFSAII (Michael W. Deem and Ramdas Pophale) SiO2 
 PCOD8227336
Probable space group: P B A M
;
_chemical_formula_sum "Si O2"
_cell_formula_units_Z 48
_cell_length_a 8.577190
_cell_length_b 16.441721
_cell_length_c 14.362785
_cell_angle_alpha 90.000000
_cell_angle_beta 90.000000
_cell_angle_gamma 90.000000
_cell_volume 2025.494016
_symmetry_space_group_name_H-M "P B A M"
_symmetry_group_IT_number 55
_symmetry_cell_setting 'orthorhombic'
loop_
_space_group_symop_operation_xyz
x,y,z
-x,-y,z
1/2+x,1/2-y,-z
1/2-x,1/2+y,-z
-x,-y,-z
x,y,-z
1/2-x,1/2+y,z
1/2+x,1/2-y,z
loop_
_atom_site_type_symbol
_atom_site_label
_atom_site_fract_x
_atom_site_fract_y
_atom_site_fract_z
Si Si1 0.320725 0.510913 0.750455
Si Si2 0.621736 0.216534 0.606087
Si Si3 0.204270 0.830912 0.217271
Si Si4 0.120819 0.567769 0.896148
Si Si5 0.299860 0.129763 0.395197
Si Si6 0.031514 0.257513 0.106264
O O1 0.500000 0.500000 0.723553
O O2 0.258026 0.425603 0.789239
O O3 0.281320 0.570061 0.836621
O O4 0.224288 0.547214 0.663045
O O5 0.659991 0.188549 0.500000
O O6 0.757367 0.186659 0.674989
O O7 0.642073 0.315115 0.611148
O O8 0.451819 0.183261 0.638101
O O9 0.029794 0.807372 0.183996
O O10 0.296192 0.778190 0.140674
O O11 0.059218 0.658226 0.890140
O O12 0.000000 0.500000 0.856048
O O13 0.165942 0.542216 0.000000
O O14 0.330361 0.100798 0.500000
O O15 0.036471 0.222595 0.000000
#
# Coordination Sequence:
#
# PCOD8227336 Si02
#       6
#     8   8   8   8   8   8
#     4  12  28  43  64 102 142 188 229 289 357 416
#     4  10  22  42  74 106 138 182 233 287 347 418
#     4  12  25  43  69  98 142 185 234 290 349 421
#     4  10  21  43  69  94 130 177 229 286 349 415
#     4  10  24  46  72 105 141 181 232 286 349 422
#     4  11  25  44  70 101 135 182 237 293 352 418
#
# _framework density 23.697922999999999
#
# number of rings (size 3 to 8) (size 9 to 14) (size 15 to 20)
#    0.000    1.167    1.667    3.500    7.000    2.000 
#    0.000    1.667    0.000    0.000    0.000    0.000 
#    0.000    0.000    0.000    0.000    0.000    0.000 
#
# Total GULP energy -594682.004826 kJ/mol
# GULP energy per Si atom -12389.208434 kJ/mol
# Density = 2.364399 g / cm^3
# Si number density = 23.697923 Si / 1000 Ang^3
#
#
#
# Elastic Constant Matrix: (Units=GPa)
#
#
# Indices 1 2 3 4 5 6 
#
# 1 77.2594 17.4569 37.8304 0.0000 0.0000 0.0000
# 2 17.4569 51.6898 20.3356 0.0000 0.0000 0.0000
# 3 37.8304 20.3356 109.1879 0.0000 0.0000 0.0000
# 4 0.0000 0.0000 0.0000 35.3105 0.0000 0.0000
# 5 0.0000 0.0000 0.0000 0.0000 12.0014 0.0000
# 6 0.0000 0.0000 0.0000 0.0000 0.0000 19.2664
#
#
#
# Elastic Compliance Matrix: (Units=1/GPa)
#
#
# Indices 1 2 3 4 5 6 
#
# 1 0.016158 -0.003512 -0.004944 0.000000 0.000000 0.000000
# 2 -0.003512 0.021639 -0.002813 0.000000 0.000000 0.000000
# 3 -0.004944 -0.002813 0.011396 0.000000 0.000000 0.000000
# 4 0.000000 0.000000 0.000000 0.028320 0.000000 0.000000
# 5 0.000000 0.000000 0.000000 0.000000 0.083324 0.000000
# 6 0.000000 0.000000 0.000000 0.000000 0.000000 0.051904
#
#
# Mechanical properties :
#
#
# Convention : Reuss Voigt Hill
#
# Bulk Modulus (GPa) = 37.51830 43.26478 40.39154
# Shear Modulus (GPa) = 20.47806 24.14992 22.31399
#
# Velocity S-wave (km/s) = 2.94280 3.19576 3.07188
# Velocity P-wave (km/s) = 5.23574 5.64921 5.44640
#
# Compressibility (1/GPa) = 0.02665366
#
# Stress axis : x y z
#
# Youngs Moduli (GPa) = 61.88942 46.21273 87.75380
#
# Poissons Ratio (x) = 0.16229 0.43387
# Poissons Ratio (y) = 0.21734 0.24689
# Poissons Ratio (z) = 0.30599 0.13002
#
# Static dielectric constant tensor:
#      x y z
#    x 4.297200 0.000000 0.000000 
#    y 0.000000 4.306410 0.000000 
#    z 0.000000 0.000000 4.410210 
# 
# 
# High freq. dielectric constant tensor:
#      x y z
#    x 1.930520 0.000000 0.000000 
#    y 0.000000 1.934480 0.000000 
#    z 0.000000 0.000000 1.948170 
# 
# From -- ./inp_files/17337.got.cif
#   From: 2010.03.12/outbox.cif.g09.slc.cpg/sg55_9_cif.got.tgz:17337.got - 2010.04.16 15:19:21.
