data_PCOD8227496
_publ_section_title
;
Structure prediction by ZEFSAII (Michael W. Deem and Ramdas Pophale) SiO2 
 PCOD8227496
Probable space group: P B A M
;
_chemical_formula_sum "Si O2"
_cell_formula_units_Z 48
_cell_length_a 18.284055
_cell_length_b 14.769829
_cell_length_c 8.482916
_cell_angle_alpha 90.000000
_cell_angle_beta 90.000000
_cell_angle_gamma 90.000000
_cell_volume 2290.831534
_symmetry_space_group_name_H-M "P B A M"
_symmetry_group_IT_number 55
_symmetry_cell_setting 'orthorhombic'
loop_
_space_group_symop_operation_xyz
x,y,z
-x,-y,z
1/2+x,1/2-y,-z
1/2-x,1/2+y,-z
-x,-y,-z
x,y,-z
1/2-x,1/2+y,z
1/2+x,1/2-y,z
loop_
_atom_site_type_symbol
_atom_site_label
_atom_site_fract_x
_atom_site_fract_y
_atom_site_fract_z
Si Si1 0.745089 0.195133 0.182761
Si Si2 0.514977 0.897410 0.817821
Si Si3 0.062863 0.067121 0.817227
Si Si4 0.406918 0.755166 0.680996
Si Si5 0.832991 0.350720 0.680629
Si Si6 0.725390 0.491757 0.817874
O O1 0.664071 0.232806 0.210773
O O2 0.804940 0.250078 0.281827
O O3 0.749262 0.091086 0.235343
O O4 0.764651 0.206645 0.000000
O O5 0.464948 0.833815 0.711464
O O6 0.599570 0.875027 0.791956
O O7 0.500000 0.000000 0.765862
O O8 0.494631 0.882195 0.000000
O O9 0.055957 0.159359 0.719356
O O10 0.139510 0.017625 0.787220
O O11 0.051136 0.091130 0.000000
O O12 0.000000 0.000000 0.755959
O O13 0.382296 0.758518 0.500000
O O14 0.857962 0.356125 0.500000
O O15 0.767171 0.420116 0.710626
O O16 0.745165 0.473294 0.000000
#
# Coordination Sequence:
#
# PCOD8227496 Si02
#       6
#     8   8   8   8   8   8
#     4  11  23  41  66  94 127 171 220 264 312 380
#     4  11  25  45  69  94 125 171 220 264 316 384
#     4  10  22  41  66  94 126 170 220 267 317 380
#     4  12  25  42  65  98 134 170 210 264 331 385
#     4  12  25  41  64  98 134 166 206 265 327 381
#     4  10  22  41  66  94 125 168 218 266 315 376
#
# _framework density 20.953088999999999
#
# number of rings (size 3 to 8) (size 9 to 14) (size 15 to 20)
#    0.000    1.000    1.667    5.000    2.333    7.000 
#    0.000    0.000    0.000    0.000    0.000    0.000 
#    0.000    0.000    0.000    0.000    0.000    0.000 
#
# Total GULP energy -595648.473224 kJ/mol
# GULP energy per Si atom -12409.343192 kJ/mol
# Density = 2.090540 g / cm^3
# Si number density = 20.953089 Si / 1000 Ang^3
#
#
#
# Elastic Constant Matrix: (Units=GPa)
#
#
# Indices 1 2 3 4 5 6 
#
# 1 82.0918 16.7726 6.6142 0.0000 0.0000 0.0000
# 2 16.7726 116.8735 34.9515 0.0000 0.0000 0.0000
# 3 6.6142 34.9515 67.6401 0.0000 0.0000 0.0000
# 4 0.0000 0.0000 0.0000 19.6820 0.0000 0.0000
# 5 0.0000 0.0000 0.0000 0.0000 23.8683 0.0000
# 6 0.0000 0.0000 0.0000 0.0000 0.0000 39.5789
#
#
#
# Elastic Compliance Matrix: (Units=1/GPa)
#
#
# Indices 1 2 3 4 5 6 
#
# 1 0.012556 -0.001697 -0.000351 0.000000 0.000000 0.000000
# 2 -0.001697 0.010349 -0.005182 0.000000 0.000000 0.000000
# 3 -0.000351 -0.005182 0.017496 0.000000 0.000000 0.000000
# 4 0.000000 0.000000 0.000000 0.050808 0.000000 0.000000
# 5 0.000000 0.000000 0.000000 0.000000 0.041897 0.000000
# 6 0.000000 0.000000 0.000000 0.000000 0.000000 0.025266
#
#
# Mechanical properties :
#
#
# Convention : Reuss Voigt Hill
#
# Bulk Modulus (GPa) = 38.54709 42.58687 40.56698
# Shear Modulus (GPa) = 27.55132 30.51033 29.03083
#
# Velocity S-wave (km/s) = 3.63010 3.82006 3.72629
# Velocity P-wave (km/s) = 6.00058 6.31080 6.15764
#
# Compressibility (1/GPa) = 0.02594229
#
# Stress axis : x y z
#
# Youngs Moduli (GPa) = 79.64008 96.62327 57.15564
#
# Poissons Ratio (x) = 0.16397 0.02006
# Poissons Ratio (y) = 0.13515 0.29618
# Poissons Ratio (z) = 0.02795 0.50069
#
# Static dielectric constant tensor:
#      x y z
#    x 3.808400 0.000000 0.000000 
#    y 0.000000 3.959370 0.000000 
#    z 0.000000 0.000000 3.669570 
# 
# 
# High freq. dielectric constant tensor:
#      x y z
#    x 1.826740 0.000000 0.000000 
#    y 0.000000 1.835730 0.000000 
#    z 0.000000 0.000000 1.814840 
# 
# From -- ./inp_files/5671.got.cif
#   From: 2010.03.12/outbox.cif.g09.slc.cpg/sg55_3_cif.got.tgz:5671.got - 2010.04.16 15:19:21.
