data_PCOD8227355
_publ_section_title
;
Structure prediction by ZEFSAII (Michael W. Deem and Ramdas Pophale) SiO2 
 PCOD8227355
Probable space group: P B A M
;
_chemical_formula_sum "Si O2"
_cell_formula_units_Z 64
_cell_length_a 32.034030
_cell_length_b 11.065882
_cell_length_c 9.163776
_cell_angle_alpha 90.000000
_cell_angle_beta 90.000000
_cell_angle_gamma 90.000000
_cell_volume 3248.419266
_symmetry_space_group_name_H-M "P B A M"
_symmetry_group_IT_number 55
_symmetry_cell_setting 'orthorhombic'
loop_
_space_group_symop_operation_xyz
x,y,z
-x,-y,z
1/2+x,1/2-y,-z
1/2-x,1/2+y,-z
-x,-y,-z
x,y,-z
1/2-x,1/2+y,z
1/2+x,1/2-y,z
loop_
_atom_site_type_symbol
_atom_site_label
_atom_site_fract_x
_atom_site_fract_y
_atom_site_fract_z
Si Si1 0.191707 0.746298 0.663926
Si Si2 0.484108 0.630454 0.827863
Si Si3 0.679070 0.478089 0.662567
Si Si4 0.837968 0.639315 0.666569
Si Si5 0.901134 0.857841 0.662192
Si Si6 0.226945 0.215915 0.171044
Si Si7 0.885717 0.403468 0.329260
Si Si8 0.026469 0.618718 0.173373
O O1 0.201196 0.699361 0.500000
O O2 0.226234 0.693718 0.772084
O O3 0.144674 0.708656 0.706778
O O4 0.195413 0.888459 0.674529
O O5 0.500000 0.500000 0.764369
O O6 0.436248 0.642903 0.783758
O O7 0.507609 0.752119 0.770033
O O8 0.487696 0.627619 0.000000
O O9 0.688883 0.423558 0.500000
O O10 0.628732 0.474441 0.684161
O O11 0.701504 0.403672 0.788636
O O12 0.823815 0.622160 0.500000
O O13 0.871787 0.743319 0.685870
O O14 0.795973 0.668024 0.757276
O O15 0.859820 0.519194 0.725924
O O16 0.921405 0.856753 0.500000
O O17 0.227905 0.235301 0.000000
O O18 0.897411 0.412964 0.500000
O O19 0.927642 0.391444 0.238287
O O20 0.000000 0.500000 0.224943
O O21 0.029385 0.619220 0.000000
#
# Coordination Sequence:
#
# PCOD8227355 Si02
#       8
#     8   8   8   8   8   8   8   8
#     4  10  22  39  59  83 115 154 192 236 292 348
#     4  10  22  37  54  80 115 153 189 230 287 354
#     4   9  20  39  60  81 113 152 191 236 288 345
#     4   9  19  38  60  85 116 150 190 234 285 346
#     4   9  18  34  58  84 109 142 187 235 278 328
#     4  11  23  37  57  87 117 149 195 241 284 340
#     4  10  22  38  62  91 115 147 194 243 292 343
#     4  10  22  40  60  84 118 158 194 235 295 360
#
# _framework density 19.701889999999999
#
# number of rings (size 3 to 8) (size 9 to 14) (size 15 to 20)
#    0.000    2.250    0.000    2.625    3.500    4.500 
#    0.000    0.000    0.000    0.000    0.000    0.000 
#    0.000    0.000    0.000    0.000    0.000    0.000 
#
# Total GULP energy -793347.014581 kJ/mol
# GULP energy per Si atom -12396.047103 kJ/mol
# Density = 1.965705 g / cm^3
# Si number density = 19.701890 Si / 1000 Ang^3
#
#
#
# Elastic Constant Matrix: (Units=GPa)
#
#
# Indices 1 2 3 4 5 6 
#
# 1 123.2500 41.6922 49.0864 0.0000 0.0000 0.0000
# 2 41.6922 94.9275 28.2541 0.0000 0.0000 0.0000
# 3 49.0864 28.2541 61.5246 0.0000 0.0000 0.0000
# 4 0.0000 0.0000 0.0000 15.0190 0.0000 0.0000
# 5 0.0000 0.0000 0.0000 0.0000 28.6857 0.0000
# 6 0.0000 0.0000 0.0000 0.0000 0.0000 22.4652
#
#
#
# Elastic Compliance Matrix: (Units=1/GPa)
#
#
# Indices 1 2 3 4 5 6 
#
# 1 0.012561 -0.002935 -0.008674 0.000000 0.000000 0.000000
# 2 -0.002935 0.012888 -0.003577 0.000000 0.000000 0.000000
# 3 -0.008674 -0.003577 0.024816 0.000000 0.000000 0.000000
# 4 0.000000 0.000000 0.000000 0.066582 0.000000 0.000000
# 5 0.000000 0.000000 0.000000 0.000000 0.034861 0.000000
# 6 0.000000 0.000000 0.000000 0.000000 0.000000 0.044513
#
#
# Mechanical properties :
#
#
# Convention : Reuss Voigt Hill
#
# Bulk Modulus (GPa) = 50.26607 57.52971 53.89789
# Shear Modulus (GPa) = 21.43862 23.94528 22.69195
#
# Velocity S-wave (km/s) = 3.30229 3.49001 3.39745
# Velocity P-wave (km/s) = 6.33316 6.74565 6.54265
#
# Compressibility (1/GPa) = 0.01989413
#
# Stress axis : x y z
#
# Youngs Moduli (GPa) = 79.61234 77.59102 40.29603
#
# Poissons Ratio (x) = 0.22774 0.34951
# Poissons Ratio (y) = 0.23367 0.14413
# Poissons Ratio (z) = 0.69052 0.27753
#
# Static dielectric constant tensor:
#      x y z
#    x 3.550530 0.000000 0.000000 
#    y 0.000000 3.921380 0.000000 
#    z 0.000000 0.000000 3.387990 
# 
# 
# High freq. dielectric constant tensor:
#      x y z
#    x 1.770660 0.000000 0.000000 
#    y 0.000000 1.776370 0.000000 
#    z 0.000000 0.000000 1.747600 
# 
# From -- ./inp_files/10852.got.cif
#   From: 2010.03.12/outbox.cif.g09.slc.cpg/sg55_6_cif.got.tgz:10852.got - 2010.04.16 15:19:21.
