data_PCOD8227980
_publ_section_title
;
Structure prediction by ZEFSAII (Michael W. Deem and Ramdas Pophale) SiO2 
 PCOD8227980
Probable space group: P C C N
;
_chemical_formula_sum "Si O2"
_cell_formula_units_Z 44
_cell_length_a 9.626555
_cell_length_b 13.117397
_cell_length_c 15.573668
_cell_angle_alpha 90.000000
_cell_angle_beta 90.000000
_cell_angle_gamma 90.000000
_cell_volume 1966.570279
_symmetry_space_group_name_H-M "P C C N"
_symmetry_group_IT_number 56
_symmetry_cell_setting 'orthorhombic'
loop_
_space_group_symop_operation_xyz
x,y,z
1/2-x,1/2-y,z
1/2+x,-y,1/2-z
-x,1/2+y,1/2-z
-x,-y,-z
1/2+x,1/2+y,-z
1/2-x,y,1/2+z
x,1/2-y,1/2+z
loop_
_atom_site_type_symbol
_atom_site_label
_atom_site_fract_x
_atom_site_fract_y
_atom_site_fract_z
Si Si1 0.750000 0.250000 0.421226
Si Si2 0.662900 0.505549 0.701133
Si Si3 0.950349 0.785772 0.633539
Si Si4 0.796998 0.438546 0.023455
Si Si5 0.393940 0.362204 0.536867
Si Si6 0.098151 0.123896 0.727805
O O1 0.616468 0.270603 0.362287
O O2 0.791262 0.348324 0.479697
O O3 0.574937 0.599873 0.664925
O O4 0.746003 0.451040 0.623025
O O5 0.552284 0.427526 0.742314
O O6 0.779397 0.539611 0.769043
O O7 0.882813 0.773793 0.536896
O O8 0.876198 0.705181 0.696535
O O9 0.779815 0.547517 0.974795
O O10 0.956463 0.407872 0.017733
O O11 0.388151 0.320291 0.634623
#
# Coordination Sequence:
#
# PCOD8227980 Si02
#       6
#     4   8   8   8   8   8
#     4  10  18  34  68  96 118 166 222 260 322 384
#     4  10  23  42  60  95 133 167 213 270 324 381
#     4  10  22  40  65  91 132 171 215 261 325 397
#     4   8  16  35  61  85 125 162 204 259 319 377
#     4   8  17  37  62  85 122 174 203 251 325 375
#     4  11  22  40  68  93 130 171 213 270 326 386
#
# _framework density 22.373977
#
# number of rings (size 3 to 8) (size 9 to 14) (size 15 to 20)
#    0.000    2.545    0.000    3.818    5.091    0.000 
#    9.818    9.091    0.000    0.000    0.000    0.000 
#    0.000    0.000    0.000    0.000    0.000    0.000 
#
# Total GULP energy -545225.238528 kJ/mol
# GULP energy per Si atom -12391.482694 kJ/mol
# Density = 2.232305 g / cm^3
# Si number density = 22.373977 Si / 1000 Ang^3
#
#
#
# Elastic Constant Matrix: (Units=GPa)
#
#
# Indices 1 2 3 4 5 6 
#
# 1 45.1908 2.8310 21.6760 0.0000 0.0000 0.0000
# 2 2.8310 74.5082 49.2934 0.0000 0.0000 0.0000
# 3 21.6760 49.2934 155.1783 0.0000 0.0000 0.0000
# 4 0.0000 0.0000 0.0000 34.5237 0.0000 0.0000
# 5 0.0000 0.0000 0.0000 0.0000 5.0242 0.0000
# 6 0.0000 0.0000 0.0000 0.0000 0.0000 31.2963
#
#
#
# Elastic Compliance Matrix: (Units=1/GPa)
#
#
# Indices 1 2 3 4 5 6 
#
# 1 0.023876 0.001645 -0.003858 0.000000 0.000000 0.000000
# 2 0.001645 0.017106 -0.005664 0.000000 0.000000 0.000000
# 3 -0.003858 -0.005664 0.008782 0.000000 0.000000 0.000000
# 4 0.000000 0.000000 0.000000 0.028966 0.000000 0.000000
# 5 0.000000 0.000000 0.000000 0.000000 0.199038 0.000000
# 6 0.000000 0.000000 0.000000 0.000000 0.000000 0.031953
#
#
# Mechanical properties :
#
#
# Convention : Reuss Voigt Hill
#
# Bulk Modulus (GPa) = 29.40211 46.94201 38.17206
# Shear Modulus (GPa) = 14.84521 27.57396 21.20958
#
# Velocity S-wave (km/s) = 2.57865 3.51438 3.08223
# Velocity P-wave (km/s) = 4.69421 6.12323 5.45572
#
# Compressibility (1/GPa) = 0.03401117
#
# Stress axis : x y z
#
# Youngs Moduli (GPa) = 41.88362 58.45997 113.86805
#
# Poissons Ratio (x) = -0.09616 0.43926
# Poissons Ratio (y) = -0.06890 0.64489
# Poissons Ratio (z) = 0.16157 0.33109
#
# Static dielectric constant tensor:
#      x y z
#    x 3.636770 0.000000 0.000000 
#    y 0.000000 4.484770 0.000000 
#    z 0.000000 0.000000 4.302440 
# 
# 
# High freq. dielectric constant tensor:
#      x y z
#    x 1.857080 0.000000 0.000000 
#    y 0.000000 1.871210 0.000000 
#    z 0.000000 0.000000 1.882170 
# 
# From -- ./inp_files/11564.got.cif
#   From: 2010.03.12/outbox.cif.g09.slc.cpg/sg56_6_cif.got.tgz:11564.got - 2010.04.16 15:33:40.
