data_PCOD8227101
_publ_section_title
;
Structure prediction by ZEFSAII (Michael W. Deem and Ramdas Pophale) SiO2 
 PCOD8227101
Probable space group: P B A M
;
_chemical_formula_sum "Si O2"
_cell_formula_units_Z 64
_cell_length_a 14.900074
_cell_length_b 8.699266
_cell_length_c 24.446226
_cell_angle_alpha 90.000000
_cell_angle_beta 90.000000
_cell_angle_gamma 90.000000
_cell_volume 3168.712655
_symmetry_space_group_name_H-M "P B A M"
_symmetry_group_IT_number 55
_symmetry_cell_setting 'orthorhombic'
loop_
_space_group_symop_operation_xyz
x,y,z
-x,-y,z
1/2+x,1/2-y,-z
1/2-x,1/2+y,-z
-x,-y,-z
x,y,-z
1/2-x,1/2+y,z
1/2+x,1/2-y,z
loop_
_atom_site_type_symbol
_atom_site_label
_atom_site_fract_x
_atom_site_fract_y
_atom_site_fract_z
Si Si1 0.628083 0.733778 0.058234
Si Si2 0.816515 0.603240 0.175970
Si Si3 0.475075 0.822856 0.373999
Si Si4 0.128909 0.745538 0.176993
Si Si5 0.365418 0.330485 0.563488
Si Si6 0.802820 0.567943 0.057852
Si Si7 0.818698 0.822195 0.563368
Si Si8 0.526921 0.176296 0.248444
O O1 0.578515 0.732534 0.117249
O O2 0.696012 0.591681 0.057452
O O3 0.688521 0.885680 0.059545
O O4 0.570956 0.730642 0.000000
O O5 0.830088 0.423083 0.185667
O O6 0.711494 0.638099 0.186126
O O7 0.844895 0.643905 0.112785
O O8 0.878876 0.702168 0.216881
O O9 0.549828 0.714353 0.400435
O O10 0.380638 0.793846 0.402993
O O11 0.463618 0.775034 0.311102
O O12 0.500000 0.000000 0.381697
O O13 0.051610 0.779378 0.221386
O O14 0.393143 0.320619 0.500000
O O15 0.284406 0.215130 0.577216
O O16 0.336750 0.502370 0.579588
O O17 0.845453 0.630953 0.000000
O O18 0.838333 0.790398 0.500000
O O19 0.500000 0.000000 0.242004
#
# Coordination Sequence:
#
# PCOD8227101 Si02
#       8
#     8   8   8   8   8   8   8   8
#     4   8  13  22  40  66  91 117 153 198 249 303
#     4   9  17  32  51  69  95 130 166 207 255 304
#     4  11  22  36  55  79 110 147 184 221 262 308
#     4   9  17  32  51  69  95 130 166 207 255 304
#     4  10  21  38  60  86 114 142 174 214 262 315
#     4   8  13  22  40  66  91 117 153 198 249 303
#     4  10  21  38  60  86 114 142 174 214 262 315
#     4   9  20  36  51  71 101 137 174 211 252 298
#
# _framework density 20.197478
#
# number of rings (size 3 to 8) (size 9 to 14) (size 15 to 20)
#    0.000    2.750    0.000    1.500    0.000    4.000 
#    0.000    6.250    0.000    3.750    0.000    0.000 
#    0.000   20.000    0.000    0.000    0.000    0.000 
#
# Total GULP energy -792848.327449 kJ/mol
# GULP energy per Si atom -12388.255116 kJ/mol
# Density = 2.015151 g / cm^3
# Si number density = 20.197478 Si / 1000 Ang^3
#
#
#
# Elastic Constant Matrix: (Units=GPa)
#
#
# Indices 1 2 3 4 5 6 
#
# 1 49.4469 -1.1365 30.8951 0.0000 0.0000 0.0000
# 2 -1.1365 31.8048 17.4356 0.0000 0.0000 0.0000
# 3 30.8951 17.4356 107.2339 0.0000 0.0000 0.0000
# 4 0.0000 0.0000 0.0000 20.9034 0.0000 0.0000
# 5 0.0000 0.0000 0.0000 0.0000 -16.3395 0.0000
# 6 0.0000 0.0000 0.0000 0.0000 0.0000 26.3368
#
#
#
# Elastic Compliance Matrix: (Units=1/GPa)
#
#
# Indices 1 2 3 4 5 6 
#
# 1 0.025487 0.005419 -0.008224 0.000000 0.000000 0.000000
# 2 0.005419 0.035671 -0.007361 0.000000 0.000000 0.000000
# 3 -0.008224 -0.007361 0.012892 0.000000 0.000000 0.000000
# 4 0.000000 0.000000 0.000000 0.047839 0.000000 0.000000
# 5 0.000000 0.000000 0.000000 0.000000 -0.061201 0.000000
# 6 0.000000 0.000000 0.000000 0.000000 0.000000 0.037970
#
#
# Mechanical properties :
#
#
# Convention : Reuss Voigt Hill
#
# Bulk Modulus (GPa) = 18.61596 31.43045 25.02320
# Shear Modulus (GPa) = 36.52436 15.59956 26.06196
#
# Velocity S-wave (km/s) = 4.25710 2.78214 3.59605
# Velocity P-wave (km/s) = 5.77934 5.09075 5.44594
#
# Compressibility (1/GPa) = 0.05371735
#
# Stress axis : x y z
#
# Youngs Moduli (GPa) = 39.23591 28.03401 77.56894
#
# Poissons Ratio (x) = -0.15192 0.63794
# Poissons Ratio (y) = -0.21263 0.57100
# Poissons Ratio (z) = 0.32268 0.20637
#
# Static dielectric constant tensor:
#      x y z
#    x 3.432930 0.000000 0.000000 
#    y 0.000000 3.517400 0.000000 
#    z 0.000000 0.000000 4.042910 
# 
# 
# High freq. dielectric constant tensor:
#      x y z
#    x 1.759950 0.000000 0.000000 
#    y 0.000000 1.773040 0.000000 
#    z 0.000000 0.000000 1.800930 
# 
# From -- ./inp_files/23621.got.cif
#   From: 2010.03.12/outbox.cif.g09.slc.cpg/sg55_12_cif.got.tgz:23621.got - 2010.04.16 15:19:21.
