data_PCOD8227820
_publ_section_title
;
Structure prediction by ZEFSAII (Michael W. Deem and Ramdas Pophale) SiO2 
 PCOD8227820
Probable space group: P B A M
;
_chemical_formula_sum "Si O2"
_cell_formula_units_Z 64
_cell_length_a 20.877903
_cell_length_b 19.369846
_cell_length_c 9.327195
_cell_angle_alpha 90.000000
_cell_angle_beta 90.000000
_cell_angle_gamma 90.000000
_cell_volume 3771.934129
_symmetry_space_group_name_H-M "P B A M"
_symmetry_group_IT_number 55
_symmetry_cell_setting 'orthorhombic'
loop_
_space_group_symop_operation_xyz
x,y,z
-x,-y,z
1/2+x,1/2-y,-z
1/2-x,1/2+y,-z
-x,-y,-z
x,y,-z
1/2-x,1/2+y,z
1/2+x,1/2-y,z
loop_
_atom_site_type_symbol
_atom_site_label
_atom_site_fract_x
_atom_site_fract_y
_atom_site_fract_z
Si Si1 0.322590 0.543820 0.842295
Si Si2 0.688202 0.935533 0.836840
Si Si3 0.304375 0.200460 0.666350
Si Si4 0.047744 0.556777 0.164747
Si Si5 0.184367 0.208449 0.162721
Si Si6 0.946207 0.302239 0.665991
Si Si7 0.061064 0.203437 0.667592
Si Si8 0.558528 0.455356 0.667626
O O1 0.250307 0.514246 0.812903
O O2 0.314076 0.626031 0.829423
O O3 0.374843 0.515590 0.731692
O O4 0.346803 0.522875 0.000000
O O5 0.689840 0.878543 0.713775
O O6 0.620096 0.974198 0.821538
O O7 0.693308 0.903842 0.000000
O O8 0.284788 0.204491 0.500000
O O9 0.248561 0.237921 0.758961
O O10 0.375675 0.231465 0.694272
O O11 0.040567 0.629197 0.244228
O O12 0.000000 0.500000 0.232352
O O13 0.029397 0.570560 0.000000
O O14 0.121011 0.234693 0.245077
O O15 0.182765 0.236008 0.000000
O O16 0.952764 0.322658 0.500000
O O17 0.997794 0.245040 0.711213
O O18 0.077111 0.209435 0.500000
O O19 0.048005 0.124065 0.710841
O O20 0.500000 0.500000 0.730927
O O21 0.563898 0.466489 0.500000
#
# Coordination Sequence:
#
# PCOD8227820 Si02
#       8
#     8   8   8   8   8   8   8   8
#     4   8  14  24  39  59  82 107 135 171 211 248
#     4   8  14  25  40  60  85 110 140 178 214 248
#     4   9  15  24  40  62  85 110 142 178 216 258
#     4   9  17  29  46  67  90 118 148 178 216 259
#     4   9  16  26  41  63  87 110 141 181 221 257
#     4   9  18  30  45  66  90 117 147 180 220 264
#     4   9  17  30  46  64  88 116 145 179 220 264
#     4   9  17  28  43  63  85 109 138 174 214 256
#
# _framework density 16.967424000000001
#
# number of rings (size 3 to 8) (size 9 to 14) (size 15 to 20)
#    0.000    3.250    0.000    1.500    0.000    4.500 
#    0.000    0.000    0.000    1.500    0.000    5.250 
#    0.000    0.000    0.000    0.000    0.000    0.000 
#
# Total GULP energy -792936.567260 kJ/mol
# GULP energy per Si atom -12389.633863 kJ/mol
# Density = 1.692881 g / cm^3
# Si number density = 16.967424 Si / 1000 Ang^3
#
#
#
# Elastic Constant Matrix: (Units=GPa)
#
#
# Indices 1 2 3 4 5 6 
#
# 1 180.5605 45.9768 64.1685 0.0000 0.0000 0.0000
# 2 45.9768 35.2160 24.4805 0.0000 0.0000 0.0000
# 3 64.1685 24.4805 69.5320 0.0000 0.0000 0.0000
# 4 0.0000 0.0000 0.0000 12.7756 0.0000 0.0000
# 5 0.0000 0.0000 0.0000 0.0000 29.1332 0.0000
# 6 0.0000 0.0000 0.0000 0.0000 0.0000 23.9702
#
#
#
# Elastic Compliance Matrix: (Units=1/GPa)
#
#
# Indices 1 2 3 4 5 6 
#
# 1 0.009922 -0.008724 -0.006086 0.000000 0.000000 0.000000
# 2 -0.008724 0.045269 -0.007887 0.000000 0.000000 0.000000
# 3 -0.006086 -0.007887 0.022775 0.000000 0.000000 0.000000
# 4 0.000000 0.000000 0.000000 0.078274 0.000000 0.000000
# 5 0.000000 0.000000 0.000000 0.000000 0.034325 0.000000
# 6 0.000000 0.000000 0.000000 0.000000 0.000000 0.041719
#
#
# Mechanical properties :
#
#
# Convention : Reuss Voigt Hill
#
# Bulk Modulus (GPa) = 30.70036 61.61779 46.15908
# Shear Modulus (GPa) = 17.32898 23.22131 20.27515
#
# Velocity S-wave (km/s) = 3.19926 3.70345 3.46055
# Velocity P-wave (km/s) = 5.63738 7.39470 6.57501
#
# Compressibility (1/GPa) = 0.03257291
#
# Stress axis : x y z
#
# Youngs Moduli (GPa) = 100.78143 22.09039 43.90828
#
# Poissons Ratio (x) = 0.19272 0.26721
# Poissons Ratio (y) = 0.87922 0.34630
# Poissons Ratio (z) = 0.61331 0.17422
#
# Static dielectric constant tensor:
#      x y z
#    x 3.774830 0.000000 0.000000 
#    y 0.000000 2.605310 0.000000 
#    z 0.000000 0.000000 3.212290 
# 
# 
# High freq. dielectric constant tensor:
#      x y z
#    x 1.681960 0.000000 0.000000 
#    y 0.000000 1.577140 0.000000 
#    z 0.000000 0.000000 1.657760 
# 
# From -- ./inp_files/9046.got.cif
#   From: 2010.03.12/outbox.cif.g09.slc.cpg/sg55_5_cif.got.tgz:9046.got - 2010.04.16 15:19:21.
