data_PCOD8227548
_publ_section_title
;
Structure prediction by ZEFSAII (Michael W. Deem and Ramdas Pophale) SiO2 
 PCOD8227548
Probable space group: P B A M
;
_chemical_formula_sum "Si O2"
_cell_formula_units_Z 56
_cell_length_a 29.660030
_cell_length_b 8.547238
_cell_length_c 11.305487
_cell_angle_alpha 90.000000
_cell_angle_beta 90.000000
_cell_angle_gamma 90.000000
_cell_volume 2866.069108
_symmetry_space_group_name_H-M "P B A M"
_symmetry_group_IT_number 55
_symmetry_cell_setting 'orthorhombic'
loop_
_space_group_symop_operation_xyz
x,y,z
-x,-y,z
1/2+x,1/2-y,-z
1/2-x,1/2+y,-z
-x,-y,-z
x,y,-z
1/2-x,1/2+y,z
1/2+x,1/2-y,z
loop_
_atom_site_type_symbol
_atom_site_label
_atom_site_fract_x
_atom_site_fract_y
_atom_site_fract_z
Si Si1 0.618332 0.634146 0.632766
Si Si2 0.228988 0.412792 0.365962
Si Si3 0.005117 0.251067 0.500000
Si Si4 0.136961 0.543015 0.291581
Si Si5 0.042765 0.073569 0.725020
Si Si6 0.879643 0.747055 0.861327
Si Si7 0.070949 0.527950 0.500000
Si Si8 0.691062 0.410976 0.288771
O O1 0.618891 0.708682 0.500000
O O2 0.631416 0.769742 0.728264
O O3 0.570091 0.569976 0.669243
O O4 0.652925 0.489589 0.630568
O O5 0.246336 0.439473 0.500000
O O6 0.186906 0.523621 0.341348
O O7 0.268913 0.460551 0.272967
O O8 0.214431 0.233731 0.353738
O O9 0.019228 0.160655 0.616946
O O10 0.030329 0.412280 0.500000
O O11 0.951479 0.296512 0.500000
O O12 0.128486 0.433661 0.177106
O O13 0.100224 0.489186 0.385522
O O14 0.074588 0.184140 0.804166
O O15 0.000000 0.000000 0.798844
O O16 0.835072 0.850551 0.828873
O O17 0.886160 0.751592 0.000000
#
# Coordination Sequence:
#
# PCOD8227548 Si02
#       8
#     8   8   4   8   8   8   4   8
#     4  11  20  33  56  90 132 162 189 241 311 388
#     4  11  19  33  56  88 130 158 190 241 304 377
#     4  11  21  34  60  93 135 164 192 254 316 391
#     4  11  21  36  59  91 125 163 204 246 311 367
#     4  11  22  36  60  93 126 159 206 251 320 382
#     4  10  24  46  64  80 119 169 221 268 303 348
#     4  11  20  34  58  93 131 166 198 250 313 383
#     4  10  23  36  58  91 122 163 205 243 304 365
#
# _framework density 19.538955000000001
#
# number of rings (size 3 to 8) (size 9 to 14) (size 15 to 20)
#    0.000    1.286    3.571    3.214    0.000    0.286 
#    0.000    5.714    0.000    6.000    0.000    0.000 
#    0.000    0.000    0.000    0.000    0.000    0.000 
#
# Total GULP energy -693866.694294 kJ/mol
# GULP energy per Si atom -12390.476684 kJ/mol
# Density = 1.949448 g / cm^3
# Si number density = 19.538955 Si / 1000 Ang^3
#
#
#
# Elastic Constant Matrix: (Units=GPa)
#
#
# Indices 1 2 3 4 5 6 
#
# 1 139.7478 54.0346 39.6144 0.0000 0.0000 0.0000
# 2 54.0346 110.1754 34.7115 0.0000 0.0000 0.0000
# 3 39.6144 34.7115 101.5558 0.0000 0.0000 0.0000
# 4 0.0000 0.0000 0.0000 22.9027 0.0000 0.0000
# 5 0.0000 0.0000 0.0000 0.0000 15.5358 0.0000
# 6 0.0000 0.0000 0.0000 0.0000 0.0000 40.0062
#
#
#
# Elastic Compliance Matrix: (Units=1/GPa)
#
#
# Indices 1 2 3 4 5 6 
#
# 1 0.009292 -0.003828 -0.002316 0.000000 0.000000 0.000000
# 2 -0.003828 0.011748 -0.002523 0.000000 0.000000 0.000000
# 3 -0.002316 -0.002523 0.011613 0.000000 0.000000 0.000000
# 4 0.000000 0.000000 0.000000 0.043663 0.000000 0.000000
# 5 0.000000 0.000000 0.000000 0.000000 0.064368 0.000000
# 6 0.000000 0.000000 0.000000 0.000000 0.000000 0.024996
#
#
# Mechanical properties :
#
#
# Convention : Reuss Voigt Hill
#
# Bulk Modulus (GPa) = 65.27319 67.57778 66.42549
# Shear Modulus (GPa) = 26.57880 30.56350 28.57115
#
# Velocity S-wave (km/s) = 3.69222 3.95933 3.82811
# Velocity P-wave (km/s) = 7.18720 7.45406 7.32185
#
# Compressibility (1/GPa) = 0.01532023
#
# Stress axis : x y z
#
# Youngs Moduli (GPa) = 107.61552 85.11836 86.11341
#
# Poissons Ratio (x) = 0.32579 0.19948
# Poissons Ratio (y) = 0.41190 0.21722
# Poissons Ratio (z) = 0.24929 0.21471
#
# Static dielectric constant tensor:
#      x y z
#    x 3.930520 0.000000 0.000000 
#    y 0.000000 3.891480 0.000000 
#    z 0.000000 0.000000 3.075150 
# 
# 
# High freq. dielectric constant tensor:
#      x y z
#    x 1.793770 0.000000 0.000000 
#    y 0.000000 1.783470 0.000000 
#    z 0.000000 0.000000 1.695090 
# 
# From -- ./inp_files/16001.got.cif
#   From: 2010.03.12/outbox.cif.g09.slc.cpg/sg55_9_cif.got.tgz:16001.got - 2010.04.16 15:19:21.
