data_PCOD8227090
_publ_section_title
;
Structure prediction by ZEFSAII (Michael W. Deem and Ramdas Pophale) SiO2 
 PCOD8227090
Probable space group: P B A M
;
_chemical_formula_sum "Si O2"
_cell_formula_units_Z 56
_cell_length_a 18.922792
_cell_length_b 15.504055
_cell_length_c 8.709094
_cell_angle_alpha 90.000000
_cell_angle_beta 90.000000
_cell_angle_gamma 90.000000
_cell_volume 2555.074067
_symmetry_space_group_name_H-M "P B A M"
_symmetry_group_IT_number 55
_symmetry_cell_setting 'orthorhombic'
loop_
_space_group_symop_operation_xyz
x,y,z
-x,-y,z
1/2+x,1/2-y,-z
1/2-x,1/2+y,-z
-x,-y,-z
x,y,-z
1/2-x,1/2+y,z
1/2+x,1/2-y,z
loop_
_atom_site_type_symbol
_atom_site_label
_atom_site_fract_x
_atom_site_fract_y
_atom_site_fract_z
Si Si1 0.082170 0.268544 0.321622
Si Si2 0.664405 0.879094 0.180617
Si Si3 0.730731 0.227109 0.181805
Si Si4 0.996713 0.126926 0.821172
Si Si5 0.400181 0.496549 0.675029
Si Si6 0.504773 0.898952 0.173921
Si Si7 0.241310 0.461216 0.676302
O O1 0.085234 0.247404 0.500000
O O2 0.156614 0.240770 0.250369
O O3 0.017665 0.220277 0.238133
O O4 0.058694 0.366349 0.285566
O O5 0.709142 0.795262 0.237623
O O6 0.582420 0.864702 0.224035
O O7 0.687393 0.969367 0.256492
O O8 0.674137 0.891644 0.000000
O O9 0.744073 0.129984 0.237574
O O10 0.726195 0.226489 0.000000
O O11 0.926794 0.097732 0.728776
O O12 0.978888 0.128483 0.000000
O O13 0.062842 0.064541 0.787127
O O14 0.423538 0.514151 0.500000
O O15 0.317197 0.505474 0.693331
O O16 0.500000 0.000000 0.188280
O O17 0.488533 0.869226 0.000000
O O18 0.221643 0.441606 0.500000
#
# Coordination Sequence:
#
# PCOD8227090 Si02
#       7
#     8   8   8   8   8   8   8
#     4  12  25  41  63  91 125 165 210 266 326 385
#     4  10  23  42  66  97 130 172 222 271 327 390
#     4  11  24  42  65  94 129 172 222 273 324 391
#     4  11  22  37  60  89 121 162 210 257 310 375
#     4  10  21  38  59  89 127 164 203 253 315 378
#     4  10  22  42  67  95 128 167 214 270 327 388
#     4  11  24  40  63  93 129 169 210 263 327 389
#
# _framework density 21.917172000000001
#
# number of rings (size 3 to 8) (size 9 to 14) (size 15 to 20)
#    0.000    1.286    0.000    6.429    2.000    7.714 
#    0.000    0.000    0.000    0.000    0.000    0.000 
#    0.000    0.000    0.000    0.000    0.000    0.000 
#
# Total GULP energy -694402.247164 kJ/mol
# GULP energy per Si atom -12400.040128 kJ/mol
# Density = 2.186729 g / cm^3
# Si number density = 21.917172 Si / 1000 Ang^3
#
#
#
# Elastic Constant Matrix: (Units=GPa)
#
#
# Indices 1 2 3 4 5 6 
#
# 1 87.7986 19.2209 27.1885 0.0000 0.0000 0.0000
# 2 19.2209 82.6249 25.8319 0.0000 0.0000 0.0000
# 3 27.1885 25.8319 96.1510 0.0000 0.0000 0.0000
# 4 0.0000 0.0000 0.0000 21.0376 0.0000 0.0000
# 5 0.0000 0.0000 0.0000 0.0000 32.2782 0.0000
# 6 0.0000 0.0000 0.0000 0.0000 0.0000 36.8717
#
#
#
# Elastic Compliance Matrix: (Units=1/GPa)
#
#
# Indices 1 2 3 4 5 6 
#
# 1 0.012782 -0.002013 -0.003074 0.000000 0.000000 0.000000
# 2 -0.002013 0.013530 -0.003066 0.000000 0.000000 0.000000
# 3 -0.003074 -0.003066 0.012093 0.000000 0.000000 0.000000
# 4 0.000000 0.000000 0.000000 0.047534 0.000000 0.000000
# 5 0.000000 0.000000 0.000000 0.000000 0.030981 0.000000
# 6 0.000000 0.000000 0.000000 0.000000 0.000000 0.027121
#
#
# Mechanical properties :
#
#
# Convention : Reuss Voigt Hill
#
# Bulk Modulus (GPa) = 45.24728 45.67303 45.46016
# Shear Modulus (GPa) = 29.81312 30.99304 30.40308
#
# Velocity S-wave (km/s) = 3.69218 3.76453 3.72853
# Velocity P-wave (km/s) = 6.23424 6.30712 6.27078
#
# Compressibility (1/GPa) = 0.02210078
#
# Stress axis : x y z
#
# Youngs Moduli (GPa) = 78.23430 73.91231 82.69180
#
# Poissons Ratio (x) = 0.14875 0.25417
# Poissons Ratio (y) = 0.15745 0.25351
# Poissons Ratio (z) = 0.24047 0.22660
#
# Static dielectric constant tensor:
#      x y z
#    x 4.143540 0.000000 0.000000 
#    y 0.000000 4.135940 0.000000 
#    z 0.000000 0.000000 3.912730 
# 
# 
# High freq. dielectric constant tensor:
#      x y z
#    x 1.870370 0.000000 0.000000 
#    y 0.000000 1.872310 0.000000 
#    z 0.000000 0.000000 1.859030 
# 
# From -- ./inp_files/8804.got.cif
#   From: 2010.03.12/outbox.cif.g09.slc.cpg/sg55_5_cif.got.tgz:8804.got - 2010.04.16 15:19:21.
