data_PCOD8227006
_publ_section_title
;
Structure prediction by ZEFSAII (Michael W. Deem and Ramdas Pophale) SiO2 
 PCOD8227006
Probable space group: P B A M
;
_chemical_formula_sum "Si O2"
_cell_formula_units_Z 48
_cell_length_a 20.173234
_cell_length_b 13.991766
_cell_length_c 8.855968
_cell_angle_alpha 90.000000
_cell_angle_beta 90.000000
_cell_angle_gamma 90.000000
_cell_volume 2499.678174
_symmetry_space_group_name_H-M "P B A M"
_symmetry_group_IT_number 55
_symmetry_cell_setting 'orthorhombic'
loop_
_space_group_symop_operation_xyz
x,y,z
-x,-y,z
1/2+x,1/2-y,-z
1/2-x,1/2+y,-z
-x,-y,-z
x,y,-z
1/2-x,1/2+y,z
1/2+x,1/2-y,z
loop_
_atom_site_type_symbol
_atom_site_label
_atom_site_fract_x
_atom_site_fract_y
_atom_site_fract_z
Si Si1 0.067796 0.044980 0.679527
Si Si2 0.937820 0.560341 0.174830
Si Si3 0.701310 0.969133 0.172080
Si Si4 0.612341 0.247882 0.320978
Si Si5 0.244347 0.743010 0.175135
Si Si6 0.688250 0.583622 0.323248
O O1 0.066879 0.043515 0.500000
O O2 0.078141 0.153665 0.736461
O O3 0.127889 0.979872 0.740275
O O4 0.000000 0.000000 0.745116
O O5 0.874960 0.492521 0.200694
O O6 0.931838 0.659640 0.264607
O O7 0.000000 0.500000 0.237154
O O8 0.947661 0.586771 0.000000
O O9 0.713656 0.859318 0.208918
O O10 0.743194 0.030543 0.289218
O O11 0.722159 0.993953 0.000000
O O12 0.616729 0.245778 0.500000
O O13 0.686345 0.240727 0.258137
O O14 0.188962 0.815520 0.237619
O O15 0.257316 0.761975 0.000000
O O16 0.681214 0.602117 0.500000
#
# Coordination Sequence:
#
# PCOD8227006 Si02
#       6
#     8   8   8   8   8   8
#     4   9  20  38  58  84 121 156 188 236 295 348
#     4  10  22  40  60  84 118 158 194 236 296 353
#     4  10  21  37  58  83 114 155 194 238 289 343
#     4  11  21  36  60  87 113 150 199 242 294 349
#     4  11  22  36  57  85 119 155 195 241 297 348
#     4  11  21  35  59  88 115 149 196 242 286 341
#
# _framework density 19.202472
#
# number of rings (size 3 to 8) (size 9 to 14) (size 15 to 20)
#    0.000    1.667    3.333    1.500    0.000    2.333 
#    0.000    0.000    0.000    7.000    0.000    0.000 
#    0.000    0.000    0.000    0.000    0.000    0.000 
#
# Total GULP energy -595329.815265 kJ/mol
# GULP energy per Si atom -12402.704485 kJ/mol
# Density = 1.915877 g / cm^3
# Si number density = 19.202472 Si / 1000 Ang^3
#
#
#
# Elastic Constant Matrix: (Units=GPa)
#
#
# Indices 1 2 3 4 5 6 
#
# 1 93.9319 36.7685 17.9360 0.0000 0.0000 0.0000
# 2 36.7685 133.4904 34.0053 0.0000 0.0000 0.0000
# 3 17.9360 34.0053 56.1767 0.0000 0.0000 0.0000
# 4 0.0000 0.0000 0.0000 28.3953 0.0000 0.0000
# 5 0.0000 0.0000 0.0000 0.0000 16.5903 0.0000
# 6 0.0000 0.0000 0.0000 0.0000 0.0000 34.7693
#
#
#
# Elastic Compliance Matrix: (Units=1/GPa)
#
#
# Indices 1 2 3 4 5 6 
#
# 1 0.012157 -0.002790 -0.002193 0.000000 0.000000 0.000000
# 2 -0.002790 0.009497 -0.004858 0.000000 0.000000 0.000000
# 3 -0.002193 -0.004858 0.021442 0.000000 0.000000 0.000000
# 4 0.000000 0.000000 0.000000 0.035217 0.000000 0.000000
# 5 0.000000 0.000000 0.000000 0.000000 0.060276 0.000000
# 6 0.000000 0.000000 0.000000 0.000000 0.000000 0.028761
#
#
# Mechanical properties :
#
#
# Convention : Reuss Voigt Hill
#
# Bulk Modulus (GPa) = 42.70870 51.22432 46.96651
# Shear Modulus (GPa) = 25.66260 28.94359 27.30309
#
# Velocity S-wave (km/s) = 3.65968 3.88659 3.77484
# Velocity P-wave (km/s) = 6.33618 6.84650 6.59628
#
# Compressibility (1/GPa) = 0.02341443
#
# Stress axis : x y z
#
# Youngs Moduli (GPa) = 82.25881 105.29429 46.63792
#
# Poissons Ratio (x) = 0.29376 0.10226
# Poissons Ratio (y) = 0.22949 0.22657
# Poissons Ratio (z) = 0.18036 0.51154
#
# Static dielectric constant tensor:
#      x y z
#    x 3.553820 0.000000 0.000000 
#    y 0.000000 3.855460 0.000000 
#    z 0.000000 0.000000 3.371640 
# 
# 
# High freq. dielectric constant tensor:
#      x y z
#    x 1.741800 0.000000 0.000000 
#    y 0.000000 1.766250 0.000000 
#    z 0.000000 0.000000 1.733020 
# 
# From -- ./inp_files/5836.got.cif
#   From: 2010.03.12/outbox.cif.g09.slc.cpg/sg55_3_cif.got.tgz:5836.got - 2010.04.16 15:19:21.
