data_PCOD8227651
_publ_section_title
;
Structure prediction by ZEFSAII (Michael W. Deem and Ramdas Pophale) SiO2 
 PCOD8227651
Probable space group: P B A M
;
_chemical_formula_sum "Si O2"
_cell_formula_units_Z 56
_cell_length_a 15.065321
_cell_length_b 21.217012
_cell_length_c 8.548472
_cell_angle_alpha 90.000000
_cell_angle_beta 90.000000
_cell_angle_gamma 90.000000
_cell_volume 2732.442963
_symmetry_space_group_name_H-M "P B A M"
_symmetry_group_IT_number 55
_symmetry_cell_setting 'orthorhombic'
loop_
_space_group_symop_operation_xyz
x,y,z
-x,-y,z
1/2+x,1/2-y,-z
1/2-x,1/2+y,-z
-x,-y,-z
x,y,-z
1/2-x,1/2+y,z
1/2+x,1/2-y,z
loop_
_atom_site_type_symbol
_atom_site_label
_atom_site_fract_x
_atom_site_fract_y
_atom_site_fract_z
Si Si1 0.826520 0.227548 0.314390
Si Si2 0.261223 0.540086 0.679960
Si Si3 0.443921 0.868712 0.680912
Si Si4 0.191670 0.170232 0.821272
Si Si5 0.754182 0.597040 0.685405
Si Si6 0.923350 0.451141 0.821197
Si Si7 0.021646 0.244057 0.180581
O O1 0.837617 0.227311 0.500000
O O2 0.759994 0.284974 0.272906
O O3 0.792260 0.159894 0.248303
O O4 0.922304 0.232763 0.236933
O O5 0.285569 0.551167 0.500000
O O6 0.302820 0.596453 0.778459
O O7 0.293285 0.469338 0.734837
O O8 0.155680 0.539889 0.700697
O O9 0.462294 0.883213 0.500000
O O10 0.356391 0.904925 0.744218
O O11 0.530583 0.884384 0.784929
O O12 0.429566 0.795066 0.710219
O O13 0.087515 0.184787 0.795063
O O14 0.220201 0.178738 0.000000
O O15 0.756331 0.602852 0.500000
O O16 0.000000 0.500000 0.779288
O O17 0.889968 0.454694 0.000000
O O18 0.020297 0.264916 0.000000
#
# Coordination Sequence:
#
# PCOD8227651 Si02
#       7
#     8   8   8   8   8   8   8
#     4  11  22  41  67  93 120 157 206 256 306 359
#     4  11  22  39  61  86 119 159 201 252 305 357
#     4  11  20  36  60  85 116 153 198 248 298 357
#     4  11  24  42  62  89 126 163 202 249 302 366
#     4   9  20  37  60  89 118 149 197 250 299 353
#     4  11  22  34  51  82 121 157 194 235 293 365
#     4  11  24  41  61  89 123 159 202 250 304 363
#
# _framework density 20.494479999999999
#
# number of rings (size 3 to 8) (size 9 to 14) (size 15 to 20)
#    0.000    1.286    2.857    3.429    0.000    2.286 
#    0.000    3.571    0.000    4.286    0.000    0.000 
#    0.000    0.000    0.000    0.000    0.000    0.000 
#
# Total GULP energy -694046.338500 kJ/mol
# GULP energy per Si atom -12393.684616 kJ/mol
# Density = 2.044783 g / cm^3
# Si number density = 20.494480 Si / 1000 Ang^3
#
#
#
# Elastic Constant Matrix: (Units=GPa)
#
#
# Indices 1 2 3 4 5 6 
#
# 1 76.5861 25.1441 18.1873 0.0000 0.0000 0.0000
# 2 25.1441 120.8529 11.3319 0.0000 0.0000 0.0000
# 3 18.1873 11.3319 49.1702 0.0000 0.0000 0.0000
# 4 0.0000 0.0000 0.0000 26.5253 0.0000 0.0000
# 5 0.0000 0.0000 0.0000 0.0000 21.6299 0.0000
# 6 0.0000 0.0000 0.0000 0.0000 0.0000 33.5696
#
#
#
# Elastic Compliance Matrix: (Units=1/GPa)
#
#
# Indices 1 2 3 4 5 6 
#
# 1 0.015118 -0.002679 -0.004975 0.000000 0.000000 0.000000
# 2 -0.002679 0.008932 -0.001068 0.000000 0.000000 0.000000
# 3 -0.004975 -0.001068 0.022424 0.000000 0.000000 0.000000
# 4 0.000000 0.000000 0.000000 0.037700 0.000000 0.000000
# 5 0.000000 0.000000 0.000000 0.000000 0.046232 0.000000
# 6 0.000000 0.000000 0.000000 0.000000 0.000000 0.029789
#
#
# Mechanical properties :
#
#
# Convention : Reuss Voigt Hill
#
# Bulk Modulus (GPa) = 34.44537 39.54841 36.99689
# Shear Modulus (GPa) = 26.69317 29.14137 27.91727
#
# Velocity S-wave (km/s) = 3.61287 3.77492 3.69478
# Velocity P-wave (km/s) = 5.85213 6.19185 6.02438
#
# Compressibility (1/GPa) = 0.02903147
#
# Stress axis : x y z
#
# Youngs Moduli (GPa) = 66.14608 111.95702 44.59592
#
# Poissons Ratio (x) = 0.29993 0.22184
# Poissons Ratio (y) = 0.17720 0.04761
# Poissons Ratio (z) = 0.32905 0.11952
#
# Static dielectric constant tensor:
#      x y z
#    x 3.623740 0.000000 0.000000 
#    y 0.000000 4.115800 0.000000 
#    z 0.000000 0.000000 3.558610 
# 
# 
# High freq. dielectric constant tensor:
#      x y z
#    x 1.783520 0.000000 0.000000 
#    y 0.000000 1.815670 0.000000 
#    z 0.000000 0.000000 1.795020 
# 
# From -- ./inp_files/6153.got.cif
#   From: 2010.03.12/outbox.cif.g09.slc.cpg/sg55_4_cif.got.tgz:6153.got - 2010.04.16 15:19:21.
