data_PCOD8227402
_publ_section_title
;
Structure prediction by ZEFSAII (Michael W. Deem and Ramdas Pophale) SiO2 
 PCOD8227402
Probable space group: P B A M
;
_chemical_formula_sum "Si O2"
_cell_formula_units_Z 48
_cell_length_a 9.279327
_cell_length_b 28.640817
_cell_length_c 9.199411
_cell_angle_alpha 90.000000
_cell_angle_beta 90.000000
_cell_angle_gamma 90.000000
_cell_volume 2444.904523
_symmetry_space_group_name_H-M "P B A M"
_symmetry_group_IT_number 55
_symmetry_cell_setting 'orthorhombic'
loop_
_space_group_symop_operation_xyz
x,y,z
-x,-y,z
1/2+x,1/2-y,-z
1/2-x,1/2+y,-z
-x,-y,-z
x,y,-z
1/2-x,1/2+y,z
1/2+x,1/2-y,z
loop_
_atom_site_type_symbol
_atom_site_label
_atom_site_fract_x
_atom_site_fract_y
_atom_site_fract_z
Si Si1 0.188648 0.620201 0.331211
Si Si2 0.015429 0.868460 0.329976
Si Si3 0.836830 0.485050 0.662726
Si Si4 0.114879 0.959253 0.835295
Si Si5 0.521354 0.802779 0.830692
Si Si6 0.190500 0.789055 0.170160
O O1 0.148896 0.621198 0.500000
O O2 0.346849 0.641159 0.300507
O O3 0.180349 0.567131 0.273184
O O4 0.068449 0.650458 0.250511
O O5 0.049247 0.871263 0.500000
O O6 0.057974 0.917019 0.259380
O O7 0.107657 0.827677 0.260552
O O8 0.768557 0.486876 0.500000
O O9 0.762269 0.521944 0.768234
O O10 0.000000 0.500000 0.655790
O O11 0.143451 0.942444 0.000000
O O12 0.000000 0.000000 0.829303
O O13 0.626577 0.760878 0.783981
O O14 0.358346 0.789698 0.787632
O O15 0.534198 0.813172 0.000000
O O16 0.165380 0.798698 0.000000
#
# Coordination Sequence:
#
# PCOD8227402 Si02
#       6
#     8   8   8   8   8   8
#     4  10  22  39  59  87 121 157 201 246 293 354
#     4  11  23  39  62  88 119 160 200 245 297 352
#     4  10  22  40  61  86 121 163 203 246 296 350
#     4  11  23  39  61  90 121 158 202 248 295 350
#     4  10  22  40  64  89 120 156 193 243 300 356
#     4  10  22  41  63  91 120 154 197 243 297 357
#
# _framework density 19.632669
#
# number of rings (size 3 to 8) (size 9 to 14) (size 15 to 20)
#    0.000    1.667    1.667    2.000    2.333    5.667 
#    0.000    0.000    0.000    0.000    0.000    0.000 
#    0.000    0.000    0.000    0.000    0.000    0.000 
#
# Total GULP energy -595420.543309 kJ/mol
# GULP energy per Si atom -12404.594652 kJ/mol
# Density = 1.958798 g / cm^3
# Si number density = 19.632669 Si / 1000 Ang^3
#
#
#
# Elastic Constant Matrix: (Units=GPa)
#
#
# Indices 1 2 3 4 5 6 
#
# 1 95.7700 29.3314 41.6422 0.0000 0.0000 0.0000
# 2 29.3314 80.7314 38.4383 0.0000 0.0000 0.0000
# 3 41.6422 38.4383 69.9594 0.0000 0.0000 0.0000
# 4 0.0000 0.0000 0.0000 43.3772 0.0000 0.0000
# 5 0.0000 0.0000 0.0000 0.0000 31.1198 0.0000
# 6 0.0000 0.0000 0.0000 0.0000 0.0000 41.0736
#
#
#
# Elastic Compliance Matrix: (Units=1/GPa)
#
#
# Indices 1 2 3 4 5 6 
#
# 1 0.014228 -0.001540 -0.007623 0.000000 0.000000 0.000000
# 2 -0.001540 0.016942 -0.008392 0.000000 0.000000 0.000000
# 3 -0.007623 -0.008392 0.023442 0.000000 0.000000 0.000000
# 4 0.000000 0.000000 0.000000 0.023054 0.000000 0.000000
# 5 0.000000 0.000000 0.000000 0.000000 0.032134 0.000000
# 6 0.000000 0.000000 0.000000 0.000000 0.000000 0.024347
#
#
# Mechanical properties :
#
#
# Convention : Reuss Voigt Hill
#
# Bulk Modulus (GPa) = 51.27499 51.69828 51.48664
# Shear Modulus (GPa) = 28.44856 32.25072 30.34964
#
# Velocity S-wave (km/s) = 3.81076 4.05743 3.93603
# Velocity P-wave (km/s) = 6.74806 6.95272 6.85115
#
# Compressibility (1/GPa) = 0.01950268
#
# Stress axis : x y z
#
# Youngs Moduli (GPa) = 70.28497 59.02560 42.65808
#
# Poissons Ratio (x) = 0.09089 0.32518
# Poissons Ratio (y) = 0.10823 0.35798
# Poissons Ratio (z) = 0.53577 0.49534
#
# Static dielectric constant tensor:
#      x y z
#    x 3.637930 0.000000 0.000000 
#    y 0.000000 4.951570 0.000000 
#    z 0.000000 0.000000 3.647080 
# 
# 
# High freq. dielectric constant tensor:
#      x y z
#    x 1.774160 0.000000 0.000000 
#    y 0.000000 1.774130 0.000000 
#    z 0.000000 0.000000 1.763000 
# 
# From -- ./inp_files/2783.got.cif
#   From: 2010.03.12/outbox.cif.g09.slc.cpg/sg55_2_cif.got.tgz:2783.got - 2010.04.16 15:19:21.
