data_PCOD8227779
_publ_section_title
;
Structure prediction by ZEFSAII (Michael W. Deem and Ramdas Pophale) SiO2 
 PCOD8227779
Probable space group: P B A M
;
_chemical_formula_sum "Si O2"
_cell_formula_units_Z 56
_cell_length_a 14.511475
_cell_length_b 21.505941
_cell_length_c 8.420274
_cell_angle_alpha 90.000000
_cell_angle_beta 90.000000
_cell_angle_gamma 90.000000
_cell_volume 2627.823741
_symmetry_space_group_name_H-M "P B A M"
_symmetry_group_IT_number 55
_symmetry_cell_setting 'orthorhombic'
loop_
_space_group_symop_operation_xyz
x,y,z
-x,-y,z
1/2+x,1/2-y,-z
1/2-x,1/2+y,-z
-x,-y,-z
x,y,-z
1/2-x,1/2+y,z
1/2+x,1/2-y,z
loop_
_atom_site_type_symbol
_atom_site_label
_atom_site_fract_x
_atom_site_fract_y
_atom_site_fract_z
Si Si1 0.119235 0.253212 0.814942
Si Si2 0.438248 0.172513 0.184020
Si Si3 0.088160 0.117960 0.684942
Si Si4 0.912031 0.461108 0.684125
Si Si5 0.312047 0.273257 0.682809
Si Si6 0.104504 0.897256 0.186393
Si Si7 0.717431 0.481958 0.816406
O O1 0.029385 0.291064 0.761356
O O2 0.105002 0.181289 0.778129
O O3 0.204443 0.281878 0.719180
O O4 0.138484 0.261977 0.000000
O O5 0.430090 0.111370 0.289191
O O6 0.350283 0.216339 0.213086
O O7 0.441020 0.153651 0.000000
O O8 0.076623 0.132431 0.500000
O O9 0.174676 0.072849 0.710791
O O10 0.997687 0.084465 0.755766
O O11 0.891800 0.473461 0.500000
O O12 0.825931 0.485656 0.785388
O O13 0.000000 0.500000 0.743122
O O14 0.327068 0.256552 0.500000
O O15 0.365427 0.336064 0.721265
O O16 0.172816 0.952659 0.233021
O O17 0.105155 0.883298 0.000000
O O18 0.697701 0.467304 0.000000
#
# Coordination Sequence:
#
# PCOD8227779 Si02
#       7
#     8   8   8   8   8   8   8
#     4  11  24  42  67  95 130 173 218 265 320 389
#     4  11  24  44  70  96 129 173 220 269 320 388
#     4  12  24  41  67 100 135 171 215 270 330 390
#     4  11  26  46  68  97 134 172 217 275 332 389
#     4  12  25  41  66  98 135 172 215 273 332 389
#     4  11  24  43  66  96 132 172 220 269 324 391
#     4  11  25  44  68  94 129 176 222 269 321 390
#
# _framework density 21.310407999999999
#
# number of rings (size 3 to 8) (size 9 to 14) (size 15 to 20)
#    0.000    0.714    1.429    6.000    2.000    6.857 
#    0.000    0.000    0.000    0.000    0.000    0.000 
#    0.000    0.000    0.000    0.000    0.000    0.000 
#
# Total GULP energy -694966.398224 kJ/mol
# GULP energy per Si atom -12410.114254 kJ/mol
# Density = 2.126191 g / cm^3
# Si number density = 21.310408 Si / 1000 Ang^3
#
#
#
# Elastic Constant Matrix: (Units=GPa)
#
#
# Indices 1 2 3 4 5 6 
#
# 1 126.3476 32.9558 19.8281 0.0000 0.0000 0.0000
# 2 32.9558 89.2594 10.1344 0.0000 0.0000 0.0000
# 3 19.8281 10.1344 55.9712 0.0000 0.0000 0.0000
# 4 0.0000 0.0000 0.0000 28.9005 0.0000 0.0000
# 5 0.0000 0.0000 0.0000 0.0000 28.7984 0.0000
# 6 0.0000 0.0000 0.0000 0.0000 0.0000 27.3261
#
#
#
# Elastic Compliance Matrix: (Units=1/GPa)
#
#
# Indices 1 2 3 4 5 6 
#
# 1 0.009136 -0.003069 -0.002681 0.000000 0.000000 0.000000
# 2 -0.003069 0.012469 -0.001171 0.000000 0.000000 0.000000
# 3 -0.002681 -0.001171 0.019028 0.000000 0.000000 0.000000
# 4 0.000000 0.000000 0.000000 0.034601 0.000000 0.000000
# 5 0.000000 0.000000 0.000000 0.000000 0.034724 0.000000
# 6 0.000000 0.000000 0.000000 0.000000 0.000000 0.036595
#
#
# Mechanical properties :
#
#
# Convention : Reuss Voigt Hill
#
# Bulk Modulus (GPa) = 37.32348 44.15720 40.74034
# Shear Modulus (GPa) = 29.52904 30.91565 30.22234
#
# Velocity S-wave (km/s) = 3.72649 3.81298 3.76998
# Velocity P-wave (km/s) = 6.00565 6.33648 6.17328
#
# Compressibility (1/GPa) = 0.02679279
#
# Stress axis : x y z
#
# Youngs Moduli (GPa) = 109.45953 80.19747 52.55415
#
# Poissons Ratio (x) = 0.24610 0.14089
# Poissons Ratio (y) = 0.33590 0.06152
# Poissons Ratio (z) = 0.29344 0.09388
#
# Static dielectric constant tensor:
#      x y z
#    x 4.153080 0.000000 0.000000 
#    y 0.000000 3.795050 0.000000 
#    z 0.000000 0.000000 3.773110 
# 
# 
# High freq. dielectric constant tensor:
#      x y z
#    x 1.852260 0.000000 0.000000 
#    y 0.000000 1.839510 0.000000 
#    z 0.000000 0.000000 1.843420 
# 
# From -- ./inp_files/6156.got.cif
#   From: 2010.03.12/outbox.cif.g09.slc.cpg/sg55_4_cif.got.tgz:6156.got - 2010.04.16 15:19:21.
