data_PCOD8227514
_publ_section_title
;
Structure prediction by ZEFSAII (Michael W. Deem and Ramdas Pophale) SiO2 
 PCOD8227514
Probable space group: P B A M
;
_chemical_formula_sum "Si O2"
_cell_formula_units_Z 48
_cell_length_a 13.333519
_cell_length_b 19.208938
_cell_length_c 8.838723
_cell_angle_alpha 90.000000
_cell_angle_beta 90.000000
_cell_angle_gamma 90.000000
_cell_volume 2263.797951
_symmetry_space_group_name_H-M "P B A M"
_symmetry_group_IT_number 55
_symmetry_cell_setting 'orthorhombic'
loop_
_space_group_symop_operation_xyz
x,y,z
-x,-y,z
1/2+x,1/2-y,-z
1/2-x,1/2+y,-z
-x,-y,-z
x,y,-z
1/2-x,1/2+y,z
1/2+x,1/2-y,z
loop_
_atom_site_type_symbol
_atom_site_label
_atom_site_fract_x
_atom_site_fract_y
_atom_site_fract_z
Si Si1 0.180286 0.654571 0.671575
Si Si2 0.723978 0.603425 0.676754
Si Si3 0.387282 0.510620 0.163221
Si Si4 0.595621 0.717447 0.177836
Si Si5 0.097238 0.151890 0.328573
Si Si6 0.387587 0.002802 0.679261
O O1 0.138152 0.658226 0.500000
O O2 0.111774 0.702208 0.778947
O O3 0.292776 0.687454 0.673085
O O4 0.169448 0.574009 0.729453
O O5 0.727754 0.620725 0.500000
O O6 0.638550 0.547463 0.712969
O O7 0.691933 0.673490 0.763763
O O8 0.827082 0.566335 0.735362
O O9 0.500000 0.500000 0.119635
O O10 0.373039 0.584154 0.238020
O O11 0.328527 0.505235 0.000000
O O12 0.489230 0.695940 0.249226
O O13 0.587186 0.707529 0.000000
O O14 0.062160 0.136146 0.500000
O O15 0.390443 0.999331 0.500000
O O16 0.500000 0.000000 0.747179
#
# Coordination Sequence:
#
# PCOD8227514 Si02
#       6
#     8   8   8   8   8   8
#     4  10  22  42  64  91 122 163 213 259 313 373
#     4  11  21  37  62  92 121 160 209 258 308 367
#     4  11  21  33  56  91 125 155 190 244 312 371
#     4  12  26  41  59  92 131 168 206 256 324 382
#     4  11  22  39  64  90 117 157 209 258 306 370
#     4   9  19  38  65  94 122 155 207 266 313 362
#
# _framework density 21.203306999999999
#
# number of rings (size 3 to 8) (size 9 to 14) (size 15 to 20)
#    0.000    1.333    3.333    3.000    0.000    3.333 
#    0.000    3.333    0.000    3.500    0.000    0.000 
#    0.000    0.000    0.000    0.000    0.000    0.000 
#
# Total GULP energy -594717.050721 kJ/mol
# GULP energy per Si atom -12389.938557 kJ/mol
# Density = 2.115505 g / cm^3
# Si number density = 21.203307 Si / 1000 Ang^3
#
#
#
# Elastic Constant Matrix: (Units=GPa)
#
#
# Indices 1 2 3 4 5 6 
#
# 1 113.9727 28.8565 37.5413 0.0000 0.0000 0.0000
# 2 28.8565 62.6567 8.9135 0.0000 0.0000 0.0000
# 3 37.5413 8.9135 87.5764 0.0000 0.0000 0.0000
# 4 0.0000 0.0000 0.0000 10.3602 0.0000 0.0000
# 5 0.0000 0.0000 0.0000 0.0000 8.3914 0.0000
# 6 0.0000 0.0000 0.0000 0.0000 0.0000 30.0218
#
#
#
# Elastic Compliance Matrix: (Units=1/GPa)
#
#
# Indices 1 2 3 4 5 6 
#
# 1 0.011399 -0.004621 -0.004416 0.000000 0.000000 0.000000
# 2 -0.004621 0.018068 0.000142 0.000000 0.000000 0.000000
# 3 -0.004416 0.000142 0.013297 0.000000 0.000000 0.000000
# 4 0.000000 0.000000 0.000000 0.096524 0.000000 0.000000
# 5 0.000000 0.000000 0.000000 0.000000 0.119169 0.000000
# 6 0.000000 0.000000 0.000000 0.000000 0.000000 0.033309
#
#
# Mechanical properties :
#
#
# Convention : Reuss Voigt Hill
#
# Bulk Modulus (GPa) = 40.04253 46.09207 43.06730
# Shear Modulus (GPa) = 15.72916 22.34765 19.03840
#
# Velocity S-wave (km/s) = 2.72660 3.25001 2.99975
# Velocity P-wave (km/s) = 5.37015 5.98906 5.68803
#
# Compressibility (1/GPa) = 0.02497345
#
# Stress axis : x y z
#
# Youngs Moduli (GPa) = 87.72958 55.34598 75.20440
#
# Poissons Ratio (x) = 0.25578 0.33209
# Poissons Ratio (y) = 0.40544 -0.01069
# Poissons Ratio (z) = 0.38740 -0.00786
#
# Static dielectric constant tensor:
#      x y z
#    x 4.091790 0.000000 0.000000 
#    y 0.000000 3.761950 0.000000 
#    z 0.000000 0.000000 3.735270 
# 
# 
# High freq. dielectric constant tensor:
#      x y z
#    x 1.831470 0.000000 0.000000 
#    y 0.000000 1.822210 0.000000 
#    z 0.000000 0.000000 1.820880 
# 
# From -- ./inp_files/5650.got.cif
#   From: 2010.03.12/outbox.cif.g09.slc.cpg/sg55_3_cif.got.tgz:5650.got - 2010.04.16 15:19:21.
