data_PCOD8227967
_publ_section_title
;
Structure prediction by ZEFSAII (Michael W. Deem and Ramdas Pophale) SiO2 
 PCOD8227967
Probable space group: P C C N
;
_chemical_formula_sum "Si O2"
_cell_formula_units_Z 40
_cell_length_a 18.268944
_cell_length_b 7.657432
_cell_length_c 13.868866
_cell_angle_alpha 90.000000
_cell_angle_beta 90.000000
_cell_angle_gamma 90.000000
_cell_volume 1940.159995
_symmetry_space_group_name_H-M "P C C N"
_symmetry_group_IT_number 56
_symmetry_cell_setting 'orthorhombic'
loop_
_space_group_symop_operation_xyz
x,y,z
1/2-x,1/2-y,z
1/2+x,-y,1/2-z
-x,1/2+y,1/2-z
-x,-y,-z
1/2+x,1/2+y,-z
1/2-x,y,1/2+z
x,1/2-y,1/2+z
loop_
_atom_site_type_symbol
_atom_site_label
_atom_site_fract_x
_atom_site_fract_y
_atom_site_fract_z
Si Si1 0.329075 0.826938 0.093610
Si Si2 0.586383 0.028328 0.509006
Si Si3 0.024079 0.501768 0.844104
Si Si4 0.592621 0.334699 0.216482
Si Si5 0.597201 0.651225 0.479345
O O1 0.250000 0.750000 0.071478
O O2 0.341650 0.862110 0.207172
O O3 0.337788 0.011091 0.037429
O O4 0.391061 0.692491 0.056920
O O5 0.626198 0.850699 0.471698
O O6 0.500000 0.000000 0.500000
O O7 0.611603 0.063376 0.618639
O O8 0.086287 0.628325 0.802373
O O9 0.985068 0.399510 0.758056
O O10 0.966169 0.621290 0.901225
O O11 0.063162 0.364225 0.913988
#
# Coordination Sequence:
#
# PCOD8227967 Si02
#       5
#     8   8   8   8   8
#     4  11  26  44  61  90 137 178 222 267 328 403
#     4  12  21  41  71  98 126 172 219 276 344 389
#     4  10  18  34  58  99 129 150 213 273 328 376
#     4  11  21  35  64  98 129 167 209 276 330 394
#     4  10  20  38  62  91 127 166 211 267 321 395
#
# _framework density 20.616855999999999
#
# number of rings (size 3 to 8) (size 9 to 14) (size 15 to 20)
#    0.000    1.200    4.000    4.800    0.000    1.600 
#    0.000    0.000    0.000    0.000    0.000    0.000 
#    0.000    0.000    0.000    0.000    0.000    0.000 
#
# Total GULP energy -496071.321959 kJ/mol
# GULP energy per Si atom -12401.783049 kJ/mol
# Density = 2.056993 g / cm^3
# Si number density = 20.616856 Si / 1000 Ang^3
#
#
#
# Elastic Constant Matrix: (Units=GPa)
#
#
# Indices 1 2 3 4 5 6 
#
# 1 71.6389 17.5585 9.0433 0.0000 0.0000 0.0000
# 2 17.5585 124.9054 25.3919 0.0000 0.0000 0.0000
# 3 9.0433 25.3919 95.4870 0.0000 0.0000 0.0000
# 4 0.0000 0.0000 0.0000 28.0260 0.0000 0.0000
# 5 0.0000 0.0000 0.0000 0.0000 16.0347 0.0000
# 6 0.0000 0.0000 0.0000 0.0000 0.0000 25.7659
#
#
#
# Elastic Compliance Matrix: (Units=1/GPa)
#
#
# Indices 1 2 3 4 5 6 
#
# 1 0.014527 -0.001863 -0.000880 0.000000 0.000000 0.000000
# 2 -0.001863 0.008703 -0.002138 0.000000 0.000000 0.000000
# 3 -0.000880 -0.002138 0.011124 0.000000 0.000000 0.000000
# 4 0.000000 0.000000 0.000000 0.035681 0.000000 0.000000
# 5 0.000000 0.000000 0.000000 0.000000 0.062365 0.000000
# 6 0.000000 0.000000 0.000000 0.000000 0.000000 0.038811
#
#
# Mechanical properties :
#
#
# Convention : Reuss Voigt Hill
#
# Bulk Modulus (GPa) = 40.66479 44.00210 42.33345
# Shear Modulus (GPa) = 26.43125 29.96783 28.19954
#
# Velocity S-wave (km/s) = 3.58442 3.81669 3.70238
# Velocity P-wave (km/s) = 6.07434 6.38843 6.23336
#
# Compressibility (1/GPa) = 0.02459130
#
# Stress axis : x y z
#
# Youngs Moduli (GPa) = 68.83891 114.90894 89.89192
#
# Poissons Ratio (x) = 0.21409 0.07914
# Poissons Ratio (y) = 0.12825 0.19216
# Poissons Ratio (z) = 0.06060 0.24564
#
# Static dielectric constant tensor:
#      x y z
#    x 3.190210 0.000000 0.000000 
#    y 0.000000 4.032960 0.000000 
#    z 0.000000 0.000000 3.917090 
# 
# 
# High freq. dielectric constant tensor:
#      x y z
#    x 1.749790 0.000000 0.000000 
#    y 0.000000 1.822290 0.000000 
#    z 0.000000 0.000000 1.818460 
# 
# From -- ./inp_files/6212.got.cif
#   From: 2010.03.12/outbox.cif.g09.slc.cpg/sg56_4_cif.got.tgz:6212.got - 2010.04.16 15:33:40.
