data_PCOD8227125
_publ_section_title
;
Structure prediction by ZEFSAII (Michael W. Deem and Ramdas Pophale) SiO2 
 PCOD8227125
Probable space group: P B A M
;
_chemical_formula_sum "Si O2"
_cell_formula_units_Z 64
_cell_length_a 23.542197
_cell_length_b 14.890780
_cell_length_c 8.601343
_cell_angle_alpha 90.000000
_cell_angle_beta 90.000000
_cell_angle_gamma 90.000000
_cell_volume 3015.301220
_symmetry_space_group_name_H-M "P B A M"
_symmetry_group_IT_number 55
_symmetry_cell_setting 'orthorhombic'
loop_
_space_group_symop_operation_xyz
x,y,z
-x,-y,z
1/2+x,1/2-y,-z
1/2-x,1/2+y,-z
-x,-y,-z
x,y,-z
1/2-x,1/2+y,z
1/2+x,1/2-y,z
loop_
_atom_site_type_symbol
_atom_site_label
_atom_site_fract_x
_atom_site_fract_y
_atom_site_fract_z
Si Si1 0.828476 0.564141 0.684585
Si Si2 0.956992 0.572886 0.319005
Si Si3 0.751156 0.229993 0.317294
Si Si4 0.252892 0.579222 0.819817
Si Si5 0.142454 0.000257 0.674427
Si Si6 0.470951 0.591544 0.323938
Si Si7 0.370240 0.319510 0.179732
Si Si8 0.515095 0.763468 0.823698
O O1 0.827167 0.555391 0.500000
O O2 0.893074 0.569562 0.750338
O O3 0.794792 0.654833 0.735916
O O4 0.802027 0.473722 0.756993
O O5 0.951759 0.553471 0.500000
O O6 0.000000 0.500000 0.241960
O O7 0.984606 0.669477 0.293254
O O8 0.762079 0.222523 0.500000
O O9 0.731518 0.330272 0.274184
O O10 0.809299 0.217410 0.225580
O O11 0.306588 0.514407 0.795066
O O12 0.243888 0.601670 0.000000
O O13 0.167719 0.993118 0.500000
O O14 0.112901 0.906042 0.718136
O O15 0.097008 0.079921 0.683499
O O16 0.500000 0.500000 0.270184
O O17 0.489696 0.616994 0.500000
O O18 0.487564 0.666404 0.200868
O O19 0.417478 0.242702 0.212225
O O20 0.371050 0.346910 0.000000
O O21 0.504021 0.794595 0.000000
#
# Coordination Sequence:
#
# PCOD8227125 Si02
#       8
#     8   8   8   8   8   8   8   8
#     4  10  23  45  69  97 129 167 221 272 322 382
#     4  10  24  46  70  95 124 167 223 276 320 377
#     4  11  24  42  67  94 127 170 216 266 318 384
#     4  12  26  42  65  95 131 168 208 261 327 395
#     4  11  22  39  63  91 126 169 215 261 312 376
#     4  10  21  38  61  90 125 168 215 257 304 370
#     4  11  23  40  62  94 132 166 209 262 323 386
#     4  11  25  41  62  94 132 170 208 261 323 385
#
# _framework density 21.225075
#
# number of rings (size 3 to 8) (size 9 to 14) (size 15 to 20)
#    0.000    1.250    2.500    2.625    3.500    4.000 
#    0.000    0.000    0.000    0.000    0.000    0.000 
#    0.000    0.000    0.000    0.000    0.000    0.000 
#
# Total GULP energy -793746.523906 kJ/mol
# GULP energy per Si atom -12402.289436 kJ/mol
# Density = 2.117677 g / cm^3
# Si number density = 21.225075 Si / 1000 Ang^3
#
#
#
# Elastic Constant Matrix: (Units=GPa)
#
#
# Indices 1 2 3 4 5 6 
#
# 1 143.2371 43.6739 34.0556 0.0000 0.0000 0.0000
# 2 43.6739 98.8823 18.7674 0.0000 0.0000 0.0000
# 3 34.0556 18.7674 47.9241 0.0000 0.0000 0.0000
# 4 0.0000 0.0000 0.0000 27.4672 0.0000 0.0000
# 5 0.0000 0.0000 0.0000 0.0000 24.4168 0.0000
# 6 0.0000 0.0000 0.0000 0.0000 0.0000 31.9215
#
#
#
# Elastic Compliance Matrix: (Units=1/GPa)
#
#
# Indices 1 2 3 4 5 6 
#
# 1 0.009176 -0.003041 -0.005330 0.000000 0.000000 0.000000
# 2 -0.003041 0.011933 -0.002512 0.000000 0.000000 0.000000
# 3 -0.005330 -0.002512 0.025637 0.000000 0.000000 0.000000
# 4 0.000000 0.000000 0.000000 0.036407 0.000000 0.000000
# 5 0.000000 0.000000 0.000000 0.000000 0.040955 0.000000
# 6 0.000000 0.000000 0.000000 0.000000 0.000000 0.031327
#
#
# Mechanical properties :
#
#
# Convention : Reuss Voigt Hill
#
# Bulk Modulus (GPa) = 40.03073 53.67080 46.85077
# Shear Modulus (GPa) = 26.95012 29.66418 28.30715
#
# Velocity S-wave (km/s) = 3.56719 3.74251 3.65590
# Velocity P-wave (km/s) = 5.98895 6.63450 6.31997
#
# Compressibility (1/GPa) = 0.02498081
#
# Stress axis : x y z
#
# Youngs Moduli (GPa) = 108.98159 83.80108 39.00570
#
# Poissons Ratio (x) = 0.25486 0.20788
# Poissons Ratio (y) = 0.33144 0.09798
# Poissons Ratio (z) = 0.58082 0.21050
#
# Static dielectric constant tensor:
#      x y z
#    x 4.055780 0.000000 0.000000 
#    y 0.000000 3.834990 0.000000 
#    z 0.000000 0.000000 3.614230 
# 
# 
# High freq. dielectric constant tensor:
#      x y z
#    x 1.844930 0.000000 0.000000 
#    y 0.000000 1.830220 0.000000 
#    z 0.000000 0.000000 1.821970 
# 
# From -- ./inp_files/9813.got.cif
#   From: 2010.03.12/outbox.cif.g09.slc.cpg/sg55_5_cif.got.tgz:9813.got - 2010.04.16 15:19:21.
