data_PCOD8227727
_publ_section_title
;
Structure prediction by ZEFSAII (Michael W. Deem and Ramdas Pophale) SiO2 
 PCOD8227727
Probable space group: P B A M
;
_chemical_formula_sum "Si O2"
_cell_formula_units_Z 40
_cell_length_a 12.458559
_cell_length_b 18.236820
_cell_length_c 8.392296
_cell_angle_alpha 90.000000
_cell_angle_beta 90.000000
_cell_angle_gamma 90.000000
_cell_volume 1906.767399
_symmetry_space_group_name_H-M "P B A M"
_symmetry_group_IT_number 55
_symmetry_cell_setting 'orthorhombic'
loop_
_space_group_symop_operation_xyz
x,y,z
-x,-y,z
1/2+x,1/2-y,-z
1/2-x,1/2+y,-z
-x,-y,-z
x,y,-z
1/2-x,1/2+y,z
1/2+x,1/2-y,z
loop_
_atom_site_type_symbol
_atom_site_label
_atom_site_fract_x
_atom_site_fract_y
_atom_site_fract_z
Si Si1 0.618358 0.691536 0.814930
Si Si2 0.551364 0.425996 0.188832
Si Si3 0.313162 0.891448 0.684860
Si Si4 0.047368 0.658056 0.316102
Si Si5 0.212023 0.549402 0.814808
O O1 0.517061 0.643826 0.752828
O O2 0.723678 0.669955 0.716362
O O3 0.594085 0.776536 0.789500
O O4 0.640598 0.676402 0.000000
O O5 0.500000 0.500000 0.262647
O O6 0.674246 0.417803 0.246025
O O7 0.550362 0.432294 0.000000
O O8 0.315942 0.913522 0.500000
O O9 0.426725 0.858456 0.739524
O O10 0.287031 0.962402 0.789606
O O11 0.051215 0.680934 0.500000
O O12 0.118010 0.585635 0.287933
O O13 0.192856 0.566411 0.000000
#
# Coordination Sequence:
#
# PCOD8227727 Si02
#       5
#     8   8   8   8   8
#     4  11  23  41  66  93 124 163 212 265 316 373
#     4   9  18  37  62  92 124 155 199 260 313 360
#     4  11  24  43  64  90 129 171 208 257 319 380
#     4  11  26  44  61  89 131 170 208 259 321 380
#     4  11  22  40  68  97 123 162 215 264 313 374
#
# _framework density 20.977912
#
# number of rings (size 3 to 8) (size 9 to 14) (size 15 to 20)
#    0.000    1.400    2.000    3.000    2.800    5.600 
#    0.000    4.000    0.000    0.000    0.000    0.000 
#    0.000    0.000    0.000    0.000    0.000    0.000 
#
# Total GULP energy -496263.789941 kJ/mol
# GULP energy per Si atom -12406.594749 kJ/mol
# Density = 2.093017 g / cm^3
# Si number density = 20.977912 Si / 1000 Ang^3
#
#
#
# Elastic Constant Matrix: (Units=GPa)
#
#
# Indices 1 2 3 4 5 6 
#
# 1 176.3082 44.6869 29.8804 0.0000 0.0000 0.0000
# 2 44.6869 84.7066 11.0482 0.0000 0.0000 0.0000
# 3 29.8804 11.0482 39.0741 0.0000 0.0000 0.0000
# 4 0.0000 0.0000 0.0000 29.8607 0.0000 0.0000
# 5 0.0000 0.0000 0.0000 0.0000 24.1580 0.0000
# 6 0.0000 0.0000 0.0000 0.0000 0.0000 37.9029
#
#
#
# Elastic Compliance Matrix: (Units=1/GPa)
#
#
# Indices 1 2 3 4 5 6 
#
# 1 0.007280 -0.003234 -0.004653 0.000000 0.000000 0.000000
# 2 -0.003234 0.013694 -0.001399 0.000000 0.000000 0.000000
# 3 -0.004653 -0.001399 0.029546 0.000000 0.000000 0.000000
# 4 0.000000 0.000000 0.000000 0.033489 0.000000 0.000000
# 5 0.000000 0.000000 0.000000 0.000000 0.041394 0.000000
# 6 0.000000 0.000000 0.000000 0.000000 0.000000 0.026383
#
#
# Mechanical properties :
#
#
# Convention : Reuss Voigt Hill
#
# Bulk Modulus (GPa) = 31.30011 52.36888 41.83449
# Shear Modulus (GPa) = 27.62325 32.68255 30.15290
#
# Velocity S-wave (km/s) = 3.63268 3.95137 3.79537
# Velocity P-wave (km/s) = 5.70509 6.77021 6.26034
#
# Compressibility (1/GPa) = 0.03194877
#
# Stress axis : x y z
#
# Youngs Moduli (GPa) = 137.36169 73.02527 33.84546
#
# Poissons Ratio (x) = 0.23614 0.15748
# Poissons Ratio (y) = 0.44419 0.04735
# Poissons Ratio (z) = 0.63912 0.10217
#
# Static dielectric constant tensor:
#      x y z
#    x 4.048970 0.000000 0.000000 
#    y 0.000000 3.623870 0.000000 
#    z 0.000000 0.000000 3.466490 
# 
# 
# High freq. dielectric constant tensor:
#      x y z
#    x 1.839420 0.000000 0.000000 
#    y 0.000000 1.821910 0.000000 
#    z 0.000000 0.000000 1.805050 
# 
# From -- ./inp_files/3628.got.cif
#   From: 2010.03.12/outbox.cif.g09.slc.cpg/sg55_2_cif.got.tgz:3628.got - 2010.04.16 15:19:21.
