data_PCOD8227596
_publ_section_title
;
Structure prediction by ZEFSAII (Michael W. Deem and Ramdas Pophale) SiO2 
 PCOD8227596
Probable space group: P B A M
;
_chemical_formula_sum "Si O2"
_cell_formula_units_Z 56
_cell_length_a 15.293205
_cell_length_b 8.975730
_cell_length_c 19.480393
_cell_angle_alpha 90.000000
_cell_angle_beta 90.000000
_cell_angle_gamma 90.000000
_cell_volume 2674.028331
_symmetry_space_group_name_H-M "P B A M"
_symmetry_group_IT_number 55
_symmetry_cell_setting 'orthorhombic'
loop_
_space_group_symop_operation_xyz
x,y,z
-x,-y,z
1/2+x,1/2-y,-z
1/2-x,1/2+y,-z
-x,-y,-z
x,y,-z
1/2-x,1/2+y,z
1/2+x,1/2-y,z
loop_
_atom_site_type_symbol
_atom_site_label
_atom_site_fract_x
_atom_site_fract_y
_atom_site_fract_z
Si Si1 0.088069 0.423308 0.579545
Si Si2 0.156027 0.321331 0.000000
Si Si3 0.402279 0.326795 0.864398
Si Si4 0.753706 0.286531 0.233966
Si Si5 0.750299 0.536156 0.667876
Si Si6 0.908328 0.925437 0.578852
Si Si7 0.900392 0.830227 0.135076
Si Si8 0.345473 0.176689 0.000000
O O1 0.102364 0.459930 0.500000
O O2 0.168065 0.498901 0.619247
O O3 0.083333 0.248617 0.593928
O O4 0.000000 0.500000 0.606853
O O5 0.103811 0.265300 0.066027
O O6 0.162257 0.499101 0.000000
O O7 0.251031 0.250036 0.000000
O O8 0.339760 0.256553 0.807609
O O9 0.375420 0.497621 0.880047
O O10 0.501230 0.318382 0.835696
O O11 0.397442 0.230657 0.933399
O O12 0.749736 0.207494 0.308534
O O13 0.758099 0.457648 0.257543
O O14 0.666583 0.259459 0.189480
O O15 0.661948 0.499867 0.628115
O O16 0.881561 0.955887 0.500000
O O17 0.000000 0.000000 0.596741
#
# Coordination Sequence:
#
# PCOD8227596 Si02
#       8
#     8   4   8   8   8   8   8   4
#     4  10  23  43  68 100 133 170 220 276 329 385
#     4  12  25  42  71 100 132 168 217 277 326 385
#     4  11  25  46  70  96 130 175 218 271 330 389
#     4  12  26  43  65  96 132 178 220 268 323 390
#     4  12  25  44  66  95 135 177 220 266 329 393
#     4  10  23  43  69  99 131 172 222 274 328 388
#     4  11  25  46  69  97 132 171 220 270 331 391
#     4  12  25  42  71 100 130 170 217 275 330 379
#
# _framework density 20.942188000000002
#
# number of rings (size 3 to 8) (size 9 to 14) (size 15 to 20)
#    0.000    0.857    4.286    2.143    4.000    4.571 
#    0.000    0.000    0.000    0.000    0.000    0.000 
#    0.000    0.000    0.000    0.000    0.000    0.000 
#
# Total GULP energy -694644.701708 kJ/mol
# GULP energy per Si atom -12404.369673 kJ/mol
# Density = 2.089452 g / cm^3
# Si number density = 20.942188 Si / 1000 Ang^3
#
#
#
# Elastic Constant Matrix: (Units=GPa)
#
#
# Indices 1 2 3 4 5 6 
#
# 1 152.9344 46.3074 67.6841 0.0000 0.0000 0.0000
# 2 46.3074 88.4216 42.1874 0.0000 0.0000 0.0000
# 3 67.6841 42.1874 105.9225 0.0000 0.0000 0.0000
# 4 0.0000 0.0000 0.0000 38.8258 0.0000 0.0000
# 5 0.0000 0.0000 0.0000 0.0000 8.4058 0.0000
# 6 0.0000 0.0000 0.0000 0.0000 0.0000 33.6354
#
#
#
# Elastic Compliance Matrix: (Units=1/GPa)
#
#
# Indices 1 2 3 4 5 6 
#
# 1 0.009573 -0.002586 -0.005087 0.000000 0.000000 0.000000
# 2 -0.002586 0.014662 -0.004187 0.000000 0.000000 0.000000
# 3 -0.005087 -0.004187 0.014359 0.000000 0.000000 0.000000
# 4 0.000000 0.000000 0.000000 0.025756 0.000000 0.000000
# 5 0.000000 0.000000 0.000000 0.000000 0.118966 0.000000
# 6 0.000000 0.000000 0.000000 0.000000 0.000000 0.029731
#
#
# Mechanical properties :
#
#
# Convention : Reuss Voigt Hill
#
# Bulk Modulus (GPa) = 67.23506 73.29292 70.26399
# Shear Modulus (GPa) = 20.68468 28.91338 24.79903
#
# Velocity S-wave (km/s) = 3.14618 3.71971 3.44490
# Velocity P-wave (km/s) = 6.73593 7.31588 7.03188
#
# Compressibility (1/GPa) = 0.01487319
#
# Stress axis : x y z
#
# Youngs Moduli (GPa) = 104.45661 68.20548 69.64239
#
# Poissons Ratio (x) = 0.17641 0.35428
# Poissons Ratio (y) = 0.27018 0.29157
# Poissons Ratio (z) = 0.53139 0.28556
#
# Static dielectric constant tensor:
#      x y z
#    x 3.832200 0.000000 0.000000 
#    y 0.000000 3.920120 0.000000 
#    z 0.000000 0.000000 3.755660 
# 
# 
# High freq. dielectric constant tensor:
#      x y z
#    x 1.830870 0.000000 0.000000 
#    y 0.000000 1.831270 0.000000 
#    z 0.000000 0.000000 1.821820 
# 
# From -- ./inp_files/22998.got.cif
#   From: 2010.03.12/outbox.cif.g09.slc.cpg/sg55_12_cif.got.tgz:22998.got - 2010.04.16 15:19:21.
