data_PCOD8227257
_publ_section_title
;
Structure prediction by ZEFSAII (Michael W. Deem and Ramdas Pophale) SiO2 
 PCOD8227257
Probable space group: P B A M
;
_chemical_formula_sum "Si O2"
_cell_formula_units_Z 64
_cell_length_a 19.931713
_cell_length_b 11.832993
_cell_length_c 13.272566
_cell_angle_alpha 90.000000
_cell_angle_beta 90.000000
_cell_angle_gamma 90.000000
_cell_volume 3130.358853
_symmetry_space_group_name_H-M "P B A M"
_symmetry_group_IT_number 55
_symmetry_cell_setting 'orthorhombic'
loop_
_space_group_symop_operation_xyz
x,y,z
-x,-y,z
1/2+x,1/2-y,-z
1/2-x,1/2+y,-z
-x,-y,-z
x,y,-z
1/2-x,1/2+y,z
1/2+x,1/2-y,z
loop_
_atom_site_type_symbol
_atom_site_label
_atom_site_fract_x
_atom_site_fract_y
_atom_site_fract_z
Si Si1 0.938744 0.072250 0.318391
Si Si2 0.055205 0.677354 0.613339
Si Si3 0.927868 0.174362 0.887680
Si Si4 0.822301 0.483336 0.616058
Si Si5 0.717422 0.599104 0.885940
Si Si6 0.187175 0.068438 0.715368
Si Si7 0.512591 0.126310 0.810796
Si Si8 0.657671 0.182111 0.228710
O O1 0.931360 0.189728 0.376493
O O2 0.954700 0.090677 0.199011
O O3 0.869879 0.006670 0.337213
O O4 0.000000 0.000000 0.363851
O O5 0.031166 0.649444 0.500000
O O6 0.123340 0.612464 0.641262
O O7 0.997680 0.636921 0.689915
O O8 0.847089 0.181691 0.876691
O O9 0.959536 0.297708 0.871421
O O10 0.946997 0.129894 0.000000
O O11 0.824059 0.519083 0.500000
O O12 0.750718 0.428909 0.642001
O O13 0.836751 0.594810 0.679908
O O14 0.707233 0.484172 0.823218
O O15 0.780772 0.669662 0.847638
O O16 0.729704 0.560333 0.000000
O O17 0.157363 0.192564 0.727465
O O18 0.588851 0.162923 0.833190
O O19 0.500000 0.000000 0.848808
#
# Coordination Sequence:
#
# PCOD8227257 Si02
#       8
#     8   8   8   8   8   8   8   8
#     4  10  21  40  63  90 122 161 202 252 312 363
#     4  10  22  40  63  84 118 163 203 248 305 368
#     4   9  20  38  62  88 119 162 204 246 301 362
#     4  10  23  40  61  88 119 163 206 252 311 364
#     4   9  21  41  63  89 122 163 207 251 305 364
#     4  10  22  37  62  91 122 156 204 259 306 359
#     4  11  22  38  61  89 127 162 201 251 306 366
#     4  11  23  39  62  93 125 160 203 257 307 363
#
# _framework density 20.444941
#
# number of rings (size 3 to 8) (size 9 to 14) (size 15 to 20)
#    0.000    2.000    1.250    1.500    7.000    3.500 
#    0.000    5.000    0.000    0.000    0.000    0.000 
#    0.000    0.000    0.000    0.000    0.000    0.000 
#
# Total GULP energy -793736.747097 kJ/mol
# GULP energy per Si atom -12402.136673 kJ/mol
# Density = 2.039841 g / cm^3
# Si number density = 20.444941 Si / 1000 Ang^3
#
#
#
# Elastic Constant Matrix: (Units=GPa)
#
#
# Indices 1 2 3 4 5 6 
#
# 1 107.7393 38.4578 16.2223 0.0000 0.0000 0.0000
# 2 38.4578 113.2811 0.4529 0.0000 0.0000 0.0000
# 3 16.2223 0.4529 70.7805 0.0000 0.0000 0.0000
# 4 0.0000 0.0000 0.0000 13.8571 0.0000 0.0000
# 5 0.0000 0.0000 0.0000 0.0000 21.7246 0.0000
# 6 0.0000 0.0000 0.0000 0.0000 0.0000 37.8478
#
#
#
# Elastic Compliance Matrix: (Units=1/GPa)
#
#
# Indices 1 2 3 4 5 6 
#
# 1 0.010985 -0.003719 -0.002494 0.000000 0.000000 0.000000
# 2 -0.003719 0.010087 0.000788 0.000000 0.000000 0.000000
# 3 -0.002494 0.000788 0.014695 0.000000 0.000000 0.000000
# 4 0.000000 0.000000 0.000000 0.072165 0.000000 0.000000
# 5 0.000000 0.000000 0.000000 0.000000 0.046031 0.000000
# 6 0.000000 0.000000 0.000000 0.000000 0.000000 0.026422
#
#
# Mechanical properties :
#
#
# Convention : Reuss Voigt Hill
#
# Bulk Modulus (GPa) = 40.13457 44.67411 42.40434
# Shear Modulus (GPa) = 25.05766 30.46376 27.76071
#
# Velocity S-wave (km/s) = 3.50468 3.86429 3.68887
# Velocity P-wave (km/s) = 6.00418 6.46596 6.23935
#
# Compressibility (1/GPa) = 0.02491618
#
# Stress axis : x y z
#
# Youngs Moduli (GPa) = 91.03527 99.13652 68.05173
#
# Poissons Ratio (x) = 0.36871 0.16971
# Poissons Ratio (y) = 0.33858 -0.05362
# Poissons Ratio (z) = 0.22703 -0.07811
#
# Static dielectric constant tensor:
#      x y z
#    x 3.834760 0.000000 0.000000 
#    y 0.000000 3.604610 0.000000 
#    z 0.000000 0.000000 3.709660 
# 
# 
# High freq. dielectric constant tensor:
#      x y z
#    x 1.810030 0.000000 0.000000 
#    y 0.000000 1.798280 0.000000 
#    z 0.000000 0.000000 1.789560 
# 
# From -- ./inp_files/19541.got.cif
#   From: 2010.03.12/outbox.cif.g09.slc.cpg/sg55_10_cif.got.tgz:19541.got - 2010.04.16 15:19:21.
