data_PCOD8227194
_publ_section_title
;
Structure prediction by ZEFSAII (Michael W. Deem and Ramdas Pophale) SiO2 
 PCOD8227194
Probable space group: P B A M
;
_chemical_formula_sum "Si O2"
_cell_formula_units_Z 40
_cell_length_a 10.666011
_cell_length_b 19.677612
_cell_length_c 8.993029
_cell_angle_alpha 90.000000
_cell_angle_beta 90.000000
_cell_angle_gamma 90.000000
_cell_volume 1887.471550
_symmetry_space_group_name_H-M "P B A M"
_symmetry_group_IT_number 55
_symmetry_cell_setting 'orthorhombic'
loop_
_space_group_symop_operation_xyz
x,y,z
-x,-y,z
1/2+x,1/2-y,-z
1/2-x,1/2+y,-z
-x,-y,-z
x,y,-z
1/2-x,1/2+y,z
1/2+x,1/2-y,z
loop_
_atom_site_type_symbol
_atom_site_label
_atom_site_fract_x
_atom_site_fract_y
_atom_site_fract_z
Si Si1 0.736582 0.929248 0.174675
Si Si2 0.757272 0.572304 0.324965
Si Si3 0.010819 0.920189 0.161701
Si Si4 0.148404 0.300869 0.824425
Si Si5 0.128672 0.708012 0.825987
O O1 0.641007 0.870515 0.227156
O O2 0.873161 0.896091 0.212381
O O3 0.709279 0.997609 0.265093
O O4 0.727451 0.947266 0.000000
O O5 0.770195 0.571665 0.500000
O O6 0.617151 0.597384 0.280903
O O7 0.853184 0.625838 0.254384
O O8 0.046955 0.887632 0.000000
O O9 0.000000 0.000000 0.141284
O O10 0.263005 0.256211 0.756547
O O11 0.012360 0.266261 0.787876
O O12 0.160917 0.312522 0.000000
O O13 0.155211 0.708122 0.000000
#
# Coordination Sequence:
#
# PCOD8227194 Si02
#       5
#     8   8   8   8   8
#     4   9  18  35  59  88 117 150 192 243 294 343
#     4  11  22  35  54  84 120 158 195 236 287 345
#     4   8  15  29  53  82 113 148 187 234 283 331
#     4  10  21  39  62  88 115 149 191 241 292 345
#     4   9  20  37  63  91 114 145 192 243 293 343
#
# _framework density 21.192371999999999
#
# number of rings (size 3 to 8) (size 9 to 14) (size 15 to 20)
#    0.000    2.600    0.000    3.000    2.800    4.400 
#    0.000    7.000    0.000    0.000    0.000    0.000 
#    0.000    0.000    0.000    0.000    0.000    0.000 
#
# Total GULP energy -495699.340936 kJ/mol
# GULP energy per Si atom -12392.483523 kJ/mol
# Density = 2.114414 g / cm^3
# Si number density = 21.192372 Si / 1000 Ang^3
#
#
#
# Elastic Constant Matrix: (Units=GPa)
#
#
# Indices 1 2 3 4 5 6 
#
# 1 129.2757 60.7016 36.0957 0.0000 0.0000 0.0000
# 2 60.7016 95.9263 35.8812 0.0000 0.0000 0.0000
# 3 36.0957 35.8812 75.3829 0.0000 0.0000 0.0000
# 4 0.0000 0.0000 0.0000 -2.9957 0.0000 0.0000
# 5 0.0000 0.0000 0.0000 0.0000 -8.3465 0.0000
# 6 0.0000 0.0000 0.0000 0.0000 0.0000 36.8846
#
#
#
# Elastic Compliance Matrix: (Units=1/GPa)
#
#
# Indices 1 2 3 4 5 6 
#
# 1 0.011367 -0.006274 -0.002457 0.000000 0.000000 0.000000
# 2 -0.006274 0.016146 -0.004681 0.000000 0.000000 0.000000
# 3 -0.002457 -0.004681 0.016670 0.000000 0.000000 0.000000
# 4 0.000000 0.000000 0.000000 -0.333817 0.000000 0.000000
# 5 0.000000 0.000000 0.000000 0.000000 -0.119811 0.000000
# 6 0.000000 0.000000 0.000000 0.000000 0.000000 0.027112
#
#
# Mechanical properties :
#
#
# Convention : Reuss Voigt Hill
#
# Bulk Modulus (GPa) = 57.60480 62.88243 60.24361
# Shear Modulus (GPa) = -14.29705 16.30225 1.00260
#
# Velocity S-wave (km/s) = -2.60019 2.77655 0.68857
# Velocity P-wave (km/s) = 4.26922 6.32579 5.39638
#
# Compressibility (1/GPa) = 0.01735966
#
# Stress axis : x y z
#
# Youngs Moduli (GPa) = 87.97040 61.93509 59.98828
#
# Poissons Ratio (x) = 0.38860 0.14737
# Poissons Ratio (y) = 0.55196 0.28080
# Poissons Ratio (z) = 0.21611 0.28991
#
# Static dielectric constant tensor:
#      x y z
#    x 4.438330 0.000000 0.000000 
#    y 0.000000 3.803140 0.000000 
#    z 0.000000 0.000000 3.270830 
# 
# 
# High freq. dielectric constant tensor:
#      x y z
#    x 1.837100 0.000000 0.000000 
#    y 0.000000 1.831030 0.000000 
#    z 0.000000 0.000000 1.772290 
# 
# From -- ./inp_files/2347.got.cif
#   From: 2010.03.12/outbox.cif.g09.slc.cpg/sg55_2_cif.got.tgz:2347.got - 2010.04.16 15:19:21.
