data_PCOD8227233
_publ_section_title
;
Structure prediction by ZEFSAII (Michael W. Deem and Ramdas Pophale) SiO2 
 PCOD8227233
Probable space group: P B A M
;
_chemical_formula_sum "Si O2"
_cell_formula_units_Z 32
_cell_length_a 9.232068
_cell_length_b 13.553689
_cell_length_c 13.266891
_cell_angle_alpha 90.000000
_cell_angle_beta 90.000000
_cell_angle_gamma 90.000000
_cell_volume 1660.067212
_symmetry_space_group_name_H-M "P B A M"
_symmetry_group_IT_number 55
_symmetry_cell_setting 'orthorhombic'
loop_
_space_group_symop_operation_xyz
x,y,z
-x,-y,z
1/2+x,1/2-y,-z
1/2-x,1/2+y,-z
-x,-y,-z
x,y,-z
1/2-x,1/2+y,z
1/2+x,1/2-y,z
loop_
_atom_site_type_symbol
_atom_site_label
_atom_site_fract_x
_atom_site_fract_y
_atom_site_fract_z
Si Si1 0.843408 0.453727 0.384291
Si Si2 0.632531 0.569740 0.742968
Si Si3 0.839084 0.664833 0.118688
Si Si4 0.875144 0.286514 0.228510
O O1 0.822342 0.423880 0.500000
O O2 0.717966 0.531363 0.355267
O O3 0.822531 0.355975 0.318301
O O4 0.000000 0.500000 0.364869
O O5 0.500000 0.500000 0.772508
O O6 0.746100 0.572383 0.837290
O O7 0.575610 0.681348 0.722412
O O8 0.758828 0.766656 0.151741
O O9 0.998012 0.662005 0.165909
O O10 0.850507 0.655917 0.000000
#
# Coordination Sequence:
#
# PCOD8227233 Si02
#       4
#     8   8   8   8
#     4  11  22  41  65  91 124 166 209 258 314 367
#     4  10  23  40  62  94 129 156 211 267 301 376
#     4  10  21  39  65  91 126 168 205 258 317 367
#     4  10  21  41  63  90 129 163 212 257 308 376
#
# _framework density 19.276327999999999
#
# number of rings (size 3 to 8) (size 9 to 14) (size 15 to 20)
#    1.500    0.250    2.500    2.250    0.000    2.000 
#    0.000   10.000    0.000    0.000    0.000    0.000 
#    0.000    0.000    0.000    0.000    0.000    0.000 
#
# Total GULP energy -396602.092289 kJ/mol
# GULP energy per Si atom -12393.815384 kJ/mol
# Density = 1.923245 g / cm^3
# Si number density = 19.276328 Si / 1000 Ang^3
#
#
#
# Elastic Constant Matrix: (Units=GPa)
#
#
# Indices 1 2 3 4 5 6 
#
# 1 69.6730 3.8964 40.1952 0.0000 0.0000 0.0000
# 2 3.8964 61.8860 31.2036 0.0000 0.0000 0.0000
# 3 40.1952 31.2036 127.8860 0.0000 0.0000 0.0000
# 4 0.0000 0.0000 0.0000 29.1020 0.0000 0.0000
# 5 0.0000 0.0000 0.0000 0.0000 26.1235 0.0000
# 6 0.0000 0.0000 0.0000 0.0000 0.0000 39.0190
#
#
#
# Elastic Compliance Matrix: (Units=1/GPa)
#
#
# Indices 1 2 3 4 5 6 
#
# 1 0.017732 0.001931 -0.006044 0.000000 0.000000 0.000000
# 2 0.001931 0.018636 -0.005154 0.000000 0.000000 0.000000
# 3 -0.006044 -0.005154 0.010977 0.000000 0.000000 0.000000
# 4 0.000000 0.000000 0.000000 0.034362 0.000000 0.000000
# 5 0.000000 0.000000 0.000000 0.000000 0.038280 0.000000
# 6 0.000000 0.000000 0.000000 0.000000 0.000000 0.025629
#
#
# Mechanical properties :
#
#
# Convention : Reuss Voigt Hill
#
# Bulk Modulus (GPa) = 34.71007 45.55950 40.13479
# Shear Modulus (GPa) = 28.77655 31.12556 29.95106
#
# Velocity S-wave (km/s) = 3.86793 4.02270 3.94607
# Velocity P-wave (km/s) = 6.16388 6.72773 6.45197
#
# Compressibility (1/GPa) = 0.02881008
#
# Stress axis : x y z
#
# Youngs Moduli (GPa) = 56.39570 53.65989 91.10102
#
# Poissons Ratio (x) = -0.10363 0.55065
# Poissons Ratio (y) = -0.10891 0.46954
# Poissons Ratio (z) = 0.34088 0.27657
#
# Static dielectric constant tensor:
#      x y z
#    x 3.522130 0.000000 0.000000 
#    y 0.000000 3.406070 0.000000 
#    z 0.000000 0.000000 3.270960 
# 
# 
# High freq. dielectric constant tensor:
#      x y z
#    x 1.759760 0.000000 0.000000 
#    y 0.000000 1.741790 0.000000 
#    z 0.000000 0.000000 1.734320 
# 
# From -- ./inp_files/11615.got.cif
#   From: 2010.03.12/outbox.cif.g09.slc.cpg/sg55_6_cif.got.tgz:11615.got - 2010.04.16 15:19:21.
