data_PCOD8227987
_publ_section_title
;
Structure prediction by ZEFSAII (Michael W. Deem and Ramdas Pophale) SiO2 
 PCOD8227987
Probable space group: P C C N
;
_chemical_formula_sum "Si O2"
_cell_formula_units_Z 48
_cell_length_a 9.015108
_cell_length_b 17.654593
_cell_length_c 16.194164
_cell_angle_alpha 90.000000
_cell_angle_beta 90.000000
_cell_angle_gamma 90.000000
_cell_volume 2577.431768
_symmetry_space_group_name_H-M "P C C N"
_symmetry_group_IT_number 56
_symmetry_cell_setting 'orthorhombic'
loop_
_space_group_symop_operation_xyz
x,y,z
1/2-x,1/2-y,z
1/2+x,-y,1/2-z
-x,1/2+y,1/2-z
-x,-y,-z
1/2+x,1/2+y,-z
1/2-x,y,1/2+z
x,1/2-y,1/2+z
loop_
_atom_site_type_symbol
_atom_site_label
_atom_site_fract_x
_atom_site_fract_y
_atom_site_fract_z
Si Si1 0.250000 0.250000 0.092448
Si Si2 0.956805 0.125307 0.839908
Si Si3 0.255842 0.999648 0.587598
Si Si4 0.435537 0.377581 0.658764
Si Si5 0.710154 0.872962 0.533145
Si Si6 0.049705 0.625484 0.016790
Si Si7 0.750000 0.250000 0.410923
O O1 0.134456 0.293622 0.151098
O O2 0.162042 0.190606 0.033788
O O3 0.889307 0.047626 0.874019
O O4 0.848589 0.196138 0.853111
O O5 0.975194 0.115633 0.742679
O O6 0.114978 0.137811 0.884186
O O7 0.120709 0.945891 0.561760
O O8 0.193991 0.058996 0.655345
O O9 0.316656 0.044489 0.507394
O O10 0.544874 0.390807 0.581196
O O11 0.884586 0.862110 0.553398
O O12 0.144835 0.700871 0.030471
#
# Coordination Sequence:
#
# PCOD8227987 Si02
#       7
#     4   8   8   8   8   8   4
#     4   8  18  34  52  76 104 140 178 208 252 320
#     4  11  22  35  55  83 109 136 178 229 270 308
#     4   9  20  37  55  79 109 141 177 216 265 325
#     4  10  20  34  54  79 107 137 175 221 266 309
#     4  10  18  35  58  78 103 144 182 210 260 329
#     4   9  19  37  58  77 106 146 178 211 262 324
#     4  10  22  38  54  78 110 142 180 220 264 320
#
# _framework density 18.623187999999999
#
# number of rings (size 3 to 8) (size 9 to 14) (size 15 to 20)
#    0.000    2.667    0.000    4.500    0.000    5.333 
#    0.000    5.000    0.000    0.000    0.000    0.000 
#    0.000    0.000    0.000    0.000    0.000    0.000 
#
# Total GULP energy -595093.168000 kJ/mol
# GULP energy per Si atom -12397.774333 kJ/mol
# Density = 1.858080 g / cm^3
# Si number density = 18.623188 Si / 1000 Ang^3
#
#
#
# Elastic Constant Matrix: (Units=GPa)
#
#
# Indices 1 2 3 4 5 6 
#
# 1 104.3255 42.6252 58.4725 0.0000 0.0000 0.0000
# 2 42.6252 108.0748 21.3341 0.0000 0.0000 0.0000
# 3 58.4725 21.3341 90.1274 0.0000 0.0000 0.0000
# 4 0.0000 0.0000 0.0000 16.0926 0.0000 0.0000
# 5 0.0000 0.0000 0.0000 0.0000 29.1416 0.0000
# 6 0.0000 0.0000 0.0000 0.0000 0.0000 25.3660
#
#
#
# Elastic Compliance Matrix: (Units=1/GPa)
#
#
# Indices 1 2 3 4 5 6 
#
# 1 0.017139 -0.004788 -0.009986 0.000000 0.000000 0.000000
# 2 -0.004788 0.011044 0.000492 0.000000 0.000000 0.000000
# 3 -0.009986 0.000492 0.017457 0.000000 0.000000 0.000000
# 4 0.000000 0.000000 0.000000 0.062140 0.000000 0.000000
# 5 0.000000 0.000000 0.000000 0.000000 0.034315 0.000000
# 6 0.000000 0.000000 0.000000 0.000000 0.000000 0.039423
#
#
# Mechanical properties :
#
#
# Convention : Reuss Voigt Hill
#
# Bulk Modulus (GPa) = 58.55931 60.82124 59.69028
# Shear Modulus (GPa) = 23.17237 26.12643 24.64940
#
# Velocity S-wave (km/s) = 3.53126 3.74959 3.64206
# Velocity P-wave (km/s) = 6.93822 7.17466 7.05743
#
# Compressibility (1/GPa) = 0.01707670
#
# Stress axis : x y z
#
# Youngs Moduli (GPa) = 58.34786 90.54505 57.28249
#
# Poissons Ratio (x) = 0.43356 0.57200
# Poissons Ratio (y) = 0.27939 -0.02820
# Poissons Ratio (z) = 0.58264 -0.04457
#
# Static dielectric constant tensor:
#      x y z
#    x 3.333440 0.000000 0.000000 
#    y 0.000000 3.798590 0.000000 
#    z 0.000000 0.000000 3.133340 
# 
# 
# High freq. dielectric constant tensor:
#      x y z
#    x 1.716000 0.000000 0.000000 
#    y 0.000000 1.746730 0.000000 
#    z 0.000000 0.000000 1.698040 
# 
# From -- ./inp_files/10722.got.cif
#   From: 2010.03.12/outbox.cif.g09.slc.cpg/sg56_6_cif.got.tgz:10722.got - 2010.04.16 15:33:40.
