data_PCOD8227506
_publ_section_title
;
Structure prediction by ZEFSAII (Michael W. Deem and Ramdas Pophale) SiO2 
 PCOD8227506
Probable space group: P B A M
;
_chemical_formula_sum "Si O2"
_cell_formula_units_Z 64
_cell_length_a 15.131715
_cell_length_b 11.474129
_cell_length_c 17.117274
_cell_angle_alpha 90.000000
_cell_angle_beta 90.000000
_cell_angle_gamma 90.000000
_cell_volume 2971.956741
_symmetry_space_group_name_H-M "P B A M"
_symmetry_group_IT_number 55
_symmetry_cell_setting 'orthorhombic'
loop_
_space_group_symop_operation_xyz
x,y,z
-x,-y,z
1/2+x,1/2-y,-z
1/2-x,1/2+y,-z
-x,-y,-z
x,y,-z
1/2-x,1/2+y,z
1/2+x,1/2-y,z
loop_
_atom_site_type_symbol
_atom_site_label
_atom_site_fract_x
_atom_site_fract_y
_atom_site_fract_z
Si Si1 0.289713 0.181179 0.325848
Si Si2 0.594300 0.976960 0.777124
Si Si3 0.714635 0.172358 0.189329
Si Si4 0.549590 0.797712 0.086414
Si Si5 0.891866 0.072344 0.833289
Si Si6 0.621081 0.334750 0.912730
Si Si7 0.883950 0.898819 0.409588
Si Si8 0.565846 0.639520 0.657949
O O1 0.331764 0.071232 0.281421
O O2 0.240043 0.271113 0.270913
O O3 0.215470 0.138364 0.386190
O O4 0.373625 0.249018 0.363144
O O5 0.580696 0.892191 0.851073
O O6 0.500000 0.000000 0.735115
O O7 0.622620 0.104685 0.805114
O O8 0.785644 0.072910 0.168831
O O9 0.708264 0.279841 0.127610
O O10 0.588416 0.670601 0.103474
O O11 0.444909 0.774802 0.086215
O O12 0.579919 0.839593 0.000000
O O13 0.933594 0.104032 0.749393
O O14 0.920320 0.942805 0.862190
O O15 0.643712 0.379184 0.000000
O O16 0.895498 0.870220 0.500000
O O17 0.963182 0.832285 0.363160
O O18 0.895829 0.035680 0.394431
#
# Coordination Sequence:
#
# PCOD8227506 Si02
#       8
#     8   8   8   8   8   8   8   8
#     4  11  24  44  69 105 131 177 226 280 332 405
#     4  12  24  43  69  94 131 177 229 285 334 408
#     4  11  23  40  63  94 127 170 232 277 339 400
#     4  11  24  42  61  91 129 175 230 285 348 398
#     4  11  23  40  64  94 126 170 232 290 324 401
#     4  11  24  39  59  87 127 175 225 285 352 401
#     4  11  25  43  70 106 141 173 215 277 344 412
#     4  10  22  41  72  99 133 178 227 268 337 408
#
# _framework density 21.534634
#
# number of rings (size 3 to 8) (size 9 to 14) (size 15 to 20)
#    0.000    1.000    3.750    4.500    7.000    3.750 
#    0.000    0.000    0.000    0.375    0.000    0.000 
#    0.000    0.000    0.000    0.000    0.000    0.000 
#
# Total GULP energy -793262.816906 kJ/mol
# GULP energy per Si atom -12394.731514 kJ/mol
# Density = 2.148562 g / cm^3
# Si number density = 21.534634 Si / 1000 Ang^3
#
#
#
# Elastic Constant Matrix: (Units=GPa)
#
#
# Indices 1 2 3 4 5 6 
#
# 1 105.5668 32.0217 50.5573 0.0000 0.0000 0.0000
# 2 32.0217 84.7480 30.4409 0.0000 0.0000 0.0000
# 3 50.5573 30.4409 111.4282 0.0000 0.0000 0.0000
# 4 0.0000 0.0000 0.0000 10.5967 0.0000 0.0000
# 5 0.0000 0.0000 0.0000 0.0000 25.5203 0.0000
# 6 0.0000 0.0000 0.0000 0.0000 0.0000 49.2176
#
#
#
# Elastic Compliance Matrix: (Units=1/GPa)
#
#
# Indices 1 2 3 4 5 6 
#
# 1 0.012773 -0.003043 -0.004964 0.000000 0.000000 0.000000
# 2 -0.003043 0.013809 -0.002392 0.000000 0.000000 0.000000
# 3 -0.004964 -0.002392 0.011880 0.000000 0.000000 0.000000
# 4 0.000000 0.000000 0.000000 0.094369 0.000000 0.000000
# 5 0.000000 0.000000 0.000000 0.000000 0.039184 0.000000
# 6 0.000000 0.000000 0.000000 0.000000 0.000000 0.020318
#
#
# Mechanical properties :
#
#
# Convention : Reuss Voigt Hill
#
# Bulk Modulus (GPa) = 56.61214 58.64250 57.62732
# Shear Modulus (GPa) = 22.82906 29.64846 26.23876
#
# Velocity S-wave (km/s) = 3.25946 3.71452 3.49441
# Velocity P-wave (km/s) = 6.36486 6.75927 6.56503
#
# Compressibility (1/GPa) = 0.01766406
#
# Stress axis : x y z
#
# Youngs Moduli (GPa) = 78.28937 72.41864 84.17482
#
# Poissons Ratio (x) = 0.22039 0.41785
# Poissons Ratio (y) = 0.23825 0.20131
# Poissons Ratio (z) = 0.38863 0.17319
#
# Static dielectric constant tensor:
#      x y z
#    x 4.369120 0.000000 0.000000 
#    y 0.000000 3.874800 0.000000 
#    z 0.000000 0.000000 3.668940 
# 
# 
# High freq. dielectric constant tensor:
#      x y z
#    x 1.865470 0.000000 0.000000 
#    y 0.000000 1.843560 0.000000 
#    z 0.000000 0.000000 1.819580 
# 
# From -- ./inp_files/21673.got.cif
#   From: 2010.03.12/outbox.cif.g09.slc.cpg/sg55_11_cif.got.tgz:21673.got - 2010.04.16 15:19:21.
