data_PCOD8227668
_publ_section_title
;
Structure prediction by ZEFSAII (Michael W. Deem and Ramdas Pophale) SiO2 
 PCOD8227668
Probable space group: P B A M
;
_chemical_formula_sum "Si O2"
_cell_formula_units_Z 48
_cell_length_a 31.353512
_cell_length_b 9.767955
_cell_length_c 8.448182
_cell_angle_alpha 90.000000
_cell_angle_beta 90.000000
_cell_angle_gamma 90.000000
_cell_volume 2587.337637
_symmetry_space_group_name_H-M "P B A M"
_symmetry_group_IT_number 55
_symmetry_cell_setting 'orthorhombic'
loop_
_space_group_symop_operation_xyz
x,y,z
-x,-y,z
1/2+x,1/2-y,-z
1/2-x,1/2+y,-z
-x,-y,-z
x,y,-z
1/2-x,1/2+y,z
1/2+x,1/2-y,z
loop_
_atom_site_type_symbol
_atom_site_label
_atom_site_fract_x
_atom_site_fract_y
_atom_site_fract_z
Si Si1 0.712445 0.098180 0.814786
Si Si2 0.965994 0.605249 0.316920
Si Si3 0.127791 0.382038 0.682906
Si Si4 0.037068 0.094546 0.187248
Si Si5 0.717580 0.402488 0.316800
Si Si6 0.369906 0.590825 0.182249
O O1 0.668997 0.030754 0.739273
O O2 0.721689 0.244285 0.733149
O O3 0.750046 0.992268 0.784623
O O4 0.706975 0.121728 0.000000
O O5 0.976399 0.628035 0.500000
O O6 0.000000 0.500000 0.241317
O O7 0.917962 0.543480 0.294213
O O8 0.971438 0.750267 0.234684
O O9 0.133242 0.335693 0.500000
O O10 0.128498 0.253816 0.800447
O O11 0.083683 0.038505 0.244888
O O12 0.036303 0.086514 0.000000
O O13 0.000000 0.000000 0.261989
O O14 0.728738 0.418157 0.500000
O O15 0.670049 0.463804 0.284288
O O16 0.362349 0.550936 0.000000
#
# Coordination Sequence:
#
# PCOD8227668 Si02
#       6
#     8   8   8   8   8   8
#     4  11  21  35  54  77 103 132 168 208 252 300
#     4   9  18  32  50  73 100 130 165 205 246 291
#     4   9  16  29  49  71  97 130 167 204 244 293
#     4   9  18  32  50  73 100 130 165 205 246 291
#     4  11  21  35  54  77 103 132 168 208 252 300
#     4   9  16  29  49  71  97 130 167 204 244 293
#
# _framework density 18.551888000000002
#
# number of rings (size 3 to 8) (size 9 to 14) (size 15 to 20)
#    0.000    2.333    0.000    6.000    0.000    2.000 
#    0.000    1.667    0.000    4.000    0.000    0.000 
#    0.000    0.000    0.000    0.000    0.000    0.000 
#
# Total GULP energy -594756.205553 kJ/mol
# GULP energy per Si atom -12390.754282 kJ/mol
# Density = 1.850966 g / cm^3
# Si number density = 18.551888 Si / 1000 Ang^3
#
#
#
# Elastic Constant Matrix: (Units=GPa)
#
#
# Indices 1 2 3 4 5 6 
#
# 1 171.5073 54.4465 20.5579 0.0000 0.0000 0.0000
# 2 54.4465 49.4100 7.1349 0.0000 0.0000 0.0000
# 3 20.5579 7.1349 52.6632 0.0000 0.0000 0.0000
# 4 0.0000 0.0000 0.0000 24.6801 0.0000 0.0000
# 5 0.0000 0.0000 0.0000 0.0000 28.8057 0.0000
# 6 0.0000 0.0000 0.0000 0.0000 0.0000 31.3159
#
#
#
# Elastic Compliance Matrix: (Units=1/GPa)
#
#
# Indices 1 2 3 4 5 6 
#
# 1 0.009226 -0.009839 -0.002269 0.000000 0.000000 0.000000
# 2 -0.009839 0.031135 -0.000377 0.000000 0.000000 0.000000
# 3 -0.002269 -0.000377 0.019925 0.000000 0.000000 0.000000
# 4 0.000000 0.000000 0.000000 0.040519 0.000000 0.000000
# 5 0.000000 0.000000 0.000000 0.000000 0.034715 0.000000
# 6 0.000000 0.000000 0.000000 0.000000 0.000000 0.031933
#
#
# Mechanical properties :
#
#
# Convention : Reuss Voigt Hill
#
# Bulk Modulus (GPa) = 28.31526 48.65102 38.48314
# Shear Modulus (GPa) = 24.48640 29.72308 27.10474
#
# Velocity S-wave (km/s) = 3.63697 4.00704 3.82648
# Velocity P-wave (km/s) = 5.73869 6.90577 6.34911
#
# Compressibility (1/GPa) = 0.03531664
#
# Stress axis : x y z
#
# Youngs Moduli (GPa) = 108.38909 32.11803 50.18750
#
# Poissons Ratio (x) = 0.31601 0.11385
# Poissons Ratio (y) = 1.06643 0.01895
# Poissons Ratio (z) = 0.24588 0.01212
#
# Static dielectric constant tensor:
#      x y z
#    x 4.309090 0.000000 0.000000 
#    y 0.000000 3.019200 0.000000 
#    z 0.000000 0.000000 3.367440 
# 
# 
# High freq. dielectric constant tensor:
#      x y z
#    x 1.748840 0.000000 0.000000 
#    y 0.000000 1.662100 0.000000 
#    z 0.000000 0.000000 1.725180 
# 
# From -- ./inp_files/10079.got.cif
#   From: 2010.03.12/outbox.cif.g09.slc.cpg/sg55_6_cif.got.tgz:10079.got - 2010.04.16 15:19:21.
