data_PCOD8227284
_publ_section_title
;
Structure prediction by ZEFSAII (Michael W. Deem and Ramdas Pophale) SiO2 
 PCOD8227284
Probable space group: P B A M
;
_chemical_formula_sum "Si O2"
_cell_formula_units_Z 48
_cell_length_a 14.310606
_cell_length_b 20.185719
_cell_length_c 8.507915
_cell_angle_alpha 90.000000
_cell_angle_beta 90.000000
_cell_angle_gamma 90.000000
_cell_volume 2457.680312
_symmetry_space_group_name_H-M "P B A M"
_symmetry_group_IT_number 55
_symmetry_cell_setting 'orthorhombic'
loop_
_space_group_symop_operation_xyz
x,y,z
-x,-y,z
1/2+x,1/2-y,-z
1/2-x,1/2+y,-z
-x,-y,-z
x,y,-z
1/2-x,1/2+y,z
1/2+x,1/2-y,z
loop_
_atom_site_type_symbol
_atom_site_label
_atom_site_fract_x
_atom_site_fract_y
_atom_site_fract_z
Si Si1 0.331002 0.681920 0.816537
Si Si2 0.506671 0.869185 0.182882
Si Si3 0.174664 0.424840 0.681145
Si Si4 0.289229 0.308677 0.817588
Si Si5 0.302383 0.062726 0.816222
Si Si6 0.482962 0.273193 0.681163
O O1 0.264335 0.742299 0.765360
O O2 0.279566 0.613777 0.774747
O O3 0.426334 0.682810 0.718610
O O4 0.354649 0.687166 0.000000
O O5 0.417680 0.915567 0.213265
O O6 0.599178 0.906761 0.239417
O O7 0.492768 0.802592 0.281078
O O8 0.513731 0.850353 0.000000
O O9 0.146095 0.421018 0.500000
O O10 0.252212 0.369903 0.716954
O O11 0.218471 0.496114 0.720771
O O12 0.398478 0.299169 0.787001
O O13 0.272503 0.324036 0.000000
O O14 0.305193 0.046480 0.000000
O O15 0.455716 0.280790 0.500000
#
# Coordination Sequence:
#
# PCOD8227284 Si02
#       6
#     8   8   8   8   8   8
#     4  10  21  40  65  89 117 159 210 250 294 361
#     4  11  21  38  62  89 123 164 208 248 296 364
#     4  12  25  39  58  92 129 161 198 251 313 364
#     4  11  22  41  66  88 118 164 209 249 293 361
#     4  10  22  41  63  88 119 162 208 250 297 361
#     4  12  24  37  60  95 129 156 196 256 313 355
#
# _framework density 19.530612999999999
#
# number of rings (size 3 to 8) (size 9 to 14) (size 15 to 20)
#    0.000    1.000    3.333    4.500    0.000    4.667 
#    0.000    0.833    0.000    5.000    0.000    0.000 
#    0.000    0.000    0.000    0.000    0.000    0.000 
#
# Total GULP energy -595596.989227 kJ/mol
# GULP energy per Si atom -12408.270609 kJ/mol
# Density = 1.948616 g / cm^3
# Si number density = 19.530613 Si / 1000 Ang^3
#
#
#
# Elastic Constant Matrix: (Units=GPa)
#
#
# Indices 1 2 3 4 5 6 
#
# 1 86.9474 15.8813 15.6200 0.0000 0.0000 0.0000
# 2 15.8813 87.7893 24.3663 0.0000 0.0000 0.0000
# 3 15.6200 24.3663 58.7988 0.0000 0.0000 0.0000
# 4 0.0000 0.0000 0.0000 19.2778 0.0000 0.0000
# 5 0.0000 0.0000 0.0000 0.0000 23.3428 0.0000
# 6 0.0000 0.0000 0.0000 0.0000 0.0000 28.3068
#
#
#
# Elastic Compliance Matrix: (Units=1/GPa)
#
#
# Indices 1 2 3 4 5 6 
#
# 1 0.012246 -0.001483 -0.002639 0.000000 0.000000 0.000000
# 2 -0.001483 0.013051 -0.005014 0.000000 0.000000 0.000000
# 3 -0.002639 -0.005014 0.019786 0.000000 0.000000 0.000000
# 4 0.000000 0.000000 0.000000 0.051873 0.000000 0.000000
# 5 0.000000 0.000000 0.000000 0.000000 0.042840 0.000000
# 6 0.000000 0.000000 0.000000 0.000000 0.000000 0.035327
#
#
# Mechanical properties :
#
#
# Convention : Reuss Voigt Hill
#
# Bulk Modulus (GPa) = 37.29795 38.36341 37.83068
# Shear Modulus (GPa) = 24.71182 26.03001 25.37091
#
# Velocity S-wave (km/s) = 3.56095 3.65469 3.60812
# Velocity P-wave (km/s) = 6.00381 6.12326 6.06383
#
# Compressibility (1/GPa) = 0.02681113
#
# Stress axis : x y z
#
# Youngs Moduli (GPa) = 81.65862 76.62279 50.54057
#
# Poissons Ratio (x) = 0.11363 0.13336
# Poissons Ratio (y) = 0.12110 0.25343
# Poissons Ratio (z) = 0.21547 0.38422
#
# Static dielectric constant tensor:
#      x y z
#    x 3.516500 0.000000 0.000000 
#    y 0.000000 3.517440 0.000000 
#    z 0.000000 0.000000 3.460500 
# 
# 
# High freq. dielectric constant tensor:
#      x y z
#    x 1.762320 0.000000 0.000000 
#    y 0.000000 1.758140 0.000000 
#    z 0.000000 0.000000 1.759620 
# 
# From -- ./inp_files/5595.got.cif
#   From: 2010.03.12/outbox.cif.g09.slc.cpg/sg55_3_cif.got.tgz:5595.got - 2010.04.16 15:19:21.
