data_PCOD8227529
_publ_section_title
;
Structure prediction by ZEFSAII (Michael W. Deem and Ramdas Pophale) SiO2 
 PCOD8227529
Probable space group: P B A M
;
_chemical_formula_sum "Si O2"
_cell_formula_units_Z 40
_cell_length_a 9.683997
_cell_length_b 14.375590
_cell_length_c 14.630472
_cell_angle_alpha 90.000000
_cell_angle_beta 90.000000
_cell_angle_gamma 90.000000
_cell_volume 2036.754392
_symmetry_space_group_name_H-M "P B A M"
_symmetry_group_IT_number 55
_symmetry_cell_setting 'orthorhombic'
loop_
_space_group_symop_operation_xyz
x,y,z
-x,-y,z
1/2+x,1/2-y,-z
1/2-x,1/2+y,-z
-x,-y,-z
x,y,-z
1/2-x,1/2+y,z
1/2+x,1/2-y,z
loop_
_atom_site_type_symbol
_atom_site_label
_atom_site_fract_x
_atom_site_fract_y
_atom_site_fract_z
Si Si1 0.590527 0.590752 0.601915
Si Si2 0.594088 0.083195 0.606295
Si Si3 0.494033 0.246464 0.729287
Si Si4 0.648730 0.626457 0.000000
Si Si5 0.252085 0.729317 0.853204
Si Si6 0.675470 0.410026 0.000000
O O1 0.500000 0.500000 0.602822
O O2 0.587564 0.636403 0.500000
O O3 0.746408 0.561712 0.627227
O O4 0.526320 0.656509 0.678145
O O5 0.564202 0.097955 0.500000
O O6 0.552574 0.176933 0.655378
O O7 0.500000 0.000000 0.645137
O O8 0.594680 0.254713 0.815647
O O9 0.347844 0.211797 0.767723
O O10 0.704640 0.679871 0.910599
O O11 0.703611 0.520210 0.000000
O O12 0.483849 0.621254 0.000000
O O13 0.251033 0.635078 0.912126
#
# Coordination Sequence:
#
# PCOD8227529 Si02
#       6
#     8   8   8   4   8   4
#     4  10  23  41  62  90 125 169 213 253 305 365
#     4  10  23  41  61  90 128 168 209 256 308 360
#     4  12  23  41  62  92 128 162 205 259 304 362
#     4  10  22  43  66  89 122 159 198 247 312 378
#     4  11  24  40  63  95 123 155 205 256 304 369
#     4  10  22  43  68  87 118 165 197 246 314 372
#
# _framework density 19.639088999999998
#
# number of rings (size 3 to 8) (size 9 to 14) (size 15 to 20)
#    0.000    1.400    4.000    0.600    2.800    3.200 
#    0.000    1.000    0.000    0.000    0.000    0.000 
#    0.000    0.000    0.000    0.000    0.000    0.000 
#
# Total GULP energy -496094.960138 kJ/mol
# GULP energy per Si atom -12402.374003 kJ/mol
# Density = 1.959439 g / cm^3
# Si number density = 19.639089 Si / 1000 Ang^3
#
#
#
# Elastic Constant Matrix: (Units=GPa)
#
#
# Indices 1 2 3 4 5 6 
#
# 1 98.2085 55.6672 37.4149 0.0000 0.0000 0.0000
# 2 55.6672 105.3408 46.1687 0.0000 0.0000 0.0000
# 3 37.4149 46.1687 74.2668 0.0000 0.0000 0.0000
# 4 0.0000 0.0000 0.0000 17.3604 0.0000 0.0000
# 5 0.0000 0.0000 0.0000 0.0000 27.3828 0.0000
# 6 0.0000 0.0000 0.0000 0.0000 0.0000 33.0267
#
#
#
# Elastic Compliance Matrix: (Units=1/GPa)
#
#
# Indices 1 2 3 4 5 6 
#
# 1 0.015231 -0.006441 -0.003669 0.000000 0.000000 0.000000
# 2 -0.006441 0.015772 -0.006560 0.000000 0.000000 0.000000
# 3 -0.003669 -0.006560 0.019392 0.000000 0.000000 0.000000
# 4 0.000000 0.000000 0.000000 0.057602 0.000000 0.000000
# 5 0.000000 0.000000 0.000000 0.000000 0.036519 0.000000
# 6 0.000000 0.000000 0.000000 0.000000 0.000000 0.030278
#
#
# Mechanical properties :
#
#
# Convention : Reuss Voigt Hill
#
# Bulk Modulus (GPa) = 58.63552 61.81308 60.22430
# Shear Modulus (GPa) = 23.38427 24.79167 24.08797
#
# Velocity S-wave (km/s) = 3.45440 3.55683 3.50599
# Velocity P-wave (km/s) = 6.76992 6.95779 6.86450
#
# Compressibility (1/GPa) = 0.01705451
#
# Stress axis : x y z
#
# Youngs Moduli (GPa) = 65.65524 63.40519 51.56878
#
# Poissons Ratio (x) = 0.40837 0.18923
# Poissons Ratio (y) = 0.42286 0.33828
# Poissons Ratio (z) = 0.24092 0.41593
#
# Static dielectric constant tensor:
#      x y z
#    x 3.806720 0.000000 0.000000 
#    y 0.000000 3.485920 0.000000 
#    z 0.000000 0.000000 3.734960 
# 
# 
# High freq. dielectric constant tensor:
#      x y z
#    x 1.779060 0.000000 0.000000 
#    y 0.000000 1.758290 0.000000 
#    z 0.000000 0.000000 1.775170 
# 
# From -- ./inp_files/17103.got.cif
#   From: 2010.03.12/outbox.cif.g09.slc.cpg/sg55_9_cif.got.tgz:17103.got - 2010.04.16 15:19:21.
