data_PCOD8227220
_publ_section_title
;
Structure prediction by ZEFSAII (Michael W. Deem and Ramdas Pophale) SiO2 
 PCOD8227220
Probable space group: P B A M
;
_chemical_formula_sum "Si O2"
_cell_formula_units_Z 64
_cell_length_a 14.596885
_cell_length_b 24.125184
_cell_length_c 8.923639
_cell_angle_alpha 90.000000
_cell_angle_beta 90.000000
_cell_angle_gamma 90.000000
_cell_volume 3142.482108
_symmetry_space_group_name_H-M "P B A M"
_symmetry_group_IT_number 55
_symmetry_cell_setting 'orthorhombic'
loop_
_space_group_symop_operation_xyz
x,y,z
-x,-y,z
1/2+x,1/2-y,-z
1/2-x,1/2+y,-z
-x,-y,-z
x,y,-z
1/2-x,1/2+y,z
1/2+x,1/2-y,z
loop_
_atom_site_type_symbol
_atom_site_label
_atom_site_fract_x
_atom_site_fract_y
_atom_site_fract_z
Si Si1 0.254541 0.911748 0.323990
Si Si2 0.069034 0.545760 0.173786
Si Si3 0.945818 0.945635 0.325981
Si Si4 0.359354 0.749022 0.172293
Si Si5 0.924959 0.631120 0.827643
Si Si6 0.675260 0.694238 0.174624
Si Si7 0.769832 0.976369 0.822431
Si Si8 0.996976 0.823048 0.673094
O O1 0.245910 0.920842 0.500000
O O2 0.360040 0.906731 0.274866
O O3 0.200388 0.857488 0.276913
O O4 0.207898 0.962824 0.239824
O O5 0.171081 0.543755 0.243378
O O6 0.000000 0.500000 0.245655
O O7 0.027685 0.607740 0.197030
O O8 0.079541 0.530905 0.000000
O O9 0.923123 0.953363 0.500000
O O10 0.850329 0.937191 0.238448
O O11 0.003293 0.889248 0.298451
O O12 0.000000 0.000000 0.265849
O O13 0.416087 0.804650 0.215598
O O14 0.250519 0.757489 0.203270
O O15 0.397720 0.699808 0.275306
O O16 0.375781 0.733164 0.000000
O O17 0.893099 0.623111 0.000000
O O18 0.573476 0.710304 0.229540
O O19 0.675366 0.678164 0.000000
O O20 0.771877 0.975458 0.000000
O O21 0.011566 0.808903 0.500000
#
# Coordination Sequence:
#
# PCOD8227220 Si02
#       8
#     8   8   8   8   8   8   8   8
#     4  11  20  31  52  83 119 153 192 241 293 350
#     4   9  16  30  54  82 116 153 194 244 295 346
#     4  10  23  43  62  83 116 155 192 243 310 368
#     4   9  20  38  61  87 117 153 197 248 293 347
#     4   9  17  34  56  79 111 154 203 247 289 339
#     4  10  21  39  64  89 113 149 201 251 292 342
#     4  11  21  34  56  85 115 155 199 242 291 350
#     4  11  23  40  64  91 123 158 192 243 311 373
#
# _framework density 20.366067000000001
#
# number of rings (size 3 to 8) (size 9 to 14) (size 15 to 20)
#    0.000    2.000    1.250    3.750    0.000    4.750 
#    2.250    1.875    0.000    0.000    0.000    0.000 
#    0.000    0.000    0.000    0.000    0.000    0.000 
#
# Total GULP energy -793453.257897 kJ/mol
# GULP energy per Si atom -12397.707155 kJ/mol
# Density = 2.031971 g / cm^3
# Si number density = 20.366067 Si / 1000 Ang^3
#
#
#
# Elastic Constant Matrix: (Units=GPa)
#
#
# Indices 1 2 3 4 5 6 
#
# 1 125.4476 28.6292 43.8261 0.0000 0.0000 0.0000
# 2 28.6292 64.7377 26.4054 0.0000 0.0000 0.0000
# 3 43.8261 26.4054 68.6129 0.0000 0.0000 0.0000
# 4 0.0000 0.0000 0.0000 23.5029 0.0000 0.0000
# 5 0.0000 0.0000 0.0000 0.0000 26.2857 0.0000
# 6 0.0000 0.0000 0.0000 0.0000 0.0000 29.2287
#
#
#
# Elastic Compliance Matrix: (Units=1/GPa)
#
#
# Indices 1 2 3 4 5 6 
#
# 1 0.010535 -0.002271 -0.005856 0.000000 0.000000 0.000000
# 2 -0.002271 0.018813 -0.005790 0.000000 0.000000 0.000000
# 3 -0.005856 -0.005790 0.020543 0.000000 0.000000 0.000000
# 4 0.000000 0.000000 0.000000 0.042548 0.000000 0.000000
# 5 0.000000 0.000000 0.000000 0.000000 0.038044 0.000000
# 6 0.000000 0.000000 0.000000 0.000000 0.000000 0.034213
#
#
# Mechanical properties :
#
#
# Convention : Reuss Voigt Hill
#
# Bulk Modulus (GPa) = 45.33262 50.72440 48.02851
# Shear Modulus (GPa) = 25.01503 26.46595 25.74049
#
# Velocity S-wave (km/s) = 3.50847 3.60879 3.55898
# Velocity P-wave (km/s) = 6.22252 6.50575 6.36571
#
# Compressibility (1/GPa) = 0.02205917
#
# Stress axis : x y z
#
# Youngs Moduli (GPa) = 94.91858 53.15584 48.67887
#
# Poissons Ratio (x) = 0.12070 0.28504
# Poissons Ratio (y) = 0.21553 0.28183
# Poissons Ratio (z) = 0.55580 0.30775
#
# Static dielectric constant tensor:
#      x y z
#    x 3.923640 0.000000 0.000000 
#    y 0.000000 3.506820 0.000000 
#    z 0.000000 0.000000 3.466390 
# 
# 
# High freq. dielectric constant tensor:
#      x y z
#    x 1.803090 0.000000 0.000000 
#    y 0.000000 1.777130 0.000000 
#    z 0.000000 0.000000 1.777170 
# 
# From -- ./inp_files/6496.got.cif
#   From: 2010.03.12/outbox.cif.g09.slc.cpg/sg55_4_cif.got.tgz:6496.got - 2010.04.16 15:19:21.
