data_PCOD8227895
_publ_section_title
;
Structure prediction by ZEFSAII (Michael W. Deem and Ramdas Pophale) SiO2 
 PCOD8227895
Probable space group: P C C N
;
_chemical_formula_sum "Si O2"
_cell_formula_units_Z 56
_cell_length_a 5.072161
_cell_length_b 32.588780
_cell_length_c 17.346627
_cell_angle_alpha 90.000000
_cell_angle_beta 90.000000
_cell_angle_gamma 90.000000
_cell_volume 2867.320059
_symmetry_space_group_name_H-M "P C C N"
_symmetry_group_IT_number 56
_symmetry_cell_setting 'orthorhombic'
loop_
_space_group_symop_operation_xyz
x,y,z
1/2-x,1/2-y,z
1/2+x,-y,1/2-z
-x,1/2+y,1/2-z
-x,-y,-z
1/2+x,1/2+y,-z
1/2-x,y,1/2+z
x,1/2-y,1/2+z
loop_
_atom_site_type_symbol
_atom_site_label
_atom_site_fract_x
_atom_site_fract_y
_atom_site_fract_z
Si Si1 0.741261 0.414840 0.929183
Si Si2 0.741046 0.909173 0.962138
Si Si3 0.289251 0.297180 0.418333
Si Si4 0.210751 0.321827 0.092680
Si Si5 0.749971 0.997222 0.947002
Si Si6 0.209980 0.834830 0.155491
Si Si7 0.289155 0.796734 0.317209
O O1 0.483451 0.407044 0.979663
O O2 0.982810 0.406250 0.985758
O O3 0.748912 0.461710 0.893472
O O4 0.748980 0.383521 0.857920
O O5 0.745173 0.871068 0.903639
O O6 0.747677 0.951357 0.909717
O O7 0.250000 0.250000 0.398073
O O8 0.233897 0.305333 0.507568
O O9 0.586534 0.309514 0.397148
O O10 0.086718 0.322971 0.366822
O O11 0.416903 0.301038 0.150271
O O12 0.917224 0.309156 0.116871
O O13 0.500000 0.000000 0.000000
O O14 0.000000 0.000000 0.000000
O O15 0.255439 0.826699 0.245082
O O16 0.250000 0.750000 0.290131
#
# Coordination Sequence:
#
# PCOD8227895 Si02
#       7
#     8   8   8   8   8   8   8
#     4  10  17  34  56  86 112 140 183 228 282 328
#     4  10  18  34  55  86 112 140 183 228 281 328
#     4  12  23  38  60  84 107 145 193 248 285 318
#     4  12  23  40  60  82 115 149 191 239 280 341
#     4   8  16  27  52  82 114 138 168 226 278 333
#     4  12  23  40  60  83 115 148 192 239 279 341
#     4  12  26  41  55  79 115 158 192 228 289 345
#
# _framework density 19.530432999999999
#
# number of rings (size 3 to 8) (size 9 to 14) (size 15 to 20)
#    0.000    1.143    2.857    5.143    0.000    0.000 
#    0.000    0.000    0.000    1.714    0.000    0.000 
#    0.000    0.000    0.000    0.000    0.000    0.000 
#
# Total GULP energy -694191.336550 kJ/mol
# GULP energy per Si atom -12396.273867 kJ/mol
# Density = 1.948598 g / cm^3
# Si number density = 19.530433 Si / 1000 Ang^3
#
#
#
# Elastic Constant Matrix: (Units=GPa)
#
#
# Indices 1 2 3 4 5 6 
#
# 1 107.8721 7.2802 9.2458 0.0000 0.0000 0.0000
# 2 7.2802 136.5469 -2.9177 0.0000 0.0000 0.0000
# 3 9.2458 -2.9177 54.6324 0.0000 0.0000 0.0000
# 4 0.0000 0.0000 0.0000 23.2981 0.0000 0.0000
# 5 0.0000 0.0000 0.0000 0.0000 23.6132 0.0000
# 6 0.0000 0.0000 0.0000 0.0000 0.0000 28.1429
#
#
#
# Elastic Compliance Matrix: (Units=1/GPa)
#
#
# Indices 1 2 3 4 5 6 
#
# 1 0.009446 -0.000538 -0.001627 0.000000 0.000000 0.000000
# 2 -0.000538 0.007363 0.000484 0.000000 0.000000 0.000000
# 3 -0.001627 0.000484 0.018605 0.000000 0.000000 0.000000
# 4 0.000000 0.000000 0.000000 0.042922 0.000000 0.000000
# 5 0.000000 0.000000 0.000000 0.000000 0.042349 0.000000
# 6 0.000000 0.000000 0.000000 0.000000 0.000000 0.035533
#
#
# Mechanical properties :
#
#
# Convention : Reuss Voigt Hill
#
# Bulk Modulus (GPa) = 31.20015 36.25201 33.72608
# Shear Modulus (GPa) = 29.36605 34.04039 31.70322
#
# Velocity S-wave (km/s) = 3.88184 4.17938 4.03336
# Velocity P-wave (km/s) = 6.00845 6.47238 6.24472
#
# Compressibility (1/GPa) = 0.03205113
#
# Stress axis : x y z
#
# Youngs Moduli (GPa) = 105.86426 135.82255 53.74772
#
# Poissons Ratio (x) = 0.07313 0.08747
# Poissons Ratio (y) = 0.05700 -0.02603
# Poissons Ratio (z) = 0.17228 -0.06578
#
# Static dielectric constant tensor:
#      x y z
#    x 3.761190 0.000000 0.000000 
#    y 0.000000 4.452500 0.000000 
#    z 0.000000 0.000000 3.070340 
# 
# 
# High freq. dielectric constant tensor:
#      x y z
#    x 1.789730 0.000000 0.000000 
#    y 0.000000 1.788720 0.000000 
#    z 0.000000 0.000000 1.702660 
# 
# From -- ./inp_files/9836.got.cif
#   From: 2010.03.12/outbox.cif.g09.slc.cpg/sg56_5_cif.got.tgz:9836.got - 2010.04.16 15:33:40.
