data_PCOD8227147
_publ_section_title
;
Structure prediction by ZEFSAII (Michael W. Deem and Ramdas Pophale) SiO2 
 PCOD8227147
Probable space group: P B A M
;
_chemical_formula_sum "Si O2"
_cell_formula_units_Z 56
_cell_length_a 15.150308
_cell_length_b 22.772709
_cell_length_c 7.768760
_cell_angle_alpha 90.000000
_cell_angle_beta 90.000000
_cell_angle_gamma 90.000000
_cell_volume 2680.327508
_symmetry_space_group_name_H-M "P B A M"
_symmetry_group_IT_number 55
_symmetry_cell_setting 'orthorhombic'
loop_
_space_group_symop_operation_xyz
x,y,z
-x,-y,z
1/2+x,1/2-y,-z
1/2-x,1/2+y,-z
-x,-y,-z
x,y,-z
1/2-x,1/2+y,z
1/2+x,1/2-y,z
loop_
_atom_site_type_symbol
_atom_site_label
_atom_site_fract_x
_atom_site_fract_y
_atom_site_fract_z
Si Si1 0.661056 0.219627 0.198779
Si Si2 0.646308 0.509433 0.500000
Si Si3 0.404268 0.904255 0.309325
Si Si4 0.013474 0.095303 0.500000
Si Si5 0.720264 0.000406 0.193233
Si Si6 0.846126 0.265105 0.796589
Si Si7 0.398978 0.108130 0.202508
Si Si8 0.010579 0.186150 0.198838
O O1 0.625273 0.162967 0.294985
O O2 0.754754 0.239670 0.278753
O O3 0.594346 0.272736 0.225307
O O4 0.670456 0.202531 0.000000
O O5 0.595114 0.448550 0.500000
O O6 0.580317 0.563811 0.500000
O O7 0.702702 0.514895 0.673802
O O8 0.381941 0.926420 0.500000
O O9 0.508153 0.910435 0.281272
O O10 0.350426 0.946701 0.182993
O O11 0.021559 0.131498 0.324120
O O12 0.673021 0.940437 0.252383
O O13 0.759574 0.993455 0.000000
O O14 0.866456 0.329628 0.719718
O O15 0.923606 0.221142 0.743879
O O16 0.837736 0.271269 0.000000
O O17 0.413133 0.113320 0.000000
O O18 0.004016 0.164809 0.000000
#
# Coordination Sequence:
#
# PCOD8227147 Si02
#       8
#     8   4   8   4   8   8   8   8
#     4  10  21  38  62  93 131 174 222 272 328 393
#     4  11  28  52  65  98 128 170 223 288 332 391
#     4  12  24  38  61  96 138 179 218 267 332 397
#     4  11  28  48  70  90 138 169 216 282 340 391
#     4  11  25  44  71  96 127 176 229 276 330 391
#     4   9  19  37  62  93 129 168 218 272 326 391
#     4  10  21  40  64  93 129 174 219 268 329 391
#     4  10  22  42  69  99 131 173 218 267 331 401
#
# _framework density 20.892969999999998
#
# number of rings (size 3 to 8) (size 9 to 14) (size 15 to 20)
#    0.000    1.571    2.143    1.714    6.000    2.857 
#    0.000    1.429    0.000    0.000    0.000    0.000 
#    0.000    0.000    0.000    0.000    0.000    0.000 
#
# Total GULP energy -694579.558026 kJ/mol
# GULP energy per Si atom -12403.206393 kJ/mol
# Density = 2.084542 g / cm^3
# Si number density = 20.892970 Si / 1000 Ang^3
#
#
#
# Elastic Constant Matrix: (Units=GPa)
#
#
# Indices 1 2 3 4 5 6 
#
# 1 92.0711 -4.5981 27.0408 0.0000 0.0000 0.0000
# 2 -4.5981 70.2414 30.0544 0.0000 0.0000 0.0000
# 3 27.0408 30.0544 80.7170 0.0000 0.0000 0.0000
# 4 0.0000 0.0000 0.0000 26.3754 0.0000 0.0000
# 5 0.0000 0.0000 0.0000 0.0000 23.4809 0.0000
# 6 0.0000 0.0000 0.0000 0.0000 0.0000 47.9962
#
#
#
# Elastic Compliance Matrix: (Units=1/GPa)
#
#
# Indices 1 2 3 4 5 6 
#
# 1 0.012599 0.003129 -0.005386 0.000000 0.000000 0.000000
# 2 0.003129 0.017712 -0.007643 0.000000 0.000000 0.000000
# 3 -0.005386 -0.007643 0.017039 0.000000 0.000000 0.000000
# 4 0.000000 0.000000 0.000000 0.037914 0.000000 0.000000
# 5 0.000000 0.000000 0.000000 0.000000 0.042588 0.000000
# 6 0.000000 0.000000 0.000000 0.000000 0.000000 0.020835
#
#
# Mechanical properties :
#
#
# Convention : Reuss Voigt Hill
#
# Bulk Modulus (GPa) = 36.29702 38.66929 37.48316
# Shear Modulus (GPa) = 28.14196 32.27265 30.20730
#
# Velocity S-wave (km/s) = 3.67407 3.93449 3.80651
# Velocity P-wave (km/s) = 5.95055 6.26009 6.10728
#
# Compressibility (1/GPa) = 0.02755047
#
# Stress axis : x y z
#
# Youngs Moduli (GPa) = 79.36942 56.45953 58.68812
#
# Poissons Ratio (x) = -0.17668 0.31610
# Poissons Ratio (y) = -0.24837 0.44857
# Poissons Ratio (z) = 0.42749 0.43153
#
# Static dielectric constant tensor:
#      x y z
#    x 3.895820 0.000000 0.000000 
#    y 0.000000 3.819670 0.000000 
#    z 0.000000 0.000000 3.645140 
# 
# 
# High freq. dielectric constant tensor:
#      x y z
#    x 1.824820 0.000000 0.000000 
#    y 0.000000 1.824430 0.000000 
#    z 0.000000 0.000000 1.813020 
# 
# From -- ./inp_files/6233.got.cif
#   From: 2010.03.12/outbox.cif.g09.slc.cpg/sg55_4_cif.got.tgz:6233.got - 2010.04.16 15:19:21.
