data_PCOD8227571
_publ_section_title
;
Structure prediction by ZEFSAII (Michael W. Deem and Ramdas Pophale) SiO2 
 PCOD8227571
Probable space group: P B A M
;
_chemical_formula_sum "Si O2"
_cell_formula_units_Z 40
_cell_length_a 8.719168
_cell_length_b 25.011752
_cell_length_c 8.533568
_cell_angle_alpha 90.000000
_cell_angle_beta 90.000000
_cell_angle_gamma 90.000000
_cell_volume 1861.014741
_symmetry_space_group_name_H-M "P B A M"
_symmetry_group_IT_number 55
_symmetry_cell_setting 'orthorhombic'
loop_
_space_group_symop_operation_xyz
x,y,z
-x,-y,z
1/2+x,1/2-y,-z
1/2-x,1/2+y,-z
-x,-y,-z
x,y,-z
1/2-x,1/2+y,z
1/2+x,1/2-y,z
loop_
_atom_site_type_symbol
_atom_site_label
_atom_site_fract_x
_atom_site_fract_y
_atom_site_fract_z
Si Si1 0.151954 0.309770 0.180806
Si Si2 0.329607 0.015887 0.318092
Si Si3 0.329638 0.215797 0.319445
Si Si4 0.169886 0.916279 0.817597
Si Si5 0.170729 0.115592 0.182158
O O1 0.284647 0.267111 0.216816
O O2 0.214466 0.368373 0.220974
O O3 0.004455 0.299545 0.286411
O O4 0.104405 0.305588 0.000000
O O5 0.321030 0.031249 0.500000
O O6 0.214985 0.967331 0.284117
O O7 0.500000 0.000000 0.266153
O O8 0.285426 0.067095 0.216114
O O9 0.311589 0.230991 0.500000
O O10 0.217503 0.167024 0.281149
O O11 0.999847 0.899919 0.765789
O O12 0.173900 0.931921 0.000000
O O13 0.179452 0.130629 0.000000
#
# Coordination Sequence:
#
# PCOD8227571 Si02
#       5
#     8   8   8   8   8
#     4  11  23  42  66  91 123 165 209 251 305 372
#     4  11  24  40  60  89 124 160 201 252 309 367
#     4  12  25  41  63  94 128 161 204 258 313 364
#     4  10  23  41  63  90 119 157 205 253 301 363
#     4  11  23  41  64  90 122 161 207 254 304 368
#
# _framework density 21.493649000000001
#
# number of rings (size 3 to 8) (size 9 to 14) (size 15 to 20)
#    0.000    1.000    0.000    6.600    0.000   12.000 
#    0.000    0.000    0.000    0.000    0.000    0.000 
#    0.000    0.000    0.000    0.000    0.000    0.000 
#
# Total GULP energy -496396.106571 kJ/mol
# GULP energy per Si atom -12409.902664 kJ/mol
# Density = 2.144473 g / cm^3
# Si number density = 21.493649 Si / 1000 Ang^3
#
#
#
# Elastic Constant Matrix: (Units=GPa)
#
#
# Indices 1 2 3 4 5 6 
#
# 1 72.2758 -19.9664 17.5039 0.0000 0.0000 0.0000
# 2 -19.9664 64.2122 18.0568 0.0000 0.0000 0.0000
# 3 17.5039 18.0568 48.8054 0.0000 0.0000 0.0000
# 4 0.0000 0.0000 0.0000 46.0145 0.0000 0.0000
# 5 0.0000 0.0000 0.0000 0.0000 33.2198 0.0000
# 6 0.0000 0.0000 0.0000 0.0000 0.0000 38.6935
#
#
#
# Elastic Compliance Matrix: (Units=1/GPa)
#
#
# Indices 1 2 3 4 5 6 
#
# 1 0.018572 0.008536 -0.009819 0.000000 0.000000 0.000000
# 2 0.008536 0.021305 -0.010944 0.000000 0.000000 0.000000
# 3 -0.009819 -0.010944 0.028060 0.000000 0.000000 0.000000
# 4 0.000000 0.000000 0.000000 0.021732 0.000000 0.000000
# 5 0.000000 0.000000 0.000000 0.000000 0.030103 0.000000
# 6 0.000000 0.000000 0.000000 0.000000 0.000000 0.025844
#
#
# Mechanical properties :
#
#
# Convention : Reuss Voigt Hill
#
# Bulk Modulus (GPa) = 22.99717 24.05356 23.52537
# Shear Modulus (GPa) = 27.09092 34.89884 30.99488
#
# Velocity S-wave (km/s) = 3.55408 4.03386 3.80155
# Velocity P-wave (km/s) = 5.25022 5.73684 5.49892
#
# Compressibility (1/GPa) = 0.04348360
#
# Stress axis : x y z
#
# Youngs Moduli (GPa) = 53.84471 46.93731 35.63794
#
# Poissons Ratio (x) = -0.40065 0.34992
# Poissons Ratio (y) = -0.45962 0.39001
# Poissons Ratio (z) = 0.52869 0.51367
#
# Static dielectric constant tensor:
#      x y z
#    x 3.984060 0.000000 0.000000 
#    y 0.000000 3.964570 0.000000 
#    z 0.000000 0.000000 3.774290 
# 
# 
# High freq. dielectric constant tensor:
#      x y z
#    x 1.858680 0.000000 0.000000 
#    y 0.000000 1.856460 0.000000 
#    z 0.000000 0.000000 1.843730 
# 
# From -- ./inp_files/2313.got.cif
#   From: 2010.03.12/outbox.cif.g09.slc.cpg/sg55_2_cif.got.tgz:2313.got - 2010.04.16 15:19:21.
