data_PCOD8227251
_publ_section_title
;
Structure prediction by ZEFSAII (Michael W. Deem and Ramdas Pophale) SiO2 
 PCOD8227251
Probable space group: P B A M
;
_chemical_formula_sum "Si O2"
_cell_formula_units_Z 56
_cell_length_a 17.173662
_cell_length_b 10.885077
_cell_length_c 14.103452
_cell_angle_alpha 90.000000
_cell_angle_beta 90.000000
_cell_angle_gamma 90.000000
_cell_volume 2636.451834
_symmetry_space_group_name_H-M "P B A M"
_symmetry_group_IT_number 55
_symmetry_cell_setting 'orthorhombic'
loop_
_space_group_symop_operation_xyz
x,y,z
-x,-y,z
1/2+x,1/2-y,-z
1/2-x,1/2+y,-z
-x,-y,-z
x,y,-z
1/2-x,1/2+y,z
1/2+x,1/2-y,z
loop_
_atom_site_type_symbol
_atom_site_label
_atom_site_fract_x
_atom_site_fract_y
_atom_site_fract_z
Si Si1 0.078834 0.433588 0.105189
Si Si2 0.383355 0.533723 0.108304
Si Si3 0.119472 0.808724 0.773075
Si Si4 0.321929 0.702567 0.608460
Si Si5 0.792422 0.073654 0.609092
Si Si6 0.712167 0.869455 0.893721
Si Si7 0.552666 0.276650 0.237523
O O1 0.153632 0.517942 0.104385
O O2 0.098016 0.327247 0.178994
O O3 0.000000 0.500000 0.137931
O O4 0.065780 0.377435 0.000000
O O5 0.388332 0.391228 0.133262
O O6 0.297485 0.584090 0.132172
O O7 0.445777 0.600852 0.174487
O O8 0.406634 0.553340 0.000000
O O9 0.138906 0.888239 0.680049
O O10 0.186841 0.714929 0.805223
O O11 0.038046 0.741199 0.748349
O O12 0.347221 0.705549 0.500000
O O13 0.276366 0.829118 0.632717
O O14 0.273835 0.572850 0.627033
O O15 0.403235 0.702539 0.664098
O O16 0.818908 0.092742 0.500000
O O17 0.711718 0.807996 0.000000
#
# Coordination Sequence:
#
# PCOD8227251 Si02
#       7
#     8   8   8   8   8   8   8
#     4  10  21  40  62  88 125 171 214 258 317 381
#     4  11  25  39  58  89 125 166 209 259 310 370
#     4  12  24  39  62  92 126 162 207 258 319 384
#     4  10  23  44  70  97 129 167 216 270 326 387
#     4  10  23  44  69  96 125 165 213 267 323 384
#     4  10  23  41  61  88 123 169 218 263 311 375
#     4  12  24  39  62  93 127 166 209 259 322 385
#
# _framework density 21.240670000000001
#
# number of rings (size 3 to 8) (size 9 to 14) (size 15 to 20)
#    0.000    1.286    2.857    2.143    4.000    2.857 
#    0.000    1.429    0.000    0.429    0.000    0.000 
#    0.000    0.000    0.000    0.000    0.000    0.000 
#
# Total GULP energy -694078.836209 kJ/mol
# GULP energy per Si atom -12394.264932 kJ/mol
# Density = 2.119232 g / cm^3
# Si number density = 21.240670 Si / 1000 Ang^3
#
#
#
# Elastic Constant Matrix: (Units=GPa)
#
#
# Indices 1 2 3 4 5 6 
#
# 1 77.4437 13.6015 25.0097 0.0000 0.0000 0.0000
# 2 13.6015 87.5637 30.0505 0.0000 0.0000 0.0000
# 3 25.0097 30.0505 87.3722 0.0000 0.0000 0.0000
# 4 0.0000 0.0000 0.0000 27.3576 0.0000 0.0000
# 5 0.0000 0.0000 0.0000 0.0000 16.6792 0.0000
# 6 0.0000 0.0000 0.0000 0.0000 0.0000 27.4424
#
#
#
# Elastic Compliance Matrix: (Units=1/GPa)
#
#
# Indices 1 2 3 4 5 6 
#
# 1 0.014294 -0.000925 -0.003773 0.000000 0.000000 0.000000
# 2 -0.000925 0.013009 -0.004209 0.000000 0.000000 0.000000
# 3 -0.003773 -0.004209 0.013973 0.000000 0.000000 0.000000
# 4 0.000000 0.000000 0.000000 0.036553 0.000000 0.000000
# 5 0.000000 0.000000 0.000000 0.000000 0.059955 0.000000
# 6 0.000000 0.000000 0.000000 0.000000 0.000000 0.036440
#
#
# Mechanical properties :
#
#
# Convention : Reuss Voigt Hill
#
# Bulk Modulus (GPa) = 42.62638 43.30032 42.96335
# Shear Modulus (GPa) = 25.01768 26.54368 25.78068
#
# Velocity S-wave (km/s) = 3.43566 3.53889 3.48766
# Velocity P-wave (km/s) = 5.98750 6.09329 6.04063
#
# Compressibility (1/GPa) = 0.02345965
#
# Stress axis : x y z
#
# Youngs Moduli (GPa) = 69.96113 76.87260 71.56633
#
# Poissons Ratio (x) = 0.07114 0.27003
# Poissons Ratio (y) = 0.06474 0.30124
# Poissons Ratio (z) = 0.26398 0.32357
#
# Static dielectric constant tensor:
#      x y z
#    x 4.016350 0.000000 0.000000 
#    y 0.000000 3.993100 0.000000 
#    z 0.000000 0.000000 3.948350 
# 
# 
# High freq. dielectric constant tensor:
#      x y z
#    x 1.823120 0.000000 0.000000 
#    y 0.000000 1.836030 0.000000 
#    z 0.000000 0.000000 1.838590 
# 
# From -- ./inp_files/18954.got.cif
#   From: 2010.03.12/outbox.cif.g09.slc.cpg/sg55_10_cif.got.tgz:18954.got - 2010.04.16 15:19:21.
