data_PCOD8227615
_publ_section_title
;
Structure prediction by ZEFSAII (Michael W. Deem and Ramdas Pophale) SiO2 
 PCOD8227615
Probable space group: P B A M
;
_chemical_formula_sum "Si O2"
_cell_formula_units_Z 56
_cell_length_a 21.591225
_cell_length_b 14.480393
_cell_length_c 8.864390
_cell_angle_alpha 90.000000
_cell_angle_beta 90.000000
_cell_angle_gamma 90.000000
_cell_volume 2771.446422
_symmetry_space_group_name_H-M "P B A M"
_symmetry_group_IT_number 55
_symmetry_cell_setting 'orthorhombic'
loop_
_space_group_symop_operation_xyz
x,y,z
-x,-y,z
1/2+x,1/2-y,-z
1/2-x,1/2+y,-z
-x,-y,-z
x,y,-z
1/2-x,1/2+y,z
1/2+x,1/2-y,z
loop_
_atom_site_type_symbol
_atom_site_label
_atom_site_fract_x
_atom_site_fract_y
_atom_site_fract_z
Si Si1 0.077430 0.587733 0.178391
Si Si2 0.300136 0.588889 0.674215
Si Si3 0.527914 0.596777 0.821863
Si Si4 0.693510 0.797831 0.821596
Si Si5 0.661156 0.614131 0.676668
Si Si6 0.421065 0.702588 0.675508
Si Si7 0.061436 0.383569 0.178518
O O1 0.130775 0.654521 0.242171
O O2 0.089790 0.481977 0.229529
O O3 0.010206 0.621273 0.232711
O O4 0.078375 0.589470 0.000000
O O5 0.282991 0.607279 0.500000
O O6 0.250414 0.636560 0.781022
O O7 0.302047 0.480216 0.711945
O O8 0.367017 0.630770 0.713119
O O9 0.500000 0.500000 0.765142
O O10 0.594481 0.613184 0.752249
O O11 0.482251 0.676846 0.768280
O O12 0.534821 0.601028 0.000000
O O13 0.701360 0.698342 0.743292
O O14 0.691184 0.783981 0.000000
O O15 0.651891 0.627284 0.500000
O O16 0.436789 0.703318 0.500000
O O17 0.401045 0.804342 0.732553
O O18 0.067854 0.368558 0.000000
#
# Coordination Sequence:
#
# PCOD8227615 Si02
#       7
#     8   8   8   8   8   8   8
#     4   8  17  35  57  83 115 150 187 235 294 354
#     4  10  24  43  59  80 116 161 203 242 293 360
#     4  11  22  36  60  92 123 154 196 251 308 362
#     4  11  23  39  62  90 120 155 204 256 302 356
#     4  11  23  42  65  88 122 164 203 246 304 370
#     4  11  22  37  57  85 120 156 197 244 302 364
#     4   9  17  34  60  85 114 150 188 235 296 356
#
# _framework density 20.206054999999999
#
# number of rings (size 3 to 8) (size 9 to 14) (size 15 to 20)
#    0.000    1.857    1.429    3.429    0.000    5.143 
#    0.000    6.429    0.000    0.000    0.000    0.000 
#    0.000    0.000    0.000    0.000    0.000    0.000 
#
# Total GULP energy -694540.656621 kJ/mol
# GULP energy per Si atom -12402.511725 kJ/mol
# Density = 2.016007 g / cm^3
# Si number density = 20.206055 Si / 1000 Ang^3
#
#
#
# Elastic Constant Matrix: (Units=GPa)
#
#
# Indices 1 2 3 4 5 6 
#
# 1 56.3212 31.4265 29.7937 0.0000 0.0000 0.0000
# 2 31.4265 144.3564 43.9488 0.0000 0.0000 0.0000
# 3 29.7937 43.9488 62.8802 0.0000 0.0000 0.0000
# 4 0.0000 0.0000 0.0000 31.0825 0.0000 0.0000
# 5 0.0000 0.0000 0.0000 0.0000 29.4048 0.0000
# 6 0.0000 0.0000 0.0000 0.0000 0.0000 28.2969
#
#
#
# Elastic Compliance Matrix: (Units=1/GPa)
#
#
# Indices 1 2 3 4 5 6 
#
# 1 0.024263 -0.002264 -0.009914 0.000000 0.000000 0.000000
# 2 -0.002264 0.009011 -0.005225 0.000000 0.000000 0.000000
# 3 -0.009914 -0.005225 0.024253 0.000000 0.000000 0.000000
# 4 0.000000 0.000000 0.000000 0.032172 0.000000 0.000000
# 5 0.000000 0.000000 0.000000 0.000000 0.034008 0.000000
# 6 0.000000 0.000000 0.000000 0.000000 0.000000 0.035340
#
#
# Mechanical properties :
#
#
# Convention : Reuss Voigt Hill
#
# Bulk Modulus (GPa) = 44.01325 52.65509 48.33417
# Shear Modulus (GPa) = 24.82292 28.31608 26.56950
#
# Velocity S-wave (km/s) = 3.50878 3.74754 3.63013
# Velocity P-wave (km/s) = 6.18425 6.69635 6.44539
#
# Compressibility (1/GPa) = 0.02272043
#
# Stress axis : x y z
#
# Youngs Moduli (GPa) = 41.21519 110.97562 41.23221
#
# Poissons Ratio (x) = 0.25122 0.40877
# Poissons Ratio (y) = 0.09330 0.21546
# Poissons Ratio (z) = 0.40861 0.57990
#
# Static dielectric constant tensor:
#      x y z
#    x 3.620630 0.000000 0.000000 
#    y 0.000000 4.089350 0.000000 
#    z 0.000000 0.000000 3.457890 
# 
# 
# High freq. dielectric constant tensor:
#      x y z
#    x 1.775400 0.000000 0.000000 
#    y 0.000000 1.811150 0.000000 
#    z 0.000000 0.000000 1.776190 
# 
# From -- ./inp_files/6194.got.cif
#   From: 2010.03.12/outbox.cif.g09.slc.cpg/sg55_4_cif.got.tgz:6194.got - 2010.04.16 15:19:21.
