data_PCOD8227637
_publ_section_title
;
Structure prediction by ZEFSAII (Michael W. Deem and Ramdas Pophale) SiO2 
 PCOD8227637
Probable space group: P B A M
;
_chemical_formula_sum "Si O2"
_cell_formula_units_Z 40
_cell_length_a 12.469660
_cell_length_b 21.319221
_cell_length_c 9.041166
_cell_angle_alpha 90.000000
_cell_angle_beta 90.000000
_cell_angle_gamma 90.000000
_cell_volume 2403.534647
_symmetry_space_group_name_H-M "P B A M"
_symmetry_group_IT_number 55
_symmetry_cell_setting 'orthorhombic'
loop_
_space_group_symop_operation_xyz
x,y,z
-x,-y,z
1/2+x,1/2-y,-z
1/2-x,1/2+y,-z
-x,-y,-z
x,y,-z
1/2-x,1/2+y,z
1/2+x,1/2-y,z
loop_
_atom_site_type_symbol
_atom_site_label
_atom_site_fract_x
_atom_site_fract_y
_atom_site_fract_z
Si Si1 0.813241 0.661154 0.827548
Si Si2 0.899112 0.798768 0.831385
Si Si3 0.609732 0.702734 0.325506
Si Si4 0.996508 0.569694 0.824690
Si Si5 0.166188 0.669403 0.172365
O O1 0.702252 0.657542 0.738112
O O2 0.872744 0.726501 0.796556
O O3 0.890441 0.605853 0.768673
O O4 0.786209 0.654138 0.000000
O O5 0.993880 0.823175 0.725793
O O6 0.792963 0.840401 0.799807
O O7 0.937065 0.806483 0.000000
O O8 0.616949 0.702595 0.500000
O O9 0.621788 0.772924 0.265670
O O10 0.103922 0.606886 0.776866
O O11 0.000000 0.500000 0.754614
O O12 0.991563 0.565562 0.000000
O O13 0.144296 0.685229 0.000000
#
# Coordination Sequence:
#
# PCOD8227637 Si02
#       5
#     8   8   8   8   8
#     4   9  17  30  48  69  96 126 156 191 238 289
#     4   9  16  28  47  67  93 126 155 189 238 287
#     4  11  20  28  44  69  98 125 156 199 237 278
#     4   9  16  29  52  77  97 120 156 199 238 282
#     4   9  17  31  48  69  96 125 156 190 238 288
#
# _framework density 16.642157000000001
#
# number of rings (size 3 to 8) (size 9 to 14) (size 15 to 20)
#    0.000    2.600    2.000    3.000    0.000    3.200 
#    0.000    0.000    0.000    3.600    0.000    8.400 
#    0.000    0.000    0.000    0.000    0.000    0.000 
#
# Total GULP energy -495902.015748 kJ/mol
# GULP energy per Si atom -12397.550394 kJ/mol
# Density = 1.660428 g / cm^3
# Si number density = 16.642157 Si / 1000 Ang^3
#
#
#
# Elastic Constant Matrix: (Units=GPa)
#
#
# Indices 1 2 3 4 5 6 
#
# 1 156.2809 65.5451 56.1205 0.0000 0.0000 0.0000
# 2 65.5451 96.7414 22.5218 0.0000 0.0000 0.0000
# 3 56.1205 22.5218 68.2803 0.0000 0.0000 0.0000
# 4 0.0000 0.0000 0.0000 6.3743 0.0000 0.0000
# 5 0.0000 0.0000 0.0000 0.0000 9.0192 0.0000
# 6 0.0000 0.0000 0.0000 0.0000 0.0000 24.4896
#
#
#
# Elastic Compliance Matrix: (Units=1/GPa)
#
#
# Indices 1 2 3 4 5 6 
#
# 1 0.011712 -0.006168 -0.007592 0.000000 0.000000 0.000000
# 2 -0.006168 0.014445 0.000305 0.000000 0.000000 0.000000
# 3 -0.007592 0.000305 0.020785 0.000000 0.000000 0.000000
# 4 0.000000 0.000000 0.000000 0.156881 0.000000 0.000000
# 5 0.000000 0.000000 0.000000 0.000000 0.110875 0.000000
# 6 0.000000 0.000000 0.000000 0.000000 0.000000 0.040834
#
#
# Mechanical properties :
#
#
# Convention : Reuss Voigt Hill
#
# Bulk Modulus (GPa) = 49.92010 67.74193 58.83102
# Shear Modulus (GPa) = 12.84963 19.78429 16.31696
#
# Velocity S-wave (km/s) = 2.78171 3.45165 3.13463
# Velocity P-wave (km/s) = 6.35441 7.52852 6.96624
#
# Compressibility (1/GPa) = 0.02003201
#
# Stress axis : x y z
#
# Youngs Moduli (GPa) = 85.38543 69.22997 48.11254
#
# Poissons Ratio (x) = 0.42698 0.36525
# Poissons Ratio (y) = 0.52662 -0.01466
# Poissons Ratio (z) = 0.64821 -0.02110
#
# Static dielectric constant tensor:
#      x y z
#    x 3.431010 0.000000 0.000000 
#    y 0.000000 3.025500 0.000000 
#    z 0.000000 0.000000 2.837470 
# 
# 
# High freq. dielectric constant tensor:
#      x y z
#    x 1.659070 0.000000 0.000000 
#    y 0.000000 1.595890 0.000000 
#    z 0.000000 0.000000 1.612820 
# 
# From -- ./inp_files/3843.got.cif
#   From: 2010.03.12/outbox.cif.g09.slc.cpg/sg55_2_cif.got.tgz:3843.got - 2010.04.16 15:19:21.
