data_PCOD8227294
_publ_section_title
;
Structure prediction by ZEFSAII (Michael W. Deem and Ramdas Pophale) SiO2 
 PCOD8227294
Probable space group: P B A M
;
_chemical_formula_sum "Si O2"
_cell_formula_units_Z 48
_cell_length_a 18.460793
_cell_length_b 14.776595
_cell_length_c 8.900906
_cell_angle_alpha 90.000000
_cell_angle_beta 90.000000
_cell_angle_gamma 90.000000
_cell_volume 2428.057333
_symmetry_space_group_name_H-M "P B A M"
_symmetry_group_IT_number 55
_symmetry_cell_setting 'orthorhombic'
loop_
_space_group_symop_operation_xyz
x,y,z
-x,-y,z
1/2+x,1/2-y,-z
1/2-x,1/2+y,-z
-x,-y,-z
x,y,-z
1/2-x,1/2+y,z
1/2+x,1/2-y,z
loop_
_atom_site_type_symbol
_atom_site_label
_atom_site_fract_x
_atom_site_fract_y
_atom_site_fract_z
Si Si1 0.245134 0.301047 0.824746
Si Si2 0.416133 0.744317 0.825553
Si Si3 0.929272 0.941842 0.674680
Si Si4 0.528197 0.901032 0.173821
Si Si5 0.676739 0.854848 0.676672
Si Si6 0.283502 0.503125 0.176440
O O1 0.165581 0.267752 0.778768
O O2 0.305075 0.246133 0.732063
O O3 0.252274 0.405556 0.780506
O O4 0.260379 0.286261 0.000000
O O5 0.443981 0.660294 0.728402
O O6 0.464906 0.830772 0.788539
O O7 0.420769 0.718105 0.000000
O O8 0.909163 0.941159 0.500000
O O9 0.864946 0.988100 0.766269
O O10 0.000000 0.000000 0.708615
O O11 0.595963 0.879290 0.277021
O O12 0.500000 0.000000 0.215754
O O13 0.551943 0.896205 0.000000
O O14 0.684085 0.860076 0.500000
O O15 0.733615 0.922631 0.748505
O O16 0.282396 0.520719 0.000000
#
# Coordination Sequence:
#
# PCOD8227294 Si02
#       6
#     8   8   8   8   8   8
#     4  10  22  41  66  94 121 160 210 263 312 367
#     4  10  21  40  67  94 122 163 212 259 311 369
#     4  11  25  42  60  89 130 170 207 257 322 380
#     4  10  22  42  67  94 125 165 213 261 309 368
#     4  12  25  40  62  95 132 167 203 254 321 381
#     4  11  23  42  68  93 122 163 216 265 308 368
#
# _framework density 19.768889000000001
#
# number of rings (size 3 to 8) (size 9 to 14) (size 15 to 20)
#    0.000    1.333    1.667    3.500    2.333    6.333 
#    0.000    1.667    0.000    0.000    0.000    0.000 
#    0.000    0.000    0.000    0.000    0.000    0.000 
#
# Total GULP energy -595533.166896 kJ/mol
# GULP energy per Si atom -12406.940977 kJ/mol
# Density = 1.972389 g / cm^3
# Si number density = 19.768889 Si / 1000 Ang^3
#
#
#
# Elastic Constant Matrix: (Units=GPa)
#
#
# Indices 1 2 3 4 5 6 
#
# 1 91.1079 37.5982 37.9483 0.0000 0.0000 0.0000
# 2 37.5982 112.6109 50.5729 0.0000 0.0000 0.0000
# 3 37.9483 50.5729 86.9301 0.0000 0.0000 0.0000
# 4 0.0000 0.0000 0.0000 6.2743 0.0000 0.0000
# 5 0.0000 0.0000 0.0000 0.0000 29.3874 0.0000
# 6 0.0000 0.0000 0.0000 0.0000 0.0000 37.7086
#
#
#
# Elastic Compliance Matrix: (Units=1/GPa)
#
#
# Indices 1 2 3 4 5 6 
#
# 1 0.013957 -0.002604 -0.004578 0.000000 0.000000 0.000000
# 2 -0.002604 0.012507 -0.006139 0.000000 0.000000 0.000000
# 3 -0.004578 -0.006139 0.017073 0.000000 0.000000 0.000000
# 4 0.000000 0.000000 0.000000 0.159380 0.000000 0.000000
# 5 0.000000 0.000000 0.000000 0.000000 0.034028 0.000000
# 6 0.000000 0.000000 0.000000 0.000000 0.000000 0.026519
#
#
# Mechanical properties :
#
#
# Convention : Reuss Voigt Hill
#
# Bulk Modulus (GPa) = 59.18864 60.32086 59.75475
# Shear Modulus (GPa) = 16.90682 25.64270 21.27476
#
# Velocity S-wave (km/s) = 2.92759 3.60547 3.28407
# Velocity P-wave (km/s) = 6.43685 6.92183 6.68374
#
# Compressibility (1/GPa) = 0.01689513
#
# Stress axis : x y z
#
# Youngs Moduli (GPa) = 71.64620 79.95749 58.57034
#
# Poissons Ratio (x) = 0.20822 0.26813
# Poissons Ratio (y) = 0.18658 0.35957
# Poissons Ratio (z) = 0.32799 0.49087
#
# Static dielectric constant tensor:
#      x y z
#    x 3.870700 0.000000 0.000000 
#    y 0.000000 3.806270 0.000000 
#    z 0.000000 0.000000 3.591190 
# 
# 
# High freq. dielectric constant tensor:
#      x y z
#    x 1.781260 0.000000 0.000000 
#    y 0.000000 1.789250 0.000000 
#    z 0.000000 0.000000 1.767740 
# 
# From -- ./inp_files/5653.got.cif
#   From: 2010.03.12/outbox.cif.g09.slc.cpg/sg55_3_cif.got.tgz:5653.got - 2010.04.16 15:19:21.
