data_PCOD8227564
_publ_section_title
;
Structure prediction by ZEFSAII (Michael W. Deem and Ramdas Pophale) SiO2 
 PCOD8227564
Probable space group: P B A M
;
_chemical_formula_sum "Si O2"
_cell_formula_units_Z 48
_cell_length_a 17.856566
_cell_length_b 8.511050
_cell_length_c 15.458570
_cell_angle_alpha 90.000000
_cell_angle_beta 90.000000
_cell_angle_gamma 90.000000
_cell_volume 2349.364500
_symmetry_space_group_name_H-M "P B A M"
_symmetry_group_IT_number 55
_symmetry_cell_setting 'orthorhombic'
loop_
_space_group_symop_operation_xyz
x,y,z
-x,-y,z
1/2+x,1/2-y,-z
1/2-x,1/2+y,-z
-x,-y,-z
x,y,-z
1/2-x,1/2+y,z
1/2+x,1/2-y,z
loop_
_atom_site_type_symbol
_atom_site_label
_atom_site_fract_x
_atom_site_fract_y
_atom_site_fract_z
Si Si1 0.160125 0.553961 0.000000
Si Si2 0.917656 0.064922 0.500000
Si Si3 0.583772 0.935909 0.500000
Si Si4 0.829516 0.563260 0.335001
Si Si5 0.336313 0.565728 0.333839
Si Si6 0.325083 0.422674 0.000000
Si Si7 0.581828 0.933910 0.174757
Si Si8 0.917048 0.060999 0.166626
O O1 0.239139 0.469213 0.000000
O O2 0.112492 0.503423 0.916625
O O3 0.173664 0.737193 0.000000
O O4 0.919561 0.250566 0.500000
O O5 0.876805 0.004378 0.584113
O O6 0.000000 0.000000 0.500000
O O7 0.627530 0.991400 0.584139
O O8 0.500000 0.000000 0.500000
O O9 0.744801 0.508847 0.330895
O O10 0.831427 0.748981 0.342823
O O11 0.865888 0.505154 0.247337
O O12 0.383470 0.524373 0.249394
O O13 0.366530 0.488566 0.915204
O O14 0.581944 0.746722 0.181452
O O15 0.500000 0.000000 0.189990
O O16 0.000000 0.000000 0.148479
#
# Coordination Sequence:
#
# PCOD8227564 Si02
#       8
#     4   4   4   8   8   4   8   8
#     4  10  23  40  62  90 124 162 207 256 309 366
#     4  12  25  44  67  94 126 164 206 254 307 366
#     4  12  25  44  67  94 126 164 206 254 307 366
#     4  12  25  43  65  93 126 164 206 255 308 367
#     4  12  25  43  65  93 126 164 206 255 308 367
#     4  10  23  40  62  90 124 162 207 256 309 366
#     4  11  23  41  63  92 125 164 208 256 309 367
#     4  11  23  41  63  92 125 164 208 256 309 367
#
# _framework density 20.431058
#
# number of rings (size 3 to 8) (size 9 to 14) (size 15 to 20)
#    0.000    0.667    0.000    8.500    0.000    5.333 
#    0.000    0.000    0.000    0.000    0.000    0.000 
#    0.000    0.000    0.000    0.000    0.000    0.000 
#
# Total GULP energy -595502.922805 kJ/mol
# GULP energy per Si atom -12406.310892 kJ/mol
# Density = 2.038456 g / cm^3
# Si number density = 20.431058 Si / 1000 Ang^3
#
#
#
# Elastic Constant Matrix: (Units=GPa)
#
#
# Indices 1 2 3 4 5 6 
#
# 1 113.5865 33.1515 23.2299 0.0000 0.0000 0.0000
# 2 33.1515 143.6537 40.2962 0.0000 0.0000 0.0000
# 3 23.2299 40.2962 131.0991 0.0000 0.0000 0.0000
# 4 0.0000 0.0000 0.0000 44.4869 0.0000 0.0000
# 5 0.0000 0.0000 0.0000 0.0000 49.3281 0.0000
# 6 0.0000 0.0000 0.0000 0.0000 0.0000 61.6493
#
#
#
# Elastic Compliance Matrix: (Units=1/GPa)
#
#
# Indices 1 2 3 4 5 6 
#
# 1 0.009586 -0.001900 -0.001115 0.000000 0.000000 0.000000
# 2 -0.001900 0.007994 -0.002121 0.000000 0.000000 0.000000
# 3 -0.001115 -0.002121 0.008477 0.000000 0.000000 0.000000
# 4 0.000000 0.000000 0.000000 0.022479 0.000000 0.000000
# 5 0.000000 0.000000 0.000000 0.000000 0.020272 0.000000
# 6 0.000000 0.000000 0.000000 0.000000 0.000000 0.016221
#
#
# Mechanical properties :
#
#
# Convention : Reuss Voigt Hill
#
# Bulk Modulus (GPa) = 63.33969 64.63274 63.98621
# Shear Modulus (GPa) = 49.72048 50.53696 50.12872
#
# Velocity S-wave (km/s) = 4.93848 4.97886 4.95871
# Velocity P-wave (km/s) = 7.97415 8.04707 8.01069
#
# Compressibility (1/GPa) = 0.01578789
#
# Stress axis : x y z
#
# Youngs Moduli (GPa) = 104.31605 125.08723 117.96376
#
# Poissons Ratio (x) = 0.23761 0.13150
# Poissons Ratio (y) = 0.19815 0.25016
# Poissons Ratio (z) = 0.11629 0.26527
#
# Static dielectric constant tensor:
#      x y z
#    x 3.883660 0.000000 0.000000 
#    y 0.000000 3.932620 0.000000 
#    z 0.000000 0.000000 4.083930 
# 
# 
# High freq. dielectric constant tensor:
#      x y z
#    x 1.822920 0.000000 0.000000 
#    y 0.000000 1.815730 0.000000 
#    z 0.000000 0.000000 1.823580 
# 
# From -- ./inp_files/19415.got.cif
#   From: 2010.03.12/outbox.cif.g09.slc.cpg/sg55_10_cif.got.tgz:19415.got - 2010.04.16 15:19:21.
