data_PCOD8227713
_publ_section_title
;
Structure prediction by ZEFSAII (Michael W. Deem and Ramdas Pophale) SiO2 
 PCOD8227713
Probable space group: P B A M
;
_chemical_formula_sum "Si O2"
_cell_formula_units_Z 48
_cell_length_a 9.684511
_cell_length_b 27.992112
_cell_length_c 8.510667
_cell_angle_alpha 90.000000
_cell_angle_beta 90.000000
_cell_angle_gamma 90.000000
_cell_volume 2307.156007
_symmetry_space_group_name_H-M "P B A M"
_symmetry_group_IT_number 55
_symmetry_cell_setting 'orthorhombic'
loop_
_space_group_symop_operation_xyz
x,y,z
-x,-y,z
1/2+x,1/2-y,-z
1/2-x,1/2+y,-z
-x,-y,-z
x,y,-z
1/2-x,1/2+y,z
1/2+x,1/2-y,z
loop_
_atom_site_type_symbol
_atom_site_label
_atom_site_fract_x
_atom_site_fract_y
_atom_site_fract_z
Si Si1 0.838611 0.206178 0.313272
Si Si2 0.349019 0.708234 0.686384
Si Si3 0.771056 0.603921 0.683386
Si Si4 0.275998 0.604006 0.318783
Si Si5 0.522412 0.945753 0.817356
Si Si6 0.975429 0.054100 0.181218
O O1 0.842646 0.209516 0.500000
O O2 0.743547 0.248788 0.244480
O O3 0.766800 0.157072 0.258866
O O4 0.994547 0.210076 0.244561
O O5 0.360721 0.711717 0.500000
O O6 0.270900 0.659359 0.733530
O O7 0.740663 0.598069 0.500000
O O8 0.683069 0.565965 0.782919
O O9 0.929458 0.591618 0.720143
O O10 0.234270 0.597897 0.500000
O O11 0.178896 0.570887 0.211884
O O12 0.432723 0.587414 0.292658
O O13 0.500000 0.000000 0.756866
O O14 0.485859 0.942480 0.000000
O O15 0.011673 0.063418 0.000000
O O16 0.000000 0.000000 0.229378
#
# Coordination Sequence:
#
# PCOD8227713 Si02
#       6
#     8   8   8   8   8   8
#     4   9  18  33  56  88 122 153 189 238 296 354
#     4   9  18  33  56  88 122 153 189 238 296 354
#     4  11  22  38  62  92 120 151 200 254 296 341
#     4  11  22  38  62  92 120 151 200 254 296 341
#     4  11  25  43  60  83 120 164 203 241 300 369
#     4  11  23  39  60  85 118 162 199 235 298 367
#
# _framework density 20.804834
#
# number of rings (size 3 to 8) (size 9 to 14) (size 15 to 20)
#    0.000    1.667    1.667    3.000    2.333    6.667 
#    0.000    0.000    0.000    6.000    0.000    0.000 
#    0.000    0.000    0.000    0.000    0.000    0.000 
#
# Total GULP energy -595382.727390 kJ/mol
# GULP energy per Si atom -12403.806821 kJ/mol
# Density = 2.075748 g / cm^3
# Si number density = 20.804834 Si / 1000 Ang^3
#
#
#
# Elastic Constant Matrix: (Units=GPa)
#
#
# Indices 1 2 3 4 5 6 
#
# 1 92.4847 36.1731 14.4255 0.0000 0.0000 0.0000
# 2 36.1731 124.4370 42.4480 0.0000 0.0000 0.0000
# 3 14.4255 42.4480 34.3938 0.0000 0.0000 0.0000
# 4 0.0000 0.0000 0.0000 3.4700 0.0000 0.0000
# 5 0.0000 0.0000 0.0000 0.0000 26.6888 0.0000
# 6 0.0000 0.0000 0.0000 0.0000 0.0000 45.6892
#
#
#
# Elastic Compliance Matrix: (Units=1/GPa)
#
#
# Indices 1 2 3 4 5 6 
#
# 1 0.012232 -0.003119 -0.001281 0.000000 0.000000 0.000000
# 2 -0.003119 0.014675 -0.016803 0.000000 0.000000 0.000000
# 3 -0.001281 -0.016803 0.050350 0.000000 0.000000 0.000000
# 4 0.000000 0.000000 0.000000 0.288182 0.000000 0.000000
# 5 0.000000 0.000000 0.000000 0.000000 0.037469 0.000000
# 6 0.000000 0.000000 0.000000 0.000000 0.000000 0.021887
#
#
# Mechanical properties :
#
#
# Convention : Reuss Voigt Hill
#
# Bulk Modulus (GPa) = 28.69364 48.60097 38.64731
# Shear Modulus (GPa) = 10.44237 25.72088 18.08162
#
# Velocity S-wave (km/s) = 2.24279 3.51991 2.95126
# Velocity P-wave (km/s) = 4.53085 6.31908 5.49815
#
# Compressibility (1/GPa) = 0.03485093
#
# Stress axis : x y z
#
# Youngs Moduli (GPa) = 81.75084 68.14463 19.86083
#
# Poissons Ratio (x) = 0.21253 0.02545
# Poissons Ratio (y) = 0.25496 0.33372
# Poissons Ratio (z) = 0.10475 1.14504
#
# Static dielectric constant tensor:
#      x y z
#    x 3.792910 0.000000 0.000000 
#    y 0.000000 3.928970 0.000000 
#    z 0.000000 0.000000 3.271970 
# 
# 
# High freq. dielectric constant tensor:
#      x y z
#    x 1.824040 0.000000 0.000000 
#    y 0.000000 1.826000 0.000000 
#    z 0.000000 0.000000 1.778950 
# 
# From -- ./inp_files/2816.got.cif
#   From: 2010.03.12/outbox.cif.g09.slc.cpg/sg55_2_cif.got.tgz:2816.got - 2010.04.16 15:19:21.
