data_PCOD8227182
_publ_section_title
;
Structure prediction by ZEFSAII (Michael W. Deem and Ramdas Pophale) SiO2 
 PCOD8227182
Probable space group: P B A M
;
_chemical_formula_sum "Si O2"
_cell_formula_units_Z 48
_cell_length_a 11.593864
_cell_length_b 23.569022
_cell_length_c 9.020303
_cell_angle_alpha 90.000000
_cell_angle_beta 90.000000
_cell_angle_gamma 90.000000
_cell_volume 2464.852238
_symmetry_space_group_name_H-M "P B A M"
_symmetry_group_IT_number 55
_symmetry_cell_setting 'orthorhombic'
loop_
_space_group_symop_operation_xyz
x,y,z
-x,-y,z
1/2+x,1/2-y,-z
1/2-x,1/2+y,-z
-x,-y,-z
x,y,-z
1/2-x,1/2+y,z
1/2+x,1/2-y,z
loop_
_atom_site_type_symbol
_atom_site_label
_atom_site_fract_x
_atom_site_fract_y
_atom_site_fract_z
Si Si1 0.323946 0.206182 0.672276
Si Si2 0.753012 0.965815 0.671588
Si Si3 0.210793 0.421029 0.172504
Si Si4 0.880412 0.179643 0.170155
Si Si5 0.134535 0.137332 0.827676
Si Si6 0.977300 0.400260 0.331733
O O1 0.291432 0.207525 0.500000
O O2 0.367675 0.266904 0.723734
O O3 0.209336 0.188449 0.759975
O O4 0.425996 0.161605 0.702613
O O5 0.786875 0.966586 0.500000
O O6 0.838406 0.922414 0.751553
O O7 0.620473 0.947441 0.693939
O O8 0.770371 0.027761 0.739564
O O9 0.279864 0.364170 0.210434
O O10 0.079011 0.412199 0.218372
O O11 0.216212 0.435836 0.000000
O O12 0.001505 0.149939 0.201868
O O13 0.871624 0.199777 0.000000
O O14 0.164164 0.132550 0.000000
O O15 0.024389 0.403738 0.500000
#
# Coordination Sequence:
#
# PCOD8227182 Si02
#       6
#     8   8   8   8   8   8
#     4  10  22  39  61  87 117 151 193 244 295 348
#     4  10  21  39  61  86 118 153 193 241 294 347
#     4  11  23  37  57  87 119 153 196 240 288 344
#     4  10  24  41  57  84 119 157 196 240 290 346
#     4  10  21  40  63  84 114 154 196 239 289 348
#     4   9  20  38  58  85 117 151 189 239 295 344
#
# _framework density 19.473784999999999
#
# number of rings (size 3 to 8) (size 9 to 14) (size 15 to 20)
#    0.000    2.000    0.000    3.500    2.333    9.333 
#    0.000    3.333    0.000    0.000    0.000    0.000 
#    0.000    0.000    0.000    0.000    0.000    0.000 
#
# Total GULP energy -595478.499427 kJ/mol
# GULP energy per Si atom -12405.802071 kJ/mol
# Density = 1.942946 g / cm^3
# Si number density = 19.473785 Si / 1000 Ang^3
#
#
#
# Elastic Constant Matrix: (Units=GPa)
#
#
# Indices 1 2 3 4 5 6 
#
# 1 40.2900 6.6725 25.4871 0.0000 0.0000 0.0000
# 2 6.6725 91.7063 47.5160 0.0000 0.0000 0.0000
# 3 25.4871 47.5160 106.7884 0.0000 0.0000 0.0000
# 4 0.0000 0.0000 0.0000 40.9428 0.0000 0.0000
# 5 0.0000 0.0000 0.0000 0.0000 12.7797 0.0000
# 6 0.0000 0.0000 0.0000 0.0000 0.0000 13.8742
#
#
#
# Elastic Compliance Matrix: (Units=1/GPa)
#
#
# Indices 1 2 3 4 5 6 
#
# 1 0.029500 0.001952 -0.007909 0.000000 0.000000 0.000000
# 2 0.001952 0.014301 -0.006829 0.000000 0.000000 0.000000
# 3 -0.007909 -0.006829 0.014291 0.000000 0.000000 0.000000
# 4 0.000000 0.000000 0.000000 0.024424 0.000000 0.000000
# 5 0.000000 0.000000 0.000000 0.000000 0.078249 0.000000
# 6 0.000000 0.000000 0.000000 0.000000 0.000000 0.072076
#
#
# Mechanical properties :
#
#
# Convention : Reuss Voigt Hill
#
# Bulk Modulus (GPa) = 30.75191 44.23732 37.49462
# Shear Modulus (GPa) = 18.56987 24.12660 21.34823
#
# Velocity S-wave (km/s) = 3.09136 3.52366 3.31457
# Velocity P-wave (km/s) = 5.34488 6.27061 5.82616
#
# Compressibility (1/GPa) = 0.03251830
#
# Stress axis : x y z
#
# Youngs Moduli (GPa) = 33.89825 69.92681 69.97648
#
# Poissons Ratio (x) = -0.13646 0.55345
# Poissons Ratio (y) = -0.06615 0.47786
# Poissons Ratio (z) = 0.26810 0.47752
#
# Static dielectric constant tensor:
#      x y z
#    x 3.448380 0.000000 0.000000 
#    y 0.000000 3.625490 0.000000 
#    z 0.000000 0.000000 3.636600 
# 
# 
# High freq. dielectric constant tensor:
#      x y z
#    x 1.754130 0.000000 0.000000 
#    y 0.000000 1.767750 0.000000 
#    z 0.000000 0.000000 1.768750 
# 
# From -- ./inp_files/4092.got.cif
#   From: 2010.03.12/outbox.cif.g09.slc.cpg/sg55_3_cif.got.tgz:4092.got - 2010.04.16 15:19:21.
