data_PCOD8227066
_publ_section_title
;
Structure prediction by ZEFSAII (Michael W. Deem and Ramdas Pophale) SiO2 
 PCOD8227066
Probable space group: P B A M
;
_chemical_formula_sum "Si O2"
_cell_formula_units_Z 40
_cell_length_a 7.638360
_cell_length_b 29.808510
_cell_length_c 8.861418
_cell_angle_alpha 90.000000
_cell_angle_beta 90.000000
_cell_angle_gamma 90.000000
_cell_volume 2017.639697
_symmetry_space_group_name_H-M "P B A M"
_symmetry_group_IT_number 55
_symmetry_cell_setting 'orthorhombic'
loop_
_space_group_symop_operation_xyz
x,y,z
-x,-y,z
1/2+x,1/2-y,-z
1/2-x,1/2+y,-z
-x,-y,-z
x,y,-z
1/2-x,1/2+y,z
1/2+x,1/2-y,z
loop_
_atom_site_type_symbol
_atom_site_label
_atom_site_fract_x
_atom_site_fract_y
_atom_site_fract_z
Si Si1 0.485114 0.948281 0.675389
Si Si2 0.199310 0.795192 0.165325
Si Si3 0.708865 0.298926 0.832548
Si Si4 0.812705 0.888321 0.323287
Si Si5 0.187335 0.891383 0.819885
O O1 0.442241 0.941258 0.500000
O O2 0.669130 0.925577 0.718801
O O3 0.323477 0.928774 0.769245
O O4 0.500000 0.000000 0.719306
O O5 0.242539 0.748503 0.251591
O O6 0.261129 0.842408 0.239845
O O7 0.995461 0.801864 0.148950
O O8 0.287814 0.789891 0.000000
O O9 0.768998 0.340862 0.731929
O O10 0.797458 0.301801 0.000000
O O11 0.848380 0.885311 0.500000
O O12 0.994738 0.902041 0.244796
O O13 0.171881 0.890162 0.000000
#
# Coordination Sequence:
#
# PCOD8227066 Si02
#       5
#     8   8   8   8   8
#     4  10  23  42  62  84 113 154 198 239 294 355
#     4   8  16  29  49  77 107 144 185 225 274 332
#     4   9  17  31  51  77 109 147 191 230 273 333
#     4  10  21  38  58  82 116 153 190 235 288 346
#     4  10  21  38  61  87 116 150 191 241 290 341
#
# _framework density 19.825144000000002
#
# number of rings (size 3 to 8) (size 9 to 14) (size 15 to 20)
#    0.000    2.600    0.000    2.400    2.800    2.800 
#    0.000    9.000    0.000    0.000    0.000    0.000 
#    0.000    0.000    0.000    0.000    0.000    0.000 
#
# Total GULP energy -495616.965151 kJ/mol
# GULP energy per Si atom -12390.424129 kJ/mol
# Density = 1.978002 g / cm^3
# Si number density = 19.825144 Si / 1000 Ang^3
#
#
#
# Elastic Constant Matrix: (Units=GPa)
#
#
# Indices 1 2 3 4 5 6 
#
# 1 92.8880 75.9250 44.4263 0.0000 0.0000 0.0000
# 2 75.9250 183.3011 46.8021 0.0000 0.0000 0.0000
# 3 44.4263 46.8021 54.6608 0.0000 0.0000 0.0000
# 4 0.0000 0.0000 0.0000 56.6324 0.0000 0.0000
# 5 0.0000 0.0000 0.0000 0.0000 23.6961 0.0000
# 6 0.0000 0.0000 0.0000 0.0000 0.0000 34.7834
#
#
#
# Elastic Compliance Matrix: (Units=1/GPa)
#
#
# Indices 1 2 3 4 5 6 
#
# 1 0.021387 -0.005657 -0.012538 0.000000 0.000000 0.000000
# 2 -0.005657 0.008478 -0.002661 0.000000 0.000000 0.000000
# 3 -0.012538 -0.002661 0.030764 0.000000 0.000000 0.000000
# 4 0.000000 0.000000 0.000000 0.017658 0.000000 0.000000
# 5 0.000000 0.000000 0.000000 0.000000 0.042201 0.000000
# 6 0.000000 0.000000 0.000000 0.000000 0.000000 0.028749
#
#
# Mechanical properties :
#
#
# Convention : Reuss Voigt Hill
#
# Bulk Modulus (GPa) = 52.86784 73.90629 63.38706
# Shear Modulus (GPa) = 25.34772 33.93545 29.64159
#
# Velocity S-wave (km/s) = 3.57958 4.14180 3.87091
# Velocity P-wave (km/s) = 6.61887 7.76097 7.21257
#
# Compressibility (1/GPa) = 0.01891509
#
# Stress axis : x y z
#
# Youngs Moduli (GPa) = 46.75845 117.94869 32.50518
#
# Poissons Ratio (x) = 0.66724 0.40757
# Poissons Ratio (y) = 0.26451 0.08651
# Poissons Ratio (z) = 0.58628 0.31392
#
# Static dielectric constant tensor:
#      x y z
#    x 3.443510 0.000000 0.000000 
#    y 0.000000 4.087520 0.000000 
#    z 0.000000 0.000000 3.485080 
# 
# 
# High freq. dielectric constant tensor:
#      x y z
#    x 1.770420 0.000000 0.000000 
#    y 0.000000 1.787620 0.000000 
#    z 0.000000 0.000000 1.740700 
# 
# From -- ./inp_files/2504.got.cif
#   From: 2010.03.12/outbox.cif.g09.slc.cpg/sg55_2_cif.got.tgz:2504.got - 2010.04.16 15:19:21.
