data_PCOD8227937
_publ_section_title
;
Structure prediction by ZEFSAII (Michael W. Deem and Ramdas Pophale) SiO2 
 PCOD8227937
Probable space group: P C C N
;
_chemical_formula_sum "Si O2"
_cell_formula_units_Z 64
_cell_length_a 11.133206
_cell_length_b 16.860509
_cell_length_c 18.860539
_cell_angle_alpha 90.000000
_cell_angle_beta 90.000000
_cell_angle_gamma 90.000000
_cell_volume 3540.340443
_symmetry_space_group_name_H-M "P C C N"
_symmetry_group_IT_number 56
_symmetry_cell_setting 'orthorhombic'
loop_
_space_group_symop_operation_xyz
x,y,z
1/2-x,1/2-y,z
1/2+x,-y,1/2-z
-x,1/2+y,1/2-z
-x,-y,-z
1/2+x,1/2+y,-z
1/2-x,y,1/2+z
x,1/2-y,1/2+z
loop_
_atom_site_type_symbol
_atom_site_label
_atom_site_fract_x
_atom_site_fract_y
_atom_site_fract_z
Si Si1 0.662487 0.527572 0.927670
Si Si2 0.205898 0.162973 0.179622
Si Si3 0.962500 0.312783 0.755706
Si Si4 0.411913 0.859597 0.750759
Si Si5 0.731794 0.164454 0.635134
Si Si6 0.298094 0.915820 0.169050
Si Si7 0.859013 0.555885 0.730131
Si Si8 0.880159 0.491300 0.583152
O O1 0.702793 0.610150 0.891792
O O2 0.760176 0.459850 0.903954
O O3 0.524398 0.507990 0.908636
O O4 0.667910 0.534087 0.012551
O O5 0.250000 0.250000 0.156111
O O6 0.299548 0.134467 0.238518
O O7 0.079175 0.152354 0.218459
O O8 0.985355 0.220191 0.769005
O O9 0.852531 0.321192 0.702161
O O10 0.921423 0.362371 0.827488
O O11 0.359765 0.862034 0.831206
O O12 0.312892 0.860513 0.689348
O O13 0.498531 0.935475 0.743201
O O14 0.750000 0.250000 0.595052
O O15 0.673845 0.098508 0.583703
O O16 0.307781 0.979736 0.231314
O O17 0.828471 0.543655 0.647443
#
# Coordination Sequence:
#
# PCOD8227937 Si02
#       8
#     8   8   8   8   8   8   8   8
#     4  10  22  34  56  80 114 151 185 222 287 337
#     4  11  21  36  56  84 108 147 188 232 279 339
#     4  10  18  33  54  82 110 136 185 232 287 322
#     4  10  18  31  51  85 104 138 178 231 291 312
#     4   9  18  32  56  80 108 143 181 239 276 330
#     4  10  19  32  54  80 108 138 180 238 276 330
#     4  11  20  31  56  82 107 137 186 233 273 331
#     4  11  19  36  55  82 114 147 189 230 273 348
#
# _framework density 18.077358
#
# number of rings (size 3 to 8) (size 9 to 14) (size 15 to 20)
#    0.000    1.750    6.250    1.125    1.750    0.000 
#    0.000    1.875    0.000    6.750    0.000    0.000 
#    0.000    0.000    0.000    0.000    0.000    0.000 
#
# Total GULP energy -792888.933285 kJ/mol
# GULP energy per Si atom -12388.889583 kJ/mol
# Density = 1.803621 g / cm^3
# Si number density = 18.077358 Si / 1000 Ang^3
#
#
#
# Elastic Constant Matrix: (Units=GPa)
#
#
# Indices 1 2 3 4 5 6 
#
# 1 61.7136 23.6773 28.2602 0.0000 0.0000 0.0000
# 2 23.6773 82.7572 38.6842 0.0000 0.0000 0.0000
# 3 28.2602 38.6842 99.8099 0.0000 0.0000 0.0000
# 4 0.0000 0.0000 0.0000 17.8592 0.0000 0.0000
# 5 0.0000 0.0000 0.0000 0.0000 20.9329 0.0000
# 6 0.0000 0.0000 0.0000 0.0000 0.0000 18.3655
#
#
#
# Elastic Compliance Matrix: (Units=1/GPa)
#
#
# Indices 1 2 3 4 5 6 
#
# 1 0.019485 -0.003659 -0.004099 0.000000 0.000000 0.000000
# 2 -0.003659 0.015444 -0.004950 0.000000 0.000000 0.000000
# 3 -0.004099 -0.004950 0.013098 0.000000 0.000000 0.000000
# 4 0.000000 0.000000 0.000000 0.055994 0.000000 0.000000
# 5 0.000000 0.000000 0.000000 0.000000 0.047772 0.000000
# 6 0.000000 0.000000 0.000000 0.000000 0.000000 0.054450
#
#
# Mechanical properties :
#
#
# Convention : Reuss Voigt Hill
#
# Bulk Modulus (GPa) = 44.22447 47.28046 45.75246
# Shear Modulus (GPa) = 20.90353 21.67545 21.28949
#
# Velocity S-wave (km/s) = 3.40419 3.46647 3.43547
# Velocity P-wave (km/s) = 6.32206 6.49871 6.41099
#
# Compressibility (1/GPa) = 0.02261192
#
# Stress axis : x y z
#
# Youngs Moduli (GPa) = 51.32277 64.74970 76.34715
#
# Poissons Ratio (x) = 0.23690 0.31294
# Poissons Ratio (y) = 0.18777 0.37791
# Poissons Ratio (z) = 0.21036 0.32050
#
# Static dielectric constant tensor:
#      x y z
#    x 3.601890 0.000000 0.000000 
#    y 0.000000 3.663310 0.000000 
#    z 0.000000 0.000000 3.054360 
# 
# 
# High freq. dielectric constant tensor:
#      x y z
#    x 1.701830 0.000000 0.000000 
#    y 0.000000 1.709150 0.000000 
#    z 0.000000 0.000000 1.654260 
# 
# From -- ./inp_files/15816.got.cif
#   From: 2010.03.12/outbox.cif.g09.slc.cpg/sg56_8_cif.got.tgz:15816.got - 2010.04.16 15:33:40.
