data_PCOD8227358
_publ_section_title
;
Structure prediction by ZEFSAII (Michael W. Deem and Ramdas Pophale) SiO2 
 PCOD8227358
Probable space group: P B A M
;
_chemical_formula_sum "Si O2"
_cell_formula_units_Z 64
_cell_length_a 10.868015
_cell_length_b 32.399356
_cell_length_c 9.094660
_cell_angle_alpha 90.000000
_cell_angle_beta 90.000000
_cell_angle_gamma 90.000000
_cell_volume 3202.381549
_symmetry_space_group_name_H-M "P B A M"
_symmetry_group_IT_number 55
_symmetry_cell_setting 'orthorhombic'
loop_
_space_group_symop_operation_xyz
x,y,z
-x,-y,z
1/2+x,1/2-y,-z
1/2-x,1/2+y,-z
-x,-y,-z
x,y,-z
1/2-x,1/2+y,z
1/2+x,1/2-y,z
loop_
_atom_site_type_symbol
_atom_site_label
_atom_site_fract_x
_atom_site_fract_y
_atom_site_fract_z
Si Si1 0.753196 0.679180 0.835483
Si Si2 0.393754 0.885291 0.671881
Si Si3 0.881320 0.528209 0.825062
Si Si4 0.726008 0.269626 0.826074
Si Si5 0.858404 0.989451 0.325653
Si Si6 0.848336 0.896420 0.328568
Si Si7 0.974157 0.832461 0.162315
Si Si8 0.634809 0.835169 0.670056
O O1 0.776912 0.640238 0.729820
O O2 0.798068 0.723026 0.768578
O O3 0.608640 0.685280 0.843336
O O4 0.806515 0.670832 0.000000
O O5 0.381430 0.896226 0.500000
O O6 0.413430 0.926849 0.762729
O O7 0.502213 0.853254 0.705736
O O8 0.749555 0.515104 0.755156
O O9 0.000000 0.500000 0.781869
O O10 0.864629 0.529734 0.000000
O O11 0.609786 0.296102 0.770751
O O12 0.846000 0.292447 0.758283
O O13 0.744185 0.267659 0.000000
O O14 0.841752 0.996231 0.500000
O O15 0.834580 0.942912 0.272695
O O16 0.000000 0.000000 0.279404
O O17 0.871305 0.897051 0.500000
O O18 0.966742 0.874354 0.257224
O O19 0.728832 0.870940 0.279311
O O20 0.925149 0.843465 0.000000
O O21 0.652957 0.825075 0.500000
#
# Coordination Sequence:
#
# PCOD8227358 Si02
#       8
#     8   8   8   8   8   8   8   8
#     4  10  22  37  56  83 117 154 194 243 294 349
#     4  11  24  40  61  88 120 157 198 245 301 358
#     4  11  25  44  66  94 126 161 204 255 312 372
#     4   9  19  35  58  83 111 152 196 238 288 347
#     4  10  22  39  62  92 124 161 204 249 302 367
#     4   9  18  35  58  82 112 149 189 235 286 344
#     4   9  19  35  54  81 113 148 190 235 288 346
#     4   9  19  36  57  83 113 149 194 242 289 341
#
# _framework density 19.985125
#
# number of rings (size 3 to 8) (size 9 to 14) (size 15 to 20)
#    0.000    2.250    0.000    1.500    3.500    4.750 
#    0.000    2.500    0.000    0.000    0.000    0.000 
#    0.000    0.000    0.000    0.000    0.000    0.000 
#
# Total GULP energy -793292.215421 kJ/mol
# GULP energy per Si atom -12395.190866 kJ/mol
# Density = 1.993964 g / cm^3
# Si number density = 19.985125 Si / 1000 Ang^3
#
#
#
# Elastic Constant Matrix: (Units=GPa)
#
#
# Indices 1 2 3 4 5 6 
#
# 1 80.8306 23.9583 31.1312 0.0000 0.0000 0.0000
# 2 23.9583 117.6445 42.5020 0.0000 0.0000 0.0000
# 3 31.1312 42.5020 52.9581 0.0000 0.0000 0.0000
# 4 0.0000 0.0000 0.0000 31.8100 0.0000 0.0000
# 5 0.0000 0.0000 0.0000 0.0000 29.6937 0.0000
# 6 0.0000 0.0000 0.0000 0.0000 0.0000 25.6269
#
#
#
# Elastic Compliance Matrix: (Units=1/GPa)
#
#
# Indices 1 2 3 4 5 6 
#
# 1 0.015995 0.000197 -0.009561 0.000000 0.000000 0.000000
# 2 0.000197 0.011974 -0.009725 0.000000 0.000000 0.000000
# 3 -0.009561 -0.009725 0.032308 0.000000 0.000000 0.000000
# 4 0.000000 0.000000 0.000000 0.031437 0.000000 0.000000
# 5 0.000000 0.000000 0.000000 0.000000 0.033677 0.000000
# 6 0.000000 0.000000 0.000000 0.000000 0.000000 0.039021
#
#
# Mechanical properties :
#
#
# Convention : Reuss Voigt Hill
#
# Bulk Modulus (GPa) = 45.25139 49.62404 47.43772
# Shear Modulus (GPa) = 23.81442 27.68222 25.74832
#
# Velocity S-wave (km/s) = 3.45571 3.72579 3.59329
# Velocity P-wave (km/s) = 6.21404 6.58734 6.40341
#
# Compressibility (1/GPa) = 0.02209877
#
# Stress axis : x y z
#
# Youngs Moduli (GPa) = 62.51767 83.51720 30.95217
#
# Poissons Ratio (x) = -0.01641 0.29592
# Poissons Ratio (y) = -0.01229 0.30101
# Poissons Ratio (z) = 0.59771 0.81221
#
# Static dielectric constant tensor:
#      x y z
#    x 3.647620 0.000000 0.000000 
#    y 0.000000 3.798420 0.000000 
#    z 0.000000 0.000000 3.578790 
# 
# 
# High freq. dielectric constant tensor:
#      x y z
#    x 1.779420 0.000000 0.000000 
#    y 0.000000 1.790210 0.000000 
#    z 0.000000 0.000000 1.769170 
# 
# From -- ./inp_files/4629.got.cif
#   From: 2010.03.12/outbox.cif.g09.slc.cpg/sg55_3_cif.got.tgz:4629.got - 2010.04.16 15:19:21.
