data_PCOD8227919
_publ_section_title
;
Structure prediction by ZEFSAII (Michael W. Deem and Ramdas Pophale) SiO2 
 PCOD8227919
Probable space group: P C C N
;
_chemical_formula_sum "Si O2"
_cell_formula_units_Z 52
_cell_length_a 19.658408
_cell_length_b 14.584272
_cell_length_c 9.769153
_cell_angle_alpha 90.000000
_cell_angle_beta 90.000000
_cell_angle_gamma 90.000000
_cell_volume 2800.851035
_symmetry_space_group_name_H-M "P C C N"
_symmetry_group_IT_number 56
_symmetry_cell_setting 'orthorhombic'
loop_
_space_group_symop_operation_xyz
x,y,z
1/2-x,1/2-y,z
1/2+x,-y,1/2-z
-x,1/2+y,1/2-z
-x,-y,-z
1/2+x,1/2+y,-z
1/2-x,y,1/2+z
x,1/2-y,1/2+z
loop_
_atom_site_type_symbol
_atom_site_label
_atom_site_fract_x
_atom_site_fract_y
_atom_site_fract_z
Si Si1 0.050241 0.763394 0.730787
Si Si2 0.001360 0.150013 0.013273
Si Si3 0.135579 0.568001 0.159574
Si Si4 0.636214 0.380330 0.627911
Si Si5 0.102712 0.005976 0.936470
Si Si6 0.791751 0.428024 0.378921
Si Si7 0.750000 0.250000 0.004345
O O1 0.116077 0.827683 0.702030
O O2 0.072410 0.675286 0.816854
O O3 0.013982 0.733829 0.590201
O O4 0.996630 0.815803 0.829456
O O5 0.942858 0.073638 0.995224
O O6 0.074355 0.105590 0.977338
O O7 0.102180 0.499295 0.269826
O O8 0.215239 0.547025 0.158739
O O9 0.111068 0.558008 0.001580
O O10 0.662324 0.448367 0.745918
O O11 0.699040 0.312836 0.591485
O O12 0.178843 0.990080 0.996301
O O13 0.796434 0.319339 0.415105
#
# Coordination Sequence:
#
# PCOD8227919 Si02
#       7
#     8   8   8   8   8   8   4
#     4  11  18  34  50  79  99 143 184 223 258 312
#     4  10  21  36  56  71 111 146 185 225 261 329
#     4  10  20  30  48  76 109 139 178 214 269 323
#     4  11  17  26  43  71 103 136 173 213 243 307
#     4  10  21  37  49  77 113 152 174 215 285 317
#     4  11  19  29  48  75 111 144 175 211 264 322
#     4  10  18  26  42  76 108 146 168 208 252 318
#
# _framework density 18.565785999999999
#
# number of rings (size 3 to 8) (size 9 to 14) (size 15 to 20)
#    0.000    1.538    3.077    6.923    0.000    0.000 
#    0.000    2.308    0.000    0.000    0.000    3.231 
#    0.000    0.000    0.000    0.000    0.000    0.000 
#
# Total GULP energy -644429.353218 kJ/mol
# GULP energy per Si atom -12392.872177 kJ/mol
# Density = 1.852353 g / cm^3
# Si number density = 18.565786 Si / 1000 Ang^3
#
#
#
# Elastic Constant Matrix: (Units=GPa)
#
#
# Indices 1 2 3 4 5 6 
#
# 1 55.9630 24.1129 15.5771 0.0000 0.0000 0.0000
# 2 24.1129 26.8446 13.9047 0.0000 0.0000 0.0000
# 3 15.5771 13.9047 105.5264 0.0000 0.0000 0.0000
# 4 0.0000 0.0000 0.0000 14.9656 0.0000 0.0000
# 5 0.0000 0.0000 0.0000 0.0000 22.8411 0.0000
# 6 0.0000 0.0000 0.0000 0.0000 0.0000 21.5350
#
#
#
# Elastic Compliance Matrix: (Units=1/GPa)
#
#
# Indices 1 2 3 4 5 6 
#
# 1 0.029234 -0.025784 -0.000918 0.000000 0.000000 0.000000
# 2 -0.025784 0.062721 -0.004458 0.000000 0.000000 0.000000
# 3 -0.000918 -0.004458 0.010199 0.000000 0.000000 0.000000
# 4 0.000000 0.000000 0.000000 0.066820 0.000000 0.000000
# 5 0.000000 0.000000 0.000000 0.000000 0.043781 0.000000
# 6 0.000000 0.000000 0.000000 0.000000 0.000000 0.046436
#
#
# Mechanical properties :
#
#
# Convention : Reuss Voigt Hill
#
# Bulk Modulus (GPa) = 25.10420 32.83595 28.97007
# Shear Modulus (GPa) = 14.93479 20.85097 17.89288
#
# Velocity S-wave (km/s) = 2.83932 3.35488 3.10781
# Velocity P-wave (km/s) = 4.92951 5.72116 5.34002
#
# Compressibility (1/GPa) = 0.03983398
#
# Stress axis : x y z
#
# Youngs Moduli (GPa) = 34.20681 15.94366 98.04636
#
# Poissons Ratio (x) = 0.41109 0.09000
# Poissons Ratio (y) = 0.88198 0.43713
# Poissons Ratio (z) = 0.03140 0.07108
#
# Static dielectric constant tensor:
#      x y z
#    x 3.138400 0.000000 0.000000 
#    y 0.000000 2.926500 0.000000 
#    z 0.000000 0.000000 3.832010 
# 
# 
# High freq. dielectric constant tensor:
#      x y z
#    x 1.689470 0.000000 0.000000 
#    y 0.000000 1.649700 0.000000 
#    z 0.000000 0.000000 1.748590 
# 
# From -- ./inp_files/3529.got.cif
#   From: 2010.03.12/outbox.cif.g09.slc.cpg/sg56_2_cif.got.tgz:3529.got - 2010.04.16 15:33:40.
