data_PCOD8227756
_publ_section_title
;
Structure prediction by ZEFSAII (Michael W. Deem and Ramdas Pophale) SiO2 
 PCOD8227756
Probable space group: P B A M
;
_chemical_formula_sum "Si O2"
_cell_formula_units_Z 40
_cell_length_a 14.978930
_cell_length_b 14.853180
_cell_length_c 8.379807
_cell_angle_alpha 90.000000
_cell_angle_beta 90.000000
_cell_angle_gamma 90.000000
_cell_volume 1864.379211
_symmetry_space_group_name_H-M "P B A M"
_symmetry_group_IT_number 55
_symmetry_cell_setting 'orthorhombic'
loop_
_space_group_symop_operation_xyz
x,y,z
-x,-y,z
1/2+x,1/2-y,-z
1/2-x,1/2+y,-z
-x,-y,-z
x,y,-z
1/2-x,1/2+y,z
1/2+x,1/2-y,z
loop_
_atom_site_type_symbol
_atom_site_label
_atom_site_fract_x
_atom_site_fract_y
_atom_site_fract_z
Si Si1 0.363098 0.335870 0.187890
Si Si2 0.929364 0.573371 0.815954
Si Si3 0.751649 0.509439 0.314940
Si Si4 0.224367 0.182433 0.813437
Si Si5 0.460761 0.740103 0.316122
O O1 0.328785 0.433987 0.238863
O O2 0.294367 0.258150 0.244932
O O3 0.457806 0.325219 0.273887
O O4 0.377235 0.331789 0.000000
O O5 0.841793 0.566351 0.707745
O O6 0.971831 0.671150 0.791638
O O7 0.000000 0.500000 0.758373
O O8 0.902685 0.559435 0.000000
O O9 0.732666 0.492267 0.500000
O O10 0.764587 0.415341 0.223443
O O11 0.132031 0.190439 0.718844
O O12 0.205335 0.194407 0.000000
O O13 0.464980 0.767605 0.500000
#
# Coordination Sequence:
#
# PCOD8227756 Si02
#       5
#     8   8   8   8   8
#     4  11  24  44  69  95 131 177 225 271 329 402
#     4  11  23  41  65  95 131 174 225 270 325 397
#     4  12  25  41  66  98 134 171 218 277 337 390
#     4  11  24  44  69  95 131 177 225 271 329 402
#     4  12  25  41  66  98 134 171 218 277 337 390
#
# _framework density 21.454864000000001
#
# number of rings (size 3 to 8) (size 9 to 14) (size 15 to 20)
#    0.000    0.600    2.000    6.600    0.000    9.600 
#    0.000    4.000    0.000    0.000    0.000    0.000 
#    0.000    0.000    0.000    0.000    0.000    0.000 
#
# Total GULP energy -496391.324320 kJ/mol
# GULP energy per Si atom -12409.783108 kJ/mol
# Density = 2.140603 g / cm^3
# Si number density = 21.454864 Si / 1000 Ang^3
#
#
#
# Elastic Constant Matrix: (Units=GPa)
#
#
# Indices 1 2 3 4 5 6 
#
# 1 89.4707 -13.6762 32.8571 0.0000 0.0000 0.0000
# 2 -13.6762 59.1466 13.4232 0.0000 0.0000 0.0000
# 3 32.8571 13.4232 77.5343 0.0000 0.0000 0.0000
# 4 0.0000 0.0000 0.0000 30.3005 0.0000 0.0000
# 5 0.0000 0.0000 0.0000 0.0000 22.5205 0.0000
# 6 0.0000 0.0000 0.0000 0.0000 0.0000 33.9342
#
#
#
# Elastic Compliance Matrix: (Units=1/GPa)
#
#
# Indices 1 2 3 4 5 6 
#
# 1 0.014504 0.004943 -0.007002 0.000000 0.000000 0.000000
# 2 0.004943 0.019283 -0.005433 0.000000 0.000000 0.000000
# 3 -0.007002 -0.005433 0.016805 0.000000 0.000000 0.000000
# 4 0.000000 0.000000 0.000000 0.033003 0.000000 0.000000
# 5 0.000000 0.000000 0.000000 0.000000 0.044404 0.000000
# 6 0.000000 0.000000 0.000000 0.000000 0.000000 0.029469
#
#
# Mechanical properties :
#
#
# Convention : Reuss Voigt Hill
#
# Bulk Modulus (GPa) = 28.08389 32.37331 30.22860
# Shear Modulus (GPa) = 27.12650 30.25422 28.69036
#
# Velocity S-wave (km/s) = 3.55963 3.75925 3.66080
# Velocity P-wave (km/s) = 5.47839 5.82790 5.65585
#
# Compressibility (1/GPa) = 0.03560761
#
# Stress axis : x y z
#
# Youngs Moduli (GPa) = 68.94741 51.85906 59.50460
#
# Poissons Ratio (x) = -0.25633 0.41666
# Poissons Ratio (y) = -0.34079 0.32329
# Poissons Ratio (z) = 0.48277 0.28175
#
# Static dielectric constant tensor:
#      x y z
#    x 3.842750 0.000000 0.000000 
#    y 0.000000 3.873820 0.000000 
#    z 0.000000 0.000000 3.760010 
# 
# 
# High freq. dielectric constant tensor:
#      x y z
#    x 1.847940 0.000000 0.000000 
#    y 0.000000 1.847980 0.000000 
#    z 0.000000 0.000000 1.847830 
# 
# From -- ./inp_files/5203.got.cif
#   From: 2010.03.12/outbox.cif.g09.slc.cpg/sg55_3_cif.got.tgz:5203.got - 2010.04.16 15:19:21.
