data_PCOD8227111
_publ_section_title
;
Structure prediction by ZEFSAII (Michael W. Deem and Ramdas Pophale) SiO2 
 PCOD8227111
Probable space group: P B A M
;
_chemical_formula_sum "Si O2"
_cell_formula_units_Z 48
_cell_length_a 22.367483
_cell_length_b 11.693665
_cell_length_c 9.264283
_cell_angle_alpha 90.000000
_cell_angle_beta 90.000000
_cell_angle_gamma 90.000000
_cell_volume 2423.145972
_symmetry_space_group_name_H-M "P B A M"
_symmetry_group_IT_number 55
_symmetry_cell_setting 'orthorhombic'
loop_
_space_group_symop_operation_xyz
x,y,z
-x,-y,z
1/2+x,1/2-y,-z
1/2-x,1/2+y,-z
-x,-y,-z
x,y,-z
1/2-x,1/2+y,z
1/2+x,1/2-y,z
loop_
_atom_site_type_symbol
_atom_site_label
_atom_site_fract_x
_atom_site_fract_y
_atom_site_fract_z
Si Si1 0.569269 0.512796 0.168053
Si Si2 0.226913 0.380369 0.169351
Si Si3 0.888906 0.763764 0.166364
Si Si4 0.652730 0.681189 0.330376
Si Si5 0.547559 0.085443 0.340210
Si Si6 0.164832 0.560969 0.658583
O O1 0.500000 0.500000 0.211617
O O2 0.606575 0.397587 0.203538
O O3 0.597358 0.613491 0.262427
O O4 0.575164 0.544607 0.000000
O O5 0.176537 0.285145 0.207754
O O6 0.285518 0.350694 0.256383
O O7 0.208447 0.507816 0.220704
O O8 0.240651 0.384924 0.000000
O O9 0.942832 0.700098 0.248824
O O10 0.901824 0.740491 0.000000
O O11 0.656069 0.654618 0.500000
O O12 0.642042 0.814287 0.296107
O O13 0.524018 0.120172 0.500000
O O14 0.500000 0.000000 0.264943
O O15 0.609347 0.021486 0.352378
O O16 0.196379 0.566312 0.500000
#
# Coordination Sequence:
#
# PCOD8227111 Si02
#       6
#     8   8   8   8   8   8
#     4  10  23  42  61  86 122 162 204 246 295 356
#     4  10  21  38  61  87 115 150 195 243 298 357
#     4   9  20  38  58  84 115 150 193 241 291 348
#     4  11  24  39  60  88 119 153 195 244 297 359
#     4   9  18  33  57  84 112 148 187 233 287 340
#     4   9  20  38  56  83 118 148 190 241 291 349
#
# _framework density 19.808959999999999
#
# number of rings (size 3 to 8) (size 9 to 14) (size 15 to 20)
#    0.000    2.333    0.000    1.000    4.667    3.333 
#    0.000    0.000    0.000    0.000    0.000    0.000 
#    0.000    0.000    0.000    0.000    0.000    0.000 
#
# Total GULP energy -595121.034555 kJ/mol
# GULP energy per Si atom -12398.354887 kJ/mol
# Density = 1.976387 g / cm^3
# Si number density = 19.808960 Si / 1000 Ang^3
#
#
#
# Elastic Constant Matrix: (Units=GPa)
#
#
# Indices 1 2 3 4 5 6 
#
# 1 66.3093 27.9391 39.8553 0.0000 0.0000 0.0000
# 2 27.9391 109.0787 51.8736 0.0000 0.0000 0.0000
# 3 39.8553 51.8736 84.7631 0.0000 0.0000 0.0000
# 4 0.0000 0.0000 0.0000 27.0750 0.0000 0.0000
# 5 0.0000 0.0000 0.0000 0.0000 31.1147 0.0000
# 6 0.0000 0.0000 0.0000 0.0000 0.0000 15.7260
#
#
#
# Elastic Compliance Matrix: (Units=1/GPa)
#
#
# Indices 1 2 3 4 5 6 
#
# 1 0.021094 -0.000968 -0.009326 0.000000 0.000000 0.000000
# 2 -0.000968 0.012976 -0.007486 0.000000 0.000000 0.000000
# 3 -0.009326 -0.007486 0.020764 0.000000 0.000000 0.000000
# 4 0.000000 0.000000 0.000000 0.036934 0.000000 0.000000
# 5 0.000000 0.000000 0.000000 0.000000 0.032139 0.000000
# 6 0.000000 0.000000 0.000000 0.000000 0.000000 0.063589
#
#
# Mechanical properties :
#
#
# Convention : Reuss Voigt Hill
#
# Bulk Modulus (GPa) = 51.88300 55.49858 53.69079
# Shear Modulus (GPa) = 21.78842 24.14868 22.96855
#
# Velocity S-wave (km/s) = 3.32011 3.49532 3.40884
# Velocity P-wave (km/s) = 6.39891 6.66089 6.53121
#
# Compressibility (1/GPa) = 0.01927414
#
# Stress axis : x y z
#
# Youngs Moduli (GPa) = 47.40666 77.06826 48.16082
#
# Poissons Ratio (x) = 0.07459 0.44915
# Poissons Ratio (y) = 0.04588 0.36052
# Poissons Ratio (z) = 0.44212 0.57691
#
# Static dielectric constant tensor:
#      x y z
#    x 3.573330 0.000000 0.000000 
#    y 0.000000 3.968140 0.000000 
#    z 0.000000 0.000000 3.899750 
# 
# 
# High freq. dielectric constant tensor:
#      x y z
#    x 1.768790 0.000000 0.000000 
#    y 0.000000 1.776990 0.000000 
#    z 0.000000 0.000000 1.770790 
# 
# From -- ./inp_files/4071.got.cif
#   From: 2010.03.12/outbox.cif.g09.slc.cpg/sg55_3_cif.got.tgz:4071.got - 2010.04.16 15:19:21.
