data_PCOD8227425
_publ_section_title
;
Structure prediction by ZEFSAII (Michael W. Deem and Ramdas Pophale) SiO2 
 PCOD8227425
Probable space group: P B A M
;
_chemical_formula_sum "Si O2"
_cell_formula_units_Z 48
_cell_length_a 20.383783
_cell_length_b 14.850731
_cell_length_c 7.757514
_cell_angle_alpha 90.000000
_cell_angle_beta 90.000000
_cell_angle_gamma 90.000000
_cell_volume 2348.308699
_symmetry_space_group_name_H-M "P B A M"
_symmetry_group_IT_number 55
_symmetry_cell_setting 'orthorhombic'
loop_
_space_group_symop_operation_xyz
x,y,z
-x,-y,z
1/2+x,1/2-y,-z
1/2-x,1/2+y,-z
-x,-y,-z
x,y,-z
1/2-x,1/2+y,z
1/2+x,1/2-y,z
loop_
_atom_site_type_symbol
_atom_site_label
_atom_site_fract_x
_atom_site_fract_y
_atom_site_fract_z
Si Si1 0.399917 0.453880 0.000000
Si Si2 0.242702 0.220525 0.700966
Si Si3 0.068889 0.465099 0.702127
Si Si4 0.693204 0.594367 0.307113
Si Si5 0.407188 0.758098 0.297404
Si Si6 0.703538 0.965041 0.190618
Si Si7 0.967449 0.855334 0.000000
O O1 0.359498 0.443408 0.824830
O O2 0.425041 0.554942 0.000000
O O3 0.456153 0.379116 0.000000
O O4 0.249634 0.202450 0.500000
O O5 0.282507 0.308725 0.756876
O O6 0.166946 0.232486 0.751249
O O7 0.274781 0.138235 0.800505
O O8 0.068678 0.478766 0.500000
O O9 0.080873 0.361688 0.751507
O O10 0.126155 0.527894 0.776222
O O11 0.000000 0.500000 0.780955
O O12 0.662802 0.599228 0.500000
O O13 0.755677 0.527691 0.320461
O O14 0.422508 0.739593 0.500000
O O15 0.454111 0.699526 0.175653
O O16 0.719800 0.000490 0.000000
#
# Coordination Sequence:
#
# PCOD8227425 Si02
#       7
#     4   8   8   8   8   8   4
#     4  11  26  45  62  98 127 165 219 271 332 377
#     4  10  22  39  65  94 126 170 217 264 323 387
#     4  10  22  42  65  91 131 174 220 270 325 396
#     4  11  23  43  68  93 129 169 213 274 327 381
#     4  10  22  42  67  94 126 175 220 262 326 393
#     4  12  24  37  63  99 132 166 214 272 330 389
#     4  11  26  43  65  90 132 169 214 273 316 397
#
# _framework density 20.440242000000001
#
# number of rings (size 3 to 8) (size 9 to 14) (size 15 to 20)
#    0.000    1.333    2.500    2.500    3.500    4.333 
#    0.000    5.000    0.000    0.000    0.000    0.000 
#    0.000    0.000    0.000    0.000    0.000    0.000 
#
# Total GULP energy -595357.690743 kJ/mol
# GULP energy per Si atom -12403.285224 kJ/mol
# Density = 2.039372 g / cm^3
# Si number density = 20.440242 Si / 1000 Ang^3
#
#
#
# Elastic Constant Matrix: (Units=GPa)
#
#
# Indices 1 2 3 4 5 6 
#
# 1 138.4609 65.0309 45.7932 0.0000 0.0000 0.0000
# 2 65.0309 129.3304 35.2884 0.0000 0.0000 0.0000
# 3 45.7932 35.2884 73.6762 0.0000 0.0000 0.0000
# 4 0.0000 0.0000 0.0000 28.8721 0.0000 0.0000
# 5 0.0000 0.0000 0.0000 0.0000 19.9357 0.0000
# 6 0.0000 0.0000 0.0000 0.0000 0.0000 31.2412
#
#
#
# Elastic Compliance Matrix: (Units=1/GPa)
#
#
# Indices 1 2 3 4 5 6 
#
# 1 0.010698 -0.004101 -0.004685 0.000000 0.000000 0.000000
# 2 -0.004101 0.010467 -0.002464 0.000000 0.000000 0.000000
# 3 -0.004685 -0.002464 0.017665 0.000000 0.000000 0.000000
# 4 0.000000 0.000000 0.000000 0.034635 0.000000 0.000000
# 5 0.000000 0.000000 0.000000 0.000000 0.050161 0.000000
# 6 0.000000 0.000000 0.000000 0.000000 0.000000 0.032009
#
#
# Mechanical properties :
#
#
# Convention : Reuss Voigt Hill
#
# Bulk Modulus (GPa) = 61.23972 70.41029 65.82501
# Shear Modulus (GPa) = 27.23631 29.03346 28.13489
#
# Velocity S-wave (km/s) = 3.65428 3.77292 3.71407
# Velocity P-wave (km/s) = 6.91596 7.31448 7.11801
#
# Compressibility (1/GPa) = 0.01632927
#
# Stress axis : x y z
#
# Youngs Moduli (GPa) = 93.47757 95.54280 56.60858
#
# Poissons Ratio (x) = 0.39180 0.26521
# Poissons Ratio (y) = 0.38333 0.13950
# Poissons Ratio (z) = 0.43794 0.23544
#
# Static dielectric constant tensor:
#      x y z
#    x 3.769090 0.000000 0.000000 
#    y 0.000000 3.786150 0.000000 
#    z 0.000000 0.000000 3.622620 
# 
# 
# High freq. dielectric constant tensor:
#      x y z
#    x 1.794340 0.000000 0.000000 
#    y 0.000000 1.808640 0.000000 
#    z 0.000000 0.000000 1.807100 
# 
# From -- ./inp_files/7453.got.cif
#   From: 2010.03.12/outbox.cif.g09.slc.cpg/sg55_4_cif.got.tgz:7453.got - 2010.04.16 15:19:21.
