data_PCOD8227043
_publ_section_title
;
Structure prediction by ZEFSAII (Michael W. Deem and Ramdas Pophale) SiO2 
 PCOD8227043
Probable space group: P B A M
;
_chemical_formula_sum "Si O2"
_cell_formula_units_Z 64
_cell_length_a 12.062463
_cell_length_b 30.236309
_cell_length_c 8.870504
_cell_angle_alpha 90.000000
_cell_angle_beta 90.000000
_cell_angle_gamma 90.000000
_cell_volume 3235.288882
_symmetry_space_group_name_H-M "P B A M"
_symmetry_group_IT_number 55
_symmetry_cell_setting 'orthorhombic'
loop_
_space_group_symop_operation_xyz
x,y,z
-x,-y,z
1/2+x,1/2-y,-z
1/2-x,1/2+y,-z
-x,-y,-z
x,y,-z
1/2-x,1/2+y,z
1/2+x,1/2-y,z
loop_
_atom_site_type_symbol
_atom_site_label
_atom_site_fract_x
_atom_site_fract_y
_atom_site_fract_z
Si Si1 0.601995 0.370433 0.821086
Si Si2 0.481040 0.805519 0.672222
Si Si3 0.541666 0.546763 0.819623
Si Si4 0.268611 0.922317 0.831436
Si Si5 0.458123 0.295485 0.672799
Si Si6 0.503008 0.948239 0.177045
Si Si7 0.841578 0.379145 0.322700
Si Si8 0.255113 0.821140 0.832188
O O1 0.537260 0.413867 0.761330
O O2 0.536799 0.326404 0.772444
O O3 0.723743 0.370565 0.752327
O O4 0.611495 0.370426 0.000000
O O5 0.446693 0.814847 0.500000
O O6 0.510683 0.754956 0.697997
O O7 0.582622 0.837011 0.719390
O O8 0.380035 0.815833 0.780284
O O9 0.500000 0.500000 0.757165
O O10 0.666905 0.551476 0.753859
O O11 0.545382 0.548101 0.000000
O O12 0.387957 0.928669 0.752440
O O13 0.226227 0.872519 0.834253
O O14 0.286033 0.941085 0.000000
O O15 0.470601 0.310075 0.500000
O O16 0.329830 0.297744 0.720168
O O17 0.604579 0.924484 0.260891
O O18 0.500000 0.000000 0.212727
O O19 0.516862 0.938350 0.000000
O O20 0.824824 0.383820 0.500000
O O21 0.242059 0.801172 0.000000
#
# Coordination Sequence:
#
# PCOD8227043 Si02
#       8
#     8   8   8   8   8   8   8   8
#     4  11  23  40  62  90 121 155 204 257 305 357
#     4  10  24  43  62  85 117 162 205 242 296 368
#     4   9  18  33  58  88 118 153 192 240 298 354
#     4   9  17  33  56  86 120 149 191 249 298 343
#     4  11  24  42  63  87 122 164 204 243 300 372
#     4  10  21  37  62  92 121 158 205 252 302 360
#     4  11  24  42  61  85 123 164 202 248 309 372
#     4  11  21  38  64  92 121 150 197 260 304 345
#
# _framework density 19.781849000000001
#
# number of rings (size 3 to 8) (size 9 to 14) (size 15 to 20)
#    0.000    1.750    2.500    1.500    3.500    1.750 
#    0.000    0.000    0.000    1.500    0.000    0.000 
#    0.000    0.000    0.000    0.000    0.000    0.000 
#
# Total GULP energy -793592.548708 kJ/mol
# GULP energy per Si atom -12399.883574 kJ/mol
# Density = 1.973682 g / cm^3
# Si number density = 19.781849 Si / 1000 Ang^3
#
#
#
# Elastic Constant Matrix: (Units=GPa)
#
#
# Indices 1 2 3 4 5 6 
#
# 1 128.2810 33.3892 40.8196 0.0000 0.0000 0.0000
# 2 33.3892 94.2609 38.5109 0.0000 0.0000 0.0000
# 3 40.8196 38.5109 64.6092 0.0000 0.0000 0.0000
# 4 0.0000 0.0000 0.0000 19.1409 0.0000 0.0000
# 5 0.0000 0.0000 0.0000 0.0000 32.6796 0.0000
# 6 0.0000 0.0000 0.0000 0.0000 0.0000 32.1088
#
#
#
# Elastic Compliance Matrix: (Units=1/GPa)
#
#
# Indices 1 2 3 4 5 6 
#
# 1 0.009868 -0.001254 -0.005487 0.000000 0.000000 0.000000
# 2 -0.001254 0.014183 -0.007662 0.000000 0.000000 0.000000
# 3 -0.005487 -0.007662 0.023511 0.000000 0.000000 0.000000
# 4 0.000000 0.000000 0.000000 0.052244 0.000000 0.000000
# 5 0.000000 0.000000 0.000000 0.000000 0.030600 0.000000
# 6 0.000000 0.000000 0.000000 0.000000 0.000000 0.031144
#
#
# Mechanical properties :
#
#
# Convention : Reuss Voigt Hill
#
# Bulk Modulus (GPa) = 53.31378 56.95451 55.13415
# Shear Modulus (GPa) = 25.43121 28.41461 26.92291
#
# Velocity S-wave (km/s) = 3.58939 3.79410 3.69316
# Velocity P-wave (km/s) = 6.64738 6.93162 6.79099
#
# Compressibility (1/GPa) = 0.01875688
#
# Stress axis : x y z
#
# Youngs Moduli (GPa) = 101.34074 70.50554 42.53239
#
# Poissons Ratio (x) = 0.08838 0.23338
# Poissons Ratio (y) = 0.12703 0.32589
# Poissons Ratio (z) = 0.55607 0.54022
#
# Static dielectric constant tensor:
#      x y z
#    x 3.757060 0.000000 0.000000 
#    y 0.000000 4.813990 0.000000 
#    z 0.000000 0.000000 3.416720 
# 
# 
# High freq. dielectric constant tensor:
#      x y z
#    x 1.789700 0.000000 0.000000 
#    y 0.000000 1.776980 0.000000 
#    z 0.000000 0.000000 1.746680 
# 
# From -- ./inp_files/4497.got.cif
#   From: 2010.03.12/outbox.cif.g09.slc.cpg/sg55_3_cif.got.tgz:4497.got - 2010.04.16 15:19:21.
