data_PCOD8227715
_publ_section_title
;
Structure prediction by ZEFSAII (Michael W. Deem and Ramdas Pophale) SiO2 
 PCOD8227715
Probable space group: P B A M
;
_chemical_formula_sum "Si O2"
_cell_formula_units_Z 32
_cell_length_a 20.252295
_cell_length_b 9.079616
_cell_length_c 8.432816
_cell_angle_alpha 90.000000
_cell_angle_beta 90.000000
_cell_angle_gamma 90.000000
_cell_volume 1550.652025
_symmetry_space_group_name_H-M "P B A M"
_symmetry_group_IT_number 55
_symmetry_cell_setting 'orthorhombic'
loop_
_space_group_symop_operation_xyz
x,y,z
-x,-y,z
1/2+x,1/2-y,-z
1/2-x,1/2+y,-z
-x,-y,-z
x,y,-z
1/2-x,1/2+y,z
1/2+x,1/2-y,z
loop_
_atom_site_type_symbol
_atom_site_label
_atom_site_fract_x
_atom_site_fract_y
_atom_site_fract_z
Si Si1 0.680170 0.134615 0.182753
Si Si2 0.081732 0.859100 0.312371
Si Si3 0.205951 0.678024 0.685363
Si Si4 0.435645 0.689312 0.311957
O O1 0.729978 0.266768 0.221928
O O2 0.606301 0.186674 0.223342
O O3 0.698804 0.995214 0.289120
O O4 0.684476 0.090129 0.000000
O O5 0.082109 0.855082 0.500000
O O6 0.141648 0.761895 0.244407
O O7 0.011632 0.792106 0.256123
O O8 0.089670 0.028008 0.257211
O O9 0.215466 0.710164 0.500000
O O10 0.427859 0.709234 0.500000
#
# Coordination Sequence:
#
# PCOD8227715 Si02
#       4
#     8   8   8   8
#     4  12  25  39  55  84 120 152 186 236 292 343
#     4   8  17  34  61  89 111 140 191 245 282 324
#     4  11  22  39  61  84 110 151 198 239 282 339
#     4   9  17  36  62  87 113 147 189 236 284 338
#
# _framework density 20.636481
#
# number of rings (size 3 to 8) (size 9 to 14) (size 15 to 20)
#    0.000    2.000    0.000    6.000    0.000    3.000 
#    0.000   11.250    0.000    0.000    0.000    0.000 
#    0.000    0.000    0.000    0.000    0.000    0.000 
#
# Total GULP energy -396881.450857 kJ/mol
# GULP energy per Si atom -12402.545339 kJ/mol
# Density = 2.058951 g / cm^3
# Si number density = 20.636481 Si / 1000 Ang^3
#
#
#
# Elastic Constant Matrix: (Units=GPa)
#
#
# Indices 1 2 3 4 5 6 
#
# 1 89.4605 16.7772 18.6095 0.0000 0.0000 0.0000
# 2 16.7772 63.9108 5.2600 0.0000 0.0000 0.0000
# 3 18.6095 5.2600 55.5494 0.0000 0.0000 0.0000
# 4 0.0000 0.0000 0.0000 18.9926 0.0000 0.0000
# 5 0.0000 0.0000 0.0000 0.0000 16.4524 0.0000
# 6 0.0000 0.0000 0.0000 0.0000 0.0000 44.3181
#
#
#
# Elastic Compliance Matrix: (Units=1/GPa)
#
#
# Indices 1 2 3 4 5 6 
#
# 1 0.012552 -0.002972 -0.003923 0.000000 0.000000 0.000000
# 2 -0.002972 0.016473 -0.000564 0.000000 0.000000 0.000000
# 3 -0.003923 -0.000564 0.019370 0.000000 0.000000 0.000000
# 4 0.000000 0.000000 0.000000 0.052652 0.000000 0.000000
# 5 0.000000 0.000000 0.000000 0.000000 0.060781 0.000000
# 6 0.000000 0.000000 0.000000 0.000000 0.000000 0.022564
#
#
# Mechanical properties :
#
#
# Convention : Reuss Voigt Hill
#
# Bulk Modulus (GPa) = 29.87265 32.24602 31.05934
# Shear Modulus (GPa) = 23.75629 27.17088 25.46359
#
# Velocity S-wave (km/s) = 3.39658 3.63249 3.51652
# Velocity P-wave (km/s) = 5.46713 5.76654 5.61883
#
# Compressibility (1/GPa) = 0.03347543
#
# Stress axis : x y z
#
# Youngs Moduli (GPa) = 79.67091 60.70380 51.62671
#
# Poissons Ratio (x) = 0.18041 0.20256
# Poissons Ratio (y) = 0.23678 0.02913
# Poissons Ratio (z) = 0.31259 0.03425
#
# Static dielectric constant tensor:
#      x y z
#    x 4.177660 0.000000 0.000000 
#    y 0.000000 3.684490 0.000000 
#    z 0.000000 0.000000 3.323930 
# 
# 
# High freq. dielectric constant tensor:
#      x y z
#    x 1.823420 0.000000 0.000000 
#    y 0.000000 1.804340 0.000000 
#    z 0.000000 0.000000 1.774990 
# 
# From -- ./inp_files/1998.got.cif
#   From: 2010.03.12/outbox.cif.g09.slc.cpg/sg55_1_cif.got.tgz:1998.got - 2010.04.16 15:19:21.
