data_PCOD8227758
_publ_section_title
;
Structure prediction by ZEFSAII (Michael W. Deem and Ramdas Pophale) SiO2 
 PCOD8227758
Probable space group: P B A M
;
_chemical_formula_sum "Si O2"
_cell_formula_units_Z 40
_cell_length_a 9.455439
_cell_length_b 17.532127
_cell_length_c 10.912579
_cell_angle_alpha 90.000000
_cell_angle_beta 90.000000
_cell_angle_gamma 90.000000
_cell_volume 1809.021406
_symmetry_space_group_name_H-M "P B A M"
_symmetry_group_IT_number 55
_symmetry_cell_setting 'orthorhombic'
loop_
_space_group_symop_operation_xyz
x,y,z
-x,-y,z
1/2+x,1/2-y,-z
1/2-x,1/2+y,-z
-x,-y,-z
x,y,-z
1/2-x,1/2+y,z
1/2+x,1/2-y,z
loop_
_atom_site_type_symbol
_atom_site_label
_atom_site_fract_x
_atom_site_fract_y
_atom_site_fract_z
Si Si1 0.716084 0.551159 0.500000
Si Si2 0.037182 0.712592 0.144623
Si Si3 0.114290 0.433225 0.745366
Si Si4 0.151363 0.018730 0.139633
Si Si5 0.323670 0.676626 0.245159
Si Si6 0.404539 0.617651 0.500000
O O1 0.809898 0.575579 0.615221
O O2 0.570454 0.598327 0.500000
O O3 0.686686 0.460308 0.500000
O O4 0.185435 0.726439 0.214080
O O5 0.954774 0.645158 0.212873
O O6 0.952423 0.790837 0.164459
O O7 0.058051 0.695710 0.000000
O O8 0.236541 0.451107 0.844760
O O9 0.000000 0.500000 0.740593
O O10 0.216701 0.091754 0.204385
O O11 0.123959 0.038032 0.000000
O O12 0.000000 0.000000 0.203571
O O13 0.363789 0.672710 0.387429
#
# Coordination Sequence:
#
# PCOD8227758 Si02
#       6
#     4   8   8   8   8   4
#     4  11  23  43  75 110 143 182 236 304 359 426
#     4  12  28  48  71 104 150 191 241 300 363 430
#     4  12  24  43  73 105 142 189 239 297 366 421
#     4  11  23  41  69 102 137 184 248 299 357 432
#     4  12  27  47  72 103 144 194 238 296 366 424
#     4  11  24  47  75 104 146 183 244 299 353 434
#
# _framework density 22.111402999999999
#
# number of rings (size 3 to 8) (size 9 to 14) (size 15 to 20)
#    0.000    0.400    4.000    3.900    5.600    3.200 
#    0.000    0.000    0.000    0.000    0.000    0.000 
#    0.000    0.000    0.000    0.000    0.000    0.000 
#
# Total GULP energy -496116.897866 kJ/mol
# GULP energy per Si atom -12402.922447 kJ/mol
# Density = 2.206108 g / cm^3
# Si number density = 22.111403 Si / 1000 Ang^3
#
#
#
# Elastic Constant Matrix: (Units=GPa)
#
#
# Indices 1 2 3 4 5 6 
#
# 1 146.9893 18.1042 56.5497 0.0000 0.0000 0.0000
# 2 18.1042 40.8812 29.6023 0.0000 0.0000 0.0000
# 3 56.5497 29.6023 144.1378 0.0000 0.0000 0.0000
# 4 0.0000 0.0000 0.0000 8.4074 0.0000 0.0000
# 5 0.0000 0.0000 0.0000 0.0000 38.6195 0.0000
# 6 0.0000 0.0000 0.0000 0.0000 0.0000 42.1221
#
#
#
# Elastic Compliance Matrix: (Units=1/GPa)
#
#
# Indices 1 2 3 4 5 6 
#
# 1 0.008091 -0.001509 -0.002864 0.000000 0.000000 0.000000
# 2 -0.001509 0.029016 -0.005367 0.000000 0.000000 0.000000
# 3 -0.002864 -0.005367 0.009164 0.000000 0.000000 0.000000
# 4 0.000000 0.000000 0.000000 0.118944 0.000000 0.000000
# 5 0.000000 0.000000 0.000000 0.000000 0.025894 0.000000
# 6 0.000000 0.000000 0.000000 0.000000 0.000000 0.023741
#
#
# Mechanical properties :
#
#
# Convention : Reuss Voigt Hill
#
# Bulk Modulus (GPa) = 37.32788 60.05787 48.69288
# Shear Modulus (GPa) = 20.55420 33.01327 26.78373
#
# Velocity S-wave (km/s) = 3.05220 3.86818 3.48416
# Velocity P-wave (km/s) = 5.41661 6.86811 6.18508
#
# Compressibility (1/GPa) = 0.02678963
#
# Stress axis : x y z
#
# Youngs Moduli (GPa) = 123.59273 34.46411 109.12377
#
# Poissons Ratio (x) = 0.05200 0.31258
# Poissons Ratio (y) = 0.18649 0.58568
# Poissons Ratio (z) = 0.35403 0.18497
#
# Static dielectric constant tensor:
#      x y z
#    x 4.285120 0.000000 0.000000 
#    y 0.000000 3.849990 0.000000 
#    z 0.000000 0.000000 4.027690 
# 
# 
# High freq. dielectric constant tensor:
#      x y z
#    x 1.893420 0.000000 0.000000 
#    y 0.000000 1.859600 0.000000 
#    z 0.000000 0.000000 1.878430 
# 
# From -- ./inp_files/11905.got.cif
#   From: 2010.03.12/outbox.cif.g09.slc.cpg/sg55_6_cif.got.tgz:11905.got - 2010.04.16 15:19:21.
