data_PCOD8227786
_publ_section_title
;
Structure prediction by ZEFSAII (Michael W. Deem and Ramdas Pophale) SiO2 
 PCOD8227786
Probable space group: P B A M
;
_chemical_formula_sum "Si O2"
_cell_formula_units_Z 40
_cell_length_a 8.981973
_cell_length_b 9.943612
_cell_length_c 20.063569
_cell_angle_alpha 90.000000
_cell_angle_beta 90.000000
_cell_angle_gamma 90.000000
_cell_volume 1791.942644
_symmetry_space_group_name_H-M "P B A M"
_symmetry_group_IT_number 55
_symmetry_cell_setting 'orthorhombic'
loop_
_space_group_symop_operation_xyz
x,y,z
-x,-y,z
1/2+x,1/2-y,-z
1/2-x,1/2+y,-z
-x,-y,-z
x,y,-z
1/2-x,1/2+y,z
1/2+x,1/2-y,z
loop_
_atom_site_type_symbol
_atom_site_label
_atom_site_fract_x
_atom_site_fract_y
_atom_site_fract_z
Si Si1 0.295173 0.218415 0.659535
Si Si2 0.669800 0.522888 0.732783
Si Si3 0.935383 0.641511 0.924176
Si Si4 0.534969 0.343021 0.424712
Si Si5 0.391882 0.388333 0.881205
O O1 0.247794 0.356402 0.695115
O O2 0.206337 0.179721 0.592816
O O3 0.458305 0.244172 0.629426
O O4 0.275080 0.104846 0.716579
O O5 0.500000 0.500000 0.706350
O O6 0.662881 0.554768 0.810622
O O7 0.756092 0.641188 0.923152
O O8 0.000000 0.500000 0.899388
O O9 0.008599 0.753283 0.875926
O O10 0.985398 0.671559 0.000000
O O11 0.500000 0.500000 0.415867
O O12 0.501925 0.296261 0.500000
O O13 0.500000 0.500000 0.915308
#
# Coordination Sequence:
#
# PCOD8227786 Si02
#       5
#     8   8   8   8   8
#     4  12  21  47  66  97 134 183 224 285 349 414
#     4  11  26  44  67 100 141 178 227 285 352 416
#     4  11  25  45  72 105 142 187 238 290 352 423
#     4  11  24  44  67  99 140 178 230 292 352 417
#     4  11  26  45  69 106 142 186 235 294 355 422
#
# _framework density 22.322144000000002
#
# number of rings (size 3 to 8) (size 9 to 14) (size 15 to 20)
#    0.000    0.800    4.000    2.400    8.400    4.000 
#    0.000    1.000    0.000    0.000    0.000    0.000 
#    0.000    0.000    0.000    0.000    0.000    0.000 
#
# Total GULP energy -495736.301601 kJ/mol
# GULP energy per Si atom -12393.407540 kJ/mol
# Density = 2.227134 g / cm^3
# Si number density = 22.322144 Si / 1000 Ang^3
#
#
#
# Elastic Constant Matrix: (Units=GPa)
#
#
# Indices 1 2 3 4 5 6 
#
# 1 84.5517 45.3277 19.9452 0.0000 0.0000 0.0000
# 2 45.3277 161.4621 45.8307 0.0000 0.0000 0.0000
# 3 19.9452 45.8307 98.9935 0.0000 0.0000 0.0000
# 4 0.0000 0.0000 0.0000 33.9098 0.0000 0.0000
# 5 0.0000 0.0000 0.0000 0.0000 -19.7037 0.0000
# 6 0.0000 0.0000 0.0000 0.0000 0.0000 49.1078
#
#
#
# Elastic Compliance Matrix: (Units=1/GPa)
#
#
# Indices 1 2 3 4 5 6 
#
# 1 0.014036 -0.003612 -0.001156 0.000000 0.000000 0.000000
# 2 -0.003612 0.008060 -0.003004 0.000000 0.000000 0.000000
# 3 -0.001156 -0.003004 0.011725 0.000000 0.000000 0.000000
# 4 0.000000 0.000000 0.000000 0.029490 0.000000 0.000000
# 5 0.000000 0.000000 0.000000 0.000000 -0.050752 0.000000
# 6 0.000000 0.000000 0.000000 0.000000 0.000000 0.020363
#
#
# Mechanical properties :
#
#
# Convention : Reuss Voigt Hill
#
# Bulk Modulus (GPa) = 54.71051 63.02383 58.86717
# Shear Modulus (GPa) = 91.64332 28.25635 59.94983
#
# Velocity S-wave (km/s) = 6.41436 3.56173 5.18796
# Velocity P-wave (km/s) = 8.91187 6.72381 7.89402
#
# Compressibility (1/GPa) = 0.01827802
#
# Stress axis : x y z
#
# Youngs Moduli (GPa) = 71.24392 124.06731 85.28686
#
# Poissons Ratio (x) = 0.44818 0.09856
# Poissons Ratio (y) = 0.25736 0.25618
# Poissons Ratio (z) = 0.08233 0.37267
#
# Static dielectric constant tensor:
#      x y z
#    x 3.955310 0.000000 0.000000 
#    y 0.000000 4.129580 0.000000 
#    z 0.000000 0.000000 3.936180 
# 
# 
# High freq. dielectric constant tensor:
#      x y z
#    x 1.872450 0.000000 0.000000 
#    y 0.000000 1.886290 0.000000 
#    z 0.000000 0.000000 1.883170 
# 
# From -- ./inp_files/23406.got.cif
#   From: 2010.03.12/outbox.cif.g09.slc.cpg/sg55_12_cif.got.tgz:23406.got - 2010.04.16 15:19:21.
