data_PCOD8227826
_publ_section_title
;
Structure prediction by ZEFSAII (Michael W. Deem and Ramdas Pophale) SiO2 
 PCOD8227826
Probable space group: P B A M
;
_chemical_formula_sum "Si O2"
_cell_formula_units_Z 48
_cell_length_a 9.272822
_cell_length_b 13.406304
_cell_length_c 21.018627
_cell_angle_alpha 90.000000
_cell_angle_beta 90.000000
_cell_angle_gamma 90.000000
_cell_volume 2612.915286
_symmetry_space_group_name_H-M "P B A M"
_symmetry_group_IT_number 55
_symmetry_cell_setting 'orthorhombic'
loop_
_space_group_symop_operation_xyz
x,y,z
-x,-y,z
1/2+x,1/2-y,-z
1/2-x,1/2+y,-z
-x,-y,-z
x,y,-z
1/2-x,1/2+y,z
1/2+x,1/2-y,z
loop_
_atom_site_type_symbol
_atom_site_label
_atom_site_fract_x
_atom_site_fract_y
_atom_site_fract_z
Si Si1 0.728700 0.878840 0.500000
Si Si2 0.907918 0.188507 0.169022
Si Si3 0.664193 0.534014 0.071043
Si Si4 0.840914 0.534501 0.602830
Si Si5 0.271089 0.621784 0.830156
Si Si6 0.157148 0.967287 0.725987
Si Si7 0.089791 0.310140 0.500000
O O1 0.736405 0.947588 0.437491
O O2 0.864652 0.805183 0.500000
O O3 0.582909 0.813940 0.500000
O O4 0.863241 0.303559 0.173276
O O5 0.854462 0.131724 0.231793
O O6 0.080340 0.183198 0.163143
O O7 0.830304 0.139554 0.107493
O O8 0.500000 0.500000 0.069718
O O9 0.753724 0.450119 0.109109
O O10 0.727965 0.546141 0.000000
O O11 0.753381 0.558950 0.665830
O O12 0.847834 0.635715 0.562315
O O13 0.000000 0.500000 0.622115
O O14 0.271763 0.556451 0.766265
O O15 0.000000 0.000000 0.702088
#
# Coordination Sequence:
#
# PCOD8227826 Si02
#       7
#     4   8   8   8   8   8   4
#     4   9  19  35  52  72  98 125 155 193 236 280
#     4   9  18  32  49  70  96 125 158 196 236 279
#     4   8  15  30  50  69  93 127 161 192 233 285
#     4   9  19  35  52  71  97 126 156 194 237 277
#     4   9  18  32  49  70  96 125 158 196 236 279
#     4   9  19  34  49  68  96 128 160 192 231 283
#     4   9  19  35  52  72  98 125 155 193 236 280
#
# _framework density 18.370284999999999
#
# number of rings (size 3 to 8) (size 9 to 14) (size 15 to 20)
#    0.000    3.167    0.000    3.000    0.000    4.667 
#    0.000   10.833    0.000    1.000    0.000    0.000 
#    0.000    0.000    0.000    0.000    0.000    0.000 
#
# Total GULP energy -595147.727598 kJ/mol
# GULP energy per Si atom -12398.910992 kJ/mol
# Density = 1.832847 g / cm^3
# Si number density = 18.370285 Si / 1000 Ang^3
#
#
#
# Elastic Constant Matrix: (Units=GPa)
#
#
# Indices 1 2 3 4 5 6 
#
# 1 16.4082 -7.9598 17.7819 0.0000 0.0000 0.0000
# 2 -7.9598 30.0692 -8.4028 0.0000 0.0000 0.0000
# 3 17.7819 -8.4028 104.3557 0.0000 0.0000 0.0000
# 4 0.0000 0.0000 0.0000 10.1676 0.0000 0.0000
# 5 0.0000 0.0000 0.0000 0.0000 20.2425 0.0000
# 6 0.0000 0.0000 0.0000 0.0000 0.0000 36.6120
#
#
#
# Elastic Compliance Matrix: (Units=1/GPa)
#
#
# Indices 1 2 3 4 5 6 
#
# 1 0.083834 0.018619 -0.012786 0.000000 0.000000 0.000000
# 2 0.018619 0.038157 -0.000100 0.000000 0.000000 0.000000
# 3 -0.012786 -0.000100 0.011753 0.000000 0.000000 0.000000
# 4 0.000000 0.000000 0.000000 0.098351 0.000000 0.000000
# 5 0.000000 0.000000 0.000000 0.000000 0.049401 0.000000
# 6 0.000000 0.000000 0.000000 0.000000 0.000000 0.027313
#
#
# Mechanical properties :
#
#
# Convention : Reuss Voigt Hill
#
# Bulk Modulus (GPa) = 6.88655 17.07465 11.98060
# Shear Modulus (GPa) = 14.46142 23.36534 18.91338
#
# Velocity S-wave (km/s) = 2.80878 3.57025 3.21216
# Velocity P-wave (km/s) = 3.77835 5.12938 4.50480
#
# Compressibility (1/GPa) = 0.14521065
#
# Stress axis : x y z
#
# Youngs Moduli (GPa) = 11.92836 26.20723 85.08315
#
# Poissons Ratio (x) = -0.48796 1.08786
# Poissons Ratio (y) = -0.22210 0.00852
# Poissons Ratio (z) = 0.15251 0.00263
#
# Static dielectric constant tensor:
#      x y z
#    x 3.072220 0.000000 0.000000 
#    y 0.000000 3.199420 0.000000 
#    z 0.000000 0.000000 3.480030 
# 
# 
# High freq. dielectric constant tensor:
#      x y z
#    x 1.689950 0.000000 0.000000 
#    y 0.000000 1.706420 0.000000 
#    z 0.000000 0.000000 1.714440 
# 
# From -- ./inp_files/22554.got.cif
#   From: 2010.03.12/outbox.cif.g09.slc.cpg/sg55_12_cif.got.tgz:22554.got - 2010.04.16 15:19:21.
