data_PCOD8227828
_publ_section_title
;
Structure prediction by ZEFSAII (Michael W. Deem and Ramdas Pophale) SiO2 
 PCOD8227828
Probable space group: P B A M
;
_chemical_formula_sum "Si O2"
_cell_formula_units_Z 48
_cell_length_a 9.013065
_cell_length_b 24.958647
_cell_length_c 11.884606
_cell_angle_alpha 90.000000
_cell_angle_beta 90.000000
_cell_angle_gamma 90.000000
_cell_volume 2673.488561
_symmetry_space_group_name_H-M "P B A M"
_symmetry_group_IT_number 55
_symmetry_cell_setting 'orthorhombic'
loop_
_space_group_symop_operation_xyz
x,y,z
-x,-y,z
1/2+x,1/2-y,-z
1/2-x,1/2+y,-z
-x,-y,-z
x,y,-z
1/2-x,1/2+y,z
1/2+x,1/2-y,z
loop_
_atom_site_type_symbol
_atom_site_label
_atom_site_fract_x
_atom_site_fract_y
_atom_site_fract_z
Si Si1 0.102279 0.613656 0.737365
Si Si2 0.171782 0.515573 0.126100
Si Si3 0.259724 0.917473 0.262798
Si Si4 0.287365 0.956609 0.500000
Si Si5 0.970507 0.287400 0.870870
Si Si6 0.870272 0.425278 0.500000
Si Si7 0.694934 0.681840 0.871113
O O1 0.196599 0.571767 0.811004
O O2 0.121495 0.672701 0.789690
O O3 0.162604 0.611153 0.609449
O O4 0.931329 0.597565 0.742411
O O5 0.267896 0.470264 0.188397
O O6 0.000000 0.500000 0.127117
O O7 0.232176 0.521281 0.000000
O O8 0.210048 0.930276 0.390591
O O9 0.165160 0.868437 0.211239
O O10 0.460589 0.943913 0.500000
O O11 0.268397 0.021186 0.500000
O O12 0.926582 0.226623 0.841944
O O13 0.144777 0.292221 0.849555
O O14 0.929098 0.301411 0.000000
O O15 0.682054 0.661976 0.000000
#
# Coordination Sequence:
#
# PCOD8227828 Si02
#       7
#     8   8   8   4   8   4   8
#     4   9  15  23  36  56  82 109 138 170 208 252
#     4   9  14  19  31  53  80 105 129 166 214 255
#     4   9  15  23  36  56  82 109 138 170 208 252
#     4   9  14  22  35  54  83 115 137 162 209 260
#     4   9  17  29  44  62  85 113 143 174 209 248
#     4   9  14  22  35  54  83 115 137 162 209 260
#     4   9  17  29  44  62  85 113 143 174 209 248
#
# _framework density 17.954070000000002
#
# number of rings (size 3 to 8) (size 9 to 14) (size 15 to 20)
#    0.000    3.000    1.667    1.000    0.000    4.000 
#    0.000    0.833    0.000    0.000    0.000    1.167 
#    0.000    8.000    0.000    0.000    0.000    0.000 
#
# Total GULP energy -595013.751035 kJ/mol
# GULP energy per Si atom -12396.119813 kJ/mol
# Density = 1.791321 g / cm^3
# Si number density = 17.954070 Si / 1000 Ang^3
#
#
#
# Elastic Constant Matrix: (Units=GPa)
#
#
# Indices 1 2 3 4 5 6 
#
# 1 4.5358 -4.4948 -0.2243 0.0000 0.0000 0.0000
# 2 -4.4948 13.7640 10.8947 0.0000 0.0000 0.0000
# 3 -0.2243 10.8947 117.8064 0.0000 0.0000 0.0000
# 4 0.0000 0.0000 0.0000 32.9139 0.0000 0.0000
# 5 0.0000 0.0000 0.0000 0.0000 7.2166 0.0000
# 6 0.0000 0.0000 0.0000 0.0000 0.0000 16.3749
#
#
#
# Elastic Compliance Matrix: (Units=1/GPa)
#
#
# Indices 1 2 3 4 5 6 
#
# 1 0.337130 0.118242 -0.010293 0.000000 0.000000 0.000000
# 2 0.118242 0.119863 -0.010860 0.000000 0.000000 0.000000
# 3 -0.010293 -0.010860 0.009473 0.000000 0.000000 0.000000
# 4 0.000000 0.000000 0.000000 0.030382 0.000000 0.000000
# 5 0.000000 0.000000 0.000000 0.000000 0.138570 0.000000
# 6 0.000000 0.000000 0.000000 0.000000 0.000000 0.061069
#
#
# Mechanical properties :
#
#
# Convention : Reuss Voigt Hill
#
# Bulk Modulus (GPa) = 1.51367 16.49526 9.00446
# Shear Modulus (GPa) = 6.92018 19.96312 13.44165
#
# Velocity S-wave (km/s) = 1.96539 3.33813 2.73915
# Velocity P-wave (km/s) = 2.44852 4.90560 3.87687
#
# Compressibility (1/GPa) = 0.66064569
#
# Stress axis : x y z
#
# Youngs Moduli (GPa) = 2.96621 8.34285 105.56088
#
# Poissons Ratio (x) = -0.98648 1.08655
# Poissons Ratio (y) = -0.35073 1.14636
# Poissons Ratio (z) = 0.03053 0.09060
#
# Static dielectric constant tensor:
#      x y z
#    x 2.626740 0.000000 0.000000 
#    y 0.000000 3.370360 0.000000 
#    z 0.000000 0.000000 3.578780 
# 
# 
# High freq. dielectric constant tensor:
#      x y z
#    x 1.621680 0.000000 0.000000 
#    y 0.000000 1.693230 0.000000 
#    z 0.000000 0.000000 1.701200 
# 
# From -- ./inp_files/13316.got.cif
#   From: 2010.03.12/outbox.cif.g09.slc.cpg/sg55_7_cif.got.tgz:13316.got - 2010.04.16 15:19:21.
