data_PCOD8227617
_publ_section_title
;
Structure prediction by ZEFSAII (Michael W. Deem and Ramdas Pophale) SiO2 
 PCOD8227617
Probable space group: P B A M
;
_chemical_formula_sum "Si O2"
_cell_formula_units_Z 64
_cell_length_a 11.842796
_cell_length_b 29.020200
_cell_length_c 9.155550
_cell_angle_alpha 90.000000
_cell_angle_beta 90.000000
_cell_angle_gamma 90.000000
_cell_volume 3146.582248
_symmetry_space_group_name_H-M "P B A M"
_symmetry_group_IT_number 55
_symmetry_cell_setting 'orthorhombic'
loop_
_space_group_symop_operation_xyz
x,y,z
-x,-y,z
1/2+x,1/2-y,-z
1/2-x,1/2+y,-z
-x,-y,-z
x,y,-z
1/2-x,1/2+y,z
1/2+x,1/2-y,z
loop_
_atom_site_type_symbol
_atom_site_label
_atom_site_fract_x
_atom_site_fract_y
_atom_site_fract_z
Si Si1 0.526480 0.933215 0.833704
Si Si2 0.266526 0.521324 0.835643
Si Si3 0.129125 0.116816 0.827046
Si Si4 0.693715 0.060533 0.671200
Si Si5 0.280108 0.834061 0.331499
Si Si6 0.140501 0.656012 0.170391
Si Si7 0.961496 0.727813 0.828287
Si Si8 0.022734 0.818068 0.669096
O O1 0.635510 0.965239 0.827552
O O2 0.428750 0.953511 0.732494
O O3 0.557589 0.883167 0.765742
O O4 0.480680 0.930245 0.000000
O O5 0.343523 0.564136 0.781445
O O6 0.285057 0.475606 0.737776
O O7 0.301419 0.508705 0.000000
O O8 0.231899 0.150342 0.771590
O O9 0.018889 0.134047 0.741182
O O10 0.109350 0.120840 0.000000
O O11 0.695902 0.054137 0.500000
O O12 0.723300 0.112642 0.718103
O O13 0.318768 0.829857 0.500000
O O14 0.363759 0.805329 0.230069
O O15 0.156052 0.813214 0.308595
O O16 0.085276 0.705524 0.203377
O O17 0.147042 0.644478 0.000000
O O18 0.957893 0.776404 0.748062
O O19 0.941802 0.735287 0.000000
O O20 0.989602 0.817783 0.500000
#
# Coordination Sequence:
#
# PCOD8227617 Si02
#       8
#     8   8   8   8   8   8   8   8
#     4   9  16  31  52  78 114 153 187 227 287 346
#     4   9  19  34  56  83 116 155 193 239 296 352
#     4   9  19  39  62  86 116 151 198 247 290 344
#     4  11  21  33  53  82 117 155 197 243 288 342
#     4  10  24  44  60  83 122 162 198 241 293 352
#     4   8  16  32  56  85 114 144 181 233 288 340
#     4  11  22  38  64  92 115 146 193 243 296 352
#     4  11  25  43  61  83 117 157 197 241 295 354
#
# _framework density 20.339528999999999
#
# number of rings (size 3 to 8) (size 9 to 14) (size 15 to 20)
#    0.000    2.250    1.250    3.000    1.750    4.000 
#    0.000    3.125    0.000    3.750    0.000    0.000 
#    0.000    0.000    0.000    0.000    0.000    0.000 
#
# Total GULP energy -793419.914079 kJ/mol
# GULP energy per Si atom -12397.186157 kJ/mol
# Density = 2.029324 g / cm^3
# Si number density = 20.339529 Si / 1000 Ang^3
#
#
#
# Elastic Constant Matrix: (Units=GPa)
#
#
# Indices 1 2 3 4 5 6 
#
# 1 40.2105 14.2402 27.0614 0.0000 0.0000 0.0000
# 2 14.2402 100.6646 48.1654 0.0000 0.0000 0.0000
# 3 27.0614 48.1654 85.2903 0.0000 0.0000 0.0000
# 4 0.0000 0.0000 0.0000 32.7953 0.0000 0.0000
# 5 0.0000 0.0000 0.0000 0.0000 24.9994 0.0000
# 6 0.0000 0.0000 0.0000 0.0000 0.0000 20.2498
#
#
#
# Elastic Compliance Matrix: (Units=1/GPa)
#
#
# Indices 1 2 3 4 5 6 
#
# 1 0.031636 0.000449 -0.010291 0.000000 0.000000 0.000000
# 2 0.000449 0.013618 -0.007833 0.000000 0.000000 0.000000
# 3 -0.010291 -0.007833 0.019413 0.000000 0.000000 0.000000
# 4 0.000000 0.000000 0.000000 0.030492 0.000000 0.000000
# 5 0.000000 0.000000 0.000000 0.000000 0.040001 0.000000
# 6 0.000000 0.000000 0.000000 0.000000 0.000000 0.049383
#
#
# Mechanical properties :
#
#
# Convention : Reuss Voigt Hill
#
# Bulk Modulus (GPa) = 34.10982 45.01104 39.56043
# Shear Modulus (GPa) = 21.77063 24.72211 23.24637
#
# Velocity S-wave (km/s) = 3.27519 3.49014 3.38437
# Velocity P-wave (km/s) = 5.57755 6.19833 5.89612
#
# Compressibility (1/GPa) = 0.02931707
#
# Stress axis : x y z
#
# Youngs Moduli (GPa) = 31.60957 73.43006 51.51094
#
# Poissons Ratio (x) = -0.03295 0.53010
# Poissons Ratio (y) = -0.01418 0.40349
# Poissons Ratio (z) = 0.32530 0.57518
#
# Static dielectric constant tensor:
#      x y z
#    x 3.494830 0.000000 0.000000 
#    y 0.000000 3.827320 0.000000 
#    z 0.000000 0.000000 3.491250 
# 
# 
# High freq. dielectric constant tensor:
#      x y z
#    x 1.776910 0.000000 0.000000 
#    y 0.000000 1.805320 0.000000 
#    z 0.000000 0.000000 1.775080 
# 
# From -- ./inp_files/4684.got.cif
#   From: 2010.03.12/outbox.cif.g09.slc.cpg/sg55_3_cif.got.tgz:4684.got - 2010.04.16 15:19:21.
