data_PCOD8227462
_publ_section_title
;
Structure prediction by ZEFSAII (Michael W. Deem and Ramdas Pophale) SiO2 
 PCOD8227462
Probable space group: P B A M
;
_chemical_formula_sum "Si O2"
_cell_formula_units_Z 64
_cell_length_a 12.867371
_cell_length_b 27.749601
_cell_length_c 8.590456
_cell_angle_alpha 90.000000
_cell_angle_beta 90.000000
_cell_angle_gamma 90.000000
_cell_volume 3067.346113
_symmetry_space_group_name_H-M "P B A M"
_symmetry_group_IT_number 55
_symmetry_cell_setting 'orthorhombic'
loop_
_space_group_symop_operation_xyz
x,y,z
-x,-y,z
1/2+x,1/2-y,-z
1/2-x,1/2+y,-z
-x,-y,-z
x,y,-z
1/2-x,1/2+y,z
1/2+x,1/2-y,z
loop_
_atom_site_type_symbol
_atom_site_label
_atom_site_fract_x
_atom_site_fract_y
_atom_site_fract_z
Si Si1 0.403015 0.465832 0.822882
Si Si2 0.239642 0.303390 0.180475
Si Si3 0.183984 0.705276 0.683377
Si Si4 0.593531 0.633928 0.320555
Si Si5 0.519990 0.156009 0.817206
Si Si6 0.135115 0.139155 0.683739
Si Si7 0.551603 0.948894 0.818334
Si Si8 0.729923 0.458348 0.681513
O O1 0.500000 0.500000 0.794147
O O2 0.413142 0.423079 0.700518
O O3 0.297951 0.494787 0.782389
O O4 0.396764 0.446958 0.000000
O O5 0.291494 0.260152 0.275424
O O6 0.318146 0.347458 0.205355
O O7 0.127015 0.320071 0.246037
O O8 0.232662 0.289736 0.000000
O O9 0.177489 0.699892 0.500000
O O10 0.279378 0.674842 0.757147
O O11 0.075328 0.686206 0.748658
O O12 0.618877 0.646166 0.500000
O O13 0.481108 0.655949 0.270563
O O14 0.517764 0.098536 0.776259
O O15 0.515518 0.162505 0.000000
O O16 0.148716 0.139762 0.500000
O O17 0.156696 0.085060 0.742505
O O18 0.652388 0.943208 0.712625
O O19 0.500000 0.000000 0.773106
O O20 0.581189 0.948480 0.000000
O O21 0.713484 0.469055 0.500000
#
# Coordination Sequence:
#
# PCOD8227462 Si02
#       8
#     8   8   8   8   8   8   8   8
#     4  11  23  38  58  89 127 169 210 255 310 372
#     4  11  26  45  64  94 131 169 212 261 321 385
#     4  11  23  43  69  95 123 162 213 269 322 378
#     4  11  23  42  65  93 128 170 213 260 321 380
#     4  10  23  44  66  93 131 170 210 262 321 386
#     4   9  20  38  62  92 126 157 201 262 318 372
#     4  10  22  40  63  91 126 169 211 259 319 381
#     4  11  21  38  61  90 124 164 210 260 315 375
#
# _framework density 20.864941999999999
#
# number of rings (size 3 to 8) (size 9 to 14) (size 15 to 20)
#    0.000    1.500    2.500    1.875    3.500    1.750 
#    0.000    1.875    0.000    0.000    0.000    0.000 
#    0.000    0.000    0.000    0.000    0.000    0.000 
#
# Total GULP energy -793570.398908 kJ/mol
# GULP energy per Si atom -12399.537483 kJ/mol
# Density = 2.081745 g / cm^3
# Si number density = 20.864942 Si / 1000 Ang^3
#
#
#
# Elastic Constant Matrix: (Units=GPa)
#
#
# Indices 1 2 3 4 5 6 
#
# 1 149.8697 59.4655 29.2980 0.0000 0.0000 0.0000
# 2 59.4655 109.7313 18.9647 0.0000 0.0000 0.0000
# 3 29.2980 18.9647 25.6645 0.0000 0.0000 0.0000
# 4 0.0000 0.0000 0.0000 26.2357 0.0000 0.0000
# 5 0.0000 0.0000 0.0000 0.0000 30.2069 0.0000
# 6 0.0000 0.0000 0.0000 0.0000 0.0000 38.4371
#
#
#
# Elastic Compliance Matrix: (Units=1/GPa)
#
#
# Indices 1 2 3 4 5 6 
#
# 1 0.009854 -0.003893 -0.008372 0.000000 0.000000 0.000000
# 2 -0.003893 0.011985 -0.004412 0.000000 0.000000 0.000000
# 3 -0.008372 -0.004412 0.051782 0.000000 0.000000 0.000000
# 4 0.000000 0.000000 0.000000 0.038116 0.000000 0.000000
# 5 0.000000 0.000000 0.000000 0.000000 0.033105 0.000000
# 6 0.000000 0.000000 0.000000 0.000000 0.000000 0.026017
#
#
# Mechanical properties :
#
#
# Convention : Reuss Voigt Hill
#
# Bulk Modulus (GPa) = 24.83462 55.63577 40.23520
# Shear Modulus (GPa) = 22.97409 30.81175 26.89292
#
# Velocity S-wave (km/s) = 3.32186 3.84698 3.59403
# Velocity P-wave (km/s) = 5.16153 6.81579 6.04551
#
# Compressibility (1/GPa) = 0.04026636
#
# Stress axis : x y z
#
# Youngs Moduli (GPa) = 101.48353 83.43427 19.31162
#
# Poissons Ratio (x) = 0.32481 0.16168
# Poissons Ratio (y) = 0.39508 0.08521
# Poissons Ratio (z) = 0.84963 0.36815
#
# Static dielectric constant tensor:
#      x y z
#    x 4.031310 0.000000 0.000000 
#    y 0.000000 3.875780 0.000000 
#    z 0.000000 0.000000 3.497180 
# 
# 
# High freq. dielectric constant tensor:
#      x y z
#    x 1.826160 0.000000 0.000000 
#    y 0.000000 1.822660 0.000000 
#    z 0.000000 0.000000 1.802420 
# 
# From -- ./inp_files/4619.got.cif
#   From: 2010.03.12/outbox.cif.g09.slc.cpg/sg55_3_cif.got.tgz:4619.got - 2010.04.16 15:19:21.
