data_PCOD8227530
_publ_section_title
;
Structure prediction by ZEFSAII (Michael W. Deem and Ramdas Pophale) SiO2 
 PCOD8227530
Probable space group: P B A M
;
_chemical_formula_sum "Si O2"
_cell_formula_units_Z 48
_cell_length_a 11.769079
_cell_length_b 23.486395
_cell_length_c 8.567799
_cell_angle_alpha 90.000000
_cell_angle_beta 90.000000
_cell_angle_gamma 90.000000
_cell_volume 2368.253066
_symmetry_space_group_name_H-M "P B A M"
_symmetry_group_IT_number 55
_symmetry_cell_setting 'orthorhombic'
loop_
_space_group_symop_operation_xyz
x,y,z
-x,-y,z
1/2+x,1/2-y,-z
1/2-x,1/2+y,-z
-x,-y,-z
x,y,-z
1/2-x,1/2+y,z
1/2+x,1/2-y,z
loop_
_atom_site_type_symbol
_atom_site_label
_atom_site_fract_x
_atom_site_fract_y
_atom_site_fract_z
Si Si1 0.605971 0.170535 0.179274
Si Si2 0.220538 0.915309 0.317927
Si Si3 0.166256 0.212758 0.678243
Si Si4 0.537994 0.400667 0.320422
Si Si5 0.257487 0.534449 0.180455
Si Si6 0.627350 0.864826 0.680838
O O1 0.711687 0.130917 0.219454
O O2 0.640547 0.235556 0.207530
O O3 0.500230 0.153742 0.286650
O O4 0.571502 0.162776 0.000000
O O5 0.235239 0.901885 0.500000
O O6 0.089955 0.910367 0.264665
O O7 0.266536 0.978003 0.280336
O O8 0.167365 0.234783 0.500000
O O9 0.068992 0.165438 0.702164
O O10 0.288435 0.186801 0.725047
O O11 0.555239 0.419032 0.500000
O O12 0.618588 0.440467 0.217700
O O13 0.158847 0.579347 0.220741
O O14 0.250671 0.518385 0.000000
O O15 0.643519 0.880367 0.500000
#
# Coordination Sequence:
#
# PCOD8227530 Si02
#       6
#     8   8   8   8   8   8
#     4  12  26  40  58  91 127 158 197 253 314 360
#     4  11  23  40  62  89 122 164 211 249 290 357
#     4   9  20  40  64  88 116 157 205 250 295 356
#     4   9  20  39  64  91 119 161 210 250 291 354
#     4  11  22  38  62  93 127 158 195 252 314 359
#     4  10  22  43  67  87 115 161 210 246 291 363
#
# _framework density 20.268104999999998
#
# number of rings (size 3 to 8) (size 9 to 14) (size 15 to 20)
#    0.000    1.667    0.000    5.500    2.333    7.333 
#    0.000    3.333    0.000    0.000    0.000    0.000 
#    0.000    0.000    0.000    0.000    0.000    0.000 
#
# Total GULP energy -595525.600137 kJ/mol
# GULP energy per Si atom -12406.783336 kJ/mol
# Density = 2.022197 g / cm^3
# Si number density = 20.268105 Si / 1000 Ang^3
#
#
#
# Elastic Constant Matrix: (Units=GPa)
#
#
# Indices 1 2 3 4 5 6 
#
# 1 40.9292 11.1450 19.2560 0.0000 0.0000 0.0000
# 2 11.1450 95.8322 21.0492 0.0000 0.0000 0.0000
# 3 19.2560 21.0492 57.8045 0.0000 0.0000 0.0000
# 4 0.0000 0.0000 0.0000 24.5435 0.0000 0.0000
# 5 0.0000 0.0000 0.0000 0.0000 27.5526 0.0000
# 6 0.0000 0.0000 0.0000 0.0000 0.0000 16.7546
#
#
#
# Elastic Compliance Matrix: (Units=1/GPa)
#
#
# Indices 1 2 3 4 5 6 
#
# 1 0.029137 -0.001366 -0.009209 0.000000 0.000000 0.000000
# 2 -0.001366 0.011406 -0.003698 0.000000 0.000000 0.000000
# 3 -0.009209 -0.003698 0.021714 0.000000 0.000000 0.000000
# 4 0.000000 0.000000 0.000000 0.040744 0.000000 0.000000
# 5 0.000000 0.000000 0.000000 0.000000 0.036294 0.000000
# 6 0.000000 0.000000 0.000000 0.000000 0.000000 0.059685
#
#
# Mechanical properties :
#
#
# Convention : Reuss Voigt Hill
#
# Bulk Modulus (GPa) = 29.66403 33.05180 31.35792
# Shear Modulus (GPa) = 20.94124 23.31119 22.12621
#
# Velocity S-wave (km/s) = 3.21785 3.39505 3.30764
# Velocity P-wave (km/s) = 5.33607 5.63127 5.48566
#
# Compressibility (1/GPa) = 0.03371086
#
# Stress axis : x y z
#
# Youngs Moduli (GPa) = 34.32087 87.67230 46.05300
#
# Poissons Ratio (x) = 0.11975 0.42409
# Poissons Ratio (y) = 0.04688 0.17033
# Poissons Ratio (z) = 0.31605 0.32425
#
# Static dielectric constant tensor:
#      x y z
#    x 3.656850 0.000000 0.000000 
#    y 0.000000 3.677320 0.000000 
#    z 0.000000 0.000000 3.540240 
# 
# 
# High freq. dielectric constant tensor:
#      x y z
#    x 1.792630 0.000000 0.000000 
#    y 0.000000 1.798170 0.000000 
#    z 0.000000 0.000000 1.789300 
# 
# From -- ./inp_files/4031.got.cif
#   From: 2010.03.12/outbox.cif.g09.slc.cpg/sg55_3_cif.got.tgz:4031.got - 2010.04.16 15:19:21.
