data_PCOD8227299
_publ_section_title
;
Structure prediction by ZEFSAII (Michael W. Deem and Ramdas Pophale) SiO2 
 PCOD8227299
Probable space group: P B A M
;
_chemical_formula_sum "Si O2"
_cell_formula_units_Z 48
_cell_length_a 18.717348
_cell_length_b 9.244379
_cell_length_c 13.329737
_cell_angle_alpha 90.000000
_cell_angle_beta 90.000000
_cell_angle_gamma 90.000000
_cell_volume 2306.447843
_symmetry_space_group_name_H-M "P B A M"
_symmetry_group_IT_number 55
_symmetry_cell_setting 'orthorhombic'
loop_
_space_group_symop_operation_xyz
x,y,z
-x,-y,z
1/2+x,1/2-y,-z
1/2-x,1/2+y,-z
-x,-y,-z
x,y,-z
1/2-x,1/2+y,z
1/2+x,1/2-y,z
loop_
_atom_site_type_symbol
_atom_site_label
_atom_site_fract_x
_atom_site_fract_y
_atom_site_fract_z
Si Si1 0.680066 0.006702 0.618247
Si Si2 0.463434 0.357269 0.614083
Si Si3 0.788604 0.047939 0.113794
Si Si4 0.313358 0.310800 0.688227
Si Si5 0.952033 0.626735 0.731230
Si Si6 0.655223 0.233578 0.887922
O O1 0.680461 0.974746 0.500000
O O2 0.740385 0.120752 0.648155
O O3 0.603477 0.070319 0.648266
O O4 0.695195 0.860972 0.679863
O O5 0.500000 0.500000 0.658715
O O6 0.487317 0.334928 0.500000
O O7 0.377939 0.369368 0.620451
O O8 0.489285 0.223152 0.677595
O O9 0.830590 0.143520 0.196261
O O10 0.705121 0.091932 0.124773
O O11 0.798745 0.877745 0.137587
O O12 0.814758 0.085310 0.000000
O O13 0.912601 0.718680 0.816558
O O14 0.000000 0.500000 0.780320
O O15 0.624937 0.244788 0.000000
#
# Coordination Sequence:
#
# PCOD8227299 Si02
#       6
#     8   8   8   8   8   8
#     4  12  26  42  65  96 132 171 220 275 326 386
#     4  11  25  43  65  93 131 176 222 273 335 397
#     4  10  21  40  68  99 131 167 212 274 335 390
#     4  12  24  43  66  97 129 169 224 273 324 394
#     4  12  25  43  65  91 132 181 214 267 328 399
#     4  10  22  41  66  99 132 168 217 272 333 394
#
# _framework density 20.811222999999998
#
# number of rings (size 3 to 8) (size 9 to 14) (size 15 to 20)
#    0.000    0.833    3.333    4.000    2.333    1.000 
#    0.000    0.833    0.000    3.000    0.000    0.000 
#    0.000    0.000    0.000    0.000    0.000    0.000 
#
# Total GULP energy -595286.923670 kJ/mol
# GULP energy per Si atom -12401.810910 kJ/mol
# Density = 2.076386 g / cm^3
# Si number density = 20.811223 Si / 1000 Ang^3
#
#
#
# Elastic Constant Matrix: (Units=GPa)
#
#
# Indices 1 2 3 4 5 6 
#
# 1 89.4489 27.3337 24.3236 0.0000 0.0000 0.0000
# 2 27.3337 84.4146 35.9792 0.0000 0.0000 0.0000
# 3 24.3236 35.9792 114.1588 0.0000 0.0000 0.0000
# 4 0.0000 0.0000 0.0000 28.5661 0.0000 0.0000
# 5 0.0000 0.0000 0.0000 0.0000 20.7487 0.0000
# 6 0.0000 0.0000 0.0000 0.0000 0.0000 33.3452
#
#
#
# Elastic Compliance Matrix: (Units=1/GPa)
#
#
# Indices 1 2 3 4 5 6 
#
# 1 0.012663 -0.003408 -0.001624 0.000000 0.000000 0.000000
# 2 -0.003408 0.014602 -0.003876 0.000000 0.000000 0.000000
# 3 -0.001624 -0.003876 0.010327 0.000000 0.000000 0.000000
# 4 0.000000 0.000000 0.000000 0.035007 0.000000 0.000000
# 5 0.000000 0.000000 0.000000 0.000000 0.048196 0.000000
# 6 0.000000 0.000000 0.000000 0.000000 0.000000 0.029989
#
#
# Mechanical properties :
#
#
# Convention : Reuss Voigt Hill
#
# Bulk Modulus (GPa) = 50.56623 51.47725 51.02174
# Shear Modulus (GPa) = 28.54028 29.89105 29.21566
#
# Velocity S-wave (km/s) = 3.70724 3.79396 3.75085
# Velocity P-wave (km/s) = 6.53263 6.63183 6.58242
#
# Compressibility (1/GPa) = 0.01977604
#
# Stress axis : x y z
#
# Youngs Moduli (GPa) = 78.97294 68.48468 96.83094
#
# Poissons Ratio (x) = 0.23340 0.15724
# Poissons Ratio (y) = 0.26914 0.37530
# Poissons Ratio (z) = 0.12824 0.26544
#
# Static dielectric constant tensor:
#      x y z
#    x 3.610050 0.000000 0.000000 
#    y 0.000000 3.864780 0.000000 
#    z 0.000000 0.000000 4.006740 
# 
# 
# High freq. dielectric constant tensor:
#      x y z
#    x 1.805250 0.000000 0.000000 
#    y 0.000000 1.825400 0.000000 
#    z 0.000000 0.000000 1.823340 
# 
# From -- ./inp_files/19347.got.cif
#   From: 2010.03.12/outbox.cif.g09.slc.cpg/sg55_10_cif.got.tgz:19347.got - 2010.04.16 15:19:21.
