data_PCOD8227195
_publ_section_title
;
Structure prediction by ZEFSAII (Michael W. Deem and Ramdas Pophale) SiO2 
 PCOD8227195
Probable space group: P B A M
;
_chemical_formula_sum "Si O2"
_cell_formula_units_Z 56
_cell_length_a 18.536589
_cell_length_b 16.861478
_cell_length_c 9.123106
_cell_angle_alpha 90.000000
_cell_angle_beta 90.000000
_cell_angle_gamma 90.000000
_cell_volume 2851.465897
_symmetry_space_group_name_H-M "P B A M"
_symmetry_group_IT_number 55
_symmetry_cell_setting 'orthorhombic'
loop_
_space_group_symop_operation_xyz
x,y,z
-x,-y,z
1/2+x,1/2-y,-z
1/2-x,1/2+y,-z
-x,-y,-z
x,y,-z
1/2-x,1/2+y,z
1/2+x,1/2-y,z
loop_
_atom_site_type_symbol
_atom_site_label
_atom_site_fract_x
_atom_site_fract_y
_atom_site_fract_z
Si Si1 0.079764 0.524499 0.168594
Si Si2 0.359904 0.174962 0.671174
Si Si3 0.154824 0.976778 0.669519
Si Si4 0.052596 0.830314 0.332392
Si Si5 0.288162 0.916107 0.169118
Si Si6 0.089358 0.124269 0.171023
Si Si7 0.721201 0.264194 0.171038
O O1 0.105276 0.595123 0.270560
O O2 0.131252 0.448668 0.191722
O O3 0.000000 0.500000 0.218070
O O4 0.080914 0.553015 0.000000
O O5 0.345465 0.167237 0.500000
O O6 0.414758 0.245448 0.707619
O O7 0.283318 0.189173 0.745845
O O8 0.164072 0.997984 0.500000
O O9 0.115196 0.893810 0.694529
O O10 0.233741 0.971623 0.740802
O O11 0.107644 0.044363 0.744021
O O12 0.024922 0.834327 0.500000
O O13 0.987738 0.844854 0.222205
O O14 0.285692 0.826029 0.227561
O O15 0.264793 0.920382 0.000000
O O16 0.146439 0.192723 0.206817
O O17 0.086436 0.104354 0.000000
O O18 0.739326 0.266882 0.000000
#
# Coordination Sequence:
#
# PCOD8227195 Si02
#       7
#     8   8   8   8   8   8   8
#     4  10  23  41  64  91 124 163 205 254 308 361
#     4  11  23  41  63  89 122 160 205 248 300 363
#     4  11  22  40  62  86 121 160 196 241 300 358
#     4  10  23  41  59  86 122 159 196 242 298 357
#     4  10  21  39  62  88 118 156 204 250 296 357
#     4  11  24  38  60  92 121 152 198 246 296 356
#     4  10  22  40  62  89 121 157 201 252 299 353
#
# _framework density 19.639022000000001
#
# number of rings (size 3 to 8) (size 9 to 14) (size 15 to 20)
#    0.000    1.571    1.429    2.571    2.000    9.429 
#    0.000    0.000    0.000    0.000    0.000    0.000 
#    0.000    0.000    0.000    0.000    0.000    0.000 
#
# Total GULP energy -694783.425096 kJ/mol
# GULP energy per Si atom -12406.846877 kJ/mol
# Density = 1.959432 g / cm^3
# Si number density = 19.639022 Si / 1000 Ang^3
#
#
#
# Elastic Constant Matrix: (Units=GPa)
#
#
# Indices 1 2 3 4 5 6 
#
# 1 119.1321 25.2031 43.7207 0.0000 0.0000 0.0000
# 2 25.2031 79.9519 33.1972 0.0000 0.0000 0.0000
# 3 43.7207 33.1972 65.9807 0.0000 0.0000 0.0000
# 4 0.0000 0.0000 0.0000 29.5975 0.0000 0.0000
# 5 0.0000 0.0000 0.0000 0.0000 13.1513 0.0000
# 6 0.0000 0.0000 0.0000 0.0000 0.0000 24.8079
#
#
#
# Elastic Compliance Matrix: (Units=1/GPa)
#
#
# Indices 1 2 3 4 5 6 
#
# 1 0.011111 -0.000563 -0.007079 0.000000 0.000000 0.000000
# 2 -0.000563 0.015839 -0.007596 0.000000 0.000000 0.000000
# 3 -0.007079 -0.007596 0.023669 0.000000 0.000000 0.000000
# 4 0.000000 0.000000 0.000000 0.033787 0.000000 0.000000
# 5 0.000000 0.000000 0.000000 0.000000 0.076038 0.000000
# 6 0.000000 0.000000 0.000000 0.000000 0.000000 0.040310
#
#
# Mechanical properties :
#
#
# Convention : Reuss Voigt Hill
#
# Bulk Modulus (GPa) = 49.64732 52.14519 50.89625
# Shear Modulus (GPa) = 21.01331 24.37425 22.69378
#
# Velocity S-wave (km/s) = 3.27460 3.52677 3.40302
# Velocity P-wave (km/s) = 6.29541 6.57218 6.43528
#
# Compressibility (1/GPa) = 0.02014208
#
# Stress axis : x y z
#
# Youngs Moduli (GPa) = 89.99897 63.13525 42.24985
#
# Poissons Ratio (x) = 0.03555 0.29910
# Poissons Ratio (y) = 0.05068 0.32093
# Poissons Ratio (z) = 0.63713 0.47958
#
# Static dielectric constant tensor:
#      x y z
#    x 3.633420 0.000000 0.000000 
#    y 0.000000 3.734910 0.000000 
#    z 0.000000 0.000000 3.611830 
# 
# 
# High freq. dielectric constant tensor:
#      x y z
#    x 1.774440 0.000000 0.000000 
#    y 0.000000 1.777190 0.000000 
#    z 0.000000 0.000000 1.766110 
# 
# From -- ./inp_files/8762.got.cif
#   From: 2010.03.12/outbox.cif.g09.slc.cpg/sg55_5_cif.got.tgz:8762.got - 2010.04.16 15:19:21.
