data_PCOD8227921
_publ_section_title
;
Structure prediction by ZEFSAII (Michael W. Deem and Ramdas Pophale) SiO2 
 PCOD8227921
Probable space group: P C C N
;
_chemical_formula_sum "Si O2"
_cell_formula_units_Z 64
_cell_length_a 21.797084
_cell_length_b 30.118019
_cell_length_c 5.218360
_cell_angle_alpha 90.000000
_cell_angle_beta 90.000000
_cell_angle_gamma 90.000000
_cell_volume 3425.775013
_symmetry_space_group_name_H-M "P C C N"
_symmetry_group_IT_number 56
_symmetry_cell_setting 'orthorhombic'
loop_
_space_group_symop_operation_xyz
x,y,z
1/2-x,1/2-y,z
1/2+x,-y,1/2-z
-x,1/2+y,1/2-z
-x,-y,-z
1/2+x,1/2+y,-z
1/2-x,y,1/2+z
x,1/2-y,1/2+z
loop_
_atom_site_type_symbol
_atom_site_label
_atom_site_fract_x
_atom_site_fract_y
_atom_site_fract_z
Si Si1 0.710678 0.040369 0.239246
Si Si2 0.107217 0.233507 0.244565
Si Si3 0.213321 0.857846 0.293112
Si Si4 0.073021 0.973456 0.249469
Si Si5 0.977074 0.657680 0.264073
Si Si6 0.489275 0.941681 0.250059
Si Si7 0.988591 0.295884 0.227878
Si Si8 0.644140 0.273061 0.779031
O O1 0.750854 0.027386 0.487051
O O2 0.691443 0.091898 0.240298
O O3 0.645577 0.015411 0.246082
O O4 0.144761 0.253550 0.486257
O O5 0.090971 0.181010 0.263805
O O6 0.043526 0.260771 0.196894
O O7 0.234186 0.848346 0.583260
O O8 0.156777 0.825548 0.235133
O O9 0.053500 0.945713 0.499984
O O10 0.054629 0.945490 0.997603
O O11 0.041127 0.021105 0.246501
O O12 0.973710 0.604612 0.247713
O O13 0.003777 0.669978 0.539576
O O14 0.018997 0.675428 0.031517
O O15 0.928827 0.266239 0.276789
O O16 0.673550 0.247564 0.535961
#
# Coordination Sequence:
#
# PCOD8227921 Si02
#       8
#     8   8   8   8   8   8   8   8
#     4  10  21  39  58  74  94 126 169 210 251 295
#     4   8  14  25  38  54  87 111 144 190 209 248
#     4  10  23  38  49  66  84 109 156 207 251 300
#     4  10  21  38  51  77 105 124 157 202 250 306
#     4  10  18  28  46  65  88 124 154 178 233 283
#     4  10  21  33  53  78 105 130 152 193 257 314
#     4  10  19  31  41  66  91 114 157 196 217 279
#     4  12  23  34  48  64  84 117 152 199 257 296
#
# _framework density 18.681902999999998
#
# number of rings (size 3 to 8) (size 9 to 14) (size 15 to 20)
#    0.000    2.000    0.000    5.250    3.500    1.500 
#    0.000    0.000    0.000    0.000    0.000    0.000 
#    0.000    0.000    0.000    0.000    0.000   33.750 
#
# Total GULP energy -793325.345366 kJ/mol
# GULP energy per Si atom -12395.708521 kJ/mol
# Density = 1.863938 g / cm^3
# Si number density = 18.681903 Si / 1000 Ang^3
#
#
#
# Elastic Constant Matrix: (Units=GPa)
#
#
# Indices 1 2 3 4 5 6 
#
# 1 46.7458 3.4625 16.2643 0.0000 0.0000 0.0000
# 2 3.4625 67.4874 20.8293 0.0000 0.0000 0.0000
# 3 16.2643 20.8293 133.7521 0.0000 0.0000 0.0000
# 4 0.0000 0.0000 0.0000 19.2615 0.0000 0.0000
# 5 0.0000 0.0000 0.0000 0.0000 11.2953 0.0000
# 6 0.0000 0.0000 0.0000 0.0000 0.0000 12.4797
#
#
#
# Elastic Compliance Matrix: (Units=1/GPa)
#
#
# Indices 1 2 3 4 5 6 
#
# 1 0.022344 -0.000323 -0.002667 0.000000 0.000000 0.000000
# 2 -0.000323 0.015570 -0.002385 0.000000 0.000000 0.000000
# 3 -0.002667 -0.002385 0.008172 0.000000 0.000000 0.000000
# 4 0.000000 0.000000 0.000000 0.051917 0.000000 0.000000
# 5 0.000000 0.000000 0.000000 0.000000 0.088533 0.000000
# 6 0.000000 0.000000 0.000000 0.000000 0.000000 0.080130
#
#
# Mechanical properties :
#
#
# Convention : Reuss Voigt Hill
#
# Bulk Modulus (GPa) = 28.29995 36.56638 32.43317
# Shear Modulus (GPa) = 17.28932 22.43591 19.86261
#
# Velocity S-wave (km/s) = 3.04543 3.46922 3.26421
# Velocity P-wave (km/s) = 5.24857 5.97185 5.62185
#
# Compressibility (1/GPa) = 0.03533575
#
# Stress axis : x y z
#
# Youngs Moduli (GPa) = 44.75463 64.22431 122.36485
#
# Poissons Ratio (x) = 0.02077 0.32631
# Poissons Ratio (y) = 0.01447 0.29190
# Poissons Ratio (z) = 0.11935 0.15321
#
# Static dielectric constant tensor:
#      x y z
#    x 2.830610 0.000000 0.000000 
#    y 0.000000 3.288010 0.000000 
#    z 0.000000 0.000000 4.395060 
# 
# 
# High freq. dielectric constant tensor:
#      x y z
#    x 1.662610 0.000000 0.000000 
#    y 0.000000 1.709510 0.000000 
#    z 0.000000 0.000000 1.765180 
# 
# From -- ./inp_files/778.got.cif
#   From: 2010.03.12/outbox.cif.g09.slc.cpg/sg56_1_cif.got.tgz:778.got - 2010.04.16 15:33:40.
