data_PCOD8227205
_publ_section_title
;
Structure prediction by ZEFSAII (Michael W. Deem and Ramdas Pophale) SiO2 
 PCOD8227205
Probable space group: P B A M
;
_chemical_formula_sum "Si O2"
_cell_formula_units_Z 64
_cell_length_a 12.234166
_cell_length_b 14.414313
_cell_length_c 17.496368
_cell_angle_alpha 90.000000
_cell_angle_beta 90.000000
_cell_angle_gamma 90.000000
_cell_volume 3085.433723
_symmetry_space_group_name_H-M "P B A M"
_symmetry_group_IT_number 55
_symmetry_cell_setting 'orthorhombic'
loop_
_space_group_symop_operation_xyz
x,y,z
-x,-y,z
1/2+x,1/2-y,-z
1/2-x,1/2+y,-z
-x,-y,-z
x,y,-z
1/2-x,1/2+y,z
1/2+x,1/2-y,z
loop_
_atom_site_type_symbol
_atom_site_label
_atom_site_fract_x
_atom_site_fract_y
_atom_site_fract_z
Si Si1 0.974054 0.400520 0.653927
Si Si2 0.331267 0.739860 0.810508
Si Si3 0.697085 0.125785 0.586554
Si Si4 0.877779 0.982137 0.409965
Si Si5 0.142585 0.748096 0.915741
Si Si6 0.249184 0.187566 0.358019
Si Si7 0.542531 0.399109 0.086216
Si Si8 0.485892 0.103907 0.824989
O O1 0.866877 0.355009 0.618945
O O2 0.000000 0.500000 0.615795
O O3 0.089276 0.350014 0.637962
O O4 0.936264 0.411366 0.741511
O O5 0.239272 0.784163 0.863439
O O6 0.276294 0.713077 0.730010
O O7 0.375369 0.644949 0.850986
O O8 0.413696 0.826217 0.808271
O O9 0.664452 0.098938 0.500000
O O10 0.758958 0.222804 0.588881
O O11 0.781681 0.050083 0.622782
O O12 0.881555 0.997345 0.500000
O O13 0.847878 0.878237 0.386695
O O14 0.000000 0.000000 0.375966
O O15 0.058069 0.830571 0.918000
O O16 0.095771 0.652140 0.883150
O O17 0.187088 0.726087 0.000000
O O18 0.500000 0.500000 0.114074
O O19 0.594146 0.406991 0.000000
O O20 0.500000 0.000000 0.859792
#
# Coordination Sequence:
#
# PCOD8227205 Si02
#       8
#     8   8   8   8   8   8   8   8
#     4  11  22  43  65  92 129 167 214 267 317 379
#     4  11  22  38  61  93 123 162 209 257 313 376
#     4  11  25  42  66  96 125 170 217 265 322 384
#     4  10  24  46  66  93 130 164 212 270 324 381
#     4  10  21  39  62  91 125 162 208 260 312 373
#     4  12  24  41  66  93 129 171 213 260 322 383
#     4   9  20  40  61  86 122 160 204 257 312 373
#     4  10  22  40  63  89 126 168 209 261 318 378
#
# _framework density 20.742626999999999
#
# number of rings (size 3 to 8) (size 9 to 14) (size 15 to 20)
#    0.000    1.500    3.750    0.750    1.750    3.500 
#    2.250    1.250    0.000    0.000    0.000    0.000 
#    0.000    0.000    0.000    0.000    0.000    0.000 
#
# Total GULP energy -792860.888415 kJ/mol
# GULP energy per Si atom -12388.451381 kJ/mol
# Density = 2.069542 g / cm^3
# Si number density = 20.742627 Si / 1000 Ang^3
#
#
#
# Elastic Constant Matrix: (Units=GPa)
#
#
# Indices 1 2 3 4 5 6 
#
# 1 89.8625 14.2615 11.8241 0.0000 0.0000 0.0000
# 2 14.2615 115.6701 9.2206 0.0000 0.0000 0.0000
# 3 11.8241 9.2206 46.0240 0.0000 0.0000 0.0000
# 4 0.0000 0.0000 0.0000 11.2022 0.0000 0.0000
# 5 0.0000 0.0000 0.0000 0.0000 24.6562 0.0000
# 6 0.0000 0.0000 0.0000 0.0000 0.0000 19.3181
#
#
#
# Elastic Compliance Matrix: (Units=1/GPa)
#
#
# Indices 1 2 3 4 5 6 
#
# 1 0.011685 -0.001221 -0.002757 0.000000 0.000000 0.000000
# 2 -0.001221 0.008913 -0.001472 0.000000 0.000000 0.000000
# 3 -0.002757 -0.001472 0.022731 0.000000 0.000000 0.000000
# 4 0.000000 0.000000 0.000000 0.089268 0.000000 0.000000
# 5 0.000000 0.000000 0.000000 0.000000 0.040558 0.000000
# 6 0.000000 0.000000 0.000000 0.000000 0.000000 0.051765
#
#
# Mechanical properties :
#
#
# Convention : Reuss Voigt Hill
#
# Bulk Modulus (GPa) = 30.83712 35.79656 33.31684
# Shear Modulus (GPa) = 20.27331 25.45200 22.86265
#
# Velocity S-wave (km/s) = 3.12969 3.50671 3.32355
# Velocity P-wave (km/s) = 5.28760 5.80439 5.55202
#
# Compressibility (1/GPa) = 0.03242845
#
# Stress axis : x y z
#
# Youngs Moduli (GPa) = 85.58215 112.19386 43.99260
#
# Poissons Ratio (x) = 0.13697 0.12130
# Poissons Ratio (y) = 0.10448 0.06476
# Poissons Ratio (z) = 0.23598 0.16515
#
# Static dielectric constant tensor:
#      x y z
#    x 3.996900 0.000000 0.000000 
#    y 0.000000 4.021210 0.000000 
#    z 0.000000 0.000000 3.711470 
# 
# 
# High freq. dielectric constant tensor:
#      x y z
#    x 1.812860 0.000000 0.000000 
#    y 0.000000 1.819950 0.000000 
#    z 0.000000 0.000000 1.805810 
# 
# From -- ./inp_files/21351.got.cif
#   From: 2010.03.12/outbox.cif.g09.slc.cpg/sg55_11_cif.got.tgz:21351.got - 2010.04.16 15:19:21.
