data_PCOD8227466
_publ_section_title
;
Structure prediction by ZEFSAII (Michael W. Deem and Ramdas Pophale) SiO2 
 PCOD8227466
Probable space group: P B A M
;
_chemical_formula_sum "Si O2"
_cell_formula_units_Z 32
_cell_length_a 15.499994
_cell_length_b 5.011102
_cell_length_c 18.812579
_cell_angle_alpha 90.000000
_cell_angle_beta 90.000000
_cell_angle_gamma 90.000000
_cell_volume 1461.211594
_symmetry_space_group_name_H-M "P B A M"
_symmetry_group_IT_number 55
_symmetry_cell_setting 'orthorhombic'
loop_
_space_group_symop_operation_xyz
x,y,z
-x,-y,z
1/2+x,1/2-y,-z
1/2-x,1/2+y,-z
-x,-y,-z
x,y,-z
1/2-x,1/2+y,z
1/2+x,1/2-y,z
loop_
_atom_site_type_symbol
_atom_site_label
_atom_site_fract_x
_atom_site_fract_y
_atom_site_fract_z
Si Si1 0.807038 0.379573 0.377382
Si Si2 0.061655 0.743935 0.500000
Si Si3 0.304750 0.625672 0.000000
Si Si4 0.601162 0.496135 0.144618
Si Si5 0.101718 0.507876 0.232094
O O1 0.773272 0.679576 0.389543
O O2 0.880073 0.277736 0.430414
O O3 0.847230 0.380926 0.299396
O O4 0.000000 0.500000 0.500000
O O5 0.000000 0.000000 0.500000
O O6 0.359934 0.570544 0.069268
O O7 0.221674 0.434652 0.000000
O O8 0.500000 0.500000 0.134723
O O9 0.628498 0.790190 0.169255
O O10 0.630948 0.283840 0.205162
O O11 0.000000 0.500000 0.249676
#
# Coordination Sequence:
#
# PCOD8227466 Si02
#       5
#     8   4   4   8   8
#     4  12  25  42  66  98 133 166 205 263 323 374
#     4  12  26  46  70  94 128 174 218 258 302 374
#     4  12  25  38  59  88 122 158 204 262 321 378
#     4  10  22  41  62  86 120 164 210 256 308 376
#     4  10  22  40  64  91 122 164 212 255 307 379
#
# _framework density 21.899636000000001
#
# number of rings (size 3 to 8) (size 9 to 14) (size 15 to 20)
#    0.000    1.000    0.000    6.375    0.000    9.000 
#    0.000    5.000    0.000    0.000    0.000    0.000 
#    0.000    0.000    0.000    0.000    0.000    0.000 
#
# Total GULP energy -396782.771449 kJ/mol
# GULP energy per Si atom -12399.461608 kJ/mol
# Density = 2.184979 g / cm^3
# Si number density = 21.899636 Si / 1000 Ang^3
#
#
#
# Elastic Constant Matrix: (Units=GPa)
#
#
# Indices 1 2 3 4 5 6 
#
# 1 66.7404 42.9896 63.6922 0.0000 0.0000 0.0000
# 2 42.9896 120.2827 24.6486 0.0000 0.0000 0.0000
# 3 63.6922 24.6486 132.6390 0.0000 0.0000 0.0000
# 4 0.0000 0.0000 0.0000 5102.7307 0.0000 0.0000
# 5 0.0000 0.0000 0.0000 0.0000 38.8236 0.0000
# 6 0.0000 0.0000 0.0000 0.0000 0.0000 45.4125
#
#
#
# Elastic Compliance Matrix: (Units=1/GPa)
#
#
# Indices 1 2 3 4 5 6 
#
# 1 0.036013 -0.009697 -0.015491 0.000000 0.000000 0.000000
# 2 -0.009697 0.011254 0.002565 0.000000 0.000000 0.000000
# 3 -0.015491 0.002565 0.014501 0.000000 0.000000 0.000000
# 4 0.000000 0.000000 0.000000 0.000196 0.000000 0.000000
# 5 0.000000 0.000000 0.000000 0.000000 0.025758 0.000000
# 6 0.000000 0.000000 0.000000 0.000000 0.000000 0.022020
#
#
# Mechanical properties :
#
#
# Convention : Reuss Voigt Hill
#
# Bulk Modulus (GPa) = 60.52436 64.70253 62.61344
# Shear Modulus (GPa) = 31.15346 1049.94881 540.55114
#
# Velocity S-wave (km/s) = 3.77577 21.91980 15.72790
# Velocity P-wave (km/s) = 6.83416 25.88911 18.93346
#
# Compressibility (1/GPa) = 0.01652227
#
# Stress axis : x y z
#
# Youngs Moduli (GPa) = 27.76760 88.85897 68.95885
#
# Poissons Ratio (x) = 0.86164 1.06826
# Poissons Ratio (y) = 0.26926 -0.17688
# Poissons Ratio (z) = 0.43016 -0.22792
#
# Static dielectric constant tensor:
#      x y z
#    x 4.061800 0.000000 0.000000 
#    y 0.000000 4.537880 0.000000 
#    z 0.000000 0.000000 7.684760 
# 
# 
# High freq. dielectric constant tensor:
#      x y z
#    x 1.867230 0.000000 0.000000 
#    y 0.000000 1.880610 0.000000 
#    z 0.000000 0.000000 1.870470 
# 
# From -- ./inp_files/21408.got.cif
#   From: 2010.03.12/outbox.cif.g09.slc.cpg/sg55_11_cif.got.tgz:21408.got - 2010.04.16 15:19:21.
