data_PCOD8227265
_publ_section_title
;
Structure prediction by ZEFSAII (Michael W. Deem and Ramdas Pophale) SiO2 
 PCOD8227265
Probable space group: P B A M
;
_chemical_formula_sum "Si O2"
_cell_formula_units_Z 32
_cell_length_a 10.878331
_cell_length_b 12.274516
_cell_length_c 11.250591
_cell_angle_alpha 90.000000
_cell_angle_beta 90.000000
_cell_angle_gamma 90.000000
_cell_volume 1502.249203
_symmetry_space_group_name_H-M "P B A M"
_symmetry_group_IT_number 55
_symmetry_cell_setting 'orthorhombic'
loop_
_space_group_symop_operation_xyz
x,y,z
-x,-y,z
1/2+x,1/2-y,-z
1/2-x,1/2+y,-z
-x,-y,-z
x,y,-z
1/2-x,1/2+y,z
1/2+x,1/2-y,z
loop_
_atom_site_type_symbol
_atom_site_label
_atom_site_fract_x
_atom_site_fract_y
_atom_site_fract_z
Si Si1 0.141285 0.959148 0.500000
Si Si2 0.096175 0.902843 0.247870
Si Si3 0.334987 0.968378 0.864804
Si Si4 0.453150 0.162172 0.246905
Si Si5 0.606913 0.910973 0.500000
O O1 0.158292 0.890309 0.378790
O O2 0.251090 0.048404 0.500000
O O3 0.000000 0.000000 0.500000
O O4 0.195009 0.934498 0.148950
O O5 0.038161 0.788057 0.207462
O O6 0.000000 0.000000 0.249287
O O7 0.415590 0.893944 0.776297
O O8 0.351519 0.095268 0.828793
O O9 0.377560 0.950276 0.000000
O O10 0.415334 0.162357 0.384593
O O11 0.500000 0.000000 0.500000
#
# Coordination Sequence:
#
# PCOD8227265 Si02
#       5
#     4   8   8   8   4
#     4  10  21  40  63  99 142 162 209 279 337 402
#     4  11  25  43  67 102 135 173 222 277 342 406
#     4  11  25  45  67  94 133 179 230 281 331 394
#     4  11  23  42  70  97 132 174 223 277 339 401
#     4  12  19  40  72  98 132 178 219 270 343 414
#
# _framework density 21.301392
#
# number of rings (size 3 to 8) (size 9 to 14) (size 15 to 20)
#    0.000    1.000    5.000    2.250    3.500    2.500 
#    0.000    2.500    0.000    0.000    0.000    0.000 
#    0.000    0.000    0.000    0.000    0.000    0.000 
#
# Total GULP energy -396643.785470 kJ/mol
# GULP energy per Si atom -12395.118296 kJ/mol
# Density = 2.125291 g / cm^3
# Si number density = 21.301392 Si / 1000 Ang^3
#
#
#
# Elastic Constant Matrix: (Units=GPa)
#
#
# Indices 1 2 3 4 5 6 
#
# 1 112.3507 49.6633 37.4187 0.0000 0.0000 0.0000
# 2 49.6633 175.2662 31.3530 0.0000 0.0000 0.0000
# 3 37.4187 31.3530 116.6532 0.0000 0.0000 0.0000
# 4 0.0000 0.0000 0.0000 8.2792 0.0000 0.0000
# 5 0.0000 0.0000 0.0000 0.0000 14.3244 0.0000
# 6 0.0000 0.0000 0.0000 0.0000 0.0000 17.7304
#
#
#
# Elastic Compliance Matrix: (Units=1/GPa)
#
#
# Indices 1 2 3 4 5 6 
#
# 1 0.010996 -0.002610 -0.002825 0.000000 0.000000 0.000000
# 2 -0.002610 0.006613 -0.000940 0.000000 0.000000 0.000000
# 3 -0.002825 -0.000940 0.009731 0.000000 0.000000 0.000000
# 4 0.000000 0.000000 0.000000 0.120784 0.000000 0.000000
# 5 0.000000 0.000000 0.000000 0.000000 0.069811 0.000000
# 6 0.000000 0.000000 0.000000 0.000000 0.000000 0.056400
#
#
# Mechanical properties :
#
#
# Convention : Reuss Voigt Hill
#
# Bulk Modulus (GPa) = 68.54682 71.23779 69.89231
# Shear Modulus (GPa) = 17.12618 27.12247 22.12432
#
# Velocity S-wave (km/s) = 2.83855 3.57217 3.22628
# Velocity P-wave (km/s) = 6.55687 7.10839 6.83819
#
# Compressibility (1/GPa) = 0.01458857
#
# Stress axis : x y z
#
# Youngs Moduli (GPa) = 90.94574 151.20728 102.75961
#
# Poissons Ratio (x) = 0.39469 0.29034
# Poissons Ratio (y) = 0.23739 0.09662
# Poissons Ratio (z) = 0.25697 0.14217
#
# Static dielectric constant tensor:
#      x y z
#    x 3.777450 0.000000 0.000000 
#    y 0.000000 3.686980 0.000000 
#    z 0.000000 0.000000 4.163710 
# 
# 
# High freq. dielectric constant tensor:
#      x y z
#    x 1.833910 0.000000 0.000000 
#    y 0.000000 1.821200 0.000000 
#    z 0.000000 0.000000 1.843490 
# 
# From -- ./inp_files/12784.got.cif
#   From: 2010.03.12/outbox.cif.g09.slc.cpg/sg55_7_cif.got.tgz:12784.got - 2010.04.16 15:19:21.
