data_PCOD8227552
_publ_section_title
;
Structure prediction by ZEFSAII (Michael W. Deem and Ramdas Pophale) SiO2 
 PCOD8227552
Probable space group: P B A M
;
_chemical_formula_sum "Si O2"
_cell_formula_units_Z 48
_cell_length_a 8.895862
_cell_length_b 14.455331
_cell_length_c 18.172218
_cell_angle_alpha 90.000000
_cell_angle_beta 90.000000
_cell_angle_gamma 90.000000
_cell_volume 2336.813301
_symmetry_space_group_name_H-M "P B A M"
_symmetry_group_IT_number 55
_symmetry_cell_setting 'orthorhombic'
loop_
_space_group_symop_operation_xyz
x,y,z
-x,-y,z
1/2+x,1/2-y,-z
1/2-x,1/2+y,-z
-x,-y,-z
x,y,-z
1/2-x,1/2+y,z
1/2+x,1/2-y,z
loop_
_atom_site_type_symbol
_atom_site_label
_atom_site_fract_x
_atom_site_fract_y
_atom_site_fract_z
Si Si1 0.018379 0.791886 0.415407
Si Si2 0.326782 0.026592 0.917715
Si Si3 0.658247 0.544370 0.663684
Si Si4 0.610754 0.816748 0.811991
Si Si5 0.281052 0.145209 0.649513
Si Si6 0.266498 0.869875 0.812283
O O1 0.970245 0.800453 0.500000
O O2 0.135019 0.874371 0.395968
O O3 0.091013 0.691633 0.400676
O O4 0.873606 0.799422 0.363565
O O5 0.307825 0.123082 0.874902
O O6 0.500000 0.000000 0.919990
O O7 0.237854 0.945854 0.875288
O O8 0.260847 0.036999 0.000000
O O9 0.500000 0.500000 0.688898
O O10 0.760427 0.462833 0.627816
O O11 0.744406 0.584768 0.733125
O O12 0.678581 0.848384 0.734686
O O13 0.432773 0.828271 0.814427
O O14 0.644914 0.709641 0.826581
#
# Coordination Sequence:
#
# PCOD8227552 Si02
#       6
#     8   8   8   8   8   8
#     4  11  24  41  61  89 124 161 204 258 318 369
#     4   9  20  39  61  91 129 164 203 257 314 365
#     4  10  23  38  64  92 120 164 207 255 308 373
#     4  11  22  37  65  93 122 168 212 260 305 376
#     4  11  22  40  62  89 119 163 206 254 306 372
#     4  11  22  38  63  95 127 161 213 257 309 370
#
# _framework density 20.540794000000002
#
# number of rings (size 3 to 8) (size 9 to 14) (size 15 to 20)
#    0.000    1.500    3.333    1.500    2.333    4.333 
#    0.000    0.000    0.000    5.500    0.000    0.000 
#    0.000    0.000    0.000    0.000    0.000    0.000 
#
# Total GULP energy -595294.605139 kJ/mol
# GULP energy per Si atom -12401.970940 kJ/mol
# Density = 2.049404 g / cm^3
# Si number density = 20.540794 Si / 1000 Ang^3
#
#
#
# Elastic Constant Matrix: (Units=GPa)
#
#
# Indices 1 2 3 4 5 6 
#
# 1 56.7308 31.6828 16.5204 0.0000 0.0000 0.0000
# 2 31.6828 108.7621 26.4458 0.0000 0.0000 0.0000
# 3 16.5204 26.4458 104.2590 0.0000 0.0000 0.0000
# 4 0.0000 0.0000 0.0000 32.5129 0.0000 0.0000
# 5 0.0000 0.0000 0.0000 0.0000 21.7613 0.0000
# 6 0.0000 0.0000 0.0000 0.0000 0.0000 32.2549
#
#
#
# Elastic Compliance Matrix: (Units=1/GPa)
#
#
# Indices 1 2 3 4 5 6 
#
# 1 0.021410 -0.005768 -0.001930 0.000000 0.000000 0.000000
# 2 -0.005768 0.011352 -0.001966 0.000000 0.000000 0.000000
# 3 -0.001930 -0.001966 0.010396 0.000000 0.000000 0.000000
# 4 0.000000 0.000000 0.000000 0.030757 0.000000 0.000000
# 5 0.000000 0.000000 0.000000 0.000000 0.045953 0.000000
# 6 0.000000 0.000000 0.000000 0.000000 0.000000 0.031003
#
#
# Mechanical properties :
#
#
# Convention : Reuss Voigt Hill
#
# Bulk Modulus (GPa) = 41.95928 46.56109 44.26019
# Shear Modulus (GPa) = 28.06754 30.31267 29.19011
#
# Velocity S-wave (km/s) = 3.70053 3.84569 3.77381
# Velocity P-wave (km/s) = 6.22336 6.51429 6.37049
#
# Compressibility (1/GPa) = 0.02383263
#
# Stress axis : x y z
#
# Youngs Moduli (GPa) = 46.70686 88.08637 96.19215
#
# Poissons Ratio (x) = 0.50805 0.18561
# Poissons Ratio (y) = 0.26939 0.18908
# Poissons Ratio (z) = 0.09012 0.17315
#
# Static dielectric constant tensor:
#      x y z
#    x 3.611780 0.000000 0.000000 
#    y 0.000000 4.087210 0.000000 
#    z 0.000000 0.000000 3.760150 
# 
# 
# High freq. dielectric constant tensor:
#      x y z
#    x 1.790770 0.000000 0.000000 
#    y 0.000000 1.819130 0.000000 
#    z 0.000000 0.000000 1.792270 
# 
# From -- ./inp_files/20785.got.cif
#   From: 2010.03.12/outbox.cif.g09.slc.cpg/sg55_11_cif.got.tgz:20785.got - 2010.04.16 15:19:21.
