data_PCOD8227749
_publ_section_title
;
Structure prediction by ZEFSAII (Michael W. Deem and Ramdas Pophale) SiO2 
 PCOD8227749
Probable space group: P B A M
;
_chemical_formula_sum "Si O2"
_cell_formula_units_Z 48
_cell_length_a 28.503116
_cell_length_b 9.314066
_cell_length_c 8.689418
_cell_angle_alpha 90.000000
_cell_angle_beta 90.000000
_cell_angle_gamma 90.000000
_cell_volume 2306.865853
_symmetry_space_group_name_H-M "P B A M"
_symmetry_group_IT_number 55
_symmetry_cell_setting 'orthorhombic'
loop_
_space_group_symop_operation_xyz
x,y,z
-x,-y,z
1/2+x,1/2-y,-z
1/2-x,1/2+y,-z
-x,-y,-z
x,y,-z
1/2-x,1/2+y,z
1/2+x,1/2-y,z
loop_
_atom_site_type_symbol
_atom_site_label
_atom_site_fract_x
_atom_site_fract_y
_atom_site_fract_z
Si Si1 0.370524 0.991429 0.177994
Si Si2 0.962682 0.624494 0.329794
Si Si3 0.620726 0.712821 0.678118
Si Si4 0.203292 0.991621 0.321772
Si Si5 0.219143 0.298962 0.178693
Si Si6 0.977860 0.149298 0.822796
O O1 0.413274 0.937402 0.279073
O O2 0.327096 0.889551 0.215041
O O3 0.358388 0.154702 0.224277
O O4 0.384589 0.986420 0.000000
O O5 0.957136 0.693410 0.500000
O O6 0.000000 0.500000 0.336512
O O7 0.980487 0.739059 0.206668
O O8 0.623640 0.755998 0.500000
O O9 0.651397 0.570794 0.712291
O O10 0.567058 0.681564 0.719277
O O11 0.209509 0.031637 0.500000
O O12 0.239345 0.866046 0.278313
O O13 0.211193 0.133330 0.221639
O O14 0.232796 0.307052 0.000000
O O15 0.962316 0.154003 0.000000
O O16 0.000000 0.000000 0.773798
#
# Coordination Sequence:
#
# PCOD8227749 Si02
#       6
#     8   8   8   8   8   8
#     4  11  24  41  65  95 127 167 212 261 316 374
#     4  11  23  40  64  94 126 167 214 260 312 373
#     4  11  24  42  64  94 127 167 213 260 316 376
#     4  11  25  44  68  97 130 168 211 261 318 380
#     4  11  25  44  68  98 130 167 211 261 317 380
#     4  11  25  42  63  92 127 168 213 262 317 375
#
# _framework density 20.807449999999999
#
# number of rings (size 3 to 8) (size 9 to 14) (size 15 to 20)
#    0.000    1.000    1.667    4.000    2.333   10.000 
#    0.000    0.000    0.000    0.000    0.000    0.000 
#    0.000    0.000    0.000    0.000    0.000    0.000 
#
# Total GULP energy -595488.984851 kJ/mol
# GULP energy per Si atom -12406.020518 kJ/mol
# Density = 2.076009 g / cm^3
# Si number density = 20.807450 Si / 1000 Ang^3
#
#
#
# Elastic Constant Matrix: (Units=GPa)
#
#
# Indices 1 2 3 4 5 6 
#
# 1 69.6929 27.5952 31.2853 0.0000 0.0000 0.0000
# 2 27.5952 113.1406 21.4398 0.0000 0.0000 0.0000
# 3 31.2853 21.4398 55.1086 0.0000 0.0000 0.0000
# 4 0.0000 0.0000 0.0000 31.2382 0.0000 0.0000
# 5 0.0000 0.0000 0.0000 0.0000 36.0464 0.0000
# 6 0.0000 0.0000 0.0000 0.0000 0.0000 35.9599
#
#
#
# Elastic Compliance Matrix: (Units=1/GPa)
#
#
# Indices 1 2 3 4 5 6 
#
# 1 0.020136 -0.002964 -0.010278 0.000000 0.000000 0.000000
# 2 -0.002964 0.009978 -0.002200 0.000000 0.000000 0.000000
# 3 -0.010278 -0.002200 0.024837 0.000000 0.000000 0.000000
# 4 0.000000 0.000000 0.000000 0.032012 0.000000 0.000000
# 5 0.000000 0.000000 0.000000 0.000000 0.027742 0.000000
# 6 0.000000 0.000000 0.000000 0.000000 0.000000 0.027809
#
#
# Mechanical properties :
#
#
# Convention : Reuss Voigt Hill
#
# Bulk Modulus (GPa) = 41.54872 44.28695 42.91783
# Shear Modulus (GPa) = 27.56046 31.15703 29.35874
#
# Velocity S-wave (km/s) = 3.64338 3.87382 3.76037
# Velocity P-wave (km/s) = 6.14089 6.42954 6.28687
#
# Compressibility (1/GPa) = 0.02406813
#
# Stress axis : x y z
#
# Youngs Moduli (GPa) = 49.66219 100.21870 40.26294
#
# Poissons Ratio (x) = 0.29700 0.41384
# Poissons Ratio (y) = 0.14717 0.08856
# Poissons Ratio (z) = 0.51044 0.22044
#
# Static dielectric constant tensor:
#      x y z
#    x 3.751480 0.000000 0.000000 
#    y 0.000000 3.944850 0.000000 
#    z 0.000000 0.000000 3.862520 
# 
# 
# High freq. dielectric constant tensor:
#      x y z
#    x 1.823810 0.000000 0.000000 
#    y 0.000000 1.823820 0.000000 
#    z 0.000000 0.000000 1.827350 
# 
# From -- ./inp_files/2784.got.cif
#   From: 2010.03.12/outbox.cif.g09.slc.cpg/sg55_2_cif.got.tgz:2784.got - 2010.04.16 15:19:21.
