data_PCOD8227884
_publ_section_title
;
Structure prediction by ZEFSAII (Michael W. Deem and Ramdas Pophale) SiO2 
 PCOD8227884
Probable space group: P C C N
;
_chemical_formula_sum "Si O2"
_cell_formula_units_Z 48
_cell_length_a 4.903004
_cell_length_b 18.139925
_cell_length_c 28.324975
_cell_angle_alpha 90.000000
_cell_angle_beta 90.000000
_cell_angle_gamma 90.000000
_cell_volume 2519.226812
_symmetry_space_group_name_H-M "P C C N"
_symmetry_group_IT_number 56
_symmetry_cell_setting 'orthorhombic'
loop_
_space_group_symop_operation_xyz
x,y,z
1/2-x,1/2-y,z
1/2+x,-y,1/2-z
-x,1/2+y,1/2-z
-x,-y,-z
1/2+x,1/2+y,-z
1/2-x,y,1/2+z
x,1/2-y,1/2+z
loop_
_atom_site_type_symbol
_atom_site_label
_atom_site_fract_x
_atom_site_fract_y
_atom_site_fract_z
Si Si1 0.422735 0.925104 0.655649
Si Si2 0.491890 0.202125 0.415427
Si Si3 0.422488 0.526093 0.354039
Si Si4 0.248027 0.937062 0.952119
Si Si5 0.751139 0.597567 0.008196
Si Si6 0.694228 0.452488 0.745316
O O1 0.386725 0.855807 0.621647
O O2 0.728142 0.955166 0.651788
O O3 0.359432 0.898630 0.709851
O O4 0.223680 0.992087 0.639667
O O5 0.750000 0.250000 0.432436
O O6 0.346736 0.165693 0.460758
O O7 0.250000 0.250000 0.391292
O O8 0.338701 0.577227 0.398241
O O9 0.397444 0.577181 0.306530
O O10 0.444895 0.892245 0.987852
O O11 0.943717 0.909827 0.962468
O O12 0.254208 0.024928 0.959546
O O13 0.512195 0.525943 0.755774
#
# Coordination Sequence:
#
# PCOD8227884 Si02
#       6
#     8   8   8   8   8   8
#     4  10  19  32  48  72 105 131 167 204 244 311
#     4  12  24  36  51  71 101 144 179 207 246 301
#     4  10  17  30  52  77 102 131 155 202 268 317
#     4  10  19  31  53  73 104 129 162 212 269 312
#     4  10  21  33  47  75  99 134 171 210 255 302
#     4   8  16  28  46  72 101 128 152 190 250 302
#
# _framework density 19.053464000000002
#
# number of rings (size 3 to 8) (size 9 to 14) (size 15 to 20)
#    0.000    2.000    1.667    3.000    4.667    0.000 
#    0.000    0.000    0.000    0.000    0.000    7.000 
#    0.000    0.000    0.000    0.000    0.000    0.000 
#
# Total GULP energy -594881.857578 kJ/mol
# GULP energy per Si atom -12393.372033 kJ/mol
# Density = 1.901010 g / cm^3
# Si number density = 19.053464 Si / 1000 Ang^3
#
#
#
# Elastic Constant Matrix: (Units=GPa)
#
#
# Indices 1 2 3 4 5 6 
#
# 1 79.1602 11.2591 3.4484 0.0000 0.0000 0.0000
# 2 11.2591 38.9940 26.2480 0.0000 0.0000 0.0000
# 3 3.4484 26.2480 117.9948 0.0000 0.0000 0.0000
# 4 0.0000 0.0000 0.0000 9.6529 0.0000 0.0000
# 5 0.0000 0.0000 0.0000 0.0000 22.8227 0.0000
# 6 0.0000 0.0000 0.0000 0.0000 0.0000 25.2572
#
#
#
# Elastic Compliance Matrix: (Units=1/GPa)
#
#
# Indices 1 2 3 4 5 6 
#
# 1 0.013203 -0.004178 0.000544 0.000000 0.000000 0.000000
# 2 -0.004178 0.031483 -0.006881 0.000000 0.000000 0.000000
# 3 0.000544 -0.006881 0.009990 0.000000 0.000000 0.000000
# 4 0.000000 0.000000 0.000000 0.103596 0.000000 0.000000
# 5 0.000000 0.000000 0.000000 0.000000 0.043816 0.000000
# 6 0.000000 0.000000 0.000000 0.000000 0.000000 0.039593
#
#
# Mechanical properties :
#
#
# Convention : Reuss Voigt Hill
#
# Bulk Modulus (GPa) = 29.72258 35.34002 32.53130
# Shear Modulus (GPa) = 18.25296 24.55946 21.40621
#
# Velocity S-wave (km/s) = 3.09849 3.59413 3.35547
# Velocity P-wave (km/s) = 5.33238 5.98429 5.66772
#
# Compressibility (1/GPa) = 0.03364446
#
# Stress axis : x y z
#
# Youngs Moduli (GPa) = 75.73918 31.76270 100.10174
#
# Poissons Ratio (x) = 0.13271 -0.05441
# Poissons Ratio (y) = 0.31645 0.68884
# Poissons Ratio (z) = -0.04117 0.21857
#
# Static dielectric constant tensor:
#      x y z
#    x 3.715750 0.000000 0.000000 
#    y 0.000000 2.890630 0.000000 
#    z 0.000000 0.000000 3.782820 
# 
# 
# High freq. dielectric constant tensor:
#      x y z
#    x 1.770680 0.000000 0.000000 
#    y 0.000000 1.653550 0.000000 
#    z 0.000000 0.000000 1.754950 
# 
# From -- ./inp_files/21658.got.cif
#   From: 2010.03.12/outbox.cif.g09.slc.cpg/sg56_11_cif.got.tgz:21658.got - 2010.04.16 15:33:40.
