data_PCOD8227657
_publ_section_title
;
Structure prediction by ZEFSAII (Michael W. Deem and Ramdas Pophale) SiO2 
 PCOD8227657
Probable space group: P B A M
;
_chemical_formula_sum "Si O2"
_cell_formula_units_Z 48
_cell_length_a 23.933010
_cell_length_b 13.830940
_cell_length_c 8.837103
_cell_angle_alpha 90.000000
_cell_angle_beta 90.000000
_cell_angle_gamma 90.000000
_cell_volume 2925.222710
_symmetry_space_group_name_H-M "P B A M"
_symmetry_group_IT_number 55
_symmetry_cell_setting 'orthorhombic'
loop_
_space_group_symop_operation_xyz
x,y,z
-x,-y,z
1/2+x,1/2-y,-z
1/2-x,1/2+y,-z
-x,-y,-z
x,y,-z
1/2-x,1/2+y,z
1/2+x,1/2-y,z
loop_
_atom_site_type_symbol
_atom_site_label
_atom_site_fract_x
_atom_site_fract_y
_atom_site_fract_z
Si Si1 0.221790 0.117144 0.323733
Si Si2 0.436115 0.888800 0.321120
Si Si3 0.667418 0.205233 0.178183
Si Si4 0.730781 0.600287 0.679594
Si Si5 0.938898 0.392495 0.320759
Si Si6 0.165103 0.719343 0.676515
O O1 0.208206 0.132058 0.500000
O O2 0.180838 0.185564 0.229440
O O3 0.286040 0.142832 0.289120
O O4 0.212137 0.006780 0.271855
O O5 0.425866 0.879202 0.500000
O O6 0.394853 0.818528 0.232309
O O7 0.499188 0.856769 0.276502
O O8 0.427216 0.998666 0.263946
O O9 0.709825 0.127705 0.249367
O O10 0.671566 0.198411 0.000000
O O11 0.738819 0.608247 0.500000
O O12 0.683356 0.675175 0.739452
O O13 0.933435 0.395279 0.500000
O O14 0.892393 0.320098 0.248652
O O15 0.154747 0.730106 0.500000
#
# Coordination Sequence:
#
# PCOD8227657 Si02
#       6
#     8   8   8   8   8   8
#     4   9  17  30  48  67  88 117 151 185 221 266
#     4   9  16  28  46  66  89 120 155 184 218 268
#     4  11  21  30  43  66  96 124 149 182 224 269
#     4   9  17  30  49  69  89 116 150 188 228 270
#     4   8  14  25  45  70  91 113 145 188 230 269
#     4   8  13  23  42  68  90 106 135 183 231 266
#
# _framework density 16.409006999999999
#
# number of rings (size 3 to 8) (size 9 to 14) (size 15 to 20)
#    0.000    3.000    0.000    4.500    0.000    3.333 
#    0.000    1.667    0.000    5.000    0.000    7.000 
#    0.000    0.000    0.000    0.000    0.000    0.000 
#
# Total GULP energy -594942.480517 kJ/mol
# GULP energy per Si atom -12394.635011 kJ/mol
# Density = 1.637166 g / cm^3
# Si number density = 16.409007 Si / 1000 Ang^3
#
#
#
# Elastic Constant Matrix: (Units=GPa)
#
#
# Indices 1 2 3 4 5 6 
#
# 1 109.7143 52.6753 27.4894 0.0000 0.0000 0.0000
# 2 52.6753 105.0401 32.4230 0.0000 0.0000 0.0000
# 3 27.4894 32.4230 41.0047 0.0000 0.0000 0.0000
# 4 0.0000 0.0000 0.0000 8.8536 0.0000 0.0000
# 5 0.0000 0.0000 0.0000 0.0000 5.5674 0.0000
# 6 0.0000 0.0000 0.0000 0.0000 0.0000 26.7685
#
#
#
# Elastic Compliance Matrix: (Units=1/GPa)
#
#
# Indices 1 2 3 4 5 6 
#
# 1 0.012621 -0.004918 -0.004573 0.000000 0.000000 0.000000
# 2 -0.004918 0.014510 -0.008177 0.000000 0.000000 0.000000
# 3 -0.004573 -0.008177 0.033918 0.000000 0.000000 0.000000
# 4 0.000000 0.000000 0.000000 0.112948 0.000000 0.000000
# 5 0.000000 0.000000 0.000000 0.000000 0.179616 0.000000
# 6 0.000000 0.000000 0.000000 0.000000 0.000000 0.037357
#
#
# Mechanical properties :
#
#
# Convention : Reuss Voigt Hill
#
# Bulk Modulus (GPa) = 38.88674 53.43716 46.16195
# Shear Modulus (GPa) = 11.49749 17.78268 14.64008
#
# Velocity S-wave (km/s) = 2.64991 3.29555 2.99021
# Velocity P-wave (km/s) = 5.75435 6.86421 6.33364
#
# Compressibility (1/GPa) = 0.02571570
#
# Stress axis : x y z
#
# Youngs Moduli (GPa) = 79.23029 68.91678 29.48263
#
# Poissons Ratio (x) = 0.33893 0.13482
# Poissons Ratio (y) = 0.38965 0.24107
# Poissons Ratio (z) = 0.36230 0.56350
#
# Static dielectric constant tensor:
#      x y z
#    x 3.299280 0.000000 0.000000 
#    y 0.000000 3.270520 0.000000 
#    z 0.000000 0.000000 2.704140 
# 
# 
# High freq. dielectric constant tensor:
#      x y z
#    x 1.625810 0.000000 0.000000 
#    y 0.000000 1.626250 0.000000 
#    z 0.000000 0.000000 1.593490 
# 
# From -- ./inp_files/5818.got.cif
#   From: 2010.03.12/outbox.cif.g09.slc.cpg/sg55_3_cif.got.tgz:5818.got - 2010.04.16 15:19:21.
