data_PCOD8227196
_publ_section_title
;
Structure prediction by ZEFSAII (Michael W. Deem and Ramdas Pophale) SiO2 
 PCOD8227196
Probable space group: P B A M
;
_chemical_formula_sum "Si O2"
_cell_formula_units_Z 64
_cell_length_a 30.623499
_cell_length_b 11.909668
_cell_length_c 8.761905
_cell_angle_alpha 90.000000
_cell_angle_beta 90.000000
_cell_angle_gamma 90.000000
_cell_volume 3195.604369
_symmetry_space_group_name_H-M "P B A M"
_symmetry_group_IT_number 55
_symmetry_cell_setting 'orthorhombic'
loop_
_space_group_symop_operation_xyz
x,y,z
-x,-y,z
1/2+x,1/2-y,-z
1/2-x,1/2+y,-z
-x,-y,-z
x,y,-z
1/2-x,1/2+y,z
1/2+x,1/2-y,z
loop_
_atom_site_type_symbol
_atom_site_label
_atom_site_fract_x
_atom_site_fract_y
_atom_site_fract_z
Si Si1 0.164387 0.507862 0.322572
Si Si2 0.956717 0.715318 0.679743
Si Si3 0.072377 0.503479 0.179425
Si Si4 0.123634 0.903526 0.819607
Si Si5 0.045014 0.751032 0.180953
Si Si6 0.293801 0.805883 0.175560
Si Si7 0.123759 0.156482 0.821297
Si Si8 0.696675 0.767805 0.177995
O O1 0.152391 0.503808 0.500000
O O2 0.121964 0.477754 0.224227
O O3 0.200103 0.413916 0.282254
O O4 0.182910 0.628410 0.280613
O O5 0.958508 0.714174 0.500000
O O6 0.958853 0.587755 0.741533
O O7 0.912880 0.775395 0.732789
O O8 0.998656 0.781903 0.744367
O O9 0.059785 0.627493 0.234985
O O10 0.066657 0.489441 0.000000
O O11 0.080888 0.838904 0.756766
O O12 0.167544 0.838481 0.770579
O O13 0.124918 0.029853 0.755218
O O14 0.121103 0.908115 0.000000
O O15 0.040675 0.757354 0.000000
O O16 0.329231 0.710313 0.212327
O O17 0.246773 0.755881 0.213629
O O18 0.296458 0.844812 0.000000
O O19 0.112433 0.159381 0.000000
O O20 0.688529 0.796552 0.000000
#
# Coordination Sequence:
#
# PCOD8227196 Si02
#       8
#     8   8   8   8   8   8   8   8
#     4  12  24  38  61  92 131 167 197 243 308 366
#     4  12  25  39  58  88 124 160 198 247 307 371
#     4  11  21  39  65  91 120 156 204 253 301 354
#     4   9  19  38  63  90 118 152 203 257 299 347
#     4  10  21  39  63  89 118 155 199 253 305 357
#     4  10  22  38  65  94 121 160 208 255 295 348
#     4  10  21  39  62  88 118 158 206 254 300 352
#     4  10  21  40  66  95 122 156 206 255 297 353
#
# _framework density 20.027509999999999
#
# number of rings (size 3 to 8) (size 9 to 14) (size 15 to 20)
#    0.000    1.500    2.500    3.000    1.750    3.500 
#    0.000    3.750    0.000    0.000    0.000    0.000 
#    0.000    0.000    0.000    0.000    0.000    0.000 
#
# Total GULP energy -793904.171938 kJ/mol
# GULP energy per Si atom -12404.752687 kJ/mol
# Density = 1.998193 g / cm^3
# Si number density = 20.027510 Si / 1000 Ang^3
#
#
#
# Elastic Constant Matrix: (Units=GPa)
#
#
# Indices 1 2 3 4 5 6 
#
# 1 110.0808 24.1331 27.2305 0.0000 0.0000 0.0000
# 2 24.1331 112.9506 26.5146 0.0000 0.0000 0.0000
# 3 27.2305 26.5146 52.6715 0.0000 0.0000 0.0000
# 4 0.0000 0.0000 0.0000 14.7401 0.0000 0.0000
# 5 0.0000 0.0000 0.0000 0.0000 4.3883 0.0000
# 6 0.0000 0.0000 0.0000 0.0000 0.0000 18.2274
#
#
#
# Elastic Compliance Matrix: (Units=1/GPa)
#
#
# Indices 1 2 3 4 5 6 
#
# 1 0.010536 -0.001103 -0.004892 0.000000 0.000000 0.000000
# 2 -0.001103 0.010155 -0.004542 0.000000 0.000000 0.000000
# 3 -0.004892 -0.004542 0.023801 0.000000 0.000000 0.000000
# 4 0.000000 0.000000 0.000000 0.067842 0.000000 0.000000
# 5 0.000000 0.000000 0.000000 0.000000 0.227876 0.000000
# 6 0.000000 0.000000 0.000000 0.000000 0.000000 0.054862
#
#
# Mechanical properties :
#
#
# Convention : Reuss Voigt Hill
#
# Bulk Modulus (GPa) = 42.70022 47.93992 45.32007
# Shear Modulus (GPa) = 11.79375 20.65948 16.22662
#
# Velocity S-wave (km/s) = 2.42931 3.21527 2.84952
# Velocity P-wave (km/s) = 5.40702 6.14597 5.78830
#
# Compressibility (1/GPa) = 0.02341909
#
# Stress axis : x y z
#
# Youngs Moduli (GPa) = 94.91169 98.47119 42.01491
#
# Poissons Ratio (x) = 0.10859 0.20553
# Poissons Ratio (y) = 0.10467 0.19083
# Poissons Ratio (z) = 0.46430 0.44725
#
# Static dielectric constant tensor:
#      x y z
#    x 3.838840 0.000000 0.000000 
#    y 0.000000 3.851170 0.000000 
#    z 0.000000 0.000000 3.351560 
# 
# 
# High freq. dielectric constant tensor:
#      x y z
#    x 1.794980 0.000000 0.000000 
#    y 0.000000 1.787000 0.000000 
#    z 0.000000 0.000000 1.755400 
# 
# From -- ./inp_files/10821.got.cif
#   From: 2010.03.12/outbox.cif.g09.slc.cpg/sg55_6_cif.got.tgz:10821.got - 2010.04.16 15:19:21.
