data_PCOD8227158
_publ_section_title
;
Structure prediction by ZEFSAII (Michael W. Deem and Ramdas Pophale) SiO2 
 PCOD8227158
Probable space group: P B A M
;
_chemical_formula_sum "Si O2"
_cell_formula_units_Z 64
_cell_length_a 13.868125
_cell_length_b 9.791775
_cell_length_c 21.920544
_cell_angle_alpha 90.000000
_cell_angle_beta 90.000000
_cell_angle_gamma 90.000000
_cell_volume 2976.668700
_symmetry_space_group_name_H-M "P B A M"
_symmetry_group_IT_number 55
_symmetry_cell_setting 'orthorhombic'
loop_
_space_group_symop_operation_xyz
x,y,z
-x,-y,z
1/2+x,1/2-y,-z
1/2-x,1/2+y,-z
-x,-y,-z
x,y,-z
1/2-x,1/2+y,z
1/2+x,1/2-y,z
loop_
_atom_site_type_symbol
_atom_site_label
_atom_site_fract_x
_atom_site_fract_y
_atom_site_fract_z
Si Si1 0.941203 0.380382 0.387774
Si Si2 0.239247 0.732434 0.746549
Si Si3 0.983350 0.846548 0.158498
Si Si4 0.983709 0.346295 0.742006
Si Si5 0.182664 0.090068 0.069385
Si Si6 0.695394 0.698790 0.123349
Si Si7 0.249439 0.991822 0.331876
Si Si8 0.093950 0.913504 0.568411
O O1 0.010159 0.341748 0.329760
O O2 0.839249 0.438380 0.365102
O O3 0.927439 0.248282 0.429401
O O4 0.000000 0.500000 0.423877
O O5 0.124603 0.710354 0.744552
O O6 0.261316 0.763596 0.817347
O O7 0.291200 0.596665 0.719808
O O8 0.277154 0.855491 0.704345
O O9 0.949450 0.754818 0.216895
O O10 0.081817 0.780529 0.133220
O O11 0.909457 0.843940 0.102713
O O12 0.000000 0.000000 0.182563
O O13 0.000000 0.500000 0.767239
O O14 0.270475 0.197522 0.070711
O O15 0.218384 0.954982 0.103719
O O16 0.153804 0.056952 0.000000
O O17 0.172638 0.957860 0.383267
O O18 0.130641 0.946439 0.500000
O O19 0.000000 0.000000 0.583881
#
# Coordination Sequence:
#
# PCOD8227158 Si02
#       8
#     8   8   8   8   8   8   8   8
#     4  10  23  41  66  96 127 172 219 265 325 386
#     4  10  21  38  64  95 126 161 218 264 331 390
#     4   9  21  38  60  87 119 159 213 262 316 375
#     4   9  18  37  58  89 125 158 201 261 323 381
#     4  11  23  39  61  88 122 170 216 254 315 385
#     4  10  22  41  59  91 125 161 205 266 320 377
#     4  11  21  43  63  97 129 169 214 270 327 379
#     4  11  26  46  66  96 134 175 222 264 314 386
#
# _framework density 21.500544999999999
#
# number of rings (size 3 to 8) (size 9 to 14) (size 15 to 20)
#    0.000    1.875    2.500    1.125    1.750    9.000 
#    2.250    0.000    0.000    1.875    0.000    0.000 
#    0.000    0.000    0.000    0.000    0.000    0.000 
#
# Total GULP energy -793340.550530 kJ/mol
# GULP energy per Si atom -12395.946102 kJ/mol
# Density = 2.145161 g / cm^3
# Si number density = 21.500545 Si / 1000 Ang^3
#
#
#
# Elastic Constant Matrix: (Units=GPa)
#
#
# Indices 1 2 3 4 5 6 
#
# 1 36.6938 33.3707 23.0368 0.0000 0.0000 0.0000
# 2 33.3707 119.2215 38.2150 0.0000 0.0000 0.0000
# 3 23.0368 38.2150 106.8459 0.0000 0.0000 0.0000
# 4 0.0000 0.0000 0.0000 28.9146 0.0000 0.0000
# 5 0.0000 0.0000 0.0000 0.0000 18.4577 0.0000
# 6 0.0000 0.0000 0.0000 0.0000 0.0000 39.9218
#
#
#
# Elastic Compliance Matrix: (Units=1/GPa)
#
#
# Indices 1 2 3 4 5 6 
#
# 1 0.038845 -0.009249 -0.005067 0.000000 0.000000 0.000000
# 2 -0.009249 0.011676 -0.002182 0.000000 0.000000 0.000000
# 3 -0.005067 -0.002182 0.011232 0.000000 0.000000 0.000000
# 4 0.000000 0.000000 0.000000 0.034585 0.000000 0.000000
# 5 0.000000 0.000000 0.000000 0.000000 0.054178 0.000000
# 6 0.000000 0.000000 0.000000 0.000000 0.000000 0.025049
#
#
# Mechanical properties :
#
#
# Convention : Reuss Voigt Hill
#
# Bulk Modulus (GPa) = 34.77397 50.22292 42.49845
# Shear Modulus (GPa) = 22.92044 28.66808 25.79426
#
# Velocity S-wave (km/s) = 3.26857 3.65549 3.46743
# Velocity P-wave (km/s) = 5.51846 6.42078 5.98664
#
# Compressibility (1/GPa) = 0.02875714
#
# Stress axis : x y z
#
# Youngs Moduli (GPa) = 25.74344 85.64665 89.02936
#
# Poissons Ratio (x) = 0.79211 0.45114
# Poissons Ratio (y) = 0.23809 0.19426
# Poissons Ratio (z) = 0.13045 0.18688
#
# Static dielectric constant tensor:
#      x y z
#    x 3.748160 0.000000 0.000000 
#    y 0.000000 3.730010 0.000000 
#    z 0.000000 0.000000 4.013670 
# 
# 
# High freq. dielectric constant tensor:
#      x y z
#    x 1.837330 0.000000 0.000000 
#    y 0.000000 1.856580 0.000000 
#    z 0.000000 0.000000 1.835320 
# 
# From -- ./inp_files/23606.got.cif
#   From: 2010.03.12/outbox.cif.g09.slc.cpg/sg55_12_cif.got.tgz:23606.got - 2010.04.16 15:19:21.
