data_PCOD8227335
_publ_section_title
;
Structure prediction by ZEFSAII (Michael W. Deem and Ramdas Pophale) SiO2 
 PCOD8227335
Probable space group: P B A M
;
_chemical_formula_sum "Si O2"
_cell_formula_units_Z 64
_cell_length_a 14.094440
_cell_length_b 8.538099
_cell_length_c 23.388362
_cell_angle_alpha 90.000000
_cell_angle_beta 90.000000
_cell_angle_gamma 90.000000
_cell_volume 2814.549030
_symmetry_space_group_name_H-M "P B A M"
_symmetry_group_IT_number 55
_symmetry_cell_setting 'orthorhombic'
loop_
_space_group_symop_operation_xyz
x,y,z
-x,-y,z
1/2+x,1/2-y,-z
1/2-x,1/2+y,-z
-x,-y,-z
x,y,-z
1/2-x,1/2+y,z
1/2+x,1/2-y,z
loop_
_atom_site_type_symbol
_atom_site_label
_atom_site_fract_x
_atom_site_fract_y
_atom_site_fract_z
Si Si1 0.963386 0.323051 0.935711
Si Si2 0.799064 0.992916 0.674607
Si Si3 0.287213 0.332692 0.565589
Si Si4 0.044285 0.168257 0.262717
Si Si5 0.310520 0.088271 0.852550
Si Si6 0.144903 0.694426 0.275003
Si Si7 0.621551 0.255569 0.142888
Si Si8 0.106683 0.512750 0.565817
O O1 0.867562 0.308522 0.898897
O O2 0.000000 0.500000 0.934879
O O3 0.043533 0.215067 0.906185
O O4 0.944533 0.263493 0.000000
O O5 0.867792 0.851126 0.693980
O O6 0.690523 0.930222 0.680445
O O7 0.830995 0.042685 0.610595
O O8 0.804318 0.137515 0.718426
O O9 0.313767 0.377798 0.500000
O O10 0.171881 0.355325 0.574746
O O11 0.326828 0.162966 0.584302
O O12 0.073939 0.249507 0.204562
O O13 0.966055 0.283941 0.290857
O O14 0.000000 0.000000 0.248700
O O15 0.342069 0.139128 0.789554
O O16 0.198524 0.108061 0.861381
O O17 0.326516 0.908124 0.865132
O O18 0.086807 0.542081 0.500000
O O19 0.000000 0.500000 0.594513
#
# Coordination Sequence:
#
# PCOD8227335 Si02
#       8
#     8   8   8   8   8   8   8   8
#     4   9  20  39  61  91 131 171 218 266 311 385
#     4  11  23  41  64  95 132 163 216 274 331 394
#     4  10  21  42  71  98 135 179 224 280 345 413
#     4  10  23  39  64  92 130 171 212 276 329 389
#     4  11  22  37  65  94 125 170 217 263 328 389
#     4  11  22  40  62  92 126 167 210 268 325 389
#     4  11  22  38  64  94 125 172 216 263 330 386
#     4   9  19  40  71 101 131 176 229 274 330 410
#
# _framework density 22.738989
#
# number of rings (size 3 to 8) (size 9 to 14) (size 15 to 20)
#    0.000    1.750    2.500    1.500    1.750    0.500 
#    0.000   10.625    5.500   16.500    0.000    0.000 
#    0.000    0.000    0.000    0.000    0.000    0.000 
#
# Total GULP energy -793087.696361 kJ/mol
# GULP energy per Si atom -12391.995256 kJ/mol
# Density = 2.268723 g / cm^3
# Si number density = 22.738989 Si / 1000 Ang^3
#
#
#
# Elastic Constant Matrix: (Units=GPa)
#
#
# Indices 1 2 3 4 5 6 
#
# 1 121.1055 44.7605 24.1886 0.0000 0.0000 0.0000
# 2 44.7605 62.6244 19.9372 0.0000 0.0000 0.0000
# 3 24.1886 19.9372 126.7396 0.0000 0.0000 0.0000
# 4 0.0000 0.0000 0.0000 28.9001 0.0000 0.0000
# 5 0.0000 0.0000 0.0000 0.0000 23.8789 0.0000
# 6 0.0000 0.0000 0.0000 0.0000 0.0000 33.1161
#
#
#
# Elastic Compliance Matrix: (Units=1/GPa)
#
#
# Indices 1 2 3 4 5 6 
#
# 1 0.011326 -0.007798 -0.000935 0.000000 0.000000 0.000000
# 2 -0.007798 0.022178 -0.002001 0.000000 0.000000 0.000000
# 3 -0.000935 -0.002001 0.008383 0.000000 0.000000 0.000000
# 4 0.000000 0.000000 0.000000 0.034602 0.000000 0.000000
# 5 0.000000 0.000000 0.000000 0.000000 0.041878 0.000000
# 6 0.000000 0.000000 0.000000 0.000000 0.000000 0.030197
#
#
# Mechanical properties :
#
#
# Convention : Reuss Voigt Hill
#
# Bulk Modulus (GPa) = 48.96824 54.24909 51.60867
# Shear Modulus (GPa) = 28.27449 31.95124 30.11286
#
# Velocity S-wave (km/s) = 3.53006 3.75257 3.64302
# Velocity P-wave (km/s) = 6.18036 6.53336 6.35931
#
# Compressibility (1/GPa) = 0.02042140
#
# Stress axis : x y z
#
# Youngs Moduli (GPa) = 88.29271 45.08893 119.28393
#
# Poissons Ratio (x) = 0.35158 0.11153
# Poissons Ratio (y) = 0.68846 0.23865
# Poissons Ratio (z) = 0.08255 0.09021
#
# Static dielectric constant tensor:
#      x y z
#    x 4.527810 0.000000 0.000000 
#    y 0.000000 3.974960 0.000000 
#    z 0.000000 0.000000 4.147810 
# 
# 
# High freq. dielectric constant tensor:
#      x y z
#    x 1.900480 0.000000 0.000000 
#    y 0.000000 1.879630 0.000000 
#    z 0.000000 0.000000 1.896270 
# 
# From -- ./inp_files/23604.got.cif
#   From: 2010.03.12/outbox.cif.g09.slc.cpg/sg55_12_cif.got.tgz:23604.got - 2010.04.16 15:19:21.
