data_PCOD8227021
_publ_section_title
;
Structure prediction by ZEFSAII (Michael W. Deem and Ramdas Pophale) SiO2 
 PCOD8227021
Probable space group: P B A M
;
_chemical_formula_sum "Si O2"
_cell_formula_units_Z 64
_cell_length_a 9.383632
_cell_length_b 25.024208
_cell_length_c 13.911370
_cell_angle_alpha 90.000000
_cell_angle_beta 90.000000
_cell_angle_gamma 90.000000
_cell_volume 3266.639510
_symmetry_space_group_name_H-M "P B A M"
_symmetry_group_IT_number 55
_symmetry_cell_setting 'orthorhombic'
loop_
_space_group_symop_operation_xyz
x,y,z
-x,-y,z
1/2+x,1/2-y,-z
1/2-x,1/2+y,-z
-x,-y,-z
x,y,-z
1/2-x,1/2+y,z
1/2+x,1/2-y,z
loop_
_atom_site_type_symbol
_atom_site_label
_atom_site_fract_x
_atom_site_fract_y
_atom_site_fract_z
Si Si1 0.925411 0.160966 0.105281
Si Si2 0.433803 0.945984 0.760960
Si Si3 0.960705 0.747343 0.226149
Si Si4 0.832586 0.421080 0.612389
Si Si5 0.668951 0.490231 0.250376
Si Si6 0.791076 0.896006 0.111947
Si Si7 0.290435 0.180740 0.723212
Si Si8 0.390242 0.851807 0.892558
O O1 0.774773 0.131425 0.112171
O O2 0.936568 0.208453 0.180858
O O3 0.041058 0.115026 0.122316
O O4 0.946721 0.186818 0.000000
O O5 0.513458 0.934022 0.660041
O O6 0.473149 0.896074 0.829527
O O7 0.500000 0.000000 0.805961
O O8 0.262357 0.954763 0.749898
O O9 0.836556 0.776196 0.286130
O O10 0.897628 0.708890 0.144166
O O11 0.060283 0.711171 0.293921
O O12 0.850710 0.428141 0.500000
O O13 0.708903 0.460666 0.650188
O O14 0.777768 0.361659 0.637678
O O15 0.500000 0.500000 0.244818
O O16 0.728106 0.453507 0.162317
O O17 0.710852 0.848170 0.170801
O O18 0.741304 0.896738 0.000000
O O19 0.452233 0.854716 0.000000
#
# Coordination Sequence:
#
# PCOD8227021 Si02
#       8
#     8   8   8   8   8   8   8   8
#     4   9  18  31  49  80 113 156 198 229 271 327
#     4  10  22  39  58  83 113 154 200 239 298 346
#     4  11  19  35  55  80 117 150 189 230 281 337
#     4  10  22  44  65  83 110 147 191 243 306 364
#     4  10  21  37  60  89 116 150 195 245 294 342
#     4   9  19  34  54  80 121 163 195 228 279 341
#     4  10  21  37  59  85 113 150 188 239 287 345
#     4  11  21  32  52  82 120 156 195 238 275 331
#
# _framework density 19.591999999999999
#
# number of rings (size 3 to 8) (size 9 to 14) (size 15 to 20)
#    0.000    2.000    2.500    1.125    0.000    5.000 
#    0.000    0.625    0.000    0.000    0.000    0.000 
#    0.000    0.000    0.000    0.000    0.000    0.000 
#
# Total GULP energy -793243.644036 kJ/mol
# GULP energy per Si atom -12394.431938 kJ/mol
# Density = 1.954741 g / cm^3
# Si number density = 19.592000 Si / 1000 Ang^3
#
#
#
# Elastic Constant Matrix: (Units=GPa)
#
#
# Indices 1 2 3 4 5 6 
#
# 1 92.1900 27.7087 11.1639 0.0000 0.0000 0.0000
# 2 27.7087 89.3444 35.6621 0.0000 0.0000 0.0000
# 3 11.1639 35.6621 73.3964 0.0000 0.0000 0.0000
# 4 0.0000 0.0000 0.0000 15.3875 0.0000 0.0000
# 5 0.0000 0.0000 0.0000 0.0000 20.7941 0.0000
# 6 0.0000 0.0000 0.0000 0.0000 0.0000 33.5296
#
#
#
# Elastic Compliance Matrix: (Units=1/GPa)
#
#
# Indices 1 2 3 4 5 6 
#
# 1 0.011962 -0.003702 -0.000021 0.000000 0.000000 0.000000
# 2 -0.003702 0.015031 -0.006740 0.000000 0.000000 0.000000
# 3 -0.000021 -0.006740 0.016903 0.000000 0.000000 0.000000
# 4 0.000000 0.000000 0.000000 0.064988 0.000000 0.000000
# 5 0.000000 0.000000 0.000000 0.000000 0.048091 0.000000
# 6 0.000000 0.000000 0.000000 0.000000 0.000000 0.029824
#
#
# Mechanical properties :
#
#
# Convention : Reuss Voigt Hill
#
# Bulk Modulus (GPa) = 43.53417 44.88891 44.21154
# Shear Modulus (GPa) = 23.21466 25.96866 24.59166
#
# Velocity S-wave (km/s) = 3.44598 3.64465 3.54671
# Velocity P-wave (km/s) = 6.17265 6.37753 6.27593
#
# Compressibility (1/GPa) = 0.02297046
#
# Stress axis : x y z
#
# Youngs Moduli (GPa) = 83.59636 66.52912 59.16168
#
# Poissons Ratio (x) = 0.24626 0.00124
# Poissons Ratio (y) = 0.30943 0.39877
# Poissons Ratio (z) = 0.00176 0.44843
#
# Static dielectric constant tensor:
#      x y z
#    x 3.745610 0.000000 0.000000 
#    y 0.000000 3.596280 0.000000 
#    z 0.000000 0.000000 3.116600 
# 
# 
# High freq. dielectric constant tensor:
#      x y z
#    x 1.781740 0.000000 0.000000 
#    y 0.000000 1.768510 0.000000 
#    z 0.000000 0.000000 1.713440 
# 
# From -- ./inp_files/17851.got.cif
#   From: 2010.03.12/outbox.cif.g09.slc.cpg/sg55_9_cif.got.tgz:17851.got - 2010.04.16 15:19:21.
