data_PCOD8227755
_publ_section_title
;
Structure prediction by ZEFSAII (Michael W. Deem and Ramdas Pophale) SiO2 
 PCOD8227755
Probable space group: P B A M
;
_chemical_formula_sum "Si O2"
_cell_formula_units_Z 48
_cell_length_a 27.066749
_cell_length_b 9.986067
_cell_length_c 8.426427
_cell_angle_alpha 90.000000
_cell_angle_beta 90.000000
_cell_angle_gamma 90.000000
_cell_volume 2277.582063
_symmetry_space_group_name_H-M "P B A M"
_symmetry_group_IT_number 55
_symmetry_cell_setting 'orthorhombic'
loop_
_space_group_symop_operation_xyz
x,y,z
-x,-y,z
1/2+x,1/2-y,-z
1/2-x,1/2+y,-z
-x,-y,-z
x,y,-z
1/2-x,1/2+y,z
1/2+x,1/2-y,z
loop_
_atom_site_type_symbol
_atom_site_label
_atom_site_fract_x
_atom_site_fract_y
_atom_site_fract_z
Si Si1 0.853655 0.029308 0.183125
Si Si2 0.715495 0.747135 0.682605
Si Si3 0.963278 0.384919 0.184104
Si Si4 0.042558 0.898072 0.683855
Si Si5 0.361559 0.028642 0.682558
Si Si6 0.821691 0.736232 0.182452
O O1 0.816943 0.115094 0.290969
O O2 0.909639 0.073135 0.211058
O O3 0.847293 0.875016 0.231392
O O4 0.839919 0.053012 0.000000
O O5 0.732200 0.751768 0.500000
O O6 0.763233 0.744892 0.792626
O O7 0.684454 0.878181 0.730408
O O8 0.975896 0.252235 0.283571
O O9 0.907261 0.431853 0.207973
O O10 0.000000 0.500000 0.246074
O O11 0.972464 0.354329 0.000000
O O12 0.056227 0.915840 0.500000
O O13 0.000000 0.000000 0.736446
O O14 0.376400 0.052313 0.500000
O O15 0.346399 0.875689 0.708100
O O16 0.832086 0.700464 0.000000
#
# Coordination Sequence:
#
# PCOD8227755 Si02
#       6
#     8   8   8   8   8   8
#     4  11  24  42  66  94 128 170 213 265 320 378
#     4  11  23  41  65  94 127 167 215 264 320 379
#     4  11  25  44  68  97 129 167 211 262 317 378
#     4  11  25  44  67  97 129 167 212 262 318 379
#     4  11  24  42  66  95 129 170 213 263 319 378
#     4  11  25  41  62  95 130 169 216 262 316 378
#
# _framework density 21.074981000000001
#
# number of rings (size 3 to 8) (size 9 to 14) (size 15 to 20)
#    0.000    1.000    1.667    4.000    2.333   10.000 
#    0.000    0.000    0.000    0.000    0.000    0.000 
#    0.000    0.000    0.000    0.000    0.000    0.000 
#
# Total GULP energy -595657.102234 kJ/mol
# GULP energy per Si atom -12409.522963 kJ/mol
# Density = 2.102701 g / cm^3
# Si number density = 21.074981 Si / 1000 Ang^3
#
#
#
# Elastic Constant Matrix: (Units=GPa)
#
#
# Indices 1 2 3 4 5 6 
#
# 1 78.9638 42.1965 10.6420 0.0000 0.0000 0.0000
# 2 42.1965 146.5349 21.3708 0.0000 0.0000 0.0000
# 3 10.6420 21.3708 37.7582 0.0000 0.0000 0.0000
# 4 0.0000 0.0000 0.0000 -300.4016 0.0000 0.0000
# 5 0.0000 0.0000 0.0000 0.0000 26.6920 0.0000
# 6 0.0000 0.0000 0.0000 0.0000 0.0000 41.6137
#
#
#
# Elastic Compliance Matrix: (Units=1/GPa)
#
#
# Indices 1 2 3 4 5 6 
#
# 1 0.015099 -0.004063 -0.001956 0.000000 0.000000 0.000000
# 2 -0.004063 0.008531 -0.003684 0.000000 0.000000 0.000000
# 3 -0.001956 -0.003684 0.029121 0.000000 0.000000 0.000000
# 4 0.000000 0.000000 0.000000 -0.003329 0.000000 0.000000
# 5 0.000000 0.000000 0.000000 0.000000 0.037464 0.000000
# 6 0.000000 0.000000 0.000000 0.000000 0.000000 0.024031
#
#
# Mechanical properties :
#
#
# Convention : Reuss Voigt Hill
#
# Bulk Modulus (GPa) = 29.98870 45.74174 37.86522
# Shear Modulus (GPa) = 35.35152 -33.81601 0.76776
#
# Velocity S-wave (km/s) = 4.10007 -4.01004 0.60423
# Velocity P-wave (km/s) = 6.05595 0.55755 4.30031
#
# Compressibility (1/GPa) = 0.03334589
#
# Stress axis : x y z
#
# Youngs Moduli (GPa) = 66.23139 117.21398 34.33998
#
# Poissons Ratio (x) = 0.47619 0.06717
# Poissons Ratio (y) = 0.26907 0.12650
# Poissons Ratio (z) = 0.12955 0.43178
#
# Static dielectric constant tensor:
#      x y z
#    x 3.831790 0.000000 0.000000 
#    y 0.000000 4.191210 0.000000 
#    z 0.000000 0.000000 3.703420 
# 
# 
# High freq. dielectric constant tensor:
#      x y z
#    x 1.827580 0.000000 0.000000 
#    y 0.000000 1.842960 0.000000 
#    z 0.000000 0.000000 1.830140 
# 
# From -- ./inp_files/10538.got.cif
#   From: 2010.03.12/outbox.cif.g09.slc.cpg/sg55_6_cif.got.tgz:10538.got - 2010.04.16 15:19:21.
