data_PCOD8227074
_publ_section_title
;
Structure prediction by ZEFSAII (Michael W. Deem and Ramdas Pophale) SiO2 
 PCOD8227074
Probable space group: P B A M
;
_chemical_formula_sum "Si O2"
_cell_formula_units_Z 40
_cell_length_a 17.727739
_cell_length_b 13.442849
_cell_length_c 9.046811
_cell_angle_alpha 90.000000
_cell_angle_beta 90.000000
_cell_angle_gamma 90.000000
_cell_volume 2155.957458
_symmetry_space_group_name_H-M "P B A M"
_symmetry_group_IT_number 55
_symmetry_cell_setting 'orthorhombic'
loop_
_space_group_symop_operation_xyz
x,y,z
-x,-y,z
1/2+x,1/2-y,-z
1/2-x,1/2+y,-z
-x,-y,-z
x,y,-z
1/2-x,1/2+y,z
1/2+x,1/2-y,z
loop_
_atom_site_type_symbol
_atom_site_label
_atom_site_fract_x
_atom_site_fract_y
_atom_site_fract_z
Si Si1 0.320158 0.686340 0.171512
Si Si2 0.633616 0.118656 0.327972
Si Si3 0.838736 0.415114 0.170933
Si Si4 0.469350 0.192615 0.668397
Si Si5 0.958836 0.900459 0.328324
O O1 0.321434 0.792879 0.249862
O O2 0.239115 0.639936 0.200986
O O3 0.382313 0.611569 0.236830
O O4 0.337199 0.702032 0.000000
O O5 0.652958 0.124346 0.500000
O O6 0.544329 0.128633 0.300619
O O7 0.661908 0.015193 0.264585
O O8 0.905349 0.342158 0.220274
O O9 0.849978 0.441932 0.000000
O O10 0.442289 0.176010 0.500000
O O11 0.485216 0.308368 0.699865
O O12 0.936326 0.906560 0.500000
O O13 0.000000 0.000000 0.273620
#
# Coordination Sequence:
#
# PCOD8227074 Si02
#       5
#     8   8   8   8   8
#     4  10  22  38  54  79 114 145 178 221 269 323
#     4  10  21  38  59  80 105 140 182 226 270 318
#     4  11  23  36  54  82 113 144 178 219 269 324
#     4   9  19  35  55  81 109 139 182 228 266 315
#     4   9  19  37  59  82 109 143 185 228 268 316
#
# _framework density 18.553242000000001
#
# number of rings (size 3 to 8) (size 9 to 14) (size 15 to 20)
#    0.000    2.200    0.000    3.600    0.000   11.600 
#    0.000    4.000    0.000    0.000    0.000    0.000 
#    0.000    0.000    0.000    0.000    0.000    0.000 
#
# Total GULP energy -496183.194112 kJ/mol
# GULP energy per Si atom -12404.579853 kJ/mol
# Density = 1.851101 g / cm^3
# Si number density = 18.553242 Si / 1000 Ang^3
#
#
#
# Elastic Constant Matrix: (Units=GPa)
#
#
# Indices 1 2 3 4 5 6 
#
# 1 103.4099 63.5956 77.7476 0.0000 0.0000 0.0000
# 2 63.5956 112.6562 66.2542 0.0000 0.0000 0.0000
# 3 77.7476 66.2542 113.7680 0.0000 0.0000 0.0000
# 4 0.0000 0.0000 0.0000 30.0480 0.0000 0.0000
# 5 0.0000 0.0000 0.0000 0.0000 30.2315 0.0000
# 6 0.0000 0.0000 0.0000 0.0000 0.0000 21.9745
#
#
#
# Elastic Compliance Matrix: (Units=1/GPa)
#
#
# Indices 1 2 3 4 5 6 
#
# 1 0.021859 -0.005406 -0.011790 0.000000 0.000000 0.000000
# 2 -0.005406 0.014837 -0.004946 0.000000 0.000000 0.000000
# 3 -0.011790 -0.004946 0.019727 0.000000 0.000000 0.000000
# 4 0.000000 0.000000 0.000000 0.033280 0.000000 0.000000
# 5 0.000000 0.000000 0.000000 0.000000 0.033078 0.000000
# 6 0.000000 0.000000 0.000000 0.000000 0.000000 0.045507
#
#
# Mechanical properties :
#
#
# Convention : Reuss Voigt Hill
#
# Bulk Modulus (GPa) = 82.37673 82.78098 82.57886
# Shear Modulus (GPa) = 23.08192 24.59992 23.84092
#
# Velocity S-wave (km/s) = 3.53099 3.64525 3.58858
# Velocity P-wave (km/s) = 7.81796 7.90140 7.85979
#
# Compressibility (1/GPa) = 0.01213935
#
# Stress axis : x y z
#
# Youngs Moduli (GPa) = 45.74798 67.39811 50.69066
#
# Poissons Ratio (x) = 0.36434 0.59764
# Poissons Ratio (y) = 0.24730 0.25074
# Poissons Ratio (z) = 0.53937 0.33338
#
# Static dielectric constant tensor:
#      x y z
#    x 3.316210 0.000000 0.000000 
#    y 0.000000 3.493210 0.000000 
#    z 0.000000 0.000000 3.497130 
# 
# 
# High freq. dielectric constant tensor:
#      x y z
#    x 1.714870 0.000000 0.000000 
#    y 0.000000 1.730300 0.000000 
#    z 0.000000 0.000000 1.728620 
# 
# From -- ./inp_files/3596.got.cif
#   From: 2010.03.12/outbox.cif.g09.slc.cpg/sg55_2_cif.got.tgz:3596.got - 2010.04.16 15:19:21.
