data_PCOD8227695
_publ_section_title
;
Structure prediction by ZEFSAII (Michael W. Deem and Ramdas Pophale) SiO2 
 PCOD8227695
Probable space group: P B A M
;
_chemical_formula_sum "Si O2"
_cell_formula_units_Z 56
_cell_length_a 22.973163
_cell_length_b 13.790003
_cell_length_c 8.906533
_cell_angle_alpha 90.000000
_cell_angle_beta 90.000000
_cell_angle_gamma 90.000000
_cell_volume 2821.589536
_symmetry_space_group_name_H-M "P B A M"
_symmetry_group_IT_number 55
_symmetry_cell_setting 'orthorhombic'
loop_
_space_group_symop_operation_xyz
x,y,z
-x,-y,z
1/2+x,1/2-y,-z
1/2-x,1/2+y,-z
-x,-y,-z
x,y,-z
1/2-x,1/2+y,z
1/2+x,1/2-y,z
loop_
_atom_site_type_symbol
_atom_site_label
_atom_site_fract_x
_atom_site_fract_y
_atom_site_fract_z
Si Si1 0.460605 0.214893 0.823202
Si Si2 0.663809 0.804739 0.325004
Si Si3 0.978214 0.895159 0.323647
Si Si4 0.233379 0.300395 0.823698
Si Si5 0.827241 0.522672 0.674723
Si Si6 0.942119 0.613188 0.334755
Si Si7 0.865056 0.803257 0.664626
O O1 0.398439 0.201514 0.749821
O O2 0.486636 0.317315 0.772625
O O3 0.502379 0.125086 0.773699
O O4 0.454154 0.212748 0.000000
O O5 0.657195 0.782330 0.500000
O O6 0.705514 0.724979 0.252053
O O7 0.691075 0.911815 0.297596
O O8 0.989586 0.875565 0.500000
O O9 0.908229 0.891273 0.288508
O O10 0.000000 0.000000 0.273033
O O11 0.214520 0.406893 0.768651
O O12 0.186119 0.217337 0.782423
O O13 0.241548 0.302441 0.000000
O O14 0.822151 0.552946 0.500000
O O15 0.895099 0.534640 0.725697
O O16 0.965391 0.583858 0.500000
O O17 0.908295 0.713526 0.344897
O O18 0.836617 0.822156 0.500000
#
# Coordination Sequence:
#
# PCOD8227695 Si02
#       7
#     8   8   8   8   8   8   8
#     4  11  22  35  53  83 121 153 183 231 298 348
#     4  11  23  41  62  82 112 154 200 242 283 338
#     4   9  18  35  58  83 111 149 197 241 280 334
#     4  11  22  37  58  84 116 149 184 237 298 349
#     4   9  20  39  63  86 107 146 199 242 280 337
#     4   8  15  32  57  82 109 141 183 228 272 330
#     4   8  15  31  55  79 105 143 190 232 272 328
#
# _framework density 19.846969999999999
#
# number of rings (size 3 to 8) (size 9 to 14) (size 15 to 20)
#    0.000    2.429    0.000    4.714    0.000    7.143 
#    2.571    2.857    0.000    0.000    0.000    0.000 
#    0.000    0.000    0.000    0.000    0.000    0.000 
#
# Total GULP energy -694188.337192 kJ/mol
# GULP energy per Si atom -12396.220307 kJ/mol
# Density = 1.980180 g / cm^3
# Si number density = 19.846970 Si / 1000 Ang^3
#
#
#
# Elastic Constant Matrix: (Units=GPa)
#
#
# Indices 1 2 3 4 5 6 
#
# 1 97.5302 23.8274 60.3122 0.0000 0.0000 0.0000
# 2 23.8274 50.2451 35.9861 0.0000 0.0000 0.0000
# 3 60.3122 35.9861 140.1673 0.0000 0.0000 0.0000
# 4 0.0000 0.0000 0.0000 13.6018 0.0000 0.0000
# 5 0.0000 0.0000 0.0000 0.0000 631.9106 0.0000
# 6 0.0000 0.0000 0.0000 0.0000 0.0000 26.2264
#
#
#
# Elastic Compliance Matrix: (Units=1/GPa)
#
#
# Indices 1 2 3 4 5 6 
#
# 1 0.014310 -0.002911 -0.005410 0.000000 0.000000 0.000000
# 2 -0.002911 0.024979 -0.005160 0.000000 0.000000 0.000000
# 3 -0.005410 -0.005160 0.010787 0.000000 0.000000 0.000000
# 4 0.000000 0.000000 0.000000 0.073520 0.000000 0.000000
# 5 0.000000 0.000000 0.000000 0.000000 0.001583 0.000000
# 6 0.000000 0.000000 0.000000 0.000000 0.000000 0.038129
#
#
# Mechanical properties :
#
#
# Convention : Reuss Voigt Hill
#
# Bulk Modulus (GPa) = 43.26644 58.68825 50.97734
# Shear Modulus (GPa) = 25.25569 145.53555 85.39562
#
# Velocity S-wave (km/s) = 3.57111 8.57252 6.56662
# Velocity P-wave (km/s) = 6.23307 11.29684 9.12332
#
# Compressibility (1/GPa) = 0.02311260
#
# Stress axis : x y z
#
# Youngs Moduli (GPa) = 69.88111 40.03372 92.70430
#
# Poissons Ratio (x) = 0.11656 0.50152
# Poissons Ratio (y) = 0.20346 0.47838
# Poissons Ratio (z) = 0.37805 0.20658
#
# Static dielectric constant tensor:
#      x y z
#    x 3.806600 0.000000 0.000000 
#    y 0.000000 3.682950 0.000000 
#    z 0.000000 0.000000 3.483950 
# 
# 
# High freq. dielectric constant tensor:
#      x y z
#    x 1.775120 0.000000 0.000000 
#    y 0.000000 1.762050 0.000000 
#    z 0.000000 0.000000 1.761140 
# 
# From -- ./inp_files/8809.got.cif
#   From: 2010.03.12/outbox.cif.g09.slc.cpg/sg55_5_cif.got.tgz:8809.got - 2010.04.16 15:19:21.
