data_PCOD8227837
_publ_section_title
;
Structure prediction by ZEFSAII (Michael W. Deem and Ramdas Pophale) SiO2 
 PCOD8227837
Probable space group: P B A M
;
_chemical_formula_sum "Si O2"
_cell_formula_units_Z 48
_cell_length_a 9.000000
_cell_length_b 30.000000
_cell_length_c 9.000000
_cell_angle_alpha 90.000000
_cell_angle_beta 90.000000
_cell_angle_gamma 90.000000
_cell_volume 2430.000000
_symmetry_space_group_name_H-M "P B A M"
_symmetry_group_IT_number 55
_symmetry_cell_setting 'orthorhombic'
loop_
_space_group_symop_operation_xyz
x,y,z
-x,-y,z
1/2+x,1/2-y,-z
1/2-x,1/2+y,-z
-x,-y,-z
x,y,-z
1/2-x,1/2+y,z
1/2+x,1/2-y,z
loop_
_atom_site_type_symbol
_atom_site_label
_atom_site_fract_x
_atom_site_fract_y
_atom_site_fract_z
Si Si1 0.939849 0.859156 0.675673
Si Si2 0.225025 0.377908 0.670090
Si Si3 0.184048 0.972001 0.674058
Si Si4 0.224923 0.218351 0.825776
Si Si5 0.947155 0.694703 0.828005
Si Si6 0.874989 0.945106 0.177452
O O1 0.921690 0.865906 0.500000
O O2 0.884207 0.811347 0.727431
O O3 0.837713 0.895840 0.761312
O O4 0.111134 0.863734 0.725743
O O5 0.208242 0.364506 0.500000
O O6 0.200177 0.431170 0.694086
O O7 0.096334 0.352208 0.756250
O O8 0.152531 0.980258 0.500000
O O9 0.034697 0.957287 0.756661
O O10 0.239528 0.017715 0.754292
O O11 0.179567 0.269152 0.791760
O O12 0.393172 0.211596 0.769806
O O13 0.203139 0.207367 0.000000
O O14 0.960815 0.685346 0.000000
O O15 0.871784 0.946183 0.000000
#
# Coordination Sequence:
#
# PCOD8227837 Si02
#       6
#     8   8   8   8   8   8
#     4  10  20  34  52  76 105 140 175 214 260 307
#     4   9  19  33  51  76 106 138 175 212 253 303
#     4   9  16  28  45  70 105 140 174 215 256 302
#     4  10  21  37  55  78 103 133 171 212 258 311
#     4  10  21  36  56  78 104 135 170 212 260 309
#     4  10  17  26  45  74 104 136 173 215 258 304
#
# _framework density 19.753086
#
# number of rings (size 3 to 8) (size 9 to 14) (size 15 to 20)
#    0.000    2.333    0.000    5.500    0.000    6.667 
#    0.000    0.000    0.000    1.000    0.000    7.000 
#    0.000    0.000    0.000    0.000    0.000    0.000 
#
# Total GULP energy -594944.100962 kJ/mol
# GULP energy per Si atom -12394.668770 kJ/mol
# Density = 1.970813 g / cm^3
# Si number density = 19.753086 Si / 1000 Ang^3
#
#
#
# Elastic Constant Matrix: (Units=GPa)
#
#
# Indices 1 2 3 4 5 6 
#
# 1 33.8062 -14.5604 3.5750 0.0000 0.0000 0.0000
# 2 -14.5604 38.9380 18.3346 0.0000 0.0000 0.0000
# 3 3.5750 18.3346 81.9181 0.0000 0.0000 0.0000
# 4 0.0000 0.0000 0.0000 38.5993 0.0000 0.0000
# 5 0.0000 0.0000 0.0000 0.0000 21.9277 0.0000
# 6 0.0000 0.0000 0.0000 0.0000 0.0000 19.6817
#
#
#
# Elastic Compliance Matrix: (Units=1/GPa)
#
#
# Indices 1 2 3 4 5 6 
#
# 1 0.037207 0.016407 -0.005296 0.000000 0.000000 0.000000
# 2 0.016407 0.035942 -0.008760 0.000000 0.000000 0.000000
# 3 -0.005296 -0.008760 0.014399 0.000000 0.000000 0.000000
# 4 0.000000 0.000000 0.000000 0.025907 0.000000 0.000000
# 5 0.000000 0.000000 0.000000 0.000000 0.045604 0.000000
# 6 0.000000 0.000000 0.000000 0.000000 0.000000 0.050809
#
#
# Mechanical properties :
#
#
# Convention : Reuss Voigt Hill
#
# Bulk Modulus (GPa) = 10.84028 18.81788 14.82908
# Shear Modulus (GPa) = 21.19392 25.86261 23.52827
#
# Velocity S-wave (km/s) = 3.27913 3.62234 3.45500
# Velocity P-wave (km/s) = 4.45385 5.20023 4.84144
#
# Compressibility (1/GPa) = 0.09224858
#
# Stress axis : x y z
#
# Youngs Moduli (GPa) = 26.87683 27.82273 69.44860
#
# Poissons Ratio (x) = -0.45648 0.36779
# Poissons Ratio (y) = -0.44096 0.60840
# Poissons Ratio (z) = 0.14233 0.24374
#
# Static dielectric constant tensor:
#      x y z
#    x 3.250350 0.000000 0.000000 
#    y 0.000000 4.279430 0.000000 
#    z 0.000000 0.000000 3.506920 
# 
# 
# High freq. dielectric constant tensor:
#      x y z
#    x 1.721050 0.000000 0.000000 
#    y 0.000000 1.788120 0.000000 
#    z 0.000000 0.000000 1.770390 
# 
# From -- ./inp_files/2834.got.cif
#   From: 2010.03.12/outbox.ucp.g09.slc.cvg/sg55_2_cif.got.tgz:2834.got - 2010.05.04 19:23:19.
