data_PCOD8227270
_publ_section_title
;
Structure prediction by ZEFSAII (Michael W. Deem and Ramdas Pophale) SiO2 
 PCOD8227270
Probable space group: P B A M
;
_chemical_formula_sum "Si O2"
_cell_formula_units_Z 40
_cell_length_a 29.497868
_cell_length_b 7.647697
_cell_length_c 8.400823
_cell_angle_alpha 90.000000
_cell_angle_beta 90.000000
_cell_angle_gamma 90.000000
_cell_volume 1895.148017
_symmetry_space_group_name_H-M "P B A M"
_symmetry_group_IT_number 55
_symmetry_cell_setting 'orthorhombic'
loop_
_space_group_symop_operation_xyz
x,y,z
-x,-y,z
1/2+x,1/2-y,-z
1/2-x,1/2+y,-z
-x,-y,-z
x,y,-z
1/2-x,1/2+y,z
1/2+x,1/2-y,z
loop_
_atom_site_type_symbol
_atom_site_label
_atom_site_fract_x
_atom_site_fract_y
_atom_site_fract_z
Si Si1 0.551428 0.529967 0.812542
Si Si2 0.201548 0.670503 0.817862
Si Si3 0.110503 0.672805 0.314059
Si Si4 0.290442 0.809288 0.680971
Si Si5 0.115513 0.285010 0.188005
O O1 0.500000 0.500000 0.759436
O O2 0.567561 0.707314 0.727378
O O3 0.579738 0.360446 0.755812
O O4 0.555997 0.557326 0.000000
O O5 0.153487 0.762693 0.779009
O O6 0.245490 0.786322 0.786633
O O7 0.201059 0.514588 0.690585
O O8 0.202045 0.605432 0.000000
O O9 0.119893 0.676143 0.500000
O O10 0.101670 0.472516 0.260684
O O11 0.282761 0.747638 0.500000
O O12 0.334998 0.716398 0.752850
O O13 0.116688 0.306506 0.000000
#
# Coordination Sequence:
#
# PCOD8227270 Si02
#       5
#     8   8   8   8   8
#     4  10  23  43  67  93 121 161 213 262 312 373
#     4  11  22  38  59  85 119 161 207 247 297 368
#     4  11  23  40  62  90 127 163 202 256 316 372
#     4  11  22  37  57  86 122 158 200 250 307 363
#     4  10  21  40  64  89 122 162 208 256 308 371
#
# _framework density 21.106529999999999
#
# number of rings (size 3 to 8) (size 9 to 14) (size 15 to 20)
#    0.000    1.400    0.000    8.400    2.800    2.800 
#    0.000    4.000    0.000    0.000    0.000    0.000 
#    0.000    0.000    0.000    0.000    0.000    0.000 
#
# Total GULP energy -495933.141820 kJ/mol
# GULP energy per Si atom -12398.328546 kJ/mol
# Density = 2.105849 g / cm^3
# Si number density = 21.106530 Si / 1000 Ang^3
#
#
#
# Elastic Constant Matrix: (Units=GPa)
#
#
# Indices 1 2 3 4 5 6 
#
# 1 122.7209 33.9424 32.6413 0.0000 0.0000 0.0000
# 2 33.9424 65.9049 25.9471 0.0000 0.0000 0.0000
# 3 32.6413 25.9471 100.2121 0.0000 0.0000 0.0000
# 4 0.0000 0.0000 0.0000 24.8735 0.0000 0.0000
# 5 0.0000 0.0000 0.0000 0.0000 25.6976 0.0000
# 6 0.0000 0.0000 0.0000 0.0000 0.0000 35.3328
#
#
#
# Elastic Compliance Matrix: (Units=1/GPa)
#
#
# Indices 1 2 3 4 5 6 
#
# 1 0.009890 -0.004260 -0.002119 0.000000 0.000000 0.000000
# 2 -0.004260 0.018730 -0.003462 0.000000 0.000000 0.000000
# 3 -0.002119 -0.003462 0.011565 0.000000 0.000000 0.000000
# 4 0.000000 0.000000 0.000000 0.040203 0.000000 0.000000
# 5 0.000000 0.000000 0.000000 0.000000 0.038914 0.000000
# 6 0.000000 0.000000 0.000000 0.000000 0.000000 0.028302
#
#
# Mechanical properties :
#
#
# Convention : Reuss Voigt Hill
#
# Bulk Modulus (GPa) = 48.76844 52.65548 50.71196
# Shear Modulus (GPa) = 28.71562 30.26794 29.49178
#
# Velocity S-wave (km/s) = 3.69251 3.79100 3.74208
# Velocity P-wave (km/s) = 6.42927 6.64559 6.53833
#
# Compressibility (1/GPa) = 0.02050506
#
# Stress axis : x y z
#
# Youngs Moduli (GPa) = 101.11042 53.38964 86.46528
#
# Poissons Ratio (x) = 0.22742 0.18318
# Poissons Ratio (y) = 0.43069 0.29936
# Poissons Ratio (z) = 0.21421 0.18485
#
# Static dielectric constant tensor:
#      x y z
#    x 4.326870 0.000000 0.000000 
#    y 0.000000 3.656540 0.000000 
#    z 0.000000 0.000000 3.667860 
# 
# 
# High freq. dielectric constant tensor:
#      x y z
#    x 1.834900 0.000000 0.000000 
#    y 0.000000 1.815340 0.000000 
#    z 0.000000 0.000000 1.833250 
# 
# From -- ./inp_files/9309.got.cif
#   From: 2010.03.12/outbox.cif.g09.slc.cpg/sg55_5_cif.got.tgz:9309.got - 2010.04.16 15:19:21.
