data_PCOD8227728
_publ_section_title
;
Structure prediction by ZEFSAII (Michael W. Deem and Ramdas Pophale) SiO2 
 PCOD8227728
Probable space group: P B A M
;
_chemical_formula_sum "Si O2"
_cell_formula_units_Z 48
_cell_length_a 17.750486
_cell_length_b 8.401609
_cell_length_c 15.090786
_cell_angle_alpha 90.000000
_cell_angle_beta 90.000000
_cell_angle_gamma 90.000000
_cell_volume 2250.528800
_symmetry_space_group_name_H-M "P B A M"
_symmetry_group_IT_number 55
_symmetry_cell_setting 'orthorhombic'
loop_
_space_group_symop_operation_xyz
x,y,z
-x,-y,z
1/2+x,1/2-y,-z
1/2-x,1/2+y,-z
-x,-y,-z
x,y,-z
1/2-x,1/2+y,z
1/2+x,1/2-y,z
loop_
_atom_site_type_symbol
_atom_site_label
_atom_site_fract_x
_atom_site_fract_y
_atom_site_fract_z
Si Si1 0.096972 0.177494 0.680029
Si Si2 0.347967 0.343292 0.665969
Si Si3 0.138498 0.309685 0.500000
Si Si4 0.276975 0.819753 0.201913
Si Si5 0.840381 0.386591 0.103854
Si Si6 0.963577 0.330988 0.769630
Si Si7 0.289644 0.162471 0.500000
O O1 0.089938 0.287710 0.590740
O O2 0.172223 0.210232 0.735510
O O3 0.027195 0.200298 0.747932
O O4 0.097996 0.993992 0.648505
O O5 0.283953 0.403058 0.734324
O O6 0.394546 0.193296 0.702603
O O7 0.311209 0.273151 0.580373
O O8 0.198612 0.162805 0.500000
O O9 0.176521 0.485423 0.500000
O O10 0.231476 0.721970 0.127135
O O11 0.330706 0.945108 0.153185
O O12 0.922655 0.316069 0.133825
O O13 0.843305 0.412974 0.000000
O O14 0.000000 0.500000 0.752655
#
# Coordination Sequence:
#
# PCOD8227728 Si02
#       7
#     8   8   4   8   8   8   4
#     4  12  23  43  64  99 136 184 223 271 340 392
#     4  11  24  41  68  94 138 177 227 277 331 394
#     4  12  26  37  68  99 144 177 235 283 321 399
#     4  11  22  40  70  96 131 170 220 279 334 398
#     4  11  24  44  69 101 131 171 225 282 341 405
#     4  11  24  42  67  95 134 180 221 272 342 404
#     4  12  24  39  62 105 130 177 235 285 325 387
#
# _framework density 21.328320000000001
#
# number of rings (size 3 to 8) (size 9 to 14) (size 15 to 20)
#    0.000    0.667    5.000    3.500    2.333    1.000 
#    0.000    3.333    0.000    2.000    0.000    0.000 
#    0.000    0.000    0.000    0.000    0.000    0.000 
#
# Total GULP energy -594903.222265 kJ/mol
# GULP energy per Si atom -12393.817131 kJ/mol
# Density = 2.127978 g / cm^3
# Si number density = 21.328320 Si / 1000 Ang^3
#
#
#
# Elastic Constant Matrix: (Units=GPa)
#
#
# Indices 1 2 3 4 5 6 
#
# 1 98.6872 15.4958 44.5653 0.0000 0.0000 0.0000
# 2 15.4958 66.5630 44.6369 0.0000 0.0000 0.0000
# 3 44.5653 44.6369 134.3218 0.0000 0.0000 0.0000
# 4 0.0000 0.0000 0.0000 25.2009 0.0000 0.0000
# 5 0.0000 0.0000 0.0000 0.0000 29.7245 0.0000
# 6 0.0000 0.0000 0.0000 0.0000 0.0000 31.7743
#
#
#
# Elastic Compliance Matrix: (Units=1/GPa)
#
#
# Indices 1 2 3 4 5 6 
#
# 1 0.011920 -0.000158 -0.003902 0.000000 0.000000 0.000000
# 2 -0.000158 0.019333 -0.006372 0.000000 0.000000 0.000000
# 3 -0.003902 -0.006372 0.010857 0.000000 0.000000 0.000000
# 4 0.000000 0.000000 0.000000 0.039681 0.000000 0.000000
# 5 0.000000 0.000000 0.000000 0.000000 0.033642 0.000000
# 6 0.000000 0.000000 0.000000 0.000000 0.000000 0.031472
#
#
# Mechanical properties :
#
#
# Convention : Reuss Voigt Hill
#
# Bulk Modulus (GPa) = 47.06949 56.55198 51.81074
# Shear Modulus (GPa) = 28.59544 30.33154 29.46349
#
# Velocity S-wave (km/s) = 3.66557 3.77520 3.72079
# Velocity P-wave (km/s) = 6.32709 6.75095 6.54246
#
# Compressibility (1/GPa) = 0.02124518
#
# Stress axis : x y z
#
# Youngs Moduli (GPa) = 83.89220 51.72400 92.10560
#
# Poissons Ratio (x) = 0.00818 0.35942
# Poissons Ratio (y) = 0.01326 0.58692
# Poissons Ratio (z) = 0.32737 0.32960
#
# Static dielectric constant tensor:
#      x y z
#    x 4.075520 0.000000 0.000000 
#    y 0.000000 3.843850 0.000000 
#    z 0.000000 0.000000 3.802550 
# 
# 
# High freq. dielectric constant tensor:
#      x y z
#    x 1.840040 0.000000 0.000000 
#    y 0.000000 1.839230 0.000000 
#    z 0.000000 0.000000 1.826940 
# 
# From -- ./inp_files/19372.got.cif
#   From: 2010.03.12/outbox.cif.g09.slc.cpg/sg55_10_cif.got.tgz:19372.got - 2010.04.16 15:19:21.
