data_PCOD8227240
_publ_section_title
;
Structure prediction by ZEFSAII (Michael W. Deem and Ramdas Pophale) SiO2 
 PCOD8227240
Probable space group: P B A M
;
_chemical_formula_sum "Si O2"
_cell_formula_units_Z 56
_cell_length_a 9.092757
_cell_length_b 14.862004
_cell_length_c 19.518303
_cell_angle_alpha 90.000000
_cell_angle_beta 90.000000
_cell_angle_gamma 90.000000
_cell_volume 2637.636928
_symmetry_space_group_name_H-M "P B A M"
_symmetry_group_IT_number 55
_symmetry_cell_setting 'orthorhombic'
loop_
_space_group_symop_operation_xyz
x,y,z
-x,-y,z
1/2+x,1/2-y,-z
1/2-x,1/2+y,-z
-x,-y,-z
x,y,-z
1/2-x,1/2+y,z
1/2+x,1/2-y,z
loop_
_atom_site_type_symbol
_atom_site_label
_atom_site_fract_x
_atom_site_fract_y
_atom_site_fract_z
Si Si1 0.918674 0.084004 0.796390
Si Si2 0.983708 0.755095 0.296051
Si Si3 0.264088 0.229881 0.607248
Si Si4 0.423466 0.655709 0.076843
Si Si5 0.916831 0.344825 0.076926
Si Si6 0.574248 0.085149 0.796578
Si Si7 0.837335 0.623202 0.500000
Si Si8 0.816537 0.412754 0.500000
O O1 0.940274 0.170046 0.749515
O O2 0.746492 0.068488 0.805763
O O3 0.995108 0.090503 0.870637
O O4 0.000000 0.000000 0.759755
O O5 0.068815 0.739546 0.367583
O O6 0.823247 0.783192 0.321862
O O7 0.968464 0.668687 0.249279
O O8 0.218433 0.320905 0.566158
O O9 0.244807 0.137476 0.565078
O O10 0.253353 0.667736 0.098382
O O11 0.502527 0.750440 0.081726
O O12 0.437099 0.616012 0.000000
O O13 0.999532 0.410612 0.128606
O O14 0.929022 0.384208 0.000000
O O15 0.500000 0.000000 0.758888
O O16 0.776251 0.519301 0.500000
O O17 0.011604 0.611591 0.500000
#
# Coordination Sequence:
#
# PCOD8227240 Si02
#       8
#     8   8   8   8   8   8   4   4
#     4  12  27  43  66  98 134 176 229 284 339 406
#     4  12  26  45  67  96 140 181 223 268 328 399
#     4  11  24  44  70 101 137 178 215 270 327 383
#     4  10  21  39  65  94 129 173 224 283 346 406
#     4  10  21  39  65  94 128 173 226 283 345 406
#     4  12  27  43  67  97 132 179 229 283 340 404
#     4  10  22  43  72 107 134 171 222 265 322 384
#     4  10  22  43  74 103 136 173 219 270 314 390
#
# _framework density 21.231124999999999
#
# number of rings (size 3 to 8) (size 9 to 14) (size 15 to 20)
#    0.000    1.000    4.286    1.714    4.000    4.571 
#    0.000    0.714    0.000    0.000    0.000    0.000 
#    0.000    0.000    0.000    0.000    0.000    0.000 
#
# Total GULP energy -694328.541892 kJ/mol
# GULP energy per Si atom -12398.723962 kJ/mol
# Density = 2.118280 g / cm^3
# Si number density = 21.231125 Si / 1000 Ang^3
#
#
#
# Elastic Constant Matrix: (Units=GPa)
#
#
# Indices 1 2 3 4 5 6 
#
# 1 138.7005 73.6470 50.2040 0.0000 0.0000 0.0000
# 2 73.6470 106.5546 41.8838 0.0000 0.0000 0.0000
# 3 50.2040 41.8838 100.1455 0.0000 0.0000 0.0000
# 4 0.0000 0.0000 0.0000 828.7304 0.0000 0.0000
# 5 0.0000 0.0000 0.0000 0.0000 -66.6830 0.0000
# 6 0.0000 0.0000 0.0000 0.0000 0.0000 36.0767
#
#
#
# Elastic Compliance Matrix: (Units=1/GPa)
#
#
# Indices 1 2 3 4 5 6 
#
# 1 0.012136 -0.007176 -0.003083 0.000000 0.000000 0.000000
# 2 -0.007176 0.015475 -0.002874 0.000000 0.000000 0.000000
# 3 -0.003083 -0.002874 0.012733 0.000000 0.000000 0.000000
# 4 0.000000 0.000000 0.000000 0.001207 0.000000 0.000000
# 5 0.000000 0.000000 0.000000 0.000000 -0.014996 0.000000
# 6 0.000000 0.000000 0.000000 0.000000 0.000000 0.027719
#
#
# Mechanical properties :
#
#
# Convention : Reuss Voigt Hill
#
# Bulk Modulus (GPa) = 71.03738 75.20780 73.12259
# Shear Modulus (GPa) = 58.66355 171.60255 115.13305
#
# Velocity S-wave (km/s) = 5.26221 9.00008 7.37198
# Velocity P-wave (km/s) = 8.39362 11.97924 10.34299
#
# Compressibility (1/GPa) = 0.01407710
#
# Stress axis : x y z
#
# Youngs Moduli (GPa) = 82.39927 64.62133 78.53637
#
# Poissons Ratio (x) = 0.46375 0.24209
# Poissons Ratio (y) = 0.59133 0.22575
# Poissons Ratio (z) = 0.25400 0.18575
#
# Static dielectric constant tensor:
#      x y z
#    x 3.904060 0.000000 0.000000 
#    y 0.000000 3.620920 0.000000 
#    z 0.000000 0.000000 3.936350 
# 
# 
# High freq. dielectric constant tensor:
#      x y z
#    x 1.846920 0.000000 0.000000 
#    y 0.000000 1.832030 0.000000 
#    z 0.000000 0.000000 1.836160 
# 
# From -- ./inp_files/22664.got.cif
#   From: 2010.03.12/outbox.cif.g09.slc.cpg/sg55_12_cif.got.tgz:22664.got - 2010.04.16 15:19:21.
