data_PCOD8227964
_publ_section_title
;
Structure prediction by ZEFSAII (Michael W. Deem and Ramdas Pophale) SiO2 
 PCOD8227964
Probable space group: P C C N
;
_chemical_formula_sum "Si O2"
_cell_formula_units_Z 52
_cell_length_a 22.065454
_cell_length_b 11.880053
_cell_length_c 9.850517
_cell_angle_alpha 90.000000
_cell_angle_beta 90.000000
_cell_angle_gamma 90.000000
_cell_volume 2582.202341
_symmetry_space_group_name_H-M "P C C N"
_symmetry_group_IT_number 56
_symmetry_cell_setting 'orthorhombic'
loop_
_space_group_symop_operation_xyz
x,y,z
1/2-x,1/2-y,z
1/2+x,-y,1/2-z
-x,1/2+y,1/2-z
-x,-y,-z
1/2+x,1/2+y,-z
1/2-x,y,1/2+z
x,1/2-y,1/2+z
loop_
_atom_site_type_symbol
_atom_site_label
_atom_site_fract_x
_atom_site_fract_y
_atom_site_fract_z
Si Si1 0.843094 0.920523 0.285054
Si Si2 0.142659 0.392758 0.518932
Si Si3 0.645470 0.165352 0.751955
Si Si4 0.974890 0.255982 0.844087
Si Si5 0.750000 0.750000 0.882102
Si Si6 0.554515 0.791714 0.907908
Si Si7 0.636880 0.143760 0.441920
O O1 0.784434 0.840690 0.288814
O O2 0.892540 0.885020 0.397674
O O3 0.823680 0.050571 0.307588
O O4 0.874339 0.909875 0.137998
O O5 0.203318 0.318511 0.525090
O O6 0.086212 0.331313 0.590782
O O7 0.153292 0.514156 0.589011
O O8 0.572855 0.154009 0.781607
O O9 0.657397 0.181382 0.592283
O O10 0.671592 0.274066 0.833954
O O11 0.935899 0.159446 0.922515
O O12 0.011378 0.199544 0.721647
O O13 0.018985 0.316067 0.952421
#
# Coordination Sequence:
#
# PCOD8227964 Si02
#       7
#     8   8   8   8   4   8   8
#     4  10  21  38  60  81 115 146 189 239 284 329
#     4  10  21  38  61  81 113 150 188 234 291 330
#     4   9  19  37  55  82 118 152 185 227 273 337
#     4  10  18  34  53  85 120 150 189 223 267 337
#     4  10  22  40  62  88 102 140 190 248 284 336
#     4  11  20  33  55  89 116 151 193 225 272 334
#     4   9  19  37  56  81 118 153 187 223 274 339
#
# _framework density 20.137848999999999
#
# number of rings (size 3 to 8) (size 9 to 14) (size 15 to 20)
#    0.923    1.231    3.077    0.462    0.000    2.462 
#    2.769    0.769    0.000    3.692    0.000    0.000 
#    0.000    0.000    0.000    0.000    0.000    0.000 
#
# Total GULP energy -644460.754506 kJ/mol
# GULP energy per Si atom -12393.476048 kJ/mol
# Density = 2.009201 g / cm^3
# Si number density = 20.137849 Si / 1000 Ang^3
#
#
#
# Elastic Constant Matrix: (Units=GPa)
#
#
# Indices 1 2 3 4 5 6 
#
# 1 41.9737 17.3757 -2.0625 0.0000 0.0000 0.0000
# 2 17.3757 129.6370 27.2188 0.0000 0.0000 0.0000
# 3 -2.0625 27.2188 75.2328 0.0000 0.0000 0.0000
# 4 0.0000 0.0000 0.0000 29.1478 0.0000 0.0000
# 5 0.0000 0.0000 0.0000 0.0000 16.9774 0.0000
# 6 0.0000 0.0000 0.0000 0.0000 0.0000 18.3301
#
#
#
# Elastic Compliance Matrix: (Units=1/GPa)
#
#
# Indices 1 2 3 4 5 6 
#
# 1 0.025526 -0.003862 0.002097 0.000000 0.000000 0.000000
# 2 -0.003862 0.008932 -0.003337 0.000000 0.000000 0.000000
# 3 0.002097 -0.003337 0.014557 0.000000 0.000000 0.000000
# 4 0.000000 0.000000 0.000000 0.034308 0.000000 0.000000
# 5 0.000000 0.000000 0.000000 0.000000 0.058902 0.000000
# 6 0.000000 0.000000 0.000000 0.000000 0.000000 0.054555
#
#
# Mechanical properties :
#
#
# Convention : Reuss Voigt Hill
#
# Bulk Modulus (GPa) = 25.76595 36.87860 31.32228
# Shear Modulus (GPa) = 22.73538 26.51182 24.62360
#
# Velocity S-wave (km/s) = 3.36369 3.63232 3.50058
# Velocity P-wave (km/s) = 5.28284 5.99537 5.65035
#
# Compressibility (1/GPa) = 0.03881091
#
# Stress axis : x y z
#
# Youngs Moduli (GPa) = 39.17565 111.95482 68.69532
#
# Poissons Ratio (x) = 0.43233 -0.14405
# Poissons Ratio (y) = 0.15128 0.22927
# Poissons Ratio (z) = -0.08215 0.37365
#
# Static dielectric constant tensor:
#      x y z
#    x 3.440510 0.000000 0.000000 
#    y 0.000000 3.556490 0.000000 
#    z 0.000000 0.000000 3.488630 
# 
# 
# High freq. dielectric constant tensor:
#      x y z
#    x 1.769230 0.000000 0.000000 
#    y 0.000000 1.775940 0.000000 
#    z 0.000000 0.000000 1.781800 
# 
# From -- ./inp_files/4957.got.cif
#   From: 2010.03.12/outbox.cif.g09.slc.cpg/sg56_3_cif.got.tgz:4957.got - 2010.04.16 15:33:40.
