data_PCOD8227577
_publ_section_title
;
Structure prediction by ZEFSAII (Michael W. Deem and Ramdas Pophale) SiO2 
 PCOD8227577
Probable space group: P B A M
;
_chemical_formula_sum "Si O2"
_cell_formula_units_Z 48
_cell_length_a 18.327913
_cell_length_b 14.777039
_cell_length_c 8.491872
_cell_angle_alpha 90.000000
_cell_angle_beta 90.000000
_cell_angle_gamma 90.000000
_cell_volume 2299.873099
_symmetry_space_group_name_H-M "P B A M"
_symmetry_group_IT_number 55
_symmetry_cell_setting 'orthorhombic'
loop_
_space_group_symop_operation_xyz
x,y,z
-x,-y,z
1/2+x,1/2-y,-z
1/2-x,1/2+y,-z
-x,-y,-z
x,y,-z
1/2-x,1/2+y,z
1/2+x,1/2-y,z
loop_
_atom_site_type_symbol
_atom_site_label
_atom_site_fract_x
_atom_site_fract_y
_atom_site_fract_z
Si Si1 0.092072 0.257909 0.680080
Si Si2 0.428243 0.552519 0.317894
Si Si3 0.670075 0.852205 0.680631
Si Si4 0.756200 0.695098 0.182104
Si Si5 0.981961 0.398451 0.182451
Si Si6 0.222434 0.007231 0.817902
O O1 0.117486 0.268761 0.500000
O O2 0.058975 0.158892 0.711642
O O3 0.161820 0.271534 0.789979
O O4 0.029791 0.330222 0.715764
O O5 0.500000 0.500000 0.262090
O O6 0.410408 0.532352 0.500000
O O7 0.363374 0.514708 0.211219
O O8 0.645403 0.857516 0.500000
O O9 0.697456 0.751299 0.717903
O O10 0.602917 0.879118 0.790642
O O11 0.736792 0.919960 0.710772
O O12 0.750351 0.591172 0.233471
O O13 0.736695 0.708370 0.000000
O O14 0.000000 0.500000 0.237491
O O15 0.001385 0.385061 0.000000
O O16 0.240046 0.026707 0.000000
#
# Coordination Sequence:
#
# PCOD8227577 Si02
#       6
#     8   8   8   8   8   8
#     4  11  23  41  66  98 130 170 213 260 324 382
#     4  10  23  42  63  92 130 169 211 262 319 380
#     4  12  25  42  66  96 129 168 213 265 321 380
#     4  11  24  42  65  95 129 168 212 263 320 382
#     4  11  25  44  66  93 129 172 214 264 322 380
#     4  11  24  42  66  95 127 166 213 263 321 383
#
# _framework density 20.870718
#
# number of rings (size 3 to 8) (size 9 to 14) (size 15 to 20)
#    0.000    1.000    1.667    4.500    2.333    9.000 
#    0.000    0.000    0.000    0.000    0.000    0.000 
#    0.000    0.000    0.000    0.000    0.000    0.000 
#
# Total GULP energy -595641.272150 kJ/mol
# GULP energy per Si atom -12409.193170 kJ/mol
# Density = 2.082322 g / cm^3
# Si number density = 20.870718 Si / 1000 Ang^3
#
#
#
# Elastic Constant Matrix: (Units=GPa)
#
#
# Indices 1 2 3 4 5 6 
#
# 1 91.0976 22.3479 4.9376 0.0000 0.0000 0.0000
# 2 22.3479 108.9339 36.5587 0.0000 0.0000 0.0000
# 3 4.9376 36.5587 60.6007 0.0000 0.0000 0.0000
# 4 0.0000 0.0000 0.0000 27.0823 0.0000 0.0000
# 5 0.0000 0.0000 0.0000 0.0000 37.4691 0.0000
# 6 0.0000 0.0000 0.0000 0.0000 0.0000 41.2642
#
#
#
# Elastic Compliance Matrix: (Units=1/GPa)
#
#
# Indices 1 2 3 4 5 6 
#
# 1 0.011577 -0.002581 0.000614 0.000000 0.000000 0.000000
# 2 -0.002581 0.012086 -0.007081 0.000000 0.000000 0.000000
# 3 0.000614 -0.007081 0.020723 0.000000 0.000000 0.000000
# 4 0.000000 0.000000 0.000000 0.036924 0.000000 0.000000
# 5 0.000000 0.000000 0.000000 0.000000 0.026689 0.000000
# 6 0.000000 0.000000 0.000000 0.000000 0.000000 0.024234
#
#
# Mechanical properties :
#
#
# Convention : Reuss Voigt Hill
#
# Bulk Modulus (GPa) = 38.03725 43.14674 40.59200
# Shear Modulus (GPa) = 31.42833 34.28234 32.85534
#
# Velocity S-wave (km/s) = 3.88475 4.05730 3.97196
# Velocity P-wave (km/s) = 6.19568 6.53201 6.36607
#
# Compressibility (1/GPa) = 0.02629002
#
# Stress axis : x y z
#
# Youngs Moduli (GPa) = 86.37706 82.74255 48.25556
#
# Poissons Ratio (x) = 0.21356 -0.02962
# Poissons Ratio (y) = 0.22294 0.34168
# Poissons Ratio (z) = -0.05302 0.58587
#
# Static dielectric constant tensor:
#      x y z
#    x 3.735960 0.000000 0.000000 
#    y 0.000000 3.979470 0.000000 
#    z 0.000000 0.000000 3.697130 
# 
# 
# High freq. dielectric constant tensor:
#      x y z
#    x 1.820950 0.000000 0.000000 
#    y 0.000000 1.833080 0.000000 
#    z 0.000000 0.000000 1.819820 
# 
# From -- ./inp_files/7421.got.cif
#   From: 2010.03.12/outbox.cif.g09.slc.cpg/sg55_4_cif.got.tgz:7421.got - 2010.04.16 15:19:21.
