data_PCOD8227561
_publ_section_title
;
Structure prediction by ZEFSAII (Michael W. Deem and Ramdas Pophale) SiO2 
 PCOD8227561
Probable space group: P B A M
;
_chemical_formula_sum "Si O2"
_cell_formula_units_Z 64
_cell_length_a 20.769169
_cell_length_b 9.508963
_cell_length_c 16.080559
_cell_angle_alpha 90.000000
_cell_angle_beta 90.000000
_cell_angle_gamma 90.000000
_cell_volume 3175.802012
_symmetry_space_group_name_H-M "P B A M"
_symmetry_group_IT_number 55
_symmetry_cell_setting 'orthorhombic'
loop_
_space_group_symop_operation_xyz
x,y,z
-x,-y,z
1/2+x,1/2-y,-z
1/2-x,1/2+y,-z
-x,-y,-z
x,y,-z
1/2-x,1/2+y,z
1/2+x,1/2-y,z
loop_
_atom_site_type_symbol
_atom_site_label
_atom_site_fract_x
_atom_site_fract_y
_atom_site_fract_z
Si Si1 0.011908 0.164624 0.756393
Si Si2 0.871654 0.234378 0.784959
Si Si3 0.758380 0.287717 0.318498
Si Si4 0.296887 0.477372 0.407930
Si Si5 0.935886 0.908500 0.407928
Si Si6 0.805138 0.942315 0.174434
Si Si7 0.670662 0.959235 0.095270
Si Si8 0.400207 0.753188 0.093696
O O1 0.943737 0.242107 0.750990
O O2 0.053098 0.196120 0.671163
O O3 0.046120 0.222576 0.838021
O O4 0.000000 0.000000 0.767752
O O5 0.829318 0.319738 0.717325
O O6 0.863710 0.318084 0.871346
O O7 0.847464 0.074272 0.795876
O O8 0.741442 0.375503 0.401103
O O9 0.760261 0.123000 0.342193
O O10 0.704371 0.331423 0.250633
O O11 0.288436 0.416503 0.500000
O O12 0.373216 0.495415 0.388762
O O13 0.926693 0.835215 0.500000
O O14 0.000000 0.000000 0.411957
O O15 0.737205 0.997302 0.141157
O O16 0.841902 0.857222 0.102802
O O17 0.623021 0.088702 0.107919
O O18 0.686803 0.930948 0.000000
O O19 0.428115 0.736199 0.000000
#
# Coordination Sequence:
#
# PCOD8227561 Si02
#       8
#     8   8   8   8   8   8   8   8
#     4  11  21  40  63  88 122 163 215 262 313 369
#     4  11  23  39  61  90 118 163 206 257 313 372
#     4  11  21  37  58  90 121 160 205 249 310 384
#     4  11  22  37  60  92 127 160 198 258 323 376
#     4   9  19  36  62  92 121 158 210 262 307 365
#     4  11  21  38  62  90 119 162 207 258 310 370
#     4  10  23  40  60  88 124 161 204 256 316 380
#     4  11  24  40  61  92 125 164 209 258 314 377
#
# _framework density 20.152391000000001
#
# number of rings (size 3 to 8) (size 9 to 14) (size 15 to 20)
#    0.000    1.375    2.500    4.500    1.750    3.250 
#    0.000    1.875    0.000    0.000    0.000    0.875 
#    0.000    0.500    0.000    0.000    0.000    0.000 
#
# Total GULP energy -793143.557291 kJ/mol
# GULP energy per Si atom -12392.868083 kJ/mol
# Density = 2.010652 g / cm^3
# Si number density = 20.152391 Si / 1000 Ang^3
#
#
#
# Elastic Constant Matrix: (Units=GPa)
#
#
# Indices 1 2 3 4 5 6 
#
# 1 92.5665 44.6087 58.1683 0.0000 0.0000 0.0000
# 2 44.6087 73.0777 40.6638 0.0000 0.0000 0.0000
# 3 58.1683 40.6638 141.8163 0.0000 0.0000 0.0000
# 4 0.0000 0.0000 0.0000 29.5215 0.0000 0.0000
# 5 0.0000 0.0000 0.0000 0.0000 29.2018 0.0000
# 6 0.0000 0.0000 0.0000 0.0000 0.0000 23.7724
#
#
#
# Elastic Compliance Matrix: (Units=1/GPa)
#
#
# Indices 1 2 3 4 5 6 
#
# 1 0.017855 -0.008120 -0.004995 0.000000 0.000000 0.000000
# 2 -0.008120 0.019974 -0.002397 0.000000 0.000000 0.000000
# 3 -0.004995 -0.002397 0.009788 0.000000 0.000000 0.000000
# 4 0.000000 0.000000 0.000000 0.033874 0.000000 0.000000
# 5 0.000000 0.000000 0.000000 0.000000 0.034244 0.000000
# 6 0.000000 0.000000 0.000000 0.000000 0.000000 0.042066
#
#
# Mechanical properties :
#
#
# Convention : Reuss Voigt Hill
#
# Bulk Modulus (GPa) = 60.26602 66.03803 63.15203
# Shear Modulus (GPa) = 25.72607 27.43378 26.57992
#
# Velocity S-wave (km/s) = 3.57680 3.69360 3.63567
# Velocity P-wave (km/s) = 6.85770 7.14358 7.00210
#
# Compressibility (1/GPa) = 0.01659310
#
# Stress axis : x y z
#
# Youngs Moduli (GPa) = 56.00671 50.06448 102.17013
#
# Poissons Ratio (x) = 0.40650 0.51038
# Poissons Ratio (y) = 0.45475 0.24490
# Poissons Ratio (z) = 0.27977 0.12000
#
# Static dielectric constant tensor:
#      x y z
#    x 3.726340 0.000000 0.000000 
#    y 0.000000 3.470750 0.000000 
#    z 0.000000 0.000000 4.149420 
# 
# 
# High freq. dielectric constant tensor:
#      x y z
#    x 1.788290 0.000000 0.000000 
#    y 0.000000 1.758050 0.000000 
#    z 0.000000 0.000000 1.805330 
# 
# From -- ./inp_files/21949.got.cif
#   From: 2010.03.12/outbox.cif.g09.slc.cpg/sg55_11_cif.got.tgz:21949.got - 2010.04.16 15:19:21.
