data_PCOD8227729
_publ_section_title
;
Structure prediction by ZEFSAII (Michael W. Deem and Ramdas Pophale) SiO2 
 PCOD8227729
Probable space group: P B A M
;
_chemical_formula_sum "Si O2"
_cell_formula_units_Z 40
_cell_length_a 7.358946
_cell_length_b 20.134702
_cell_length_c 10.403940
_cell_angle_alpha 90.000000
_cell_angle_beta 90.000000
_cell_angle_gamma 90.000000
_cell_volume 1541.553712
_symmetry_space_group_name_H-M "P B A M"
_symmetry_group_IT_number 55
_symmetry_cell_setting 'orthorhombic'
loop_
_space_group_symop_operation_xyz
x,y,z
-x,-y,z
1/2+x,1/2-y,-z
1/2-x,1/2+y,-z
-x,-y,-z
x,y,-z
1/2-x,1/2+y,z
1/2+x,1/2-y,z
loop_
_atom_site_type_symbol
_atom_site_label
_atom_site_fract_x
_atom_site_fract_y
_atom_site_fract_z
Si Si1 0.450993 0.640014 0.000000
Si Si2 0.470742 0.840918 0.240133
Si Si3 0.600283 0.769655 0.000000
Si Si4 0.103750 0.921438 0.755260
Si Si5 0.600163 0.784832 0.500000
Si Si6 0.682740 0.958865 0.851327
Si Si7 0.986085 0.856802 0.500000
O O1 0.626291 0.689415 0.000000
O O2 0.458957 0.595255 0.130769
O O3 0.289079 0.692694 0.000000
O O4 0.484825 0.787372 0.127328
O O5 0.278997 0.876434 0.225565
O O6 0.482798 0.804038 0.375625
O O7 0.635994 0.893459 0.229563
O O8 0.012760 0.906016 0.619654
O O9 0.166080 0.998901 0.771038
O O10 0.628908 0.704762 0.500000
O O11 0.789548 0.823003 0.500000
O O12 0.500000 0.000000 0.869592
O O13 0.743999 0.939017 0.000000
#
# Coordination Sequence:
#
# PCOD8227729 Si02
#       7
#     4   8   4   8   4   8   4
#     4  12  24  39  60  91 125 164 210 262 317 372
#     4  11  22  41  67  94 125 166 212 258 310 372
#     4  12  24  39  60  91 125 164 210 262 317 372
#     4  11  22  41  67  94 125 166 212 258 310 372
#     4  12  26  45  64  91 129 168 212 262 321 378
#     4   9  18  37  66  97 127 163 208 256 307 372
#     4  12  26  45  64  91 129 168 212 262 321 378
#
# _framework density 25.947846999999999
#
# number of rings (size 3 to 8) (size 9 to 14) (size 15 to 20)
#    0.000    1.000    2.000    6.000    0.000    0.800 
#    0.000    9.000    0.000    0.000    0.000    0.000 
#    0.000    0.000    0.000    0.000    0.000    0.000 
#
# Total GULP energy -496276.897163 kJ/mol
# GULP energy per Si atom -12406.922429 kJ/mol
# Density = 2.588879 g / cm^3
# Si number density = 25.947847 Si / 1000 Ang^3
#
#
#
# Elastic Constant Matrix: (Units=GPa)
#
#
# Indices 1 2 3 4 5 6 
#
# 1 95.4394 9.9796 40.0197 0.0000 0.0000 0.0000
# 2 9.9796 143.6330 74.3711 0.0000 0.0000 0.0000
# 3 40.0197 74.3711 223.1309 0.0000 0.0000 0.0000
# 4 0.0000 0.0000 0.0000 41.8015 0.0000 0.0000
# 5 0.0000 0.0000 0.0000 0.0000 29.7605 0.0000
# 6 0.0000 0.0000 0.0000 0.0000 0.0000 42.3493
#
#
#
# Elastic Compliance Matrix: (Units=1/GPa)
#
#
# Indices 1 2 3 4 5 6 
#
# 1 0.011342 0.000321 -0.002141 0.000000 0.000000 0.000000
# 2 0.000321 0.008423 -0.002865 0.000000 0.000000 0.000000
# 3 -0.002141 -0.002865 0.005821 0.000000 0.000000 0.000000
# 4 0.000000 0.000000 0.000000 0.023923 0.000000 0.000000
# 5 0.000000 0.000000 0.000000 0.000000 0.033602 0.000000
# 6 0.000000 0.000000 0.000000 0.000000 0.000000 0.023613
#
#
# Mechanical properties :
#
#
# Convention : Reuss Voigt Hill
#
# Bulk Modulus (GPa) = 61.67139 78.99379 70.33259
# Shear Modulus (GPa) = 41.15236 45.30446 43.22841
#
# Velocity S-wave (km/s) = 3.98674 4.18303 4.08606
# Velocity P-wave (km/s) = 6.70903 7.33755 7.03032
#
# Compressibility (1/GPa) = 0.01621498
#
# Stress axis : x y z
#
# Youngs Moduli (GPa) = 88.16672 118.71671 171.80212
#
# Poissons Ratio (x) = -0.03806 0.36785
# Poissons Ratio (y) = -0.02827 0.49223
# Poissons Ratio (z) = 0.18878 0.34013
#
# Static dielectric constant tensor:
#      x y z
#    x 5.111260 0.000000 0.000000 
#    y 0.000000 5.307400 0.000000 
#    z 0.000000 0.000000 4.612420 
# 
# 
# High freq. dielectric constant tensor:
#      x y z
#    x 2.088500 0.000000 0.000000 
#    y 0.000000 2.066030 0.000000 
#    z 0.000000 0.000000 2.033620 
# 
# From -- ./inp_files/2421.got.cif
#   From: 2010.03.12/outbox.cif.g09.slc.cpg/sg55_2_cif.got.tgz:2421.got - 2010.04.16 15:19:21.
