data_PCOD8227411
_publ_section_title
;
Structure prediction by ZEFSAII (Michael W. Deem and Ramdas Pophale) SiO2 
 PCOD8227411
Probable space group: P B A M
;
_chemical_formula_sum "Si O2"
_cell_formula_units_Z 56
_cell_length_a 21.740797
_cell_length_b 14.598968
_cell_length_c 8.915045
_cell_angle_alpha 90.000000
_cell_angle_beta 90.000000
_cell_angle_gamma 90.000000
_cell_volume 2829.574658
_symmetry_space_group_name_H-M "P B A M"
_symmetry_group_IT_number 55
_symmetry_cell_setting 'orthorhombic'
loop_
_space_group_symop_operation_xyz
x,y,z
-x,-y,z
1/2+x,1/2-y,-z
1/2-x,1/2+y,-z
-x,-y,-z
x,y,-z
1/2-x,1/2+y,z
1/2+x,1/2-y,z
loop_
_atom_site_type_symbol
_atom_site_label
_atom_site_fract_x
_atom_site_fract_y
_atom_site_fract_z
Si Si1 0.610035 0.925382 0.175060
Si Si2 0.599055 0.113693 0.674936
Si Si3 0.816919 0.033457 0.676987
Si Si4 0.250483 0.120946 0.172851
Si Si5 0.974590 0.281207 0.674644
Si Si6 0.546512 0.575533 0.677904
Si Si7 0.723192 0.172292 0.824473
O O1 0.682138 0.917329 0.209718
O O2 0.576708 0.834677 0.232411
O O3 0.583656 0.013474 0.260918
O O4 0.597044 0.937090 0.000000
O O5 0.613401 0.104393 0.500000
O O6 0.541471 0.178556 0.707479
O O7 0.656129 0.160118 0.756139
O O8 0.812157 0.045049 0.500000
O O9 0.885151 0.054270 0.737031
O O10 0.770414 0.102166 0.754326
O O11 0.798983 0.930519 0.723673
O O12 0.248007 0.227367 0.213383
O O13 0.233375 0.104229 0.000000
O O14 0.957254 0.288557 0.500000
O O15 0.974188 0.176314 0.730737
O O16 0.500000 0.500000 0.746637
O O17 0.545195 0.569029 0.500000
O O18 0.718789 0.152381 0.000000
#
# Coordination Sequence:
#
# PCOD8227411 Si02
#       7
#     8   8   8   8   8   8   8
#     4  11  22  39  62  88 121 163 200 243 304 367
#     4  11  23  38  60  91 121 155 202 253 307 359
#     4  11  22  37  64  94 119 156 203 251 298 355
#     4  10  23  40  60  86 121 164 199 242 304 362
#     4  10  22  39  61  87 121 160 200 254 303 354
#     4   9  20  39  62  89 123 160 200 248 304 356
#     4  11  23  40  61  86 123 164 202 249 305 362
#
# _framework density 19.790960999999999
#
# number of rings (size 3 to 8) (size 9 to 14) (size 15 to 20)
#    0.000    1.571    1.429    3.000    2.000    4.571 
#    0.000    0.714    0.000    2.143    0.000    0.000 
#    0.000    0.000    0.000    0.000    0.000    0.000 
#
# Total GULP energy -694717.026743 kJ/mol
# GULP energy per Si atom -12405.661192 kJ/mol
# Density = 1.974592 g / cm^3
# Si number density = 19.790961 Si / 1000 Ang^3
#
#
#
# Elastic Constant Matrix: (Units=GPa)
#
#
# Indices 1 2 3 4 5 6 
#
# 1 96.9981 38.5798 36.7715 0.0000 0.0000 0.0000
# 2 38.5798 103.0969 40.5324 0.0000 0.0000 0.0000
# 3 36.7715 40.5324 69.5089 0.0000 0.0000 0.0000
# 4 0.0000 0.0000 0.0000 30.1008 0.0000 0.0000
# 5 0.0000 0.0000 0.0000 0.0000 15.1164 0.0000
# 6 0.0000 0.0000 0.0000 0.0000 0.0000 38.5980
#
#
#
# Elastic Compliance Matrix: (Units=1/GPa)
#
#
# Indices 1 2 3 4 5 6 
#
# 1 0.013541 -0.002920 -0.005461 0.000000 0.000000 0.000000
# 2 -0.002920 0.013215 -0.006161 0.000000 0.000000 0.000000
# 3 -0.005461 -0.006161 0.020868 0.000000 0.000000 0.000000
# 4 0.000000 0.000000 0.000000 0.033222 0.000000 0.000000
# 5 0.000000 0.000000 0.000000 0.000000 0.066153 0.000000
# 6 0.000000 0.000000 0.000000 0.000000 0.000000 0.025908
#
#
# Mechanical properties :
#
#
# Convention : Reuss Voigt Hill
#
# Bulk Modulus (GPa) = 53.93719 55.70793 54.82256
# Shear Modulus (GPa) = 24.01882 27.01105 25.51493
#
# Velocity S-wave (km/s) = 3.48749 3.69835 3.59447
# Velocity P-wave (km/s) = 6.59768 6.81516 6.70730
#
# Compressibility (1/GPa) = 0.01854008
#
# Stress axis : x y z
#
# Youngs Moduli (GPa) = 73.84932 75.67403 47.92052
#
# Poissons Ratio (x) = 0.22100 0.26167
# Poissons Ratio (y) = 0.21567 0.29523
# Poissons Ratio (z) = 0.40326 0.46621
#
# Static dielectric constant tensor:
#      x y z
#    x 3.813450 0.000000 0.000000 
#    y 0.000000 3.864820 0.000000 
#    z 0.000000 0.000000 3.543010 
# 
# 
# High freq. dielectric constant tensor:
#      x y z
#    x 1.781640 0.000000 0.000000 
#    y 0.000000 1.788490 0.000000 
#    z 0.000000 0.000000 1.762260 
# 
# From -- ./inp_files/8693.got.cif
#   From: 2010.03.12/outbox.cif.g09.slc.cpg/sg55_5_cif.got.tgz:8693.got - 2010.04.16 15:19:21.
