data_PCOD8227908
_publ_section_title
;
Structure prediction by ZEFSAII (Michael W. Deem and Ramdas Pophale) SiO2 
 PCOD8227908
Probable space group: P C C N
;
_chemical_formula_sum "Si O2"
_cell_formula_units_Z 64
_cell_length_a 15.890047
_cell_length_b 9.397744
_cell_length_c 21.619022
_cell_angle_alpha 90.000000
_cell_angle_beta 90.000000
_cell_angle_gamma 90.000000
_cell_volume 3228.381394
_symmetry_space_group_name_H-M "P C C N"
_symmetry_group_IT_number 56
_symmetry_cell_setting 'orthorhombic'
loop_
_space_group_symop_operation_xyz
x,y,z
1/2-x,1/2-y,z
1/2+x,-y,1/2-z
-x,1/2+y,1/2-z
-x,-y,-z
1/2+x,1/2+y,-z
1/2-x,y,1/2+z
x,1/2-y,1/2+z
loop_
_atom_site_type_symbol
_atom_site_label
_atom_site_fract_x
_atom_site_fract_y
_atom_site_fract_z
Si Si1 0.864710 0.150248 0.395024
Si Si2 0.516900 0.789234 0.183850
Si Si3 0.380018 0.425555 0.005682
Si Si4 0.541063 0.973963 0.303702
Si Si5 0.544268 0.132286 0.579713
Si Si6 0.084097 0.931535 0.473156
Si Si7 0.305683 0.533825 0.119335
Si Si8 0.156284 0.302885 0.913102
O O1 0.862882 0.113234 0.467192
O O2 0.849683 0.316811 0.393134
O O3 0.791358 0.058700 0.360301
O O4 0.952593 0.122381 0.360262
O O5 0.539110 0.891459 0.239847
O O6 0.478973 0.640262 0.207598
O O7 0.600841 0.756893 0.145328
O O8 0.463426 0.433147 0.046289
O O9 0.303834 0.449156 0.053983
O O10 0.378396 0.543827 0.950621
O O11 0.374428 0.271274 0.975837
O O12 0.470220 0.902971 0.348067
O O13 0.637172 0.954751 0.329226
O O14 0.558898 0.298848 0.570110
O O15 0.142567 0.030832 0.429273
O O16 0.000000 0.000000 0.500000
O O17 0.250000 0.250000 0.897573
#
# Coordination Sequence:
#
# PCOD8227908 Si02
#       8
#     8   8   8   8   8   8   8   8
#     4  10  19  37  62  93 119 153 204 257 308 371
#     4  11  23  43  63  84 118 171 213 257 309 369
#     4  10  17  36  61  89 126 160 189 245 323 380
#     4  10  23  40  65  87 118 164 217 258 308 366
#     4  10  19  35  64  90 117 160 206 245 305 385
#     4  12  21  35  63  96 125 159 201 248 314 380
#     4   9  19  36  63  92 120 152 200 260 311 366
#     4  12  25  40  59  91 133 163 197 257 320 372
#
# _framework density 19.824173999999999
#
# number of rings (size 3 to 8) (size 9 to 14) (size 15 to 20)
#    0.000    1.500    5.000    0.750    1.750    0.000 
#    2.250    0.000    0.000    0.000    0.000    0.000 
#    0.000    0.000    0.000    0.000    0.000    0.000 
#
# Total GULP energy -793329.188254 kJ/mol
# GULP energy per Si atom -12395.768566 kJ/mol
# Density = 1.977905 g / cm^3
# Si number density = 19.824174 Si / 1000 Ang^3
#
#
#
# Elastic Constant Matrix: (Units=GPa)
#
#
# Indices 1 2 3 4 5 6 
#
# 1 93.1373 22.9322 40.8328 0.0000 0.0000 0.0000
# 2 22.9322 90.1293 30.5802 0.0000 0.0000 0.0000
# 3 40.8328 30.5802 98.7429 0.0000 0.0000 0.0000
# 4 0.0000 0.0000 0.0000 40.0925 0.0000 0.0000
# 5 0.0000 0.0000 0.0000 0.0000 13.7661 0.0000
# 6 0.0000 0.0000 0.0000 0.0000 0.0000 23.7150
#
#
#
# Elastic Compliance Matrix: (Units=1/GPa)
#
#
# Indices 1 2 3 4 5 6 
#
# 1 0.013344 -0.001702 -0.004991 0.000000 0.000000 0.000000
# 2 -0.001702 0.012615 -0.003203 0.000000 0.000000 0.000000
# 3 -0.004991 -0.003203 0.013183 0.000000 0.000000 0.000000
# 4 0.000000 0.000000 0.000000 0.024942 0.000000 0.000000
# 5 0.000000 0.000000 0.000000 0.000000 0.072642 0.000000
# 6 0.000000 0.000000 0.000000 0.000000 0.000000 0.042167
#
#
# Mechanical properties :
#
#
# Convention : Reuss Voigt Hill
#
# Bulk Modulus (GPa) = 51.67861 52.29999 51.98930
# Shear Modulus (GPa) = 24.37407 28.02567 26.19987
#
# Velocity S-wave (km/s) = 3.51024 3.76401 3.63934
# Velocity P-wave (km/s) = 6.52336 6.73273 6.62887
#
# Compressibility (1/GPa) = 0.01935037
#
# Stress axis : x y z
#
# Youngs Moduli (GPa) = 74.94002 79.27107 75.85400
#
# Poissons Ratio (x) = 0.13490 0.37859
# Poissons Ratio (y) = 0.12753 0.24297
# Poissons Ratio (z) = 0.37403 0.25391
#
# Static dielectric constant tensor:
#      x y z
#    x 3.661700 0.000000 0.000000 
#    y 0.000000 3.575160 0.000000 
#    z 0.000000 0.000000 3.529750 
# 
# 
# High freq. dielectric constant tensor:
#      x y z
#    x 1.763690 0.000000 0.000000 
#    y 0.000000 1.774840 0.000000 
#    z 0.000000 0.000000 1.755580 
# 
# From -- ./inp_files/21148.got.cif
#   From: 2010.03.12/outbox.cif.g09.slc.cpg/sg56_11_cif.got.tgz:21148.got - 2010.04.16 15:33:40.
