data_PCOD8227047
_publ_section_title
;
Structure prediction by ZEFSAII (Michael W. Deem and Ramdas Pophale) SiO2 
 PCOD8227047
Probable space group: P B A M
;
_chemical_formula_sum "Si O2"
_cell_formula_units_Z 48
_cell_length_a 27.556840
_cell_length_b 9.936866
_cell_length_c 8.944735
_cell_angle_alpha 90.000000
_cell_angle_beta 90.000000
_cell_angle_gamma 90.000000
_cell_volume 2449.324499
_symmetry_space_group_name_H-M "P B A M"
_symmetry_group_IT_number 55
_symmetry_cell_setting 'orthorhombic'
loop_
_space_group_symop_operation_xyz
x,y,z
-x,-y,z
1/2+x,1/2-y,-z
1/2-x,1/2+y,-z
-x,-y,-z
x,y,-z
1/2-x,1/2+y,z
1/2+x,1/2-y,z
loop_
_atom_site_type_symbol
_atom_site_label
_atom_site_fract_x
_atom_site_fract_y
_atom_site_fract_z
Si Si1 0.353649 0.523182 0.828097
Si Si2 0.710861 0.264956 0.675890
Si Si3 0.641897 0.020584 0.324567
Si Si4 0.813094 0.265794 0.171609
Si Si5 0.958891 0.903914 0.174608
Si Si6 0.044035 0.402507 0.172587
O O1 0.311450 0.597483 0.737874
O O2 0.346985 0.364191 0.811750
O O3 0.405908 0.562391 0.757515
O O4 0.350043 0.570092 0.000000
O O5 0.715433 0.279436 0.500000
O O6 0.677744 0.139815 0.724185
O O7 0.763701 0.240957 0.741139
O O8 0.644634 0.992856 0.500000
O O9 0.587894 0.060995 0.280225
O O10 0.656573 0.887638 0.237816
O O11 0.800537 0.296283 0.000000
O O12 0.973008 0.749608 0.205987
O O13 0.956027 0.936722 0.000000
O O14 0.000000 0.000000 0.248295
O O15 0.000000 0.500000 0.212507
O O16 0.060258 0.418502 0.000000
#
# Coordination Sequence:
#
# PCOD8227047 Si02
#       6
#     8   8   8   8   8   8
#     4  10  21  38  62  90 119 155 197 248 301 351
#     4  11  23  40  61  85 119 160 202 242 297 361
#     4  11  24  41  61  87 125 166 200 242 299 360
#     4  11  24  38  60  91 120 153 203 251 295 353
#     4   9  18  34  59  89 120 149 188 244 300 350
#     4  10  21  37  63  92 119 155 201 251 300 352
#
# _framework density 19.597241
#
# number of rings (size 3 to 8) (size 9 to 14) (size 15 to 20)
#    0.000    1.667    1.667    2.500    2.333    6.333 
#    0.000    0.000    0.000    1.000    0.000    0.000 
#    0.000    0.000    0.000    0.000    0.000    0.000 
#
# Total GULP energy -595445.792910 kJ/mol
# GULP energy per Si atom -12405.120686 kJ/mol
# Density = 1.955264 g / cm^3
# Si number density = 19.597241 Si / 1000 Ang^3
#
#
#
# Elastic Constant Matrix: (Units=GPa)
#
#
# Indices 1 2 3 4 5 6 
#
# 1 101.8373 43.6988 17.4201 0.0000 0.0000 0.0000
# 2 43.6988 123.4893 38.7937 0.0000 0.0000 0.0000
# 3 17.4201 38.7937 50.9917 0.0000 0.0000 0.0000
# 4 0.0000 0.0000 0.0000 21.4913 0.0000 0.0000
# 5 0.0000 0.0000 0.0000 0.0000 17.4403 0.0000
# 6 0.0000 0.0000 0.0000 0.0000 0.0000 41.3789
#
#
#
# Elastic Compliance Matrix: (Units=1/GPa)
#
#
# Indices 1 2 3 4 5 6 
#
# 1 0.011625 -0.003766 -0.001106 0.000000 0.000000 0.000000
# 2 -0.003766 0.011861 -0.007737 0.000000 0.000000 0.000000
# 3 -0.001106 -0.007737 0.025875 0.000000 0.000000 0.000000
# 4 0.000000 0.000000 0.000000 0.046530 0.000000 0.000000
# 5 0.000000 0.000000 0.000000 0.000000 0.057339 0.000000
# 6 0.000000 0.000000 0.000000 0.000000 0.000000 0.024167
#
#
# Mechanical properties :
#
#
# Convention : Reuss Voigt Hill
#
# Bulk Modulus (GPa) = 41.42097 52.90484 47.16291
# Shear Modulus (GPa) = 23.73451 27.82248 25.77850
#
# Velocity S-wave (km/s) = 3.48388 3.77200 3.63080
# Velocity P-wave (km/s) = 6.11271 6.78419 6.45719
#
# Compressibility (1/GPa) = 0.02414236
#
# Stress axis : x y z
#
# Youngs Moduli (GPa) = 86.02239 84.30846 38.64692
#
# Poissons Ratio (x) = 0.31752 0.04275
# Poissons Ratio (y) = 0.32398 0.29902
# Poissons Ratio (z) = 0.09515 0.65231
#
# Static dielectric constant tensor:
#      x y z
#    x 3.708380 0.000000 0.000000 
#    y 0.000000 4.270270 0.000000 
#    z 0.000000 0.000000 3.443070 
# 
# 
# High freq. dielectric constant tensor:
#      x y z
#    x 1.773230 0.000000 0.000000 
#    y 0.000000 1.779160 0.000000 
#    z 0.000000 0.000000 1.745240 
# 
# From -- ./inp_files/4074.got.cif
#   From: 2010.03.12/outbox.cif.g09.slc.cpg/sg55_3_cif.got.tgz:4074.got - 2010.04.16 15:19:21.
