data_PCOD8227989
_publ_section_title
;
Structure prediction by ZEFSAII (Michael W. Deem and Ramdas Pophale) SiO2 
 PCOD8227989
Probable space group: P C C N
;
_chemical_formula_sum "Si O2"
_cell_formula_units_Z 40
_cell_length_a 15.502481
_cell_length_b 12.015984
_cell_length_c 8.810557
_cell_angle_alpha 90.000000
_cell_angle_beta 90.000000
_cell_angle_gamma 90.000000
_cell_volume 1641.209092
_symmetry_space_group_name_H-M "P C C N"
_symmetry_group_IT_number 56
_symmetry_cell_setting 'orthorhombic'
loop_
_space_group_symop_operation_xyz
x,y,z
1/2-x,1/2-y,z
1/2+x,-y,1/2-z
-x,1/2+y,1/2-z
-x,-y,-z
1/2+x,1/2+y,-z
1/2-x,y,1/2+z
x,1/2-y,1/2+z
loop_
_atom_site_type_symbol
_atom_site_label
_atom_site_fract_x
_atom_site_fract_y
_atom_site_fract_z
Si Si1 0.371908 0.852252 0.676726
Si Si2 0.437507 0.205539 0.353952
Si Si3 0.733435 0.391067 0.547093
Si Si4 0.134361 0.113414 0.162130
Si Si5 0.184821 0.456955 0.207041
O O1 0.459619 0.784902 0.661212
O O2 0.325144 0.820556 0.835903
O O3 0.306518 0.816897 0.540298
O O4 0.391246 0.983972 0.670835
O O5 0.399107 0.326488 0.315048
O O6 0.412039 0.174362 0.523488
O O7 0.401382 0.113707 0.234666
O O8 0.670967 0.448630 0.421409
O O9 0.786227 0.487111 0.634937
O O10 0.237904 0.124930 0.152685
#
# Coordination Sequence:
#
# PCOD8227989 Si02
#       5
#     8   8   8   8   8
#     4  10  21  42  64  91 122 167 204 259 306 361
#     4  12  23  38  63  90 127 166 206 254 301 375
#     4   8  18  36  60  89 117 160 207 240 305 358
#     4  10  24  37  56  93 130 158 203 248 320 363
#     4  10  18  35  59  88 129 161 188 245 316 369
#
# _framework density 24.372274999999998
#
# number of rings (size 3 to 8) (size 9 to 14) (size 15 to 20)
#    0.000    2.400    4.000    1.200    5.600    2.400 
#    0.000    0.000    0.000    3.600    5.200    0.000 
#    0.000    0.000    0.000    0.000    0.000    0.000 
#
# Total GULP energy -495954.144871 kJ/mol
# GULP energy per Si atom -12398.853622 kJ/mol
# Density = 2.431680 g / cm^3
# Si number density = 24.372275 Si / 1000 Ang^3
#
#
#
# Elastic Constant Matrix: (Units=GPa)
#
#
# Indices 1 2 3 4 5 6 
#
# 1 145.3152 10.7631 43.1521 0.0000 0.0000 0.0000
# 2 10.7631 33.8729 10.1058 0.0000 0.0000 0.0000
# 3 43.1521 10.1058 121.2032 0.0000 0.0000 0.0000
# 4 0.0000 0.0000 0.0000 30.2219 0.0000 0.0000
# 5 0.0000 0.0000 0.0000 0.0000 37.9461 0.0000
# 6 0.0000 0.0000 0.0000 0.0000 0.0000 23.5904
#
#
#
# Elastic Compliance Matrix: (Units=1/GPa)
#
#
# Indices 1 2 3 4 5 6 
#
# 1 0.007788 -0.001689 -0.002632 0.000000 0.000000 0.000000
# 2 -0.001689 0.030642 -0.001953 0.000000 0.000000 0.000000
# 3 -0.002632 -0.001953 0.009351 0.000000 0.000000 0.000000
# 4 0.000000 0.000000 0.000000 0.033089 0.000000 0.000000
# 5 0.000000 0.000000 0.000000 0.000000 0.026353 0.000000
# 6 0.000000 0.000000 0.000000 0.000000 0.000000 0.042390
#
#
# Mechanical properties :
#
#
# Convention : Reuss Voigt Hill
#
# Bulk Modulus (GPa) = 28.38417 47.60369 37.99393
# Shear Modulus (GPa) = 28.75119 34.10971 31.43045
#
# Velocity S-wave (km/s) = 3.43836 3.74509 3.59499
# Velocity P-wave (km/s) = 5.23779 6.18670 5.73191
#
# Compressibility (1/GPa) = 0.03523090
#
# Stress axis : x y z
#
# Youngs Moduli (GPa) = 128.39742 32.63520 106.94553
#
# Poissons Ratio (x) = 0.05514 0.28148
# Poissons Ratio (y) = 0.21693 0.20890
# Poissons Ratio (z) = 0.33794 0.06375
#
# Static dielectric constant tensor:
#      x y z
#    x 4.233370 0.000000 0.000000 
#    y 0.000000 4.119870 0.000000 
#    z 0.000000 0.000000 4.655550 
# 
# 
# High freq. dielectric constant tensor:
#      x y z
#    x 1.946750 0.000000 0.000000 
#    y 0.000000 1.964830 0.000000 
#    z 0.000000 0.000000 1.988180 
# 
# From -- ./inp_files/3218.got.cif
#   From: 2010.03.12/outbox.cif.g09.slc.cpg/sg56_2_cif.got.tgz:3218.got - 2010.04.16 15:33:40.
