data_PCOD8227121
_publ_section_title
;
Structure prediction by ZEFSAII (Michael W. Deem and Ramdas Pophale) SiO2 
 PCOD8227121
Probable space group: P B A M
;
_chemical_formula_sum "Si O2"
_cell_formula_units_Z 28
_cell_length_a 24.717350
_cell_length_b 4.987896
_cell_length_c 11.132565
_cell_angle_alpha 90.000000
_cell_angle_beta 90.000000
_cell_angle_gamma 90.000000
_cell_volume 1372.506900
_symmetry_space_group_name_H-M "P B A M"
_symmetry_group_IT_number 55
_symmetry_cell_setting 'orthorhombic'
loop_
_space_group_symop_operation_xyz
x,y,z
-x,-y,z
1/2+x,1/2-y,-z
1/2-x,1/2+y,-z
-x,-y,-z
x,y,-z
1/2-x,1/2+y,z
1/2+x,1/2-y,z
loop_
_atom_site_type_symbol
_atom_site_label
_atom_site_fract_x
_atom_site_fract_y
_atom_site_fract_z
Si Si1 0.558732 0.885934 0.138613
Si Si2 0.601891 0.367322 0.737211
Si Si3 0.714707 0.506223 0.638054
Si Si4 0.961223 0.752100 0.500000
O O1 0.567621 0.620444 0.216844
O O2 0.500000 0.000000 0.171924
O O3 0.601227 0.122314 0.168093
O O4 0.563660 0.803894 0.000000
O O5 0.663676 0.456620 0.722654
O O6 0.577533 0.251192 0.614775
O O7 0.695962 0.479796 0.500000
O O8 0.737101 0.800279 0.666606
O O9 0.000000 0.500000 0.500000
O O10 0.000000 0.000000 0.500000
#
# Coordination Sequence:
#
# PCOD8227121 Si02
#       4
#     8   8   8   4
#     4  11  24  41  63  88 121 167 213 247 290 363
#     4  12  22  40  63  90 124 159 201 254 309 362
#     4  10  21  38  61  89 121 157 202 247 301 371
#     4  12  24  36  56  92 128 154 184 242 317 368
#
# _framework density 20.400627
#
# number of rings (size 3 to 8) (size 9 to 14) (size 15 to 20)
#    0.000    0.857    1.429    7.714    0.000    2.286 
#    0.000    0.000    0.000   17.143    0.000    0.000 
#    0.000    0.000    0.000    0.000    0.000    0.000 
#
# Total GULP energy -347386.319467 kJ/mol
# GULP energy per Si atom -12406.654267 kJ/mol
# Density = 2.035419 g / cm^3
# Si number density = 20.400627 Si / 1000 Ang^3
#
#
#
# Elastic Constant Matrix: (Units=GPa)
#
#
# Indices 1 2 3 4 5 6 
#
# 1 73.5440 8.4074 41.6736 0.0000 0.0000 0.0000
# 2 8.4074 116.1669 34.7798 0.0000 0.0000 0.0000
# 3 41.6736 34.7798 83.2273 0.0000 0.0000 0.0000
# 4 0.0000 0.0000 0.0000 27.7049 0.0000 0.0000
# 5 0.0000 0.0000 0.0000 0.0000 21.5681 0.0000
# 6 0.0000 0.0000 0.0000 0.0000 0.0000 20.0771
#
#
#
# Elastic Compliance Matrix: (Units=1/GPa)
#
#
# Indices 1 2 3 4 5 6 
#
# 1 0.019276 0.001708 -0.010366 0.000000 0.000000 0.000000
# 2 0.001708 0.009991 -0.005030 0.000000 0.000000 0.000000
# 3 -0.010366 -0.005030 0.019308 0.000000 0.000000 0.000000
# 4 0.000000 0.000000 0.000000 0.036095 0.000000 0.000000
# 5 0.000000 0.000000 0.000000 0.000000 0.046365 0.000000
# 6 0.000000 0.000000 0.000000 0.000000 0.000000 0.049808
#
#
# Mechanical properties :
#
#
# Convention : Reuss Voigt Hill
#
# Bulk Modulus (GPa) = 47.17259 49.18443 48.17851
# Shear Modulus (GPa) = 23.22522 26.40851 24.81686
#
# Velocity S-wave (km/s) = 3.37776 3.60181 3.49158
# Velocity P-wave (km/s) = 6.19562 6.43887 6.31841
#
# Compressibility (1/GPa) = 0.02119875
#
# Stress axis : x y z
#
# Youngs Moduli (GPa) = 51.87891 100.09253 51.79275
#
# Poissons Ratio (x) = -0.17099 0.53686
# Poissons Ratio (y) = -0.08863 0.26054
# Poissons Ratio (z) = 0.53776 0.50351
#
# Static dielectric constant tensor:
#      x y z
#    x 3.561600 0.000000 0.000000 
#    y 0.000000 3.827690 0.000000 
#    z 0.000000 0.000000 3.772220 
# 
# 
# High freq. dielectric constant tensor:
#      x y z
#    x 1.791850 0.000000 0.000000 
#    y 0.000000 1.820320 0.000000 
#    z 0.000000 0.000000 1.785320 
# 
# From -- ./inp_files/11104.got.cif
#   From: 2010.03.12/outbox.cif.g09.slc.cpg/sg55_6_cif.got.tgz:11104.got - 2010.04.16 15:19:21.
