data_PCOD8227722
_publ_section_title
;
Structure prediction by ZEFSAII (Michael W. Deem and Ramdas Pophale) SiO2 
 PCOD8227722
Probable space group: P B A M
;
_chemical_formula_sum "Si O2"
_cell_formula_units_Z 48
_cell_length_a 14.962066
_cell_length_b 8.828152
_cell_length_c 16.023432
_cell_angle_alpha 90.000000
_cell_angle_beta 90.000000
_cell_angle_gamma 90.000000
_cell_volume 2116.493358
_symmetry_space_group_name_H-M "P B A M"
_symmetry_group_IT_number 55
_symmetry_cell_setting 'orthorhombic'
loop_
_space_group_symop_operation_xyz
x,y,z
-x,-y,z
1/2+x,1/2-y,-z
1/2-x,1/2+y,-z
-x,-y,-z
x,y,-z
1/2-x,1/2+y,z
1/2+x,1/2-y,z
loop_
_atom_site_type_symbol
_atom_site_label
_atom_site_fract_x
_atom_site_fract_y
_atom_site_fract_z
Si Si1 0.519747 0.674822 0.830306
Si Si2 0.740310 0.513386 0.726475
Si Si3 0.178302 0.242570 0.832595
Si Si4 0.563681 0.795179 0.000000
Si Si5 0.577111 0.873204 0.316781
Si Si6 0.643135 0.114776 0.000000
Si Si7 0.910331 0.085643 0.405367
O O1 0.500000 0.500000 0.812081
O O2 0.427818 0.767889 0.827312
O O3 0.579191 0.753738 0.760150
O O4 0.574785 0.693137 0.917018
O O5 0.770101 0.676644 0.757792
O O6 0.705429 0.430682 0.812059
O O7 0.826246 0.445864 0.681303
O O8 0.665380 0.523548 0.656166
O O9 0.200109 0.312966 0.923414
O O10 0.460666 0.844392 0.000000
O O11 0.638048 0.930306 0.000000
O O12 0.569297 0.765937 0.397840
O O13 0.500000 0.000000 0.313578
O O14 0.881316 0.049811 0.500000
O O15 0.000000 0.000000 0.380050
#
# Coordination Sequence:
#
# PCOD8227722 Si02
#       7
#     8   8   8   4   8   4   8
#     4  11  22  39  67 101 145 191 248 294 353 422
#     4  12  24  44  70 103 139 186 235 287 359 428
#     4  11  23  41  66  99 141 190 236 294 353 414
#     4   9  19  36  62  99 138 188 241 297 345 403
#     4  12  24  42  74 107 138 186 238 292 352 430
#     4   9  20  38  62  95 140 184 240 297 348 407
#     4  11  27  51  75 102 138 179 229 300 372 441
#
# _framework density 22.679022
#
# number of rings (size 3 to 8) (size 9 to 14) (size 15 to 20)
#    0.000    1.000    3.333    3.750    2.333    1.667 
#    0.000    0.833    0.000    0.000    0.000    0.583 
#    0.000    0.000    0.000    0.000    0.000    0.000 
#
# Total GULP energy -594871.656839 kJ/mol
# GULP energy per Si atom -12393.159517 kJ/mol
# Density = 2.262740 g / cm^3
# Si number density = 22.679022 Si / 1000 Ang^3
#
#
#
# Elastic Constant Matrix: (Units=GPa)
#
#
# Indices 1 2 3 4 5 6 
#
# 1 112.8670 44.3811 72.2270 0.0000 0.0000 0.0000
# 2 44.3811 118.3042 54.8276 0.0000 0.0000 0.0000
# 3 72.2270 54.8276 125.4828 0.0000 0.0000 0.0000
# 4 0.0000 0.0000 0.0000 30.6662 0.0000 0.0000
# 5 0.0000 0.0000 0.0000 0.0000 -6.5410 0.0000
# 6 0.0000 0.0000 0.0000 0.0000 0.0000 34.4256
#
#
#
# Elastic Compliance Matrix: (Units=1/GPa)
#
#
# Indices 1 2 3 4 5 6 
#
# 1 0.014378 -0.001954 -0.007422 0.000000 0.000000 0.000000
# 2 -0.001954 0.010865 -0.003622 0.000000 0.000000 0.000000
# 3 -0.007422 -0.003622 0.013824 0.000000 0.000000 0.000000
# 4 0.000000 0.000000 0.000000 0.032609 0.000000 0.000000
# 5 0.000000 0.000000 0.000000 0.000000 -0.152882 0.000000
# 6 0.000000 0.000000 0.000000 0.000000 0.000000 0.029048
#
#
# Mechanical properties :
#
#
# Convention : Reuss Voigt Hill
#
# Bulk Modulus (GPa) = 76.51329 77.72506 77.11918
# Shear Modulus (GPa) = -229.31324 24.05803 -102.62760
#
# Velocity S-wave (km/s) = -10.06638 3.26053 -6.73427
# Velocity P-wave (km/s) = 10.06472 6.96570 5.13701
#
# Compressibility (1/GPa) = 0.01306962
#
# Stress axis : x y z
#
# Youngs Moduli (GPa) = 69.55089 92.04187 72.33782
#
# Poissons Ratio (x) = 0.17986 0.53689
# Poissons Ratio (y) = 0.13591 0.26203
# Poissons Ratio (z) = 0.51621 0.33341
#
# Static dielectric constant tensor:
#      x y z
#    x 4.082560 0.000000 0.000000 
#    y 0.000000 4.290400 0.000000 
#    z 0.000000 0.000000 4.037070 
# 
# 
# High freq. dielectric constant tensor:
#      x y z
#    x 1.902320 0.000000 0.000000 
#    y 0.000000 1.901790 0.000000 
#    z 0.000000 0.000000 1.882040 
# 
# From -- ./inp_files/21522.got.cif
#   From: 2010.03.12/outbox.cif.g09.slc.cpg/sg55_11_cif.got.tgz:21522.got - 2010.04.16 15:19:21.
