data_PCOD8227739
_publ_section_title
;
Structure prediction by ZEFSAII (Michael W. Deem and Ramdas Pophale) SiO2 
 PCOD8227739
Probable space group: P B A M
;
_chemical_formula_sum "Si O2"
_cell_formula_units_Z 56
_cell_length_a 18.964661
_cell_length_b 18.964729
_cell_length_c 8.904877
_cell_angle_alpha 90.000000
_cell_angle_beta 90.000000
_cell_angle_gamma 90.000000
_cell_volume 3202.725002
_symmetry_space_group_name_H-M "P B A M"
_symmetry_group_IT_number 55
_symmetry_cell_setting 'orthorhombic'
loop_
_space_group_symop_operation_xyz
x,y,z
-x,-y,z
1/2+x,1/2-y,-z
1/2-x,1/2+y,-z
-x,-y,-z
x,y,-z
1/2-x,1/2+y,z
1/2+x,1/2-y,z
loop_
_atom_site_type_symbol
_atom_site_label
_atom_site_fract_x
_atom_site_fract_y
_atom_site_fract_z
Si Si1 0.764996 0.649052 0.827829
Si Si2 0.350954 0.235001 0.827829
Si Si3 0.442526 0.442531 0.177073
Si Si4 0.878643 0.763158 0.826277
Si Si5 0.295265 0.478962 0.324353
Si Si6 0.978963 0.204729 0.324353
Si Si7 0.736851 0.378647 0.173723
O O1 0.695210 0.695215 0.802276
O O2 0.833765 0.693952 0.784421
O O3 0.761029 0.580836 0.722063
O O4 0.769449 0.624449 0.000000
O O5 0.419171 0.238970 0.722063
O O6 0.306056 0.166232 0.784415
O O7 0.375556 0.230547 0.000000
O O8 0.500000 0.500000 0.224747
O O9 0.368154 0.467015 0.239846
O O10 0.467004 0.368155 0.239834
O O11 0.435408 0.435418 0.000000
O O12 0.832804 0.832810 0.795239
O O13 0.946006 0.762975 0.719803
O O14 0.901827 0.761254 0.000000
O O15 0.309161 0.475835 0.500000
O O16 0.262961 0.553989 0.280191
O O17 0.975832 0.190830 0.500000
O O18 0.738755 0.401828 0.000000
#
# Coordination Sequence:
#
# PCOD8227739 Si02
#       7
#     8   8   8   8   8   8   8
#     4   9  18  35  58  78 100 138 186 227 260 312
#     4   9  18  35  58  78 100 138 186 227 260 312
#     4  11  23  37  53  73 105 149 189 222 257 314
#     4   9  19  36  57  79 103 139 185 225 262 312
#     4  12  23  33  51  81 113 143 172 217 278 328
#     4  12  23  33  51  81 113 143 172 217 278 328
#     4   9  19  36  57  79 103 139 185 225 262 312
#
# _framework density 17.485109000000001
#
# number of rings (size 3 to 8) (size 9 to 14) (size 15 to 20)
#    0.000    1.857    1.429    5.571    0.000    6.286 
#    0.000    2.857    0.000    0.857    0.000    6.000 
#    0.000    0.000    0.000    0.000    0.000    0.000 
#
# Total GULP energy -694587.550722 kJ/mol
# GULP energy per Si atom -12403.349120 kJ/mol
# Density = 1.744531 g / cm^3
# Si number density = 17.485109 Si / 1000 Ang^3
#
#
#
# Elastic Constant Matrix: (Units=GPa)
#
#
# Indices 1 2 3 4 5 6 
#
# 1 87.3164 52.5518 34.3828 0.0000 0.0000 0.0000
# 2 52.5518 87.3485 34.3946 0.0000 0.0000 0.0000
# 3 34.3828 34.3946 55.2109 0.0000 0.0000 0.0000
# 4 0.0000 0.0000 0.0000 10.5076 0.0000 0.0000
# 5 0.0000 0.0000 0.0000 0.0000 10.5123 0.0000
# 6 0.0000 0.0000 0.0000 0.0000 0.0000 22.1168
#
#
#
# Elastic Compliance Matrix: (Units=1/GPa)
#
#
# Indices 1 2 3 4 5 6 
#
# 1 0.019531 -0.009224 -0.006417 0.000000 0.000000 0.000000
# 2 -0.009224 0.019525 -0.006420 0.000000 0.000000 0.000000
# 3 -0.006417 -0.006420 0.026108 0.000000 0.000000 0.000000
# 4 0.000000 0.000000 0.000000 0.095169 0.000000 0.000000
# 5 0.000000 0.000000 0.000000 0.000000 0.095127 0.000000
# 6 0.000000 0.000000 0.000000 0.000000 0.000000 0.045215
#
#
# Mechanical properties :
#
#
# Convention : Reuss Voigt Hill
#
# Bulk Modulus (GPa) = 47.52026 52.50379 50.01203
# Shear Modulus (GPa) = 14.21224 15.86376 15.03800
#
# Velocity S-wave (km/s) = 2.85409 3.01536 2.93584
# Velocity P-wave (km/s) = 6.17233 6.49739 6.33695
#
# Compressibility (1/GPa) = 0.02104366
#
# Stress axis : x y z
#
# Youngs Moduli (GPa) = 51.20174 51.21521 38.30286
#
# Poissons Ratio (x) = 0.47239 0.24578
# Poissons Ratio (y) = 0.47226 0.24589
# Poissons Ratio (z) = 0.32855 0.32879
#
# Static dielectric constant tensor:
#      x y z
#    x 3.274070 0.000000 0.000000 
#    y 0.000000 3.274020 0.000000 
#    z 0.000000 0.000000 3.161060 
# 
# 
# High freq. dielectric constant tensor:
#      x y z
#    x 1.670270 0.000000 0.000000 
#    y 0.000000 1.670270 0.000000 
#    z 0.000000 0.000000 1.673140 
# 
# From -- ./inp_files/7855.got.cif
#   From: 2010.03.12/outbox.cif.g09.slc.cpg/sg55_4_cif.got.tgz:7855.got - 2010.04.16 15:19:21.
