data_PCOD8227384
_publ_section_title
;
Structure prediction by ZEFSAII (Michael W. Deem and Ramdas Pophale) SiO2 
 PCOD8227384
Probable space group: P B A M
;
_chemical_formula_sum "Si O2"
_cell_formula_units_Z 56
_cell_length_a 9.407982
_cell_length_b 14.667423
_cell_length_c 19.225606
_cell_angle_alpha 90.000000
_cell_angle_beta 90.000000
_cell_angle_gamma 90.000000
_cell_volume 2652.957744
_symmetry_space_group_name_H-M "P B A M"
_symmetry_group_IT_number 55
_symmetry_cell_setting 'orthorhombic'
loop_
_space_group_symop_operation_xyz
x,y,z
-x,-y,z
1/2+x,1/2-y,-z
1/2-x,1/2+y,-z
-x,-y,-z
x,y,-z
1/2-x,1/2+y,z
1/2+x,1/2-y,z
loop_
_atom_site_type_symbol
_atom_site_label
_atom_site_fract_x
_atom_site_fract_y
_atom_site_fract_z
Si Si1 0.144262 0.645318 0.921731
Si Si2 0.439576 0.304530 0.337078
Si Si3 0.753982 0.365186 0.338362
Si Si4 0.661086 0.531957 0.577889
Si Si5 0.411596 0.414470 0.206209
Si Si6 0.349551 0.029092 0.210134
Si Si7 0.466291 0.680477 0.921863
O O1 0.122772 0.564932 0.867324
O O2 0.298405 0.690403 0.913093
O O3 0.029026 0.721480 0.903836
O O4 0.123694 0.606812 0.000000
O O5 0.606619 0.312521 0.354593
O O6 0.384212 0.203210 0.355185
O O7 0.337958 0.374316 0.379049
O O8 0.424619 0.326216 0.255151
O O9 0.761603 0.455916 0.386016
O O10 0.769797 0.395931 0.257952
O O11 0.500000 0.500000 0.575999
O O12 0.718925 0.549008 0.500000
O O13 0.500000 0.500000 0.238951
O O14 0.246376 0.439516 0.202109
O O15 0.473023 0.395588 0.129911
O O16 0.500000 0.000000 0.243972
O O17 0.508744 0.650057 0.000000
#
# Coordination Sequence:
#
# PCOD8227384 Si02
#       7
#     8   8   8   8   8   8   8
#     4  10  22  41  59  85 119 159 208 262 321 383
#     4  11  22  39  65  92 127 167 208 257 312 372
#     4  11  23  40  64  95 127 167 209 256 313 373
#     4   9  19  40  66  94 130 167 207 254 307 370
#     4  12  21  40  61  84 121 160 209 260 317 378
#     4  12  26  39  60  89 124 162 211 270 319 375
#     4  10  22  38  60  84 117 160 208 261 321 385
#
# _framework density 21.108515000000001
#
# number of rings (size 3 to 8) (size 9 to 14) (size 15 to 20)
#    0.000    1.286    4.286    1.286    4.000    1.714 
#    0.000    0.000    0.000    3.000    0.000    0.000 
#    0.000    0.000    0.000    0.000    0.000    0.000 
#
# Total GULP energy -694487.689417 kJ/mol
# GULP energy per Si atom -12401.565882 kJ/mol
# Density = 2.106047 g / cm^3
# Si number density = 21.108515 Si / 1000 Ang^3
#
#
#
# Elastic Constant Matrix: (Units=GPa)
#
#
# Indices 1 2 3 4 5 6 
#
# 1 82.4458 17.9840 10.5676 0.0000 0.0000 0.0000
# 2 17.9840 53.3335 26.3767 0.0000 0.0000 0.0000
# 3 10.5676 26.3767 105.0793 0.0000 0.0000 0.0000
# 4 0.0000 0.0000 0.0000 22.7779 0.0000 0.0000
# 5 0.0000 0.0000 0.0000 0.0000 19.3301 0.0000
# 6 0.0000 0.0000 0.0000 0.0000 0.0000 43.7238
#
#
#
# Elastic Compliance Matrix: (Units=1/GPa)
#
#
# Indices 1 2 3 4 5 6 
#
# 1 0.013097 -0.004299 -0.000238 0.000000 0.000000 0.000000
# 2 -0.004299 0.022818 -0.005295 0.000000 0.000000 0.000000
# 3 -0.000238 -0.005295 0.010870 0.000000 0.000000 0.000000
# 4 0.000000 0.000000 0.000000 0.043902 0.000000 0.000000
# 5 0.000000 0.000000 0.000000 0.000000 0.051733 0.000000
# 6 0.000000 0.000000 0.000000 0.000000 0.000000 0.022871
#
#
# Mechanical properties :
#
#
# Convention : Reuss Voigt Hill
#
# Bulk Modulus (GPa) = 36.87176 38.96835 37.92006
# Shear Modulus (GPa) = 25.77369 29.56172 27.66770
#
# Velocity S-wave (km/s) = 3.49808 3.74634 3.62434
# Velocity P-wave (km/s) = 5.81559 6.10036 5.95968
#
# Compressibility (1/GPa) = 0.02712102
#
# Stress axis : x y z
#
# Youngs Moduli (GPa) = 76.35121 43.82430 91.99778
#
# Poissons Ratio (x) = 0.18839 0.02191
# Poissons Ratio (y) = 0.32821 0.48717
# Poissons Ratio (z) = 0.01818 0.23207
#
# Static dielectric constant tensor:
#      x y z
#    x 3.845620 0.000000 0.000000 
#    y 0.000000 3.588470 0.000000 
#    z 0.000000 0.000000 3.940600 
# 
# 
# High freq. dielectric constant tensor:
#      x y z
#    x 1.823250 0.000000 0.000000 
#    y 0.000000 1.811740 0.000000 
#    z 0.000000 0.000000 1.825300 
# 
# From -- ./inp_files/22638.got.cif
#   From: 2010.03.12/outbox.cif.g09.slc.cpg/sg55_12_cif.got.tgz:22638.got - 2010.04.16 15:19:21.
