data_PCOD8227924
_publ_section_title
;
Structure prediction by ZEFSAII (Michael W. Deem and Ramdas Pophale) SiO2 
 PCOD8227924
Probable space group: P C C N
;
_chemical_formula_sum "Si O2"
_cell_formula_units_Z 56
_cell_length_a 15.724017
_cell_length_b 24.244305
_cell_length_c 8.613591
_cell_angle_alpha 90.000000
_cell_angle_beta 90.000000
_cell_angle_gamma 90.000000
_cell_volume 3283.654762
_symmetry_space_group_name_H-M "P C C N"
_symmetry_group_IT_number 56
_symmetry_cell_setting 'orthorhombic'
loop_
_space_group_symop_operation_xyz
x,y,z
1/2-x,1/2-y,z
1/2+x,-y,1/2-z
-x,1/2+y,1/2-z
-x,-y,-z
1/2+x,1/2+y,-z
1/2-x,y,1/2+z
x,1/2-y,1/2+z
loop_
_atom_site_type_symbol
_atom_site_label
_atom_site_fract_x
_atom_site_fract_y
_atom_site_fract_z
Si Si1 0.492420 0.916901 0.919590
Si Si2 0.898484 0.393590 0.382091
Si Si3 0.293205 0.535491 0.909586
Si Si4 0.635001 0.498097 0.415199
Si Si5 0.070263 0.809675 0.533672
Si Si6 0.093504 0.805066 0.880277
Si Si7 0.276111 0.845601 0.848107
O O1 0.465644 0.917687 0.738962
O O2 0.498848 0.852740 0.966519
O O3 0.583548 0.945244 0.937657
O O4 0.422298 0.946628 0.028666
O O5 0.855829 0.449171 0.448801
O O6 0.938728 0.358445 0.523478
O O7 0.834073 0.346774 0.308167
O O8 0.341825 0.507269 0.766560
O O9 0.253552 0.591900 0.850971
O O10 0.219122 0.496516 0.978569
O O11 0.049943 0.807214 0.714198
O O12 0.059443 0.749776 0.460522
O O13 0.165420 0.831875 0.496814
O O14 0.196064 0.804188 0.849776
#
# Coordination Sequence:
#
# PCOD8227924 Si02
#       7
#     8   8   8   8   8   8   8
#     4  10  21  35  49  72 104 140 174 219 257 312
#     4  10  19  32  50  73 105 136 179 209 258 299
#     4  11  18  32  51  72  98 137 177 221 249 306
#     4  11  20  34  54  71 101 140 177 215 270 297
#     4  11  20  33  44  70 103 135 176 208 253 300
#     4  11  21  29  49  69  99 140 172 209 248 309
#     4  10  18  29  45  69 100 138 172 213 239 297
#
# _framework density 17.054167
#
# number of rings (size 3 to 8) (size 9 to 14) (size 15 to 20)
#    0.000    1.429    4.286    5.571    0.000    1.714 
#    0.000    1.429    0.000    0.000    0.000    0.000 
#    0.000   13.714    0.000    0.000    0.000    0.000 
#
# Total GULP energy -694097.752779 kJ/mol
# GULP energy per Si atom -12394.602728 kJ/mol
# Density = 1.701535 g / cm^3
# Si number density = 17.054167 Si / 1000 Ang^3
#
#
#
# Elastic Constant Matrix: (Units=GPa)
#
#
# Indices 1 2 3 4 5 6 
#
# 1 55.6201 47.3090 41.4297 0.0000 0.0000 0.0000
# 2 47.3090 74.8082 31.8625 0.0000 0.0000 0.0000
# 3 41.4297 31.8625 122.9375 0.0000 0.0000 0.0000
# 4 0.0000 0.0000 0.0000 26.5836 0.0000 0.0000
# 5 0.0000 0.0000 0.0000 0.0000 17.6606 0.0000
# 6 0.0000 0.0000 0.0000 0.0000 0.0000 28.3620
#
#
#
# Elastic Compliance Matrix: (Units=1/GPa)
#
#
# Indices 1 2 3 4 5 6 
#
# 1 0.046380 -0.025487 -0.009024 0.000000 0.000000 0.000000
# 2 -0.025487 0.029032 0.001065 0.000000 0.000000 0.000000
# 3 -0.009024 0.001065 0.010899 0.000000 0.000000 0.000000
# 4 0.000000 0.000000 0.000000 0.037617 0.000000 0.000000
# 5 0.000000 0.000000 0.000000 0.000000 0.056623 0.000000
# 6 0.000000 0.000000 0.000000 0.000000 0.000000 0.035258
#
#
# Mechanical properties :
#
#
# Convention : Reuss Voigt Hill
#
# Bulk Modulus (GPa) = 51.49867 54.95203 53.22535
# Shear Modulus (GPa) = 17.29051 23.37219 20.33135
#
# Velocity S-wave (km/s) = 3.18757 3.70600 3.45652
# Velocity P-wave (km/s) = 6.61892 7.11369 6.87076
#
# Compressibility (1/GPa) = 0.01941798
#
# Stress axis : x y z
#
# Youngs Moduli (GPa) = 21.56123 34.44458 91.74788
#
# Poissons Ratio (x) = 0.87789 0.82795
# Poissons Ratio (y) = 0.54953 -0.09768
# Poissons Ratio (z) = 0.19457 -0.03667
#
# Static dielectric constant tensor:
#      x y z
#    x 2.823490 0.000000 0.000000 
#    y 0.000000 3.064490 0.000000 
#    z 0.000000 0.000000 3.457930 
# 
# 
# High freq. dielectric constant tensor:
#      x y z
#    x 1.595170 0.000000 0.000000 
#    y 0.000000 1.639200 0.000000 
#    z 0.000000 0.000000 1.683960 
# 
# From -- ./inp_files/4187.got.cif
#   From: 2010.03.12/outbox.cif.g09.slc.cpg/sg56_3_cif.got.tgz:4187.got - 2010.04.16 15:33:40.
