data_PCOD8227332
_publ_section_title
;
Structure prediction by ZEFSAII (Michael W. Deem and Ramdas Pophale) SiO2 
 PCOD8227332
Probable space group: P B A M
;
_chemical_formula_sum "Si O2"
_cell_formula_units_Z 40
_cell_length_a 14.292315
_cell_length_b 7.285227
_cell_length_c 15.756710
_cell_angle_alpha 90.000000
_cell_angle_beta 90.000000
_cell_angle_gamma 90.000000
_cell_volume 1640.632120
_symmetry_space_group_name_H-M "P B A M"
_symmetry_group_IT_number 55
_symmetry_cell_setting 'orthorhombic'
loop_
_space_group_symop_operation_xyz
x,y,z
-x,-y,z
1/2+x,1/2-y,-z
1/2-x,1/2+y,-z
-x,-y,-z
x,y,-z
1/2-x,1/2+y,z
1/2+x,1/2-y,z
loop_
_atom_site_type_symbol
_atom_site_label
_atom_site_fract_x
_atom_site_fract_y
_atom_site_fract_z
Si Si1 0.885289 0.486587 0.595944
Si Si2 0.170340 0.236193 0.000000
Si Si3 0.681192 0.595631 0.402321
Si Si4 0.030721 0.304642 0.862274
Si Si5 0.885273 0.179350 0.000000
Si Si6 0.061942 0.166756 0.317794
O O1 0.917648 0.457673 0.500000
O O2 0.867523 0.282807 0.635977
O O3 0.792764 0.611638 0.601044
O O4 0.959601 0.629541 0.641628
O O5 0.126090 0.333797 0.082912
O O6 0.128255 0.035006 0.000000
O O7 0.282719 0.225682 0.000000
O O8 0.649858 0.564669 0.500000
O O9 0.662179 0.416239 0.344204
O O10 0.052637 0.173022 0.783623
O O11 0.000000 0.500000 0.825468
O O12 0.944114 0.228741 0.916867
O O13 0.000000 0.000000 0.356756
#
# Coordination Sequence:
#
# PCOD8227332 Si02
#       6
#     8   4   8   8   4   8
#     4  10  21  42  69  98 132 185 241 290 346 415
#     4  11  22  47  78 110 128 195 236 277 348 438
#     4  10  21  42  70  95 134 185 239 292 345 413
#     4  11  25  47  71 103 151 184 229 298 352 413
#     4  11  22  47  78 104 142 185 236 281 350 426
#     4  12  26  42  64 103 144 181 224 293 359 409
#
# _framework density 24.380848
#
# number of rings (size 3 to 8) (size 9 to 14) (size 15 to 20)
#    0.000    1.200    2.000    5.400    2.800    1.600 
#   10.800    2.000    0.000    0.000    0.000    0.000 
#    0.000    0.000    0.000    0.000    0.000    0.000 
#
# Total GULP energy -495670.673697 kJ/mol
# GULP energy per Si atom -12391.766842 kJ/mol
# Density = 2.432536 g / cm^3
# Si number density = 24.380848 Si / 1000 Ang^3
#
#
#
# Elastic Constant Matrix: (Units=GPa)
#
#
# Indices 1 2 3 4 5 6 
#
# 1 81.3926 38.2771 12.1507 0.0000 0.0000 0.0000
# 2 38.2771 173.2444 64.8645 0.0000 0.0000 0.0000
# 3 12.1507 64.8645 104.2392 0.0000 0.0000 0.0000
# 4 0.0000 0.0000 0.0000 41.1710 0.0000 0.0000
# 5 0.0000 0.0000 0.0000 0.0000 -166.9449 0.0000
# 6 0.0000 0.0000 0.0000 0.0000 0.0000 35.8705
#
#
#
# Elastic Compliance Matrix: (Units=1/GPa)
#
#
# Indices 1 2 3 4 5 6 
#
# 1 0.013722 -0.003172 0.000374 0.000000 0.000000 0.000000
# 2 -0.003172 0.008259 -0.004769 0.000000 0.000000 0.000000
# 3 0.000374 -0.004769 0.012518 0.000000 0.000000 0.000000
# 4 0.000000 0.000000 0.000000 0.024289 0.000000 0.000000
# 5 0.000000 0.000000 0.000000 0.000000 -0.005990 0.000000
# 6 0.000000 0.000000 0.000000 0.000000 0.000000 0.027878
#
#
# Mechanical properties :
#
#
# Convention : Reuss Voigt Hill
#
# Bulk Modulus (GPa) = 51.64186 65.49563 58.56874
# Shear Modulus (GPa) = 48.89311 -1.74177 23.57567
#
# Velocity S-wave (km/s) = 4.48302 -0.84614 3.11300
# Velocity P-wave (km/s) = 6.92993 5.09581 6.08240
#
# Compressibility (1/GPa) = 0.01936414
#
# Stress axis : x y z
#
# Youngs Moduli (GPa) = 72.87602 121.08444 79.88809
#
# Poissons Ratio (x) = 0.38407 -0.02990
# Poissons Ratio (y) = 0.23115 0.38102
# Poissons Ratio (z) = -0.02727 0.57750
#
# Static dielectric constant tensor:
#      x y z
#    x 4.961770 0.000000 0.000000 
#    y 0.000000 4.817470 0.000000 
#    z 0.000000 0.000000 3.949110 
# 
# 
# High freq. dielectric constant tensor:
#      x y z
#    x 1.987740 0.000000 0.000000 
#    y 0.000000 2.005780 0.000000 
#    z 0.000000 0.000000 1.930640 
# 
# From -- ./inp_files/18762.got.cif
#   From: 2010.03.12/outbox.cif.g09.slc.cpg/sg55_10_cif.got.tgz:18762.got - 2010.04.16 15:19:21.
