data_PCOD8227878
_publ_section_title
;
Structure prediction by ZEFSAII (Michael W. Deem and Ramdas Pophale) SiO2 
 PCOD8227878
Probable space group: P C C N
;
_chemical_formula_sum "Si O2"
_cell_formula_units_Z 56
_cell_length_a 19.312512
_cell_length_b 30.336761
_cell_length_c 5.238344
_cell_angle_alpha 90.000000
_cell_angle_beta 90.000000
_cell_angle_gamma 90.000000
_cell_volume 3069.036063
_symmetry_space_group_name_H-M "P C C N"
_symmetry_group_IT_number 56
_symmetry_cell_setting 'orthorhombic'
loop_
_space_group_symop_operation_xyz
x,y,z
1/2-x,1/2-y,z
1/2+x,-y,1/2-z
-x,1/2+y,1/2-z
-x,-y,-z
1/2+x,1/2+y,-z
1/2-x,y,1/2+z
x,1/2-y,1/2+z
loop_
_atom_site_type_symbol
_atom_site_label
_atom_site_fract_x
_atom_site_fract_y
_atom_site_fract_z
Si Si1 0.506263 0.944994 0.783614
Si Si2 0.053707 0.694697 0.219394
Si Si3 0.424649 0.236913 0.278455
Si Si4 0.708566 0.415119 0.303923
Si Si5 0.205934 0.812948 0.723040
Si Si6 0.572775 0.031912 0.715772
Si Si7 0.998389 0.153633 0.779899
O O1 0.570744 0.978584 0.750501
O O2 0.529642 0.895144 0.731311
O O3 0.448223 0.956780 0.573818
O O4 0.478047 0.947326 0.072205
O O5 0.998694 0.735419 0.221015
O O6 0.132522 0.713318 0.226804
O O7 0.044239 0.662330 0.461542
O O8 0.048129 0.664754 0.966084
O O9 0.381234 0.249943 0.528565
O O10 0.434869 0.185014 0.277858
O O11 0.733840 0.424496 0.590282
O O12 0.684919 0.364509 0.276323
O O13 0.648499 0.449850 0.257122
O O14 0.249888 0.799950 0.472852
#
# Coordination Sequence:
#
# PCOD8227878 Si02
#       7
#     8   8   8   8   8   8   8
#     4  10  19  30  47  66  88 112 134 178 224 260
#     4  10  18  29  44  59  79 102 133 172 206 244
#     4   8  16  27  41  58  75  97 129 162 193 241
#     4  10  19  30  44  61  83 113 147 180 213 252
#     4  10  19  28  40  57  74  99 137 176 210 242
#     4  10  20  32  44  66  90 108 140 178 220 261
#     4  10  17  28  46  61  75 102 134 158 202 255
#
# _framework density 18.246770000000001
#
# number of rings (size 3 to 8) (size 9 to 14) (size 15 to 20)
#    0.000    2.286    0.000    4.286    0.000    2.286 
#    0.000    0.000    0.000   23.143    0.000    0.000 
#    0.000    0.000    0.000    0.000    0.000   38.571 
#
# Total GULP energy -693899.345757 kJ/mol
# GULP energy per Si atom -12391.059746 kJ/mol
# Density = 1.820524 g / cm^3
# Si number density = 18.246770 Si / 1000 Ang^3
#
#
#
# Elastic Constant Matrix: (Units=GPa)
#
#
# Indices 1 2 3 4 5 6 
#
# 1 12.3731 1.1259 -9.2318 0.0000 0.0000 0.0000
# 2 1.1259 92.5454 4.9355 0.0000 0.0000 0.0000
# 3 -9.2318 4.9355 130.8625 0.0000 0.0000 0.0000
# 4 0.0000 0.0000 0.0000 8.8705 0.0000 0.0000
# 5 0.0000 0.0000 0.0000 0.0000 11.7921 0.0000
# 6 0.0000 0.0000 0.0000 0.0000 0.0000 18.1011
#
#
#
# Elastic Compliance Matrix: (Units=1/GPa)
#
#
# Indices 1 2 3 4 5 6 
#
# 1 0.085482 -0.001364 0.006082 0.000000 0.000000 0.000000
# 2 -0.001364 0.010849 -0.000505 0.000000 0.000000 0.000000
# 3 0.006082 -0.000505 0.008090 0.000000 0.000000 0.000000
# 4 0.000000 0.000000 0.000000 0.112733 0.000000 0.000000
# 5 0.000000 0.000000 0.000000 0.000000 0.084803 0.000000
# 6 0.000000 0.000000 0.000000 0.000000 0.000000 0.055245
#
#
# Mechanical properties :
#
#
# Convention : Reuss Voigt Hill
#
# Bulk Modulus (GPa) = 8.86166 25.49334 17.17750
# Shear Modulus (GPa) = 12.94018 23.68283 18.31151
#
# Velocity S-wave (km/s) = 2.66593 3.60657 3.17132
# Velocity P-wave (km/s) = 3.78726 5.59865 4.77955
#
# Compressibility (1/GPa) = 0.11284561
#
# Stress axis : x y z
#
# Youngs Moduli (GPa) = 11.69831 92.17388 123.61362
#
# Poissons Ratio (x) = 0.12575 -0.75181
# Poissons Ratio (y) = 0.01596 0.06248
# Poissons Ratio (z) = -0.07115 0.04659
#
# Static dielectric constant tensor:
#      x y z
#    x 2.709190 0.000000 0.000000 
#    y 0.000000 3.462460 0.000000 
#    z 0.000000 0.000000 4.248300 
# 
# 
# High freq. dielectric constant tensor:
#      x y z
#    x 1.625940 0.000000 0.000000 
#    y 0.000000 1.707560 0.000000 
#    z 0.000000 0.000000 1.749100 
# 
# From -- ./inp_files/1108.got.cif
#   From: 2010.03.12/outbox.cif.g09.slc.cpg/sg56_1_cif.got.tgz:1108.got - 2010.04.16 15:33:40.
