data_PCOD8227570
_publ_section_title
;
Structure prediction by ZEFSAII (Michael W. Deem and Ramdas Pophale) SiO2 
 PCOD8227570
Probable space group: P B A M
;
_chemical_formula_sum "Si O2"
_cell_formula_units_Z 32
_cell_length_a 9.409285
_cell_length_b 13.756758
_cell_length_c 11.268148
_cell_angle_alpha 90.000000
_cell_angle_beta 90.000000
_cell_angle_gamma 90.000000
_cell_volume 1458.563238
_symmetry_space_group_name_H-M "P B A M"
_symmetry_group_IT_number 55
_symmetry_cell_setting 'orthorhombic'
loop_
_space_group_symop_operation_xyz
x,y,z
-x,-y,z
1/2+x,1/2-y,-z
1/2-x,1/2+y,-z
-x,-y,-z
x,y,-z
1/2-x,1/2+y,z
1/2+x,1/2-y,z
loop_
_atom_site_type_symbol
_atom_site_label
_atom_site_fract_x
_atom_site_fract_y
_atom_site_fract_z
Si Si1 0.266244 0.156147 0.750337
Si Si2 0.622129 0.863807 0.500000
Si Si3 0.980972 0.212573 0.137150
Si Si4 0.646249 0.546676 0.278294
Si Si5 0.689529 0.089906 0.500000
O O1 0.304821 0.184292 0.614821
O O2 0.395112 0.188945 0.835242
O O3 0.123692 0.213256 0.785207
O O4 0.248726 0.039937 0.767214
O O5 0.452362 0.844409 0.500000
O O6 0.649882 0.977424 0.500000
O O7 0.884393 0.118915 0.169254
O O8 0.022559 0.207615 0.000000
O O9 0.500000 0.500000 0.327804
O O10 0.717494 0.610461 0.382517
#
# Coordination Sequence:
#
# PCOD8227570 Si02
#       5
#     8   4   8   8   4
#     4  10  23  41  62  91 126 161 211 263 319 375
#     4   9  20  37  61  92 124 158 196 257 326 368
#     4  11  24  41  62  89 125 171 217 260 309 377
#     4   9  20  38  64  94 127 170 205 253 327 379
#     4   9  17  35  63  94 127 152 198 258 308 382
#
# _framework density 21.939398000000001
#
# number of rings (size 3 to 8) (size 9 to 14) (size 15 to 20)
#    0.000    2.250    0.000    1.125    3.500   10.500 
#    0.000    0.000    0.000    3.000    0.000    0.000 
#    0.000    0.000    0.000    0.000    0.000    0.000 
#
# Total GULP energy -396859.933600 kJ/mol
# GULP energy per Si atom -12401.872925 kJ/mol
# Density = 2.188946 g / cm^3
# Si number density = 21.939398 Si / 1000 Ang^3
#
#
#
# Elastic Constant Matrix: (Units=GPa)
#
#
# Indices 1 2 3 4 5 6 
#
# 1 129.9722 48.1542 77.8139 0.0000 0.0000 0.0000
# 2 48.1542 57.9494 40.2517 0.0000 0.0000 0.0000
# 3 77.8139 40.2517 150.6821 0.0000 0.0000 0.0000
# 4 0.0000 0.0000 0.0000 4.2898 0.0000 0.0000
# 5 0.0000 0.0000 0.0000 0.0000 30.5520 0.0000
# 6 0.0000 0.0000 0.0000 0.0000 0.0000 38.6123
#
#
#
# Elastic Compliance Matrix: (Units=1/GPa)
#
#
# Indices 1 2 3 4 5 6 
#
# 1 0.013528 -0.007845 -0.004891 0.000000 0.000000 0.000000
# 2 -0.007845 0.025737 -0.002824 0.000000 0.000000 0.000000
# 3 -0.004891 -0.002824 0.009916 0.000000 0.000000 0.000000
# 4 0.000000 0.000000 0.000000 0.233112 0.000000 0.000000
# 5 0.000000 0.000000 0.000000 0.000000 0.032731 0.000000
# 6 0.000000 0.000000 0.000000 0.000000 0.000000 0.025898
#
#
# Mechanical properties :
#
#
# Convention : Reuss Voigt Hill
#
# Bulk Modulus (GPa) = 55.36203 74.56035 64.96119
# Shear Modulus (GPa) = 13.22534 26.18308 19.70421
#
# Velocity S-wave (km/s) = 2.45789 3.45835 3.00012
# Velocity P-wave (km/s) = 5.77441 7.07145 6.45559
#
# Compressibility (1/GPa) = 0.01806292
#
# Stress axis : x y z
#
# Youngs Moduli (GPa) = 73.91873 38.85521 100.84254
#
# Poissons Ratio (x) = 0.30480 0.49319
# Poissons Ratio (y) = 0.57986 0.28478
# Poissons Ratio (z) = 0.36151 0.10973
#
# Static dielectric constant tensor:
#      x y z
#    x 4.178360 0.000000 0.000000 
#    y 0.000000 3.776610 0.000000 
#    z 0.000000 0.000000 3.838250 
# 
# 
# High freq. dielectric constant tensor:
#      x y z
#    x 1.869290 0.000000 0.000000 
#    y 0.000000 1.854880 0.000000 
#    z 0.000000 0.000000 1.847090 
# 
# From -- ./inp_files/11625.got.cif
#   From: 2010.03.12/outbox.cif.g09.slc.cpg/sg55_6_cif.got.tgz:11625.got - 2010.04.16 15:19:21.
