data_PCOD8227417
_publ_section_title
;
Structure prediction by ZEFSAII (Michael W. Deem and Ramdas Pophale) SiO2 
 PCOD8227417
Probable space group: P B A M
;
_chemical_formula_sum "Si O2"
_cell_formula_units_Z 56
_cell_length_a 13.705791
_cell_length_b 8.747774
_cell_length_c 20.632518
_cell_angle_alpha 90.000000
_cell_angle_beta 90.000000
_cell_angle_gamma 90.000000
_cell_volume 2473.739091
_symmetry_space_group_name_H-M "P B A M"
_symmetry_group_IT_number 55
_symmetry_cell_setting 'orthorhombic'
loop_
_space_group_symop_operation_xyz
x,y,z
-x,-y,z
1/2+x,1/2-y,-z
1/2-x,1/2+y,-z
-x,-y,-z
x,y,-z
1/2-x,1/2+y,z
1/2+x,1/2-y,z
loop_
_atom_site_type_symbol
_atom_site_label
_atom_site_fract_x
_atom_site_fract_y
_atom_site_fract_z
Si Si1 0.140186 0.594152 0.868040
Si Si2 0.629166 0.399873 0.000000
Si Si3 0.859205 0.756731 0.668976
Si Si4 0.999146 0.255725 0.222002
Si Si5 0.647496 0.617597 0.682417
Si Si6 0.832308 0.762739 0.867530
Si Si7 0.913640 0.236412 0.000000
Si Si8 0.990356 0.180542 0.428671
O O1 0.164410 0.417827 0.875265
O O2 0.230752 0.685175 0.834521
O O3 0.052263 0.608000 0.816897
O O4 0.105038 0.662607 0.936629
O O5 0.683359 0.339382 0.937120
O O6 0.521894 0.330917 0.000000
O O7 0.648923 0.581625 0.000000
O O8 0.931342 0.679399 0.721410
O O9 0.757534 0.675141 0.680211
O O10 0.910136 0.738156 0.598164
O O11 0.850227 0.936818 0.678906
O O12 0.073266 0.170754 0.170960
O O13 0.915117 0.147684 0.252373
O O14 0.597317 0.706280 0.622032
O O15 0.967682 0.250538 0.500000
O O16 0.000000 0.000000 0.435003
#
# Coordination Sequence:
#
# PCOD8227417 Si02
#       8
#     8   4   8   8   8   8   4   8
#     4  12  26  44  66  93 123 159 204 256 313 375
#     4  11  24  43  68  94 122 160 200 251 315 375
#     4  10  22  39  62  91 125 165 208 257 309 365
#     4  11  24  40  62  87 117 162 208 255 302 362
#     4  10  22  39  62  91 125 165 208 257 309 365
#     4  12  26  44  66  93 123 159 204 256 313 375
#     4  11  24  43  68  94 122 160 200 251 315 375
#     4   8  16  35  62  91 125 167 210 250 300 364
#
# _framework density 22.637795000000001
#
# number of rings (size 3 to 8) (size 9 to 14) (size 15 to 20)
#    0.000    1.429    1.429    4.286    0.000   10.286 
#    0.000    2.143    0.000    0.857    0.000    0.000 
#    0.000    0.000    0.000    0.000    0.000    0.000 
#
# Total GULP energy -693890.003591 kJ/mol
# GULP energy per Si atom -12390.892921 kJ/mol
# Density = 2.258627 g / cm^3
# Si number density = 22.637795 Si / 1000 Ang^3
#
#
#
# Elastic Constant Matrix: (Units=GPa)
#
#
# Indices 1 2 3 4 5 6 
#
# 1 143.9417 38.6847 60.5477 0.0000 0.0000 0.0000
# 2 38.6847 94.1279 45.9971 0.0000 0.0000 0.0000
# 3 60.5477 45.9971 142.2112 0.0000 0.0000 0.0000
# 4 0.0000 0.0000 0.0000 35.8142 0.0000 0.0000
# 5 0.0000 0.0000 0.0000 0.0000 25.9569 0.0000
# 6 0.0000 0.0000 0.0000 0.0000 0.0000 -0.9814
#
#
#
# Elastic Compliance Matrix: (Units=1/GPa)
#
#
# Indices 1 2 3 4 5 6 
#
# 1 0.008806 -0.002122 -0.003063 0.000000 0.000000 0.000000
# 2 -0.002122 0.013130 -0.003343 0.000000 0.000000 0.000000
# 3 -0.003063 -0.003343 0.009417 0.000000 0.000000 0.000000
# 4 0.000000 0.000000 0.000000 0.027922 0.000000 0.000000
# 5 0.000000 0.000000 0.000000 0.000000 0.038525 0.000000
# 6 0.000000 0.000000 0.000000 0.000000 0.000000 -1.018937
#
#
# Mechanical properties :
#
#
# Convention : Reuss Voigt Hill
#
# Bulk Modulus (GPa) = 69.94805 74.52667 72.23736
# Shear Modulus (GPa) = -5.55979 27.82801 11.13411
#
# Velocity S-wave (km/s) = -1.56886 3.50990 2.22015
# Velocity P-wave (km/s) = 5.26157 7.02984 6.20898
#
# Compressibility (1/GPa) = 0.01429632
#
# Stress axis : x y z
#
# Youngs Moduli (GPa) = 113.55919 76.16280 106.19006
#
# Poissons Ratio (x) = 0.16165 0.32523
# Poissons Ratio (y) = 0.24102 0.35500
# Poissons Ratio (z) = 0.34780 0.25462
#
# Static dielectric constant tensor:
#      x y z
#    x 4.586950 0.000000 0.000000 
#    y 0.000000 3.733560 0.000000 
#    z 0.000000 0.000000 4.551820 
# 
# 
# High freq. dielectric constant tensor:
#      x y z
#    x 1.914810 0.000000 0.000000 
#    y 0.000000 1.870020 0.000000 
#    z 0.000000 0.000000 1.895500 
# 
# From -- ./inp_files/23011.got.cif
#   From: 2010.03.12/outbox.cif.g09.slc.cpg/sg55_12_cif.got.tgz:23011.got - 2010.04.16 15:19:21.
