data_PCOD8227702
_publ_section_title
;
Structure prediction by ZEFSAII (Michael W. Deem and Ramdas Pophale) SiO2 
 PCOD8227702
Probable space group: P B A M
;
_chemical_formula_sum "Si O2"
_cell_formula_units_Z 48
_cell_length_a 9.821981
_cell_length_b 17.335299
_cell_length_c 13.957743
_cell_angle_alpha 90.000000
_cell_angle_beta 90.000000
_cell_angle_gamma 90.000000
_cell_volume 2376.542712
_symmetry_space_group_name_H-M "P B A M"
_symmetry_group_IT_number 55
_symmetry_cell_setting 'orthorhombic'
loop_
_space_group_symop_operation_xyz
x,y,z
-x,-y,z
1/2+x,1/2-y,-z
1/2-x,1/2+y,-z
-x,-y,-z
x,y,-z
1/2-x,1/2+y,z
1/2+x,1/2-y,z
loop_
_atom_site_type_symbol
_atom_site_label
_atom_site_fract_x
_atom_site_fract_y
_atom_site_fract_z
Si Si1 0.497991 0.800887 0.106684
Si Si2 0.511404 0.696156 0.611671
Si Si3 0.219155 0.915079 0.702031
Si Si4 0.694281 0.662233 0.106373
Si Si5 0.215665 0.073205 0.388461
Si Si6 0.484587 0.137006 0.301339
O O1 0.567732 0.718602 0.124510
O O2 0.334996 0.789675 0.117493
O O3 0.548753 0.861953 0.186939
O O4 0.535300 0.832080 0.000000
O O5 0.520525 0.715291 0.500000
O O6 0.648624 0.653152 0.642617
O O7 0.382128 0.643684 0.637645
O O8 0.493565 0.774936 0.668244
O O9 0.188836 0.905744 0.815306
O O10 0.379274 0.911257 0.678982
O O11 0.164631 0.998221 0.669140
O O12 0.685272 0.625262 0.000000
O O13 0.209308 0.052744 0.500000
O O14 0.367575 0.095890 0.360266
#
# Coordination Sequence:
#
# PCOD8227702 Si02
#       6
#     8   8   8   8   8   8
#     4   9  18  33  56  87 116 146 186 236 290 338
#     4  11  23  39  59  83 112 150 196 244 288 340
#     4  11  22  38  59  84 118 156 189 236 292 350
#     4   9  18  34  58  86 117 151 189 236 286 340
#     4  11  25  41  58  83 118 157 195 239 298 350
#     4  11  22  37  61  88 113 148 197 244 283 339
#
# _framework density 20.197406000000001
#
# number of rings (size 3 to 8) (size 9 to 14) (size 15 to 20)
#    0.000    1.667    1.667    3.000    2.333    6.000 
#    0.000    0.833    0.000    7.000    0.000    0.000 
#    0.000    0.000    0.000    0.000    0.000    0.000 
#
# Total GULP energy -595282.702311 kJ/mol
# GULP energy per Si atom -12401.722965 kJ/mol
# Density = 2.015144 g / cm^3
# Si number density = 20.197406 Si / 1000 Ang^3
#
#
#
# Elastic Constant Matrix: (Units=GPa)
#
#
# Indices 1 2 3 4 5 6 
#
# 1 59.7750 6.2330 40.0031 0.0000 0.0000 0.0000
# 2 6.2330 74.3907 40.9817 0.0000 0.0000 0.0000
# 3 40.0031 40.9817 93.0012 0.0000 0.0000 0.0000
# 4 0.0000 0.0000 0.0000 31.5220 0.0000 0.0000
# 5 0.0000 0.0000 0.0000 0.0000 29.9209 0.0000
# 6 0.0000 0.0000 0.0000 0.0000 0.0000 20.9991
#
#
#
# Elastic Compliance Matrix: (Units=1/GPa)
#
#
# Indices 1 2 3 4 5 6 
#
# 1 0.024837 0.005024 -0.012897 0.000000 0.000000 0.000000
# 2 0.005024 0.018768 -0.010431 0.000000 0.000000 0.000000
# 3 -0.012897 -0.010431 0.020897 0.000000 0.000000 0.000000
# 4 0.000000 0.000000 0.000000 0.031724 0.000000 0.000000
# 5 0.000000 0.000000 0.000000 0.000000 0.033421 0.000000
# 6 0.000000 0.000000 0.000000 0.000000 0.000000 0.047621
#
#
# Mechanical properties :
#
#
# Convention : Reuss Voigt Hill
#
# Bulk Modulus (GPa) = 35.85170 44.62251 40.23711
# Shear Modulus (GPa) = 22.40405 25.81833 24.11119
#
# Velocity S-wave (km/s) = 3.33416 3.57921 3.45886
# Velocity P-wave (km/s) = 5.71063 6.26276 5.99306
#
# Compressibility (1/GPa) = 0.02789268
#
# Stress axis : x y z
#
# Youngs Moduli (GPa) = 40.26328 53.28168 47.85466
#
# Poissons Ratio (x) = -0.26768 0.61718
# Poissons Ratio (y) = -0.20228 0.49919
# Poissons Ratio (z) = 0.51927 0.55580
#
# Static dielectric constant tensor:
#      x y z
#    x 3.750200 0.000000 0.000000 
#    y 0.000000 3.439510 0.000000 
#    z 0.000000 0.000000 4.046710 
# 
# 
# High freq. dielectric constant tensor:
#      x y z
#    x 1.798080 0.000000 0.000000 
#    y 0.000000 1.759460 0.000000 
#    z 0.000000 0.000000 1.808290 
# 
# From -- ./inp_files/17341.got.cif
#   From: 2010.03.12/outbox.cif.g09.slc.cpg/sg55_9_cif.got.tgz:17341.got - 2010.04.16 15:19:21.
