data_PCOD8227618
_publ_section_title
;
Structure prediction by ZEFSAII (Michael W. Deem and Ramdas Pophale) SiO2 
 PCOD8227618
Probable space group: P B A M
;
_chemical_formula_sum "Si O2"
_cell_formula_units_Z 64
_cell_length_a 23.642847
_cell_length_b 15.207340
_cell_length_c 8.619112
_cell_angle_alpha 90.000000
_cell_angle_beta 90.000000
_cell_angle_gamma 90.000000
_cell_volume 3098.957011
_symmetry_space_group_name_H-M "P B A M"
_symmetry_group_IT_number 55
_symmetry_cell_setting 'orthorhombic'
loop_
_space_group_symop_operation_xyz
x,y,z
-x,-y,z
1/2+x,1/2-y,-z
1/2-x,1/2+y,-z
-x,-y,-z
x,y,-z
1/2-x,1/2+y,z
1/2+x,1/2-y,z
loop_
_atom_site_type_symbol
_atom_site_label
_atom_site_fract_x
_atom_site_fract_y
_atom_site_fract_z
Si Si1 0.674551 0.743420 0.180501
Si Si2 0.377919 0.608692 0.322036
Si Si3 0.604901 0.914010 0.818840
Si Si4 0.000607 0.337940 0.318680
Si Si5 0.496045 0.653580 0.179752
Si Si6 0.194660 0.256257 0.820721
Si Si7 0.877033 0.592990 0.319366
Si Si8 0.605623 0.588151 0.321407
O O1 0.644441 0.833249 0.232115
O O2 0.740025 0.754536 0.221416
O O3 0.650445 0.662172 0.276641
O O4 0.664405 0.723808 0.000000
O O5 0.367761 0.635739 0.500000
O O6 0.442772 0.628797 0.283464
O O7 0.336033 0.664543 0.215656
O O8 0.365011 0.506102 0.292956
O O9 0.545965 0.911115 0.723989
O O10 0.636584 0.004002 0.773958
O O11 0.591717 0.912023 0.000000
O O12 0.998828 0.315741 0.500000
O O13 0.984322 0.252274 0.219351
O O14 0.062095 0.370551 0.266872
O O15 0.548801 0.590844 0.218645
O O16 0.480323 0.644481 0.000000
O O17 0.170014 0.335134 0.718964
O O18 0.185217 0.279174 0.000000
O O19 0.875826 0.571210 0.500000
O O20 0.587960 0.599878 0.500000
#
# Coordination Sequence:
#
# PCOD8227618 Si02
#       8
#     8   8   8   8   8   8   8   8
#     4  10  24  44  64  90 124 163 210 262 313 365
#     4  11  24  42  63  93 128 163 206 257 311 374
#     4  11  23  40  64  94 127 164 209 257 306 371
#     4  11  22  38  62  92 128 165 201 251 312 372
#     4  12  23  37  63  95 127 165 206 251 309 374
#     4  11  24  43  66  90 121 164 212 262 312 367
#     4  11  24  41  63  92 128 165 205 256 313 373
#     4  11  24  41  65  94 127 166 206 254 312 371
#
# _framework density 20.652108999999999
#
# number of rings (size 3 to 8) (size 9 to 14) (size 15 to 20)
#    0.000    1.000    2.500    4.125    0.000    9.000 
#    0.000    3.750    0.000    0.000    0.000    0.000 
#    0.000    0.000    0.000    0.000    0.000    0.000 
#
# Total GULP energy -794136.429956 kJ/mol
# GULP energy per Si atom -12408.381718 kJ/mol
# Density = 2.060510 g / cm^3
# Si number density = 20.652109 Si / 1000 Ang^3
#
#
#
# Elastic Constant Matrix: (Units=GPa)
#
#
# Indices 1 2 3 4 5 6 
#
# 1 106.3475 34.1429 27.6288 0.0000 0.0000 0.0000
# 2 34.1429 116.5154 33.9780 0.0000 0.0000 0.0000
# 3 27.6288 33.9780 60.0268 0.0000 0.0000 0.0000
# 4 0.0000 0.0000 0.0000 35.2873 0.0000 0.0000
# 5 0.0000 0.0000 0.0000 0.0000 27.8183 0.0000
# 6 0.0000 0.0000 0.0000 0.0000 0.0000 11.2335
#
#
#
# Elastic Compliance Matrix: (Units=1/GPa)
#
#
# Indices 1 2 3 4 5 6 
#
# 1 0.011097 -0.002111 -0.003913 0.000000 0.000000 0.000000
# 2 -0.002111 0.010681 -0.005074 0.000000 0.000000 0.000000
# 3 -0.003913 -0.005074 0.021333 0.000000 0.000000 0.000000
# 4 0.000000 0.000000 0.000000 0.028339 0.000000 0.000000
# 5 0.000000 0.000000 0.000000 0.000000 0.035948 0.000000
# 6 0.000000 0.000000 0.000000 0.000000 0.000000 0.089019
#
#
# Mechanical properties :
#
#
# Convention : Reuss Voigt Hill
#
# Bulk Modulus (GPa) = 47.81363 52.70990 50.26176
# Shear Modulus (GPa) = 22.16466 27.34383 24.75425
#
# Velocity S-wave (km/s) = 3.27959 3.64266 3.46588
# Velocity P-wave (km/s) = 6.12724 6.57800 6.35662
#
# Compressibility (1/GPa) = 0.02091454
#
# Stress axis : x y z
#
# Youngs Moduli (GPa) = 90.11118 93.62554 46.87666
#
# Poissons Ratio (x) = 0.19762 0.18343
# Poissons Ratio (y) = 0.19021 0.23787
# Poissons Ratio (z) = 0.35261 0.47509
#
# Static dielectric constant tensor:
#      x y z
#    x 3.642860 0.000000 0.000000 
#    y 0.000000 3.867460 0.000000 
#    z 0.000000 0.000000 3.755260 
# 
# 
# High freq. dielectric constant tensor:
#      x y z
#    x 1.801420 0.000000 0.000000 
#    y 0.000000 1.820510 0.000000 
#    z 0.000000 0.000000 1.814460 
# 
# From -- ./inp_files/9661.got.cif
#   From: 2010.03.12/outbox.cif.g09.slc.cpg/sg55_5_cif.got.tgz:9661.got - 2010.04.16 15:19:21.
