data_PCOD8227309
_publ_section_title
;
Structure prediction by ZEFSAII (Michael W. Deem and Ramdas Pophale) SiO2 
 PCOD8227309
Probable space group: P B A M
;
_chemical_formula_sum "Si O2"
_cell_formula_units_Z 64
_cell_length_a 30.107045
_cell_length_b 11.811410
_cell_length_c 9.114460
_cell_angle_alpha 90.000000
_cell_angle_beta 90.000000
_cell_angle_gamma 90.000000
_cell_volume 3241.162609
_symmetry_space_group_name_H-M "P B A M"
_symmetry_group_IT_number 55
_symmetry_cell_setting 'orthorhombic'
loop_
_space_group_symop_operation_xyz
x,y,z
-x,-y,z
1/2+x,1/2-y,-z
1/2-x,1/2+y,-z
-x,-y,-z
x,y,-z
1/2-x,1/2+y,z
1/2+x,1/2-y,z
loop_
_atom_site_type_symbol
_atom_site_label
_atom_site_fract_x
_atom_site_fract_y
_atom_site_fract_z
Si Si1 0.948458 0.018362 0.332195
Si Si2 0.876267 0.834225 0.329752
Si Si3 0.289578 0.037045 0.828476
Si Si4 0.072032 0.759364 0.164656
Si Si5 0.623276 0.096427 0.825734
Si Si6 0.801153 0.011245 0.671629
Si Si7 0.450917 0.047028 0.333313
Si Si8 0.172546 0.772697 0.163715
O O1 0.939959 0.055945 0.500000
O O2 0.931081 0.114211 0.224578
O O3 0.921348 0.903957 0.298311
O O4 0.000000 0.000000 0.300724
O O5 0.873979 0.798274 0.500000
O O6 0.876487 0.724927 0.228475
O O7 0.833373 0.908270 0.284636
O O8 0.295702 0.169287 0.790937
O O9 0.331383 0.963573 0.772995
O O10 0.246148 0.995835 0.746965
O O11 0.282724 0.017898 0.000000
O O12 0.045614 0.672849 0.267089
O O13 0.123204 0.721503 0.163890
O O14 0.052422 0.755385 0.000000
O O15 0.581245 0.032319 0.759520
O O16 0.618634 0.093700 0.000000
O O17 0.793679 0.015413 0.500000
O O18 0.823949 0.127750 0.719647
O O19 0.433446 0.053105 0.500000
O O20 0.500000 0.000000 0.326512
O O21 0.184513 0.817211 0.000000
#
# Coordination Sequence:
#
# PCOD8227309 Si02
#       8
#     8   8   8   8   8   8   8   8
#     4  10  22  41  64  89 124 167 207 249 306 373
#     4  10  23  42  60  88 128 165 204 252 307 367
#     4  10  23  43  63  88 123 163 204 248 309 370
#     4  11  22  40  66  94 123 155 206 263 308 360
#     4  11  24  43  65  91 124 163 207 256 307 360
#     4  11  24  40  62  93 124 158 206 256 303 360
#     4  11  25  43  65  92 125 166 206 247 307 372
#     4  10  21  41  65  88 120 159 201 252 310 366
#
# _framework density 19.746002000000001
#
# number of rings (size 3 to 8) (size 9 to 14) (size 15 to 20)
#    0.000    1.500    2.500    1.500    3.500    4.750 
#    0.000    0.000    0.000    0.000    0.000    0.000 
#    0.000    0.000    0.000    0.000    0.000    0.000 
#
# Total GULP energy -793885.782172 kJ/mol
# GULP energy per Si atom -12404.465346 kJ/mol
# Density = 1.970106 g / cm^3
# Si number density = 19.746002 Si / 1000 Ang^3
#
#
#
# Elastic Constant Matrix: (Units=GPa)
#
#
# Indices 1 2 3 4 5 6 
#
# 1 99.5954 33.6333 45.8431 0.0000 0.0000 0.0000
# 2 33.6333 101.6891 52.0685 0.0000 0.0000 0.0000
# 3 45.8431 52.0685 87.7325 0.0000 0.0000 0.0000
# 4 0.0000 0.0000 0.0000 37.9714 0.0000 0.0000
# 5 0.0000 0.0000 0.0000 0.0000 30.1759 0.0000
# 6 0.0000 0.0000 0.0000 0.0000 0.0000 28.5293
#
#
#
# Elastic Compliance Matrix: (Units=1/GPa)
#
#
# Indices 1 2 3 4 5 6 
#
# 1 0.013323 -0.001209 -0.006244 0.000000 0.000000 0.000000
# 2 -0.001209 0.014237 -0.007817 0.000000 0.000000 0.000000
# 3 -0.006244 -0.007817 0.019301 0.000000 0.000000 0.000000
# 4 0.000000 0.000000 0.000000 0.026336 0.000000 0.000000
# 5 0.000000 0.000000 0.000000 0.000000 0.033139 0.000000
# 6 0.000000 0.000000 0.000000 0.000000 0.000000 0.035052
#
#
# Mechanical properties :
#
#
# Convention : Reuss Voigt Hill
#
# Bulk Modulus (GPa) = 61.27925 61.34519 61.31222
# Shear Modulus (GPa) = 28.19001 29.83346 29.01173
#
# Velocity S-wave (km/s) = 3.78250 3.89120 3.83723
# Velocity P-wave (km/s) = 7.08361 7.16402 7.12393
#
# Compressibility (1/GPa) = 0.01631874
#
# Stress axis : x y z
#
# Youngs Moduli (GPa) = 75.05751 70.24099 51.81210
#
# Poissons Ratio (x) = 0.08495 0.32351
# Poissons Ratio (y) = 0.09078 0.40504
# Poissons Ratio (z) = 0.46866 0.54910
#
# Static dielectric constant tensor:
#      x y z
#    x 3.730410 0.000000 0.000000 
#    y 0.000000 3.585680 0.000000 
#    z 0.000000 0.000000 3.652580 
# 
# 
# High freq. dielectric constant tensor:
#      x y z
#    x 1.777040 0.000000 0.000000 
#    y 0.000000 1.777570 0.000000 
#    z 0.000000 0.000000 1.773130 
# 
# From -- ./inp_files/10752.got.cif
#   From: 2010.03.12/outbox.cif.g09.slc.cpg/sg55_6_cif.got.tgz:10752.got - 2010.04.16 15:19:21.
