data_PCOD8227969
_publ_section_title
;
Structure prediction by ZEFSAII (Michael W. Deem and Ramdas Pophale) SiO2 
 PCOD8227969
Probable space group: P C C N
;
_chemical_formula_sum "Si O2"
_cell_formula_units_Z 44
_cell_length_a 8.334334
_cell_length_b 9.305363
_cell_length_c 27.360828
_cell_angle_alpha 90.000000
_cell_angle_beta 90.000000
_cell_angle_gamma 90.000000
_cell_volume 2121.941743
_symmetry_space_group_name_H-M "P C C N"
_symmetry_group_IT_number 56
_symmetry_cell_setting 'orthorhombic'
loop_
_space_group_symop_operation_xyz
x,y,z
1/2-x,1/2-y,z
1/2+x,-y,1/2-z
-x,1/2+y,1/2-z
-x,-y,-z
1/2+x,1/2+y,-z
1/2-x,y,1/2+z
x,1/2-y,1/2+z
loop_
_atom_site_type_symbol
_atom_site_label
_atom_site_fract_x
_atom_site_fract_y
_atom_site_fract_z
Si Si1 0.576558 0.292311 0.173723
Si Si2 0.343567 0.102684 0.747195
Si Si3 0.681713 0.511726 0.423739
Si Si4 0.498220 0.302270 0.068374
Si Si5 0.411840 0.001203 0.182175
Si Si6 0.250000 0.750000 0.009619
O O1 0.750000 0.250000 0.194879
O O2 0.495230 0.405610 0.210052
O O3 0.594443 0.344323 0.117888
O O4 0.442840 0.168406 0.173167
O O5 0.250000 0.250000 0.754405
O O6 0.417954 0.066547 0.800572
O O7 0.221662 0.983908 0.725112
O O8 0.547956 0.633062 0.433886
O O9 0.657445 0.443713 0.369252
O O10 0.664661 0.373978 0.458589
O O11 0.851233 0.588001 0.432930
O O12 0.616021 0.329675 0.023119
#
# Coordination Sequence:
#
# PCOD8227969 Si02
#       6
#     8   8   8   8   8   4
#     4  10  18  34  59  87 107 154 208 237 274 354
#     4  10  20  36  58  84 116 155 197 236 294 354
#     4  10  22  40  60  87 124 152 192 250 300 345
#     4  10  20  39  65  82 114 160 201 236 288 370
#     4  10  20  37  57  83 121 155 190 244 293 350
#     4  12  22  38  62  92 114 148 200 250 306 344
#
# _framework density 20.735724000000001
#
# number of rings (size 3 to 8) (size 9 to 14) (size 15 to 20)
#    0.000    1.818    2.727    2.182    0.000    0.000 
#    8.182    0.000    8.000    0.000    0.000    0.000 
#    0.000    0.000    0.000    0.000    0.000    0.000 
#
# Total GULP energy -545182.312369 kJ/mol
# GULP energy per Si atom -12390.507099 kJ/mol
# Density = 2.068853 g / cm^3
# Si number density = 20.735724 Si / 1000 Ang^3
#
#
#
# Elastic Constant Matrix: (Units=GPa)
#
#
# Indices 1 2 3 4 5 6 
#
# 1 90.1995 1.3752 44.3435 0.0000 0.0000 0.0000
# 2 1.3752 35.2062 33.2253 0.0000 0.0000 0.0000
# 3 44.3435 33.2253 132.4519 0.0000 0.0000 0.0000
# 4 0.0000 0.0000 0.0000 19.7280 0.0000 0.0000
# 5 0.0000 0.0000 0.0000 0.0000 42.6059 0.0000
# 6 0.0000 0.0000 0.0000 0.0000 0.0000 27.9673
#
#
#
# Elastic Compliance Matrix: (Units=1/GPa)
#
#
# Indices 1 2 3 4 5 6 
#
# 1 0.013924 0.005051 -0.005929 0.000000 0.000000 0.000000
# 2 0.005051 0.039046 -0.011486 0.000000 0.000000 0.000000
# 3 -0.005929 -0.011486 0.012416 0.000000 0.000000 0.000000
# 4 0.000000 0.000000 0.000000 0.050689 0.000000 0.000000
# 5 0.000000 0.000000 0.000000 0.000000 0.023471 0.000000
# 6 0.000000 0.000000 0.000000 0.000000 0.000000 0.035756
#
#
# Mechanical properties :
#
#
# Convention : Reuss Voigt Hill
#
# Bulk Modulus (GPa) = 24.59421 46.19394 35.39407
# Shear Modulus (GPa) = 23.41012 29.98783 26.69897
#
# Velocity S-wave (km/s) = 3.36367 3.80701 3.59218
# Velocity P-wave (km/s) = 5.19348 6.45370 5.85758
#
# Compressibility (1/GPa) = 0.04065998
#
# Stress axis : x y z
#
# Youngs Moduli (GPa) = 71.81732 25.61056 80.54112
#
# Poissons Ratio (x) = -0.12937 0.47751
# Poissons Ratio (y) = -0.36277 0.92508
# Poissons Ratio (z) = 0.42579 0.29416
#
# Static dielectric constant tensor:
#      x y z
#    x 3.722040 0.000000 0.000000 
#    y 0.000000 3.358040 0.000000 
#    z 0.000000 0.000000 3.889860 
# 
# 
# High freq. dielectric constant tensor:
#      x y z
#    x 1.822200 0.000000 0.000000 
#    y 0.000000 1.771540 0.000000 
#    z 0.000000 0.000000 1.817290 
# 
# From -- ./inp_files/20855.got.cif
#   From: 2010.03.12/outbox.cif.g09.slc.cpg/sg56_11_cif.got.tgz:20855.got - 2010.04.16 15:33:40.
