data_PCOD8227892
_publ_section_title
;
Structure prediction by ZEFSAII (Michael W. Deem and Ramdas Pophale) SiO2 
 PCOD8227892
Probable space group: P C C N
;
_chemical_formula_sum "Si O2"
_cell_formula_units_Z 64
_cell_length_a 22.046343
_cell_length_b 11.972092
_cell_length_c 12.814616
_cell_angle_alpha 90.000000
_cell_angle_beta 90.000000
_cell_angle_gamma 90.000000
_cell_volume 3382.300597
_symmetry_space_group_name_H-M "P C C N"
_symmetry_group_IT_number 56
_symmetry_cell_setting 'orthorhombic'
loop_
_space_group_symop_operation_xyz
x,y,z
1/2-x,1/2-y,z
1/2+x,-y,1/2-z
-x,1/2+y,1/2-z
-x,-y,-z
1/2+x,1/2+y,-z
1/2-x,y,1/2+z
x,1/2-y,1/2+z
loop_
_atom_site_type_symbol
_atom_site_label
_atom_site_fract_x
_atom_site_fract_y
_atom_site_fract_z
Si Si1 0.386678 0.290918 0.373985
Si Si2 0.852501 0.486994 0.880411
Si Si3 0.433216 0.803562 0.059771
Si Si4 0.656630 0.948642 0.649972
Si Si5 0.449642 0.572212 0.942952
Si Si6 0.041824 0.354458 0.065215
Si Si7 0.993893 0.812736 0.760197
Si Si8 0.727862 0.874100 0.031612
O O1 0.370092 0.172574 0.323143
O O2 0.417430 0.275340 0.488512
O O3 0.432357 0.355630 0.296592
O O4 0.325896 0.363222 0.384201
O O5 0.866471 0.362579 0.927680
O O6 0.836467 0.482678 0.757679
O O7 0.918598 0.541086 0.898808
O O8 0.796895 0.552014 0.935132
O O9 0.457462 0.773983 0.174733
O O10 0.431160 0.687550 0.997767
O O11 0.480171 0.885940 0.997813
O O12 0.720215 0.941543 0.590285
O O13 0.612689 0.006444 0.567144
O O14 0.477220 0.588832 0.827651
O O15 0.500000 0.500000 0.000000
O O16 0.023086 0.291563 0.169175
O O17 0.750000 0.750000 0.993569
#
# Coordination Sequence:
#
# PCOD8227892 Si02
#       8
#     8   8   8   8   8   8   8   8
#     4   9  18  35  56  91 120 152 194 242 298 360
#     4  11  20  37  61  84 116 159 198 243 308 354
#     4  10  21  34  56  86 122 154 195 238 295 363
#     4  11  20  39  61  83 118 157 198 247 302 356
#     4  11  23  38  59  90 122 158 196 248 303 365
#     4   9  18  31  56  87 120 152 183 237 291 364
#     4  10  17  33  57  88 123 154 190 232 301 365
#     4   9  22  39  59  88 120 153 204 255 296 352
#
# _framework density 18.922032000000002
#
# number of rings (size 3 to 8) (size 9 to 14) (size 15 to 20)
#    0.000    2.000    2.500    2.625    0.000    1.500 
#    4.500    0.625    0.000    1.500    0.000    0.000 
#    0.000    0.000    0.000    0.000    0.000    0.000 
#
# Total GULP energy -793155.048415 kJ/mol
# GULP energy per Si atom -12393.047631 kJ/mol
# Density = 1.887896 g / cm^3
# Si number density = 18.922032 Si / 1000 Ang^3
#
#
#
# Elastic Constant Matrix: (Units=GPa)
#
#
# Indices 1 2 3 4 5 6 
#
# 1 123.9371 45.4895 57.1609 0.0000 0.0000 0.0000
# 2 45.4895 63.3244 34.0284 0.0000 0.0000 0.0000
# 3 57.1609 34.0284 107.7736 0.0000 0.0000 0.0000
# 4 0.0000 0.0000 0.0000 19.6473 0.0000 0.0000
# 5 0.0000 0.0000 0.0000 0.0000 26.8865 0.0000
# 6 0.0000 0.0000 0.0000 0.0000 0.0000 32.3185
#
#
#
# Elastic Compliance Matrix: (Units=1/GPa)
#
#
# Indices 1 2 3 4 5 6 
#
# 1 0.012611 -0.006581 -0.004610 0.000000 0.000000 0.000000
# 2 -0.006581 0.022453 -0.003599 0.000000 0.000000 0.000000
# 3 -0.004610 -0.003599 0.012860 0.000000 0.000000 0.000000
# 4 0.000000 0.000000 0.000000 0.050898 0.000000 0.000000
# 5 0.000000 0.000000 0.000000 0.000000 0.037193 0.000000
# 6 0.000000 0.000000 0.000000 0.000000 0.000000 0.030942
#
#
# Mechanical properties :
#
#
# Convention : Reuss Voigt Hill
#
# Bulk Modulus (GPa) = 54.51662 63.15476 58.83569
# Shear Modulus (GPa) = 24.67275 26.32754 25.50015
#
# Velocity S-wave (km/s) = 3.61490 3.73415 3.67501
# Velocity P-wave (km/s) = 6.80419 7.21392 7.01205
#
# Compressibility (1/GPa) = 0.01834303
#
# Stress axis : x y z
#
# Youngs Moduli (GPa) = 79.29854 44.53676 77.75915
#
# Poissons Ratio (x) = 0.29312 0.35850
# Poissons Ratio (y) = 0.52190 0.27984
# Poissons Ratio (z) = 0.36559 0.16028
#
# Static dielectric constant tensor:
#      x y z
#    x 3.564210 0.000000 0.000000 
#    y 0.000000 3.255220 0.000000 
#    z 0.000000 0.000000 3.575730 
# 
# 
# High freq. dielectric constant tensor:
#      x y z
#    x 1.728810 0.000000 0.000000 
#    y 0.000000 1.710890 0.000000 
#    z 0.000000 0.000000 1.743390 
# 
# From -- ./inp_files/8960.got.cif
#   From: 2010.03.12/outbox.cif.g09.slc.cpg/sg56_5_cif.got.tgz:8960.got - 2010.04.16 15:33:40.
