data_PCOD8227023
_publ_section_title
;
Structure prediction by ZEFSAII (Michael W. Deem and Ramdas Pophale) SiO2 
 PCOD8227023
Probable space group: P B A M
;
_chemical_formula_sum "Si O2"
_cell_formula_units_Z 32
_cell_length_a 20.395192
_cell_length_b 9.094698
_cell_length_c 8.430091
_cell_angle_alpha 90.000000
_cell_angle_beta 90.000000
_cell_angle_gamma 90.000000
_cell_volume 1563.681663
_symmetry_space_group_name_H-M "P B A M"
_symmetry_group_IT_number 55
_symmetry_cell_setting 'orthorhombic'
loop_
_space_group_symop_operation_xyz
x,y,z
-x,-y,z
1/2+x,1/2-y,-z
1/2-x,1/2+y,-z
-x,-y,-z
x,y,-z
1/2-x,1/2+y,z
1/2+x,1/2-y,z
loop_
_atom_site_type_symbol
_atom_site_label
_atom_site_fract_x
_atom_site_fract_y
_atom_site_fract_z
Si Si1 0.301545 0.674032 0.183755
Si Si2 0.069414 0.341628 0.815717
Si Si3 0.568462 0.843421 0.316186
Si Si4 0.813190 0.140972 0.316895
O O1 0.370183 0.742520 0.241982
O O2 0.244055 0.741963 0.288654
O O3 0.302463 0.499829 0.207480
O O4 0.288854 0.710497 0.000000
O O5 0.085862 0.512174 0.784899
O O6 0.005388 0.290086 0.718936
O O7 0.054887 0.318232 0.000000
O O8 0.575973 0.884689 0.500000
O O9 0.617892 0.714234 0.267698
O O10 0.813377 0.093068 0.500000
#
# Coordination Sequence:
#
# PCOD8227023 Si02
#       4
#     8   8   8   8
#     4  11  24  40  60  86 116 152 193 238 288 342
#     4  10  21  37  59  86 115 150 190 233 283 339
#     4  10  21  37  59  86 115 150 190 233 283 339
#     4  11  24  40  60  86 116 152 193 238 288 342
#
# _framework density 20.464523
#
# number of rings (size 3 to 8) (size 9 to 14) (size 15 to 20)
#    0.000    1.500    0.000    6.000    0.000   13.000 
#    0.000    5.000    0.000    0.000    0.000    0.000 
#    0.000    0.000    0.000    0.000    0.000    0.000 
#
# Total GULP energy -397024.807306 kJ/mol
# GULP energy per Si atom -12407.025228 kJ/mol
# Density = 2.041795 g / cm^3
# Si number density = 20.464523 Si / 1000 Ang^3
#
#
#
# Elastic Constant Matrix: (Units=GPa)
#
#
# Indices 1 2 3 4 5 6 
#
# 1 112.9269 47.3601 25.3968 0.0000 0.0000 0.0000
# 2 47.3601 74.4015 11.2109 0.0000 0.0000 0.0000
# 3 25.3968 11.2109 40.5560 0.0000 0.0000 0.0000
# 4 0.0000 0.0000 0.0000 29.3977 0.0000 0.0000
# 5 0.0000 0.0000 0.0000 0.0000 31.4761 0.0000
# 6 0.0000 0.0000 0.0000 0.0000 0.0000 43.8642
#
#
#
# Elastic Compliance Matrix: (Units=1/GPa)
#
#
# Indices 1 2 3 4 5 6 
#
# 1 0.013477 -0.007625 -0.006332 0.000000 0.000000 0.000000
# 2 -0.007625 0.018338 -0.000295 0.000000 0.000000 0.000000
# 3 -0.006332 -0.000295 0.028704 0.000000 0.000000 0.000000
# 4 0.000000 0.000000 0.000000 0.034016 0.000000 0.000000
# 5 0.000000 0.000000 0.000000 0.000000 0.031770 0.000000
# 6 0.000000 0.000000 0.000000 0.000000 0.000000 0.022798
#
#
# Mechanical properties :
#
#
# Convention : Reuss Voigt Hill
#
# Bulk Modulus (GPa) = 31.23336 43.97998 37.60667
# Shear Modulus (GPa) = 26.55652 30.54203 28.54928
#
# Velocity S-wave (km/s) = 3.60625 3.86740 3.73910
# Velocity P-wave (km/s) = 5.71274 6.44049 6.08750
#
# Compressibility (1/GPa) = 0.03201705
#
# Stress axis : x y z
#
# Youngs Moduli (GPa) = 74.20069 54.53029 34.83864
#
# Poissons Ratio (x) = 0.41577 0.22059
# Poissons Ratio (y) = 0.56575 0.01026
# Poissons Ratio (z) = 0.46982 0.01606
#
# Static dielectric constant tensor:
#      x y z
#    x 3.970250 0.000000 0.000000 
#    y 0.000000 3.545520 0.000000 
#    z 0.000000 0.000000 3.640220 
# 
# 
# High freq. dielectric constant tensor:
#      x y z
#    x 1.814710 0.000000 0.000000 
#    y 0.000000 1.792720 0.000000 
#    z 0.000000 0.000000 1.805970 
# 
# From -- ./inp_files/2018.got.cif
#   From: 2010.03.12/outbox.cif.g09.slc.cpg/sg55_2_cif.got.tgz:2018.got - 2010.04.16 15:19:21.
