data_PCOD8227413
_publ_section_title
;
Structure prediction by ZEFSAII (Michael W. Deem and Ramdas Pophale) SiO2 
 PCOD8227413
Probable space group: P B A M
;
_chemical_formula_sum "Si O2"
_cell_formula_units_Z 64
_cell_length_a 11.588490
_cell_length_b 14.667764
_cell_length_c 17.672021
_cell_angle_alpha 90.000000
_cell_angle_beta 90.000000
_cell_angle_gamma 90.000000
_cell_volume 3003.841292
_symmetry_space_group_name_H-M "P B A M"
_symmetry_group_IT_number 55
_symmetry_cell_setting 'orthorhombic'
loop_
_space_group_symop_operation_xyz
x,y,z
-x,-y,z
1/2+x,1/2-y,-z
1/2-x,1/2+y,-z
-x,-y,-z
x,y,-z
1/2-x,1/2+y,z
1/2+x,1/2-y,z
loop_
_atom_site_type_symbol
_atom_site_label
_atom_site_fract_x
_atom_site_fract_y
_atom_site_fract_z
Si Si1 0.969454 0.404699 0.824397
Si Si2 0.639304 0.508503 0.186744
Si Si3 0.210318 0.310389 0.813099
Si Si4 0.693126 0.946131 0.688928
Si Si5 0.480322 0.394717 0.587036
Si Si6 0.326543 0.714243 0.344198
Si Si7 0.745282 0.855416 0.910776
Si Si8 0.716018 0.106795 0.415304
O O1 0.911840 0.421583 0.742961
O O2 0.886415 0.351736 0.881350
O O3 0.000000 0.500000 0.864167
O O4 0.086612 0.354723 0.808304
O O5 0.500000 0.500000 0.187402
O O6 0.687725 0.613248 0.177922
O O7 0.690224 0.468639 0.264125
O O8 0.686609 0.444378 0.119130
O O9 0.217241 0.250833 0.736975
O O10 0.204785 0.241409 0.883614
O O11 0.728275 0.861119 0.634790
O O12 0.656847 0.032660 0.638966
O O13 0.500000 0.500000 0.602640
O O14 0.514171 0.370106 0.500000
O O15 0.549981 0.335859 0.649128
O O16 0.348239 0.375663 0.604794
O O17 0.341137 0.795121 0.404129
O O18 0.750025 0.859284 0.000000
O O19 0.697904 0.071435 0.500000
#
# Coordination Sequence:
#
# PCOD8227413 Si02
#       8
#     8   8   8   8   8   8   8   8
#     4  11  22  47  70  96 137 181 234 280 341 413
#     4  11  25  46  72 101 138 179 233 287 346 416
#     4  12  25  44  72 105 137 183 233 285 347 413
#     4  11  23  40  67 100 128 179 232 292 341 414
#     4  10  22  39  61  90 130 180 230 284 348 415
#     4  12  23  38  67  97 130 174 231 292 339 412
#     4  11  27  46  68 107 141 180 229 279 346 412
#     4  11  24  41  62  95 136 179 231 291 358 414
#
# _framework density 21.306052000000001
#
# number of rings (size 3 to 8) (size 9 to 14) (size 15 to 20)
#    0.000    0.875    7.500    0.375    5.250    2.000 
#    0.000    0.000    0.000    1.125    0.000    0.000 
#    0.000    0.000    0.000    0.000    0.000    0.000 
#
# Total GULP energy -793224.290008 kJ/mol
# GULP energy per Si atom -12394.129531 kJ/mol
# Density = 2.125756 g / cm^3
# Si number density = 21.306052 Si / 1000 Ang^3
#
#
#
# Elastic Constant Matrix: (Units=GPa)
#
#
# Indices 1 2 3 4 5 6 
#
# 1 99.2499 38.0674 31.1672 0.0000 0.0000 0.0000
# 2 38.0674 138.1073 46.5044 0.0000 0.0000 0.0000
# 3 31.1672 46.5044 104.6804 0.0000 0.0000 0.0000
# 4 0.0000 0.0000 0.0000 99.1015 0.0000 0.0000
# 5 0.0000 0.0000 0.0000 0.0000 3.3020 0.0000
# 6 0.0000 0.0000 0.0000 0.0000 0.0000 34.6986
#
#
#
# Elastic Compliance Matrix: (Units=1/GPa)
#
#
# Indices 1 2 3 4 5 6 
#
# 1 0.011768 -0.002427 -0.002426 0.000000 0.000000 0.000000
# 2 -0.002427 0.009015 -0.003282 0.000000 0.000000 0.000000
# 3 -0.002426 -0.003282 0.011733 0.000000 0.000000 0.000000
# 4 0.000000 0.000000 0.000000 0.010091 0.000000 0.000000
# 5 0.000000 0.000000 0.000000 0.000000 0.302846 0.000000
# 6 0.000000 0.000000 0.000000 0.000000 0.000000 0.028820
#
#
# Mechanical properties :
#
#
# Convention : Reuss Voigt Hill
#
# Bulk Modulus (GPa) = 61.55146 63.72394 62.63770
# Shear Modulus (GPa) = 12.62762 42.50700 27.56731
#
# Velocity S-wave (km/s) = 2.43714 4.47146 3.60095
# Velocity P-wave (km/s) = 6.07218 7.52545 6.83754
#
# Compressibility (1/GPa) = 0.01624657
#
# Stress axis : x y z
#
# Youngs Moduli (GPa) = 84.97507 110.92694 85.22780
#
# Poissons Ratio (x) = 0.26921 0.20673
# Poissons Ratio (y) = 0.20623 0.27974
# Poissons Ratio (z) = 0.20612 0.36410
#
# Static dielectric constant tensor:
#      x y z
#    x 3.703000 0.000000 0.000000 
#    y 0.000000 3.762560 0.000000 
#    z 0.000000 0.000000 3.664270 
# 
# 
# High freq. dielectric constant tensor:
#      x y z
#    x 1.833770 0.000000 0.000000 
#    y 0.000000 1.858550 0.000000 
#    z 0.000000 0.000000 1.814650 
# 
# From -- ./inp_files/21328.got.cif
#   From: 2010.03.12/outbox.cif.g09.slc.cpg/sg55_11_cif.got.tgz:21328.got - 2010.04.16 15:19:21.
