data_PCOD8227431
_publ_section_title
;
Structure prediction by ZEFSAII (Michael W. Deem and Ramdas Pophale) SiO2 
 PCOD8227431
Probable space group: P B A M
;
_chemical_formula_sum "Si O2"
_cell_formula_units_Z 32
_cell_length_a 5.096634
_cell_length_b 15.877979
_cell_length_c 18.647519
_cell_angle_alpha 90.000000
_cell_angle_beta 90.000000
_cell_angle_gamma 90.000000
_cell_volume 1509.036445
_symmetry_space_group_name_H-M "P B A M"
_symmetry_group_IT_number 55
_symmetry_cell_setting 'orthorhombic'
loop_
_space_group_symop_operation_xyz
x,y,z
-x,-y,z
1/2+x,1/2-y,-z
1/2-x,1/2+y,-z
-x,-y,-z
x,y,-z
1/2-x,1/2+y,z
1/2+x,1/2-y,z
loop_
_atom_site_type_symbol
_atom_site_label
_atom_site_fract_x
_atom_site_fract_y
_atom_site_fract_z
Si Si1 0.243835 0.054650 0.306292
Si Si2 0.717006 0.803890 0.417911
Si Si3 0.457435 0.597354 0.156149
Si Si4 0.539269 0.099719 0.918709
O O1 0.338923 0.116102 0.368617
O O2 0.130786 0.107341 0.238758
O O3 0.500000 0.000000 0.282964
O O4 0.000000 0.000000 0.336051
O O5 0.691525 0.834026 0.500000
O O6 0.503439 0.732409 0.401020
O O7 0.500000 0.500000 0.136961
O O8 0.737208 0.638023 0.134586
O O9 0.235983 0.640266 0.106254
O O10 0.500000 0.000000 0.910210
O O11 0.607340 0.124971 0.000000
#
# Coordination Sequence:
#
# PCOD8227431 Si02
#       4
#     8   8   8   8
#     4  11  21  34  55  81 110 142 176 219 267 316
#     4  10  22  40  59  80 109 142 176 218 265 314
#     4   9  16  26  39  63  98 131 165 209 258 301
#     4   9  15  23  37  58  91 135 171 200 248 311
#
# _framework density 21.205583000000001
#
# number of rings (size 3 to 8) (size 9 to 14) (size 15 to 20)
#    0.000    2.250    0.000    6.000    0.000    4.000 
#    0.000    0.000    0.000    0.000    0.000    0.000 
#    0.000   20.000    0.000    0.000    0.000    1.750 
#
# Total GULP energy -396607.400972 kJ/mol
# GULP energy per Si atom -12393.981280 kJ/mol
# Density = 2.115732 g / cm^3
# Si number density = 21.205583 Si / 1000 Ang^3
#
#
#
# Elastic Constant Matrix: (Units=GPa)
#
#
# Indices 1 2 3 4 5 6 
#
# 1 131.7209 6.5845 55.6532 0.0000 0.0000 0.0000
# 2 6.5845 20.2296 35.5711 0.0000 0.0000 0.0000
# 3 55.6532 35.5711 135.3980 0.0000 0.0000 0.0000
# 4 0.0000 0.0000 0.0000 2.2244 0.0000 0.0000
# 5 0.0000 0.0000 0.0000 0.0000 35.7966 0.0000
# 6 0.0000 0.0000 0.0000 0.0000 0.0000 9.7986
#
#
#
# Elastic Compliance Matrix: (Units=1/GPa)
#
#
# Indices 1 2 3 4 5 6 
#
# 1 0.009717 0.007174 -0.005879 0.000000 0.000000 0.000000
# 2 0.007174 0.097171 -0.028477 0.000000 0.000000 0.000000
# 3 -0.005879 -0.028477 0.017283 0.000000 0.000000 0.000000
# 4 0.000000 0.000000 0.000000 0.449550 0.000000 0.000000
# 5 0.000000 0.000000 0.000000 0.000000 0.027936 0.000000
# 6 0.000000 0.000000 0.000000 0.000000 0.000000 0.102056
#
#
# Mechanical properties :
#
#
# Convention : Reuss Voigt Hill
#
# Bulk Modulus (GPa) = 14.32501 53.66289 33.99395
# Shear Modulus (GPa) = 6.39922 22.19989 14.29956
#
# Velocity S-wave (km/s) = 1.73904 3.23908 2.59960
# Velocity P-wave (km/s) = 3.28669 6.27294 5.00760
#
# Compressibility (1/GPa) = 0.06980800
#
# Stress axis : x y z
#
# Youngs Moduli (GPa) = 102.91198 10.29117 57.85891
#
# Poissons Ratio (x) = -0.07383 0.34014
# Poissons Ratio (y) = -0.73833 1.64766
# Poissons Ratio (z) = 0.60501 0.29306
#
# Static dielectric constant tensor:
#      x y z
#    x 4.366130 0.000000 0.000000 
#    y 0.000000 3.048090 0.000000 
#    z 0.000000 0.000000 3.722940 
# 
# 
# High freq. dielectric constant tensor:
#      x y z
#    x 1.862810 0.000000 0.000000 
#    y 0.000000 1.757330 0.000000 
#    z 0.000000 0.000000 1.832760 
# 
# From -- ./inp_files/16405.got.cif
#   From: 2010.03.12/outbox.cif.g09.slc.cpg/sg55_9_cif.got.tgz:16405.got - 2010.04.16 15:19:21.
