data_PCOD8227688
_publ_section_title
;
Structure prediction by ZEFSAII (Michael W. Deem and Ramdas Pophale) SiO2 
 PCOD8227688
Probable space group: P B A M
;
_chemical_formula_sum "Si O2"
_cell_formula_units_Z 48
_cell_length_a 18.181569
_cell_length_b 9.361650
_cell_length_c 13.505876
_cell_angle_alpha 90.000000
_cell_angle_beta 90.000000
_cell_angle_gamma 90.000000
_cell_volume 2298.828204
_symmetry_space_group_name_H-M "P B A M"
_symmetry_group_IT_number 55
_symmetry_cell_setting 'orthorhombic'
loop_
_space_group_symop_operation_xyz
x,y,z
-x,-y,z
1/2+x,1/2-y,-z
1/2-x,1/2+y,-z
-x,-y,-z
x,y,-z
1/2-x,1/2+y,z
1/2+x,1/2-y,z
loop_
_atom_site_type_symbol
_atom_site_label
_atom_site_fract_x
_atom_site_fract_y
_atom_site_fract_z
Si Si1 0.817013 0.029004 0.207963
Si Si2 0.124619 0.949141 0.000000
Si Si3 0.021563 0.223785 0.000000
Si Si4 0.794482 0.837418 0.500000
Si Si5 0.050332 0.878643 0.674410
Si Si6 0.808403 0.724868 0.713696
Si Si7 0.960335 0.645997 0.789896
Si Si8 0.153169 0.834251 0.500000
O O1 0.901303 0.044989 0.241555
O O2 0.764513 0.129056 0.274613
O O3 0.792406 0.866466 0.223090
O O4 0.818911 0.066330 0.091869
O O5 0.063169 0.826132 0.000000
O O6 0.081486 0.098431 0.000000
O O7 0.034915 0.321974 0.094478
O O8 0.827352 0.765769 0.599513
O O9 0.708375 0.799270 0.500000
O O10 0.807994 0.008591 0.500000
O O11 0.102540 0.807817 0.594272
O O12 0.998322 0.765234 0.724588
O O13 0.000000 0.000000 0.623262
O O14 0.875412 0.634361 0.758088
O O15 0.000000 0.500000 0.764722
#
# Coordination Sequence:
#
# PCOD8227688 Si02
#       8
#     8   4   4   4   8   8   8   4
#     4  12  25  43  70 101 138 184 227 287 346 418
#     4  11  22  41  75 103 132 185 236 282 345 430
#     4  11  21  43  73 101 135 184 232 280 363 414
#     4  12  22  44  67 103 138 191 228 285 355 417
#     4  12  22  45  69 103 135 183 235 284 346 417
#     4  12  26  45  68 100 142 181 234 286 349 420
#     4  12  27  44  70 104 141 180 234 298 346 413
#     4  12  25  40  75 101 138 185 239 285 351 418
#
# _framework density 20.880202000000001
#
# number of rings (size 3 to 8) (size 9 to 14) (size 15 to 20)
#    0.000    0.167    8.333    0.500    2.333    3.333 
#    0.000    0.833    0.000    0.000    0.000    0.000 
#    0.000    0.000    0.000    0.000    0.000    0.000 
#
# Total GULP energy -595339.195047 kJ/mol
# GULP energy per Si atom -12402.899897 kJ/mol
# Density = 2.083268 g / cm^3
# Si number density = 20.880202 Si / 1000 Ang^3
#
#
#
# Elastic Constant Matrix: (Units=GPa)
#
#
# Indices 1 2 3 4 5 6 
#
# 1 91.2097 29.9642 23.3178 0.0000 0.0000 0.0000
# 2 29.9642 52.0916 -2.1442 0.0000 0.0000 0.0000
# 3 23.3178 -2.1442 122.5489 0.0000 0.0000 0.0000
# 4 0.0000 0.0000 0.0000 34.5997 0.0000 0.0000
# 5 0.0000 0.0000 0.0000 0.0000 30.7440 0.0000
# 6 0.0000 0.0000 0.0000 0.0000 0.0000 35.1619
#
#
#
# Elastic Compliance Matrix: (Units=1/GPa)
#
#
# Indices 1 2 3 4 5 6 
#
# 1 0.014482 -0.008450 -0.002903 0.000000 0.000000 0.000000
# 2 -0.008450 0.024141 0.002030 0.000000 0.000000 0.000000
# 3 -0.002903 0.002030 0.008748 0.000000 0.000000 0.000000
# 4 0.000000 0.000000 0.000000 0.028902 0.000000 0.000000
# 5 0.000000 0.000000 0.000000 0.000000 0.032527 0.000000
# 6 0.000000 0.000000 0.000000 0.000000 0.000000 0.028440
#
#
# Mechanical properties :
#
#
# Convention : Reuss Voigt Hill
#
# Bulk Modulus (GPa) = 34.81306 40.90288 37.85797
# Shear Modulus (GPa) = 30.21869 34.41527 32.31698
#
# Velocity S-wave (km/s) = 3.80839 4.06424 3.93839
# Velocity P-wave (km/s) = 6.00395 6.45414 6.23311
#
# Compressibility (1/GPa) = 0.02872485
#
# Stress axis : x y z
#
# Youngs Moduli (GPa) = 69.05151 41.42322 114.31237
#
# Poissons Ratio (x) = 0.35002 0.33189
# Poissons Ratio (y) = 0.58347 -0.23207
# Poissons Ratio (z) = 0.20048 -0.08410
#
# Static dielectric constant tensor:
#      x y z
#    x 3.841580 0.000000 0.000000 
#    y 0.000000 3.792510 0.000000 
#    z 0.000000 0.000000 4.007810 
# 
# 
# High freq. dielectric constant tensor:
#      x y z
#    x 1.821990 0.000000 0.000000 
#    y 0.000000 1.809210 0.000000 
#    z 0.000000 0.000000 1.833640 
# 
# From -- ./inp_files/19400.got.cif
#   From: 2010.03.12/outbox.cif.g09.slc.cpg/sg55_10_cif.got.tgz:19400.got - 2010.04.16 15:19:21.
