data_PCOD8227854
_publ_section_title
;
Structure prediction by ZEFSAII (Michael W. Deem and Ramdas Pophale) SiO2 
 PCOD8227854
Probable space group: P C C N
;
_chemical_formula_sum "Si O2"
_cell_formula_units_Z 40
_cell_length_a 33.466660
_cell_length_b 15.283819
_cell_length_c 5.086311
_cell_angle_alpha 90.000000
_cell_angle_beta 90.000000
_cell_angle_gamma 90.000000
_cell_volume 2601.639806
_symmetry_space_group_name_H-M "P C C N"
_symmetry_group_IT_number 56
_symmetry_cell_setting 'orthorhombic'
loop_
_space_group_symop_operation_xyz
x,y,z
1/2-x,1/2-y,z
1/2+x,-y,1/2-z
-x,1/2+y,1/2-z
-x,-y,-z
1/2+x,1/2+y,-z
1/2-x,y,1/2+z
x,1/2-y,1/2+z
loop_
_atom_site_type_symbol
_atom_site_label
_atom_site_fract_x
_atom_site_fract_y
_atom_site_fract_z
Si Si1 0.641191 0.307453 0.859752
Si Si2 0.042392 0.478562 0.126572
Si Si3 0.232113 0.846638 0.073128
Si Si4 0.432421 0.574016 0.155840
Si Si5 0.006165 0.192804 0.765751
O O1 0.634522 0.268880 0.570703
O O2 0.685081 0.347650 0.883883
O O3 0.610477 0.385649 0.909179
O O4 0.049795 0.533333 0.390529
O O5 0.041889 0.376428 0.207760
O O6 0.073570 0.502727 0.892606
O O7 0.000000 0.500000 0.000000
O O8 0.250000 0.750000 0.015429
O O9 0.255721 0.896633 0.305525
O O10 0.462533 0.648705 0.261278
O O11 0.010482 0.271672 0.560763
#
# Coordination Sequence:
#
# PCOD8227854 Si02
#       5
#     8   8   8   8   8
#     4  12  20  29  45  65  90 118 159 201 216 245
#     4  10  20  35  47  59  88 119 140 180 241 291
#     4  10  16  29  42  59  84 120 154 187 208 256
#     4  11  21  32  44  66  90 116 145 189 241 262
#     4  11  19  31  48  65  80 107 153 190 220 263
#
# _framework density 15.374917999999999
#
# number of rings (size 3 to 8) (size 9 to 14) (size 15 to 20)
#    0.000    1.200    4.000    8.400    0.000    0.000 
#    0.000    0.000    0.000    0.000    0.000    0.000 
#    0.000    0.000    0.000    0.000    0.000   70.000 
#
# Total GULP energy -495790.786470 kJ/mol
# GULP energy per Si atom -12394.769662 kJ/mol
# Density = 1.533992 g / cm^3
# Si number density = 15.374918 Si / 1000 Ang^3
#
#
#
# Elastic Constant Matrix: (Units=GPa)
#
#
# Indices 1 2 3 4 5 6 
#
# 1 76.9959 34.4583 19.4775 0.0000 0.0000 0.0000
# 2 34.4583 51.7697 22.0475 0.0000 0.0000 0.0000
# 3 19.4775 22.0475 108.2770 0.0000 0.0000 0.0000
# 4 0.0000 0.0000 0.0000 28.1724 0.0000 0.0000
# 5 0.0000 0.0000 0.0000 0.0000 20.1079 0.0000
# 6 0.0000 0.0000 0.0000 0.0000 0.0000 12.8934
#
#
#
# Elastic Compliance Matrix: (Units=1/GPa)
#
#
# Indices 1 2 3 4 5 6 
#
# 1 0.018578 -0.011981 -0.000902 0.000000 0.000000 0.000000
# 2 -0.011981 0.028878 -0.003725 0.000000 0.000000 0.000000
# 3 -0.000902 -0.003725 0.010156 0.000000 0.000000 0.000000
# 4 0.000000 0.000000 0.000000 0.035496 0.000000 0.000000
# 5 0.000000 0.000000 0.000000 0.000000 0.049732 0.000000
# 6 0.000000 0.000000 0.000000 0.000000 0.000000 0.077559
#
#
# Mechanical properties :
#
#
# Convention : Reuss Voigt Hill
#
# Bulk Modulus (GPa) = 40.99208 43.22323 42.10765
# Shear Modulus (GPa) = 19.10243 22.97204 21.03723
#
# Velocity S-wave (km/s) = 3.52865 3.86958 3.70304
# Velocity P-wave (km/s) = 6.58190 6.93821 6.76240
#
# Compressibility (1/GPa) = 0.02439496
#
# Stress axis : x y z
#
# Youngs Moduli (GPa) = 53.82703 34.62900 98.46085
#
# Poissons Ratio (x) = 0.41490 0.08884
# Poissons Ratio (y) = 0.64492 0.36675
# Poissons Ratio (z) = 0.04857 0.12899
#
# Static dielectric constant tensor:
#      x y z
#    x 2.844260 0.000000 0.000000 
#    y 0.000000 2.891150 0.000000 
#    z 0.000000 0.000000 3.651220 
# 
# 
# High freq. dielectric constant tensor:
#      x y z
#    x 1.562050 0.000000 0.000000 
#    y 0.000000 1.541850 0.000000 
#    z 0.000000 0.000000 1.629450 
# 
# From -- ./inp_files/329.got.cif
#   From: 2010.03.12/outbox.cif.g09.slc.cpg/sg56_1_cif.got.tgz:329.got - 2010.04.16 15:33:40.
