data_PCOD8227627
_publ_section_title
;
Structure prediction by ZEFSAII (Michael W. Deem and Ramdas Pophale) SiO2 
 PCOD8227627
Probable space group: P B A M
;
_chemical_formula_sum "Si O2"
_cell_formula_units_Z 40
_cell_length_a 18.555081
_cell_length_b 12.183797
_cell_length_c 8.506966
_cell_angle_alpha 90.000000
_cell_angle_beta 90.000000
_cell_angle_gamma 90.000000
_cell_volume 1923.181205
_symmetry_space_group_name_H-M "P B A M"
_symmetry_group_IT_number 55
_symmetry_cell_setting 'orthorhombic'
loop_
_space_group_symop_operation_xyz
x,y,z
-x,-y,z
1/2+x,1/2-y,-z
1/2-x,1/2+y,-z
-x,-y,-z
x,y,-z
1/2-x,1/2+y,z
1/2+x,1/2-y,z
loop_
_atom_site_type_symbol
_atom_site_label
_atom_site_fract_x
_atom_site_fract_y
_atom_site_fract_z
Si Si1 0.893865 0.685511 0.819412
Si Si2 0.160506 0.530982 0.317180
Si Si3 0.574770 0.554677 0.182341
Si Si4 0.547032 0.785444 0.318292
Si Si5 0.817584 0.891203 0.318250
O O1 0.845743 0.579506 0.783293
O O2 0.846884 0.793037 0.787679
O O3 0.964484 0.683407 0.711569
O O4 0.918143 0.686549 0.000000
O O5 0.158860 0.499055 0.500000
O O6 0.095315 0.610896 0.271108
O O7 0.234789 0.590105 0.272461
O O8 0.500000 0.500000 0.236530
O O9 0.572033 0.683851 0.213040
O O10 0.638578 0.502294 0.284039
O O11 0.589628 0.531931 0.000000
O O12 0.557526 0.754228 0.500000
O O13 0.825873 0.859028 0.500000
#
# Coordination Sequence:
#
# PCOD8227627 Si02
#       5
#     8   8   8   8   8
#     4  12  25  42  65  96 131 168 210 262 323 382
#     4  10  25  45  66  94 127 167 216 264 315 380
#     4  11  23  40  63  95 131 166 210 265 320 380
#     4  11  23  42  69  96 125 169 218 265 315 376
#     4  11  24  43  67  93 126 169 216 265 317 379
#
# _framework density 20.798873
#
# number of rings (size 3 to 8) (size 9 to 14) (size 15 to 20)
#    0.000    1.000    2.000    4.200    2.800    6.400 
#    0.000    0.000    0.000    0.000    0.000    0.000 
#    0.000    0.000    0.000    0.000    0.000    0.000 
#
# Total GULP energy -496382.370499 kJ/mol
# GULP energy per Si atom -12409.559262 kJ/mol
# Density = 2.075153 g / cm^3
# Si number density = 20.798873 Si / 1000 Ang^3
#
#
#
# Elastic Constant Matrix: (Units=GPa)
#
#
# Indices 1 2 3 4 5 6 
#
# 1 118.5460 44.8405 24.9386 0.0000 0.0000 0.0000
# 2 44.8405 90.9342 26.2980 0.0000 0.0000 0.0000
# 3 24.9386 26.2980 53.9699 0.0000 0.0000 0.0000
# 4 0.0000 0.0000 0.0000 30.7617 0.0000 0.0000
# 5 0.0000 0.0000 0.0000 0.0000 14.9103 0.0000
# 6 0.0000 0.0000 0.0000 0.0000 0.0000 29.8567
#
#
#
# Elastic Compliance Matrix: (Units=1/GPa)
#
#
# Indices 1 2 3 4 5 6 
#
# 1 0.010713 -0.004483 -0.002766 0.000000 0.000000 0.000000
# 2 -0.004483 0.014677 -0.005080 0.000000 0.000000 0.000000
# 3 -0.002766 -0.005080 0.022282 0.000000 0.000000 0.000000
# 4 0.000000 0.000000 0.000000 0.032508 0.000000 0.000000
# 5 0.000000 0.000000 0.000000 0.000000 0.067068 0.000000
# 6 0.000000 0.000000 0.000000 0.000000 0.000000 0.033493
#
#
# Mechanical properties :
#
#
# Convention : Reuss Voigt Hill
#
# Bulk Modulus (GPa) = 43.45123 50.62270 47.03696
# Shear Modulus (GPa) = 23.46642 26.26393 24.86517
#
# Velocity S-wave (km/s) = 3.36259 3.55738 3.46136
# Velocity P-wave (km/s) = 6.00105 6.42381 6.21602
#
# Compressibility (1/GPa) = 0.02301431
#
# Stress axis : x y z
#
# Youngs Moduli (GPa) = 93.34405 68.13553 44.87857
#
# Poissons Ratio (x) = 0.30544 0.12413
# Poissons Ratio (y) = 0.41844 0.22799
# Poissons Ratio (z) = 0.25819 0.34613
#
# Static dielectric constant tensor:
#      x y z
#    x 3.828900 0.000000 0.000000 
#    y 0.000000 3.744000 0.000000 
#    z 0.000000 0.000000 3.671960 
# 
# 
# High freq. dielectric constant tensor:
#      x y z
#    x 1.820460 0.000000 0.000000 
#    y 0.000000 1.824390 0.000000 
#    z 0.000000 0.000000 1.815690 
# 
# From -- ./inp_files/3597.got.cif
#   From: 2010.03.12/outbox.cif.g09.slc.cpg/sg55_2_cif.got.tgz:3597.got - 2010.04.16 15:19:21.
