data_PCOD8227844
_publ_section_title
;
Structure prediction by ZEFSAII (Michael W. Deem and Ramdas Pophale) SiO2 
 PCOD8227844
Probable space group: P B A M
;
_chemical_formula_sum "Si O2"
_cell_formula_units_Z 64
_cell_length_a 24.000000
_cell_length_b 15.000000
_cell_length_c 9.000000
_cell_angle_alpha 90.000000
_cell_angle_beta 90.000000
_cell_angle_gamma 90.000000
_cell_volume 3240.000000
_symmetry_space_group_name_H-M "P B A M"
_symmetry_group_IT_number 55
_symmetry_cell_setting 'orthorhombic'
loop_
_space_group_symop_operation_xyz
x,y,z
-x,-y,z
1/2+x,1/2-y,-z
1/2-x,1/2+y,-z
-x,-y,-z
x,y,-z
1/2-x,1/2+y,z
1/2+x,1/2-y,z
loop_
_atom_site_type_symbol
_atom_site_label
_atom_site_fract_x
_atom_site_fract_y
_atom_site_fract_z
Si Si1 0.804371 0.768229 0.825651
Si Si2 0.576246 0.251344 0.676550
Si Si3 0.623968 0.828121 0.330531
Si Si4 0.737495 0.593038 0.167872
Si Si5 0.118280 0.843548 0.832825
Si Si6 0.991361 0.098322 0.675771
Si Si7 0.762711 0.419841 0.668255
Si Si8 0.006521 0.598394 0.323700
O O1 0.863955 0.752763 0.751349
O O2 0.763461 0.687400 0.783210
O O3 0.776395 0.858718 0.769033
O O4 0.813471 0.777386 0.000000
O O5 0.583653 0.252715 0.500000
O O6 0.540257 0.336458 0.731956
O O7 0.543348 0.162752 0.729924
O O8 0.617367 0.793687 0.500000
O O9 0.642690 0.750186 0.221101
O O10 0.671796 0.901311 0.318681
O O11 0.565825 0.865555 0.268723
O O12 0.670440 0.590152 0.177336
O O13 0.759344 0.521451 0.282877
O O14 0.756570 0.570394 0.000000
O O15 0.068962 0.869849 0.724544
O O16 0.095334 0.837562 0.000000
O O17 0.991479 0.096674 0.500000
O O18 0.000000 0.000000 0.743268
O O19 0.741537 0.408826 0.500000
O O20 0.006291 0.593247 0.500000
O O21 0.000000 0.500000 0.254129
#
# Coordination Sequence:
#
# PCOD8227844 Si02
#       8
#     8   8   8   8   8   8   8   8
#     4  11  24  43  62  84 126 168 200 244 303 367
#     4  10  21  38  60  87 120 157 200 246 296 352
#     4  10  20  38  62  89 117 151 197 247 299 349
#     4  10  24  43  61  86 123 166 201 242 306 363
#     4  11  22  39  63  88 117 156 201 247 296 357
#     4  10  22  40  61  87 120 156 195 248 303 350
#     4  11  24  39  64  95 120 154 206 258 299 354
#     4   9  18  34  59  87 118 152 187 237 298 352
#
# _framework density 19.753086
#
# number of rings (size 3 to 8) (size 9 to 14) (size 15 to 20)
#    0.000    1.750    2.500    1.125    3.500    3.250 
#    0.000    0.000    0.000    0.750    0.000    0.000 
#    0.000    0.000    0.000    0.000    0.000    0.000 
#
# Total GULP energy -793648.432489 kJ/mol
# GULP energy per Si atom -12400.756758 kJ/mol
# Density = 1.970813 g / cm^3
# Si number density = 19.753086 Si / 1000 Ang^3
#
#
#
# Elastic Constant Matrix: (Units=GPa)
#
#
# Indices 1 2 3 4 5 6 
#
# 1 115.1501 26.1108 28.7443 0.0000 0.0000 0.0000
# 2 26.1108 97.1516 27.1695 0.0000 0.0000 0.0000
# 3 28.7443 27.1695 25.0291 0.0000 0.0000 0.0000
# 4 0.0000 0.0000 0.0000 24.2300 0.0000 0.0000
# 5 0.0000 0.0000 0.0000 0.0000 24.8546 0.0000
# 6 0.0000 0.0000 0.0000 0.0000 0.0000 26.4136
#
#
#
# Elastic Compliance Matrix: (Units=1/GPa)
#
#
# Indices 1 2 3 4 5 6 
#
# 1 0.012232 0.000920 -0.015046 0.000000 0.000000 0.000000
# 2 0.000920 0.014849 -0.017176 0.000000 0.000000 0.000000
# 3 -0.015046 -0.017176 0.075879 0.000000 0.000000 0.000000
# 4 0.000000 0.000000 0.000000 0.041271 0.000000 0.000000
# 5 0.000000 0.000000 0.000000 0.000000 0.040234 0.000000
# 6 0.000000 0.000000 0.000000 0.000000 0.000000 0.037859
#
#
# Mechanical properties :
#
#
# Convention : Reuss Voigt Hill
#
# Bulk Modulus (GPa) = 24.78005 44.59776 34.68891
# Shear Modulus (GPa) = 16.75715 25.45339 21.10527
#
# Velocity S-wave (km/s) = 2.91577 3.59357 3.27227
# Velocity P-wave (km/s) = 4.88956 6.31229 5.64592
#
# Compressibility (1/GPa) = 0.04035504
#
# Stress axis : x y z
#
# Youngs Moduli (GPa) = 81.75596 67.34294 13.17894
#
# Poissons Ratio (x) = -0.06199 0.19829
# Poissons Ratio (y) = -0.07526 0.22637
# Poissons Ratio (z) = 1.23013 1.15671
#
# Static dielectric constant tensor:
#      x y z
#    x 3.620800 0.000000 0.000000 
#    y 0.000000 3.801750 0.000000 
#    z 0.000000 0.000000 3.400840 
# 
# 
# High freq. dielectric constant tensor:
#      x y z
#    x 1.781860 0.000000 0.000000 
#    y 0.000000 1.770490 0.000000 
#    z 0.000000 0.000000 1.750630 
# 
# From -- ./inp_files/6733.got.cif
#   From: 2010.03.12/outbox.ucp.g09.slc.cvg/sg55_4_cif.got.tgz:6733.got - 2010.05.04 19:23:19.
