data_PCOD8227663
_publ_section_title
;
Structure prediction by ZEFSAII (Michael W. Deem and Ramdas Pophale) SiO2 
 PCOD8227663
Probable space group: P B A M
;
_chemical_formula_sum "Si O2"
_cell_formula_units_Z 64
_cell_length_a 27.693883
_cell_length_b 9.567123
_cell_length_c 14.263217
_cell_angle_alpha 90.000000
_cell_angle_beta 90.000000
_cell_angle_gamma 90.000000
_cell_volume 3779.050541
_symmetry_space_group_name_H-M "P B A M"
_symmetry_group_IT_number 55
_symmetry_cell_setting 'orthorhombic'
loop_
_space_group_symop_operation_xyz
x,y,z
-x,-y,z
1/2+x,1/2-y,-z
1/2-x,1/2+y,-z
-x,-y,-z
x,y,-z
1/2-x,1/2+y,z
1/2+x,1/2-y,z
loop_
_atom_site_type_symbol
_atom_site_label
_atom_site_fract_x
_atom_site_fract_y
_atom_site_fract_z
Si Si1 0.548357 0.587000 0.898652
Si Si2 0.056195 0.531627 0.299111
Si Si3 0.548273 0.912500 0.899548
Si Si4 0.295101 0.160676 0.611871
Si Si5 0.292077 0.845925 0.609715
Si Si6 0.057517 0.021050 0.704655
Si Si7 0.898841 0.724781 0.391230
Si Si8 0.897133 0.224350 0.391131
O O1 0.500000 0.500000 0.905860
O O2 0.536015 0.749522 0.880870
O O3 0.576574 0.523038 0.808810
O O4 0.575944 0.570220 0.000000
O O5 0.076723 0.528021 0.191388
O O6 0.086146 0.433017 0.367864
O O7 0.062130 0.686845 0.338552
O O8 0.000000 0.500000 0.299673
O O9 0.500000 0.000000 0.909128
O O10 0.576621 0.928160 0.000000
O O11 0.293247 0.157419 0.500000
O O12 0.250774 0.251986 0.653177
O O13 0.344084 0.235169 0.646961
O O14 0.292268 0.002743 0.653045
O O15 0.283468 0.863317 0.500000
O O16 0.341860 0.763603 0.628781
O O17 0.089068 0.935355 0.629288
O O18 0.070778 0.180042 0.680393
O O19 0.000000 0.000000 0.694322
O O20 0.910905 0.757339 0.500000
O O21 0.900148 0.254748 0.500000
#
# Coordination Sequence:
#
# PCOD8227663 Si02
#       8
#     8   8   8   8   8   8   8   8
#     4   9  18  33  51  70  95 127 165 214 264 299
#     4  11  21  33  50  71  99 140 172 208 246 291
#     4   9  18  32  51  73  94 123 167 217 263 298
#     4   9  18  32  51  71  93 124 165 213 261 300
#     4   9  18  33  51  71  93 124 165 213 263 297
#     4  11  23  35  48  72 102 142 178 208 243 291
#     4  11  23  36  49  70 105 140 176 212 243 292
#     4  11  21  34  49  70 101 136 176 208 242 296
#
# _framework density 16.935469999999999
#
# number of rings (size 3 to 8) (size 9 to 14) (size 15 to 20)
#    0.000    2.000    2.500    1.500    7.000    3.000 
#    0.000    0.000    0.000    0.000    0.000    0.000 
#    0.000    6.000    0.000    0.000    0.000    0.000 
#
# Total GULP energy -793025.662591 kJ/mol
# GULP energy per Si atom -12391.025978 kJ/mol
# Density = 1.689692 g / cm^3
# Si number density = 16.935470 Si / 1000 Ang^3
#
#
#
# Elastic Constant Matrix: (Units=GPa)
#
#
# Indices 1 2 3 4 5 6 
#
# 1 70.0285 23.2010 29.9354 0.0000 0.0000 0.0000
# 2 23.2010 66.6942 21.2158 0.0000 0.0000 0.0000
# 3 29.9354 21.2158 89.5979 0.0000 0.0000 0.0000
# 4 0.0000 0.0000 0.0000 22.6394 0.0000 0.0000
# 5 0.0000 0.0000 0.0000 0.0000 1.6285 0.0000
# 6 0.0000 0.0000 0.0000 0.0000 0.0000 26.5839
#
#
#
# Elastic Compliance Matrix: (Units=1/GPa)
#
#
# Indices 1 2 3 4 5 6 
#
# 1 0.017916 -0.004681 -0.004877 0.000000 0.000000 0.000000
# 2 -0.004681 0.017438 -0.002565 0.000000 0.000000 0.000000
# 3 -0.004877 -0.002565 0.013398 0.000000 0.000000 0.000000
# 4 0.000000 0.000000 0.000000 0.044171 0.000000 0.000000
# 5 0.000000 0.000000 0.000000 0.000000 0.614079 0.000000
# 6 0.000000 0.000000 0.000000 0.000000 0.000000 0.037617
#
#
# Mechanical properties :
#
#
# Convention : Reuss Voigt Hill
#
# Bulk Modulus (GPa) = 40.80829 41.66945 41.23887
# Shear Modulus (GPa) = 6.43473 20.30158 13.36815
#
# Velocity S-wave (km/s) = 1.95136 3.46607 2.81260
# Velocity P-wave (km/s) = 5.40608 6.37781 5.91194
#
# Compressibility (1/GPa) = 0.02450482
#
# Stress axis : x y z
#
# Youngs Moduli (GPa) = 55.81706 57.34552 74.63810
#
# Poissons Ratio (x) = 0.26842 0.36404
# Poissons Ratio (y) = 0.26127 0.19147
# Poissons Ratio (z) = 0.27224 0.14711
#
# Static dielectric constant tensor:
#      x y z
#    x 2.991660 0.000000 0.000000 
#    y 0.000000 3.391810 0.000000 
#    z 0.000000 0.000000 3.511890 
# 
# 
# High freq. dielectric constant tensor:
#      x y z
#    x 1.616280 0.000000 0.000000 
#    y 0.000000 1.672080 0.000000 
#    z 0.000000 0.000000 1.634630 
# 
# From -- ./inp_files/20207.got.cif
#   From: 2010.03.12/outbox.cif.g09.slc.cpg/sg55_11_cif.got.tgz:20207.got - 2010.04.16 15:19:21.
