data_PCOD8227995
_publ_section_title
;
Structure prediction by ZEFSAII (Michael W. Deem and Ramdas Pophale) SiO2 
 PCOD8227995
Probable space group: P C C N
;
_chemical_formula_sum "Si O2"
_cell_formula_units_Z 60
_cell_length_a 9.103430
_cell_length_b 16.772988
_cell_length_c 18.956930
_cell_angle_alpha 90.000000
_cell_angle_beta 90.000000
_cell_angle_gamma 90.000000
_cell_volume 2894.566288
_symmetry_space_group_name_H-M "P C C N"
_symmetry_group_IT_number 56
_symmetry_cell_setting 'orthorhombic'
loop_
_space_group_symop_operation_xyz
x,y,z
1/2-x,1/2-y,z
1/2+x,-y,1/2-z
-x,1/2+y,1/2-z
-x,-y,-z
1/2+x,1/2+y,-z
1/2-x,y,1/2+z
x,1/2-y,1/2+z
loop_
_atom_site_type_symbol
_atom_site_label
_atom_site_fract_x
_atom_site_fract_y
_atom_site_fract_z
Si Si1 0.353263 0.490668 0.667581
Si Si2 0.858954 0.682867 0.835789
Si Si3 0.839042 0.330606 0.096373
Si Si4 0.420260 0.615241 0.551460
Si Si5 0.250000 0.750000 0.130889
Si Si6 0.051514 0.276068 0.317962
Si Si7 0.313028 0.967652 0.801951
Si Si8 0.201384 0.368587 0.872510
O O1 0.287287 0.403871 0.648655
O O2 0.365198 0.538333 0.594446
O O3 0.253312 0.538568 0.723292
O O4 0.511468 0.473632 0.702667
O O5 0.750000 0.750000 0.862826
O O6 0.888675 0.685859 0.752787
O O7 0.005618 0.700863 0.877988
O O8 0.750000 0.250000 0.079832
O O9 0.763929 0.388113 0.154974
O O10 0.867849 0.388479 0.029163
O O11 0.342495 0.692476 0.582109
O O12 0.599769 0.621266 0.557081
O O13 0.376083 0.707457 0.178256
O O14 0.144902 0.319800 0.381691
O O15 0.091742 0.181616 0.319851
O O16 0.253329 0.046630 0.840245
#
# Coordination Sequence:
#
# PCOD8227995 Si02
#       8
#     8   8   8   8   4   8   8   8
#     4  10  22  37  66  94 121 163 206 261 312 383
#     4  11  22  40  63  91 130 159 206 264 320 378
#     4  11  26  43  60  89 129 171 209 261 321 374
#     4  10  22  42  60  87 123 171 212 250 307 385
#     4  10  22  34  66  88 122 164 206 256 308 382
#     4  10  18  35  61  99 120 154 203 262 310 367
#     4  10  21  38  62  94 123 160 208 265 317 371
#     4   9  18  36  64  87 124 158 202 258 302 375
#
# _framework density 20.728494000000001
#
# number of rings (size 3 to 8) (size 9 to 14) (size 15 to 20)
#    0.000    1.867    3.333    0.000    4.667    8.000 
#    4.800    0.000    0.000    2.400    0.000    0.000 
#    0.000    0.000    0.000    0.000    0.000    0.000 
#
# Total GULP energy -743530.319899 kJ/mol
# GULP energy per Si atom -12392.171998 kJ/mol
# Density = 2.068132 g / cm^3
# Si number density = 20.728494 Si / 1000 Ang^3
#
#
#
# Elastic Constant Matrix: (Units=GPa)
#
#
# Indices 1 2 3 4 5 6 
#
# 1 103.5528 36.9792 34.2655 0.0000 0.0000 0.0000
# 2 36.9792 116.7935 42.1075 0.0000 0.0000 0.0000
# 3 34.2655 42.1075 81.8909 0.0000 0.0000 0.0000
# 4 0.0000 0.0000 0.0000 13.4049 0.0000 0.0000
# 5 0.0000 0.0000 0.0000 0.0000 18.9019 0.0000
# 6 0.0000 0.0000 0.0000 0.0000 0.0000 26.3323
#
#
#
# Elastic Compliance Matrix: (Units=1/GPa)
#
#
# Indices 1 2 3 4 5 6 
#
# 1 0.011727 -0.002386 -0.003680 0.000000 0.000000 0.000000
# 2 -0.002386 0.010996 -0.004656 0.000000 0.000000 0.000000
# 3 -0.003680 -0.004656 0.016145 0.000000 0.000000 0.000000
# 4 0.000000 0.000000 0.000000 0.074599 0.000000 0.000000
# 5 0.000000 0.000000 0.000000 0.000000 0.052905 0.000000
# 6 0.000000 0.000000 0.000000 0.000000 0.000000 0.037976
#
#
# Mechanical properties :
#
#
# Convention : Reuss Voigt Hill
#
# Bulk Modulus (GPa) = 57.39055 58.77127 58.08091
# Shear Modulus (GPa) = 21.58899 24.32017 22.95458
#
# Velocity S-wave (km/s) = 3.23075 3.42902 3.33136
# Velocity P-wave (km/s) = 6.45476 6.64018 6.54813
#
# Compressibility (1/GPa) = 0.01742447
#
# Stress axis : x y z
#
# Youngs Moduli (GPa) = 85.27557 90.94101 61.93877
#
# Poissons Ratio (x) = 0.21701 0.22792
# Poissons Ratio (y) = 0.20349 0.28836
# Poissons Ratio (z) = 0.31380 0.42339
#
# Static dielectric constant tensor:
#      x y z
#    x 3.998300 0.000000 0.000000 
#    y 0.000000 4.005710 0.000000 
#    z 0.000000 0.000000 3.646830 
# 
# 
# High freq. dielectric constant tensor:
#      x y z
#    x 1.800950 0.000000 0.000000 
#    y 0.000000 1.828360 0.000000 
#    z 0.000000 0.000000 1.781500 
# 
# From -- ./inp_files/15132.got.cif
#   From: 2010.03.12/outbox.cif.g09.slc.cpg/sg56_8_cif.got.tgz:15132.got - 2010.04.16 15:33:40.
