data_PCOD8227490
_publ_section_title
;
Structure prediction by ZEFSAII (Michael W. Deem and Ramdas Pophale) SiO2 
 PCOD8227490
Probable space group: P B A M
;
_chemical_formula_sum "Si O2"
_cell_formula_units_Z 56
_cell_length_a 17.257159
_cell_length_b 18.082723
_cell_length_c 8.932112
_cell_angle_alpha 90.000000
_cell_angle_beta 90.000000
_cell_angle_gamma 90.000000
_cell_volume 2787.322947
_symmetry_space_group_name_H-M "P B A M"
_symmetry_group_IT_number 55
_symmetry_cell_setting 'orthorhombic'
loop_
_space_group_symop_operation_xyz
x,y,z
-x,-y,z
1/2+x,1/2-y,-z
1/2-x,1/2+y,-z
-x,-y,-z
x,y,-z
1/2-x,1/2+y,z
1/2+x,1/2-y,z
loop_
_atom_site_type_symbol
_atom_site_label
_atom_site_fract_x
_atom_site_fract_y
_atom_site_fract_z
Si Si1 0.916927 0.181554 0.827097
Si Si2 0.646831 0.840867 0.175882
Si Si3 0.080030 0.185319 0.671507
Si Si4 0.993408 0.413164 0.331223
Si Si5 0.220949 0.925291 0.174798
Si Si6 0.131499 0.330847 0.823430
Si Si7 0.716620 0.417601 0.327580
O O1 0.872232 0.256373 0.783606
O O2 0.860848 0.113294 0.790698
O O3 0.994565 0.172164 0.733625
O O4 0.940854 0.183324 0.000000
O O5 0.589215 0.894731 0.262140
O O6 0.732147 0.860141 0.233168
O O7 0.641147 0.855810 0.000000
O O8 0.072377 0.208907 0.500000
O O9 0.127027 0.249671 0.754362
O O10 0.127904 0.109257 0.690259
O O11 0.000271 0.381710 0.500000
O O12 0.058917 0.378637 0.228076
O O13 0.000000 0.500000 0.330916
O O14 0.289514 0.870730 0.227565
O O15 0.225685 0.999834 0.268093
O O16 0.229835 0.944140 0.000000
O O17 0.128181 0.321936 0.000000
O O18 0.743171 0.416052 0.500000
#
# Coordination Sequence:
#
# PCOD8227490 Si02
#       7
#     8   8   8   8   8   8   8
#     4  10  22  41  65  93 122 158 206 258 310 365
#     4  11  22  39  64  92 121 159 206 253 305 365
#     4  11  24  41  63  91 124 164 207 253 309 369
#     4  11  23  37  57  89 128 165 200 245 303 367
#     4  10  23  42  64  91 123 161 206 256 310 366
#     4  11  22  39  63  91 122 159 206 255 304 365
#     4  11  25  42  61  90 126 164 206 254 311 369
#
# _framework density 20.090962999999999
#
# number of rings (size 3 to 8) (size 9 to 14) (size 15 to 20)
#    0.000    1.286    1.429    3.857    0.000    9.714 
#    0.000    2.857    0.000    0.000    0.000    0.000 
#    0.000    0.000    0.000    0.000    0.000    0.000 
#
# Total GULP energy -694684.222375 kJ/mol
# GULP energy per Si atom -12405.075400 kJ/mol
# Density = 2.004524 g / cm^3
# Si number density = 20.090963 Si / 1000 Ang^3
#
#
#
# Elastic Constant Matrix: (Units=GPa)
#
#
# Indices 1 2 3 4 5 6 
#
# 1 106.2468 50.4914 39.1611 0.0000 0.0000 0.0000
# 2 50.4914 46.0618 33.5618 0.0000 0.0000 0.0000
# 3 39.1611 33.5618 69.9030 0.0000 0.0000 0.0000
# 4 0.0000 0.0000 0.0000 33.5786 0.0000 0.0000
# 5 0.0000 0.0000 0.0000 0.0000 34.0025 0.0000
# 6 0.0000 0.0000 0.0000 0.0000 0.0000 27.6761
#
#
#
# Elastic Compliance Matrix: (Units=1/GPa)
#
#
# Indices 1 2 3 4 5 6 
#
# 1 0.019694 -0.020839 -0.001028 0.000000 0.000000 0.000000
# 2 -0.020839 0.055442 -0.014944 0.000000 0.000000 0.000000
# 3 -0.001028 -0.014944 0.022056 0.000000 0.000000 0.000000
# 4 0.000000 0.000000 0.000000 0.029781 0.000000 0.000000
# 5 0.000000 0.000000 0.000000 0.000000 0.029410 0.000000
# 6 0.000000 0.000000 0.000000 0.000000 0.000000 0.036132
#
#
# Mechanical properties :
#
#
# Convention : Reuss Voigt Hill
#
# Bulk Modulus (GPa) = 42.42670 52.07114 47.24892
# Shear Modulus (GPa) = 18.24850 25.65125 21.94988
#
# Velocity S-wave (km/s) = 3.01706 3.57705 3.30892
# Velocity P-wave (km/s) = 5.77062 6.56005 6.17796
#
# Compressibility (1/GPa) = 0.02357006
#
# Stress axis : x y z
#
# Youngs Moduli (GPa) = 50.77608 18.03681 45.33845
#
# Poissons Ratio (x) = 0.37588 0.04660
# Poissons Ratio (y) = 1.05814 0.67755
# Poissons Ratio (z) = 0.05219 0.26955
#
# Static dielectric constant tensor:
#      x y z
#    x 3.748800 0.000000 0.000000 
#    y 0.000000 3.589320 0.000000 
#    z 0.000000 0.000000 3.794760 
# 
# 
# High freq. dielectric constant tensor:
#      x y z
#    x 1.795720 0.000000 0.000000 
#    y 0.000000 1.789330 0.000000 
#    z 0.000000 0.000000 1.792930 
# 
# From -- ./inp_files/6067.got.cif
#   From: 2010.03.12/outbox.cif.g09.slc.cpg/sg55_4_cif.got.tgz:6067.got - 2010.04.16 15:19:21.
