data_PCOD8227658
_publ_section_title
;
Structure prediction by ZEFSAII (Michael W. Deem and Ramdas Pophale) SiO2 
 PCOD8227658
Probable space group: P B A M
;
_chemical_formula_sum "Si O2"
_cell_formula_units_Z 48
_cell_length_a 18.761933
_cell_length_b 16.702321
_cell_length_c 9.081785
_cell_angle_alpha 90.000000
_cell_angle_beta 90.000000
_cell_angle_gamma 90.000000
_cell_volume 2845.939236
_symmetry_space_group_name_H-M "P B A M"
_symmetry_group_IT_number 55
_symmetry_cell_setting 'orthorhombic'
loop_
_space_group_symop_operation_xyz
x,y,z
-x,-y,z
1/2+x,1/2-y,-z
1/2-x,1/2+y,-z
-x,-y,-z
x,y,-z
1/2-x,1/2+y,z
1/2+x,1/2-y,z
loop_
_atom_site_type_symbol
_atom_site_label
_atom_site_fract_x
_atom_site_fract_y
_atom_site_fract_z
Si Si1 0.997138 0.870309 0.173862
Si Si2 0.730374 0.015108 0.167859
Si Si3 0.888307 0.002095 0.826543
Si Si4 0.601389 0.916311 0.167291
Si Si5 0.396348 0.930096 0.671984
Si Si6 0.989805 0.297027 0.327926
O O1 0.070226 0.916527 0.213893
O O2 0.994232 0.789227 0.263535
O O3 0.992706 0.853050 0.000000
O O4 0.931125 0.924486 0.230784
O O5 0.687680 0.929651 0.171977
O O6 0.808493 0.004723 0.240344
O O7 0.683964 0.079942 0.261181
O O8 0.736314 0.046503 0.000000
O O9 0.883545 0.992938 0.000000
O O10 0.579836 0.834908 0.250264
O O11 0.566157 0.992998 0.250355
O O12 0.573337 0.912544 0.000000
O O13 0.391609 0.947754 0.500000
O O14 0.441438 0.851238 0.707429
O O15 0.974185 0.290674 0.500000
#
# Coordination Sequence:
#
# PCOD8227658 Si02
#       6
#     8   8   8   8   8   8
#     4   9  18  32  56  76  92 124 164 206 246 287
#     4   8  16  30  51  74  96 124 161 201 240 289
#     4   8  15  34  56  75  94 119 162 210 250 284
#     4   9  18  30  50  75  98 127 162 198 239 289
#     4   9  18  31  47  70 100 134 162 191 240 289
#     4  11  21  32  46  70 106 133 159 199 240 288
#
# _framework density 16.866136999999998
#
# number of rings (size 3 to 8) (size 9 to 14) (size 15 to 20)
#    1.000    2.000    0.000    2.500    0.000    4.667 
#    0.000    5.000    0.000    8.000    0.000    0.000 
#    0.000    0.000    0.000    0.000    0.000    0.000 
#
# Total GULP energy -594684.652296 kJ/mol
# GULP energy per Si atom -12389.263589 kJ/mol
# Density = 1.682775 g / cm^3
# Si number density = 16.866137 Si / 1000 Ang^3
#
#
#
# Elastic Constant Matrix: (Units=GPa)
#
#
# Indices 1 2 3 4 5 6 
#
# 1 99.6102 29.7311 27.5055 0.0000 0.0000 0.0000
# 2 29.7311 100.1271 39.2201 0.0000 0.0000 0.0000
# 3 27.5055 39.2201 73.8969 0.0000 0.0000 0.0000
# 4 0.0000 0.0000 0.0000 20.9939 0.0000 0.0000
# 5 0.0000 0.0000 0.0000 0.0000 12.5515 0.0000
# 6 0.0000 0.0000 0.0000 0.0000 0.0000 7.4262
#
#
#
# Elastic Compliance Matrix: (Units=1/GPa)
#
#
# Indices 1 2 3 4 5 6 
#
# 1 0.011563 -0.002206 -0.003133 0.000000 0.000000 0.000000
# 2 -0.002206 0.013029 -0.006094 0.000000 0.000000 0.000000
# 3 -0.003133 -0.006094 0.017933 0.000000 0.000000 0.000000
# 4 0.000000 0.000000 0.000000 0.047633 0.000000 0.000000
# 5 0.000000 0.000000 0.000000 0.000000 0.079672 0.000000
# 6 0.000000 0.000000 0.000000 0.000000 0.000000 0.134658
#
#
# Mechanical properties :
#
#
# Convention : Reuss Voigt Hill
#
# Bulk Modulus (GPa) = 50.86813 51.83865 51.35339
# Shear Modulus (GPa) = 14.97421 20.00614 17.49018
#
# Velocity S-wave (km/s) = 2.98288 3.44782 3.22374
# Velocity P-wave (km/s) = 6.48759 6.83023 6.66111
#
# Compressibility (1/GPa) = 0.01965867
#
# Stress axis : x y z
#
# Youngs Moduli (GPa) = 86.48490 76.74904 55.76350
#
# Poissons Ratio (x) = 0.16932 0.17470
# Poissons Ratio (y) = 0.19080 0.33983
# Poissons Ratio (z) = 0.27095 0.46772
#
# Static dielectric constant tensor:
#      x y z
#    x 3.457090 0.000000 0.000000 
#    y 0.000000 2.911040 0.000000 
#    z 0.000000 0.000000 3.024060 
# 
# 
# High freq. dielectric constant tensor:
#      x y z
#    x 1.647240 0.000000 0.000000 
#    y 0.000000 1.625000 0.000000 
#    z 0.000000 0.000000 1.641480 
# 
# From -- ./inp_files/8857.got.cif
#   From: 2010.03.12/outbox.cif.g09.slc.cpg/sg55_5_cif.got.tgz:8857.got - 2010.04.16 15:19:21.
