data_PCOD8227879
_publ_section_title
;
Structure prediction by ZEFSAII (Michael W. Deem and Ramdas Pophale) SiO2 
 PCOD8227879
Probable space group: P C C N
;
_chemical_formula_sum "Si O2"
_cell_formula_units_Z 48
_cell_length_a 7.708078
_cell_length_b 18.026646
_cell_length_c 12.904574
_cell_angle_alpha 90.000000
_cell_angle_beta 90.000000
_cell_angle_gamma 90.000000
_cell_volume 1793.100796
_symmetry_space_group_name_H-M "P C C N"
_symmetry_group_IT_number 56
_symmetry_cell_setting 'orthorhombic'
loop_
_space_group_symop_operation_xyz
x,y,z
1/2-x,1/2-y,z
1/2+x,-y,1/2-z
-x,1/2+y,1/2-z
-x,-y,-z
1/2+x,1/2+y,-z
1/2-x,y,1/2+z
x,1/2-y,1/2+z
loop_
_atom_site_type_symbol
_atom_site_label
_atom_site_fract_x
_atom_site_fract_y
_atom_site_fract_z
Si Si1 0.336794 0.870906 0.616194
Si Si2 0.075669 0.375852 0.884087
Si Si3 0.663207 0.129095 0.616195
Si Si4 0.528779 0.750000 0.750000
Si Si5 0.924330 0.624148 0.884087
Si Si6 0.499999 0.500000 0.755582
O O1 0.130818 0.865388 0.614450
O O2 0.412817 0.871122 0.499999
O O3 0.410070 0.800580 0.676357
O O4 0.385390 0.946954 0.673047
O O5 0.149107 0.303442 0.823267
O O6 0.123695 0.450470 0.820895
O O7 0.153990 0.381075 1.000000
O O8 0.589932 0.199421 0.676357
O O9 0.869183 0.134613 0.614451
O O10 0.614614 0.053047 0.673049
O O11 0.649108 0.803442 0.823267
O O12 0.876305 0.549530 0.820896
#
# Coordination Sequence:
#
# PCOD8227879 Si02
#       6
#     8   8   8   8   8   8
#     4  10  19  30  46  69  95 122 151 184 224 269
#     4  10  19  30  46  69  95 122 151 184 224 269
#     4  10  19  30  46  69  95 122 151 184 224 269
#     4  10  17  28  46  68  95 122 147 180 224 274
#     4  10  19  30  46  69  95 122 151 184 224 269
#     4  10  18  30  44  64  94 126 154 182 220 266
#
# _framework density 26.769269999999999
#
# number of rings (size 3 to 8) (size 9 to 14) (size 15 to 20)
#    0.000    2.000    0.000    8.000    0.000    2.667 
#    0.000    0.000    0.000    0.000    0.000   74.667 
#    0.000  170.667    0.000    0.000    0.000    0.000 
#
# Total GULP energy -595035.120902 kJ/mol
# GULP energy per Si atom -12396.565019 kJ/mol
# Density = 2.670834 g / cm^3
# Si number density = 26.769270 Si / 1000 Ang^3
#
#
#
# Elastic Constant Matrix: (Units=GPa)
#
#
# Indices 1 2 3 4 5 6 
#
# 1 34.5021 4.3594 8.8732 0.0000 0.0000 0.0000
# 2 4.3594 228.5044 118.8559 0.0000 0.0000 0.0000
# 3 8.8732 118.8559 284.5210 0.0000 0.0000 0.0000
# 4 0.0000 0.0000 0.0000 14.7884 0.0000 0.0000
# 5 0.0000 0.0000 0.0000 0.0000 21.1275 0.0000
# 6 0.0000 0.0000 0.0000 0.0000 0.0000 23.4627
#
#
#
# Elastic Compliance Matrix: (Units=1/GPa)
#
#
# Indices 1 2 3 4 5 6 
#
# 1 0.029220 -0.000107 -0.000867 0.000000 0.000000 0.000000
# 2 -0.000107 0.005592 -0.002332 0.000000 0.000000 0.000000
# 3 -0.000867 -0.002332 0.004516 0.000000 0.000000 0.000000
# 4 0.000000 0.000000 0.000000 0.067621 0.000000 0.000000
# 5 0.000000 0.000000 0.000000 0.000000 0.047332 0.000000
# 6 0.000000 0.000000 0.000000 0.000000 0.000000 0.042621
#
#
# Mechanical properties :
#
#
# Convention : Reuss Voigt Hill
#
# Bulk Modulus (GPa) = 30.56606 90.18939 60.37772
# Shear Modulus (GPa) = 23.31895 39.57165 31.44530
#
# Velocity S-wave (km/s) = 2.95466 3.84897 3.43108
# Velocity P-wave (km/s) = 4.80449 7.31555 6.18872
#
# Compressibility (1/GPa) = 0.03271603
#
# Stress axis : x y z
#
# Youngs Moduli (GPa) = 34.22304 178.84103 221.43069
#
# Poissons Ratio (x) = 0.01907 0.19192
# Poissons Ratio (y) = 0.00365 0.51649
# Poissons Ratio (z) = 0.02966 0.41715
#
# Static dielectric constant tensor:
#      x y z
#    x 4.277900 0.000000 0.000000 
#    y 0.000000 5.468640 0.000000 
#    z 0.000000 0.000000 6.106620 
# 
# 
# High freq. dielectric constant tensor:
#      x y z
#    x 2.048640 0.000000 0.000000 
#    y 0.000000 2.102860 0.000000 
#    z 0.000000 0.000000 2.100650 
# 
# From -- ./inp_files/11744.got.cif
#   From: 2010.03.12/outbox.cif.g09.slc.cpg/sg56_6_cif.got.tgz:11744.got - 2010.04.16 15:33:40.
