data_PCOD8227698
_publ_section_title
;
Structure prediction by ZEFSAII (Michael W. Deem and Ramdas Pophale) SiO2 
 PCOD8227698
Probable space group: P B A M
;
_chemical_formula_sum "Si O2"
_cell_formula_units_Z 64
_cell_length_a 20.461667
_cell_length_b 17.621363
_cell_length_c 9.049214
_cell_angle_alpha 90.000000
_cell_angle_beta 90.000000
_cell_angle_gamma 90.000000
_cell_volume 3262.806877
_symmetry_space_group_name_H-M "P B A M"
_symmetry_group_IT_number 55
_symmetry_cell_setting 'orthorhombic'
loop_
_space_group_symop_operation_xyz
x,y,z
-x,-y,z
1/2+x,1/2-y,-z
1/2-x,1/2+y,-z
-x,-y,-z
x,y,-z
1/2-x,1/2+y,z
1/2+x,1/2-y,z
loop_
_atom_site_type_symbol
_atom_site_label
_atom_site_fract_x
_atom_site_fract_y
_atom_site_fract_z
Si Si1 0.796868 0.067774 0.341456
Si Si2 0.753989 0.227103 0.677429
Si Si3 0.504439 0.624210 0.832078
Si Si4 0.507541 0.773293 0.673666
Si Si5 0.102653 0.012854 0.164082
Si Si6 0.650582 0.020851 0.336822
Si Si7 0.876473 0.671849 0.176191
Si Si8 0.141654 0.649157 0.325023
O O1 0.832339 0.073827 0.500000
O O2 0.794634 0.152197 0.270850
O O3 0.725214 0.037265 0.362968
O O4 0.831515 0.001932 0.250820
O O5 0.743516 0.226056 0.500000
O O6 0.682559 0.222189 0.753961
O O7 0.796889 0.299474 0.732613
O O8 0.523773 0.686718 0.712834
O O9 0.561462 0.563551 0.831609
O O10 0.437942 0.584148 0.773756
O O11 0.495509 0.655659 0.000000
O O12 0.493239 0.783357 0.500000
O O13 0.444888 0.794626 0.770136
O O14 0.571271 0.819663 0.725244
O O15 0.123855 0.033503 0.000000
O O16 0.615837 0.024548 0.500000
O O17 0.621816 0.083987 0.227098
O O18 0.644253 0.937022 0.264772
O O19 0.870777 0.675765 0.000000
O O20 0.147158 0.649848 0.500000
#
# Coordination Sequence:
#
# PCOD8227698 Si02
#       8
#     8   8   8   8   8   8   8   8
#     4   9  17  29  50  78 107 136 174 221 267 316
#     4   9  18  36  59  84 112 143 179 224 274 327
#     4   9  19  35  50  72 107 145 180 218 266 324
#     4  11  22  37  58  83 108 142 185 231 279 328
#     4   9  18  32  51  73 106 147 180 214 265 323
#     4   9  19  38  58  78 105 139 177 222 273 325
#     4  11  23  39  57  81 113 149 185 225 271 326
#     4   9  19  36  61  87 110 138 181 231 276 322
#
# _framework density 19.615013000000001
#
# number of rings (size 3 to 8) (size 9 to 14) (size 15 to 20)
#    0.000    2.500    0.000    3.750    0.000    5.500 
#    0.000    8.125    0.000    0.000    0.000    0.000 
#    0.000    0.000    0.000    0.000    0.000    0.000 
#
# Total GULP energy -793059.411445 kJ/mol
# GULP energy per Si atom -12391.553304 kJ/mol
# Density = 1.957037 g / cm^3
# Si number density = 19.615013 Si / 1000 Ang^3
#
#
#
# Elastic Constant Matrix: (Units=GPa)
#
#
# Indices 1 2 3 4 5 6 
#
# 1 58.7614 20.3048 25.1089 0.0000 0.0000 0.0000
# 2 20.3048 68.8601 23.7930 0.0000 0.0000 0.0000
# 3 25.1089 23.7930 64.7797 0.0000 0.0000 0.0000
# 4 0.0000 0.0000 0.0000 31.9099 0.0000 0.0000
# 5 0.0000 0.0000 0.0000 0.0000 -1.4459 0.0000
# 6 0.0000 0.0000 0.0000 0.0000 0.0000 23.1505
#
#
#
# Elastic Compliance Matrix: (Units=1/GPa)
#
#
# Indices 1 2 3 4 5 6 
#
# 1 0.021283 -0.003923 -0.006808 0.000000 0.000000 0.000000
# 2 -0.003923 0.017356 -0.004854 0.000000 0.000000 0.000000
# 3 -0.006808 -0.004854 0.019859 0.000000 0.000000 0.000000
# 4 0.000000 0.000000 0.000000 0.031338 0.000000 0.000000
# 5 0.000000 0.000000 0.000000 0.000000 -0.691602 0.000000
# 6 0.000000 0.000000 0.000000 0.000000 0.000000 0.043196
#
#
# Mechanical properties :
#
#
# Convention : Reuss Voigt Hill
#
# Bulk Modulus (GPa) = 36.59459 36.75718 36.67588
# Shear Modulus (GPa) = -9.64711 18.93586 4.64438
#
# Velocity S-wave (km/s) = -2.22011 3.11042 1.54042
# Velocity P-wave (km/s) = 3.48210 5.62846 4.67999
#
# Compressibility (1/GPa) = 0.02732645
#
# Stress axis : x y z
#
# Youngs Moduli (GPa) = 46.98612 57.61608 50.35557
#
# Poissons Ratio (x) = 0.22604 0.34284
# Poissons Ratio (y) = 0.18434 0.24443
# Poissons Ratio (z) = 0.31990 0.27968
#
# Static dielectric constant tensor:
#      x y z
#    x 3.588830 0.000000 0.000000 
#    y 0.000000 4.041250 0.000000 
#    z 0.000000 0.000000 3.631420 
# 
# 
# High freq. dielectric constant tensor:
#      x y z
#    x 1.761440 0.000000 0.000000 
#    y 0.000000 1.768480 0.000000 
#    z 0.000000 0.000000 1.740210 
# 
# From -- ./inp_files/9055.got.cif
#   From: 2010.03.12/outbox.cif.g09.slc.cpg/sg55_5_cif.got.tgz:9055.got - 2010.04.16 15:19:21.
