data_PCOD8227107
_publ_section_title
;
Structure prediction by ZEFSAII (Michael W. Deem and Ramdas Pophale) SiO2 
 PCOD8227107
Probable space group: P B A M
;
_chemical_formula_sum "Si O2"
_cell_formula_units_Z 36
_cell_length_a 4.929467
_cell_length_b 12.866274
_cell_length_c 25.338938
_cell_angle_alpha 90.000000
_cell_angle_beta 90.000000
_cell_angle_gamma 90.000000
_cell_volume 1607.093588
_symmetry_space_group_name_H-M "P B A M"
_symmetry_group_IT_number 55
_symmetry_cell_setting 'orthorhombic'
loop_
_space_group_symop_operation_xyz
x,y,z
-x,-y,z
1/2+x,1/2-y,-z
1/2-x,1/2+y,-z
-x,-y,-z
x,y,-z
1/2-x,1/2+y,z
1/2+x,1/2-y,z
loop_
_atom_site_type_symbol
_atom_site_label
_atom_site_fract_x
_atom_site_fract_y
_atom_site_fract_z
Si Si1 0.331435 0.318998 0.556301
Si Si2 0.754926 0.575919 0.000000
Si Si3 0.722798 0.182779 0.110643
Si Si4 0.000000 0.000000 0.251808
Si Si5 0.000000 0.500000 0.182444
Si Si6 0.945541 0.178094 0.331883
O O1 0.384493 0.379458 0.500000
O O2 0.018240 0.284642 0.557458
O O3 0.401415 0.379578 0.610748
O O4 0.500000 0.500000 0.000000
O O5 0.777419 0.650619 0.950102
O O6 0.000000 0.500000 0.000000
O O7 0.527613 0.280457 0.122853
O O8 0.635224 0.088054 0.146899
O O9 0.112108 0.905751 0.286944
O O10 0.747547 0.957009 0.217672
O O11 0.746665 0.276567 0.326242
#
# Coordination Sequence:
#
# PCOD8227107 Si02
#       6
#     8   4   8   4   4   8
#     4   8  14  27  50  80 112 149 192 245 314 383
#     4  12  24  44  76 103 143 174 204 260 318 381
#     4  12  26  46  72 103 134 175 217 259 322 384
#     4  12  26  42  63  91 122 166 224 264 324 370
#     4  12  28  45  66  94 131 172 216 282 310 370
#     4  10  21  38  61  86 119 160 206 262 320 384
#
# _framework density 22.400686
#
# number of rings (size 3 to 8) (size 9 to 14) (size 15 to 20)
#    0.000    1.333    1.111    4.667    1.556    5.333 
#    0.000    0.556    0.000    0.000    0.000   17.111 
#    0.000    0.000    0.000    0.000    0.000    0.000 
#
# Total GULP energy -446137.595239 kJ/mol
# GULP energy per Si atom -12392.710979 kJ/mol
# Density = 2.234970 g / cm^3
# Si number density = 22.400686 Si / 1000 Ang^3
#
#
#
# Elastic Constant Matrix: (Units=GPa)
#
#
# Indices 1 2 3 4 5 6 
#
# 1 109.8053 12.1631 25.5898 0.0000 0.0000 0.0000
# 2 12.1631 64.1138 39.2299 0.0000 0.0000 0.0000
# 3 25.5898 39.2299 154.6022 0.0000 0.0000 0.0000
# 4 0.0000 0.0000 0.0000 8.8054 0.0000 0.0000
# 5 0.0000 0.0000 0.0000 0.0000 13.4634 0.0000
# 6 0.0000 0.0000 0.0000 0.0000 0.0000 34.5948
#
#
#
# Elastic Compliance Matrix: (Units=1/GPa)
#
#
# Indices 1 2 3 4 5 6 
#
# 1 0.009526 -0.000997 -0.001324 0.000000 0.000000 0.000000
# 2 -0.000997 0.018568 -0.004547 0.000000 0.000000 0.000000
# 3 -0.001324 -0.004547 0.007841 0.000000 0.000000 0.000000
# 4 0.000000 0.000000 0.000000 0.113566 0.000000 0.000000
# 5 0.000000 0.000000 0.000000 0.000000 0.074276 0.000000
# 6 0.000000 0.000000 0.000000 0.000000 0.000000 0.028906
#
#
# Mechanical properties :
#
#
# Convention : Reuss Voigt Hill
#
# Bulk Modulus (GPa) = 45.04449 53.60968 49.32708
# Shear Modulus (GPa) = 18.26027 28.14195 23.20111
#
# Velocity S-wave (km/s) = 2.85821 3.54828 3.22177
# Velocity P-wave (km/s) = 5.57177 6.38523 5.99232
#
# Compressibility (1/GPa) = 0.02220027
#
# Stress axis : x y z
#
# Youngs Moduli (GPa) = 104.97612 53.85486 127.53467
#
# Poissons Ratio (x) = 0.05371 0.16882
# Poissons Ratio (y) = 0.10469 0.57985
# Poissons Ratio (z) = 0.13896 0.24486
#
# Static dielectric constant tensor:
#      x y z
#    x 4.228870 0.000000 0.000000 
#    y 0.000000 3.495710 0.000000 
#    z 0.000000 0.000000 4.612540 
# 
# 
# High freq. dielectric constant tensor:
#      x y z
#    x 1.904700 0.000000 0.000000 
#    y 0.000000 1.833130 0.000000 
#    z 0.000000 0.000000 1.911680 
# 
# From -- ./inp_files/23259.got.cif
#   From: 2010.03.12/outbox.cif.g09.slc.cpg/sg55_12_cif.got.tgz:23259.got - 2010.04.16 15:19:21.
