data_PCOD8227471
_publ_section_title
;
Structure prediction by ZEFSAII (Michael W. Deem and Ramdas Pophale) SiO2 
 PCOD8227471
Probable space group: P B A M
;
_chemical_formula_sum "Si O2"
_cell_formula_units_Z 48
_cell_length_a 17.046325
_cell_length_b 9.558550
_cell_length_c 14.661370
_cell_angle_alpha 90.000000
_cell_angle_beta 90.000000
_cell_angle_gamma 90.000000
_cell_volume 2388.896502
_symmetry_space_group_name_H-M "P B A M"
_symmetry_group_IT_number 55
_symmetry_cell_setting 'orthorhombic'
loop_
_space_group_symop_operation_xyz
x,y,z
-x,-y,z
1/2+x,1/2-y,-z
1/2-x,1/2+y,-z
-x,-y,-z
x,y,-z
1/2-x,1/2+y,z
1/2+x,1/2-y,z
loop_
_atom_site_type_symbol
_atom_site_label
_atom_site_fract_x
_atom_site_fract_y
_atom_site_fract_z
Si Si1 0.192986 0.550905 0.895256
Si Si2 0.182410 0.481357 0.394671
Si Si3 0.168279 0.158599 0.394642
Si Si4 0.931862 0.397237 0.249869
Si Si5 0.340226 0.734095 0.104604
Si Si6 0.537287 0.355373 0.250120
O O1 0.127709 0.624390 0.833486
O O2 0.197413 0.385635 0.875085
O O3 0.277022 0.615917 0.870142
O O4 0.171512 0.583335 0.000000
O O5 0.164341 0.513206 0.500000
O O6 0.194558 0.317495 0.376043
O O7 0.260898 0.559617 0.362306
O O8 0.108756 0.536565 0.338361
O O9 0.147493 0.132965 0.500000
O O10 0.091859 0.118881 0.337496
O O11 0.000000 0.500000 0.215849
O O12 0.967029 0.247957 0.278174
O O13 0.416043 0.712847 0.166375
O O14 0.367207 0.722467 0.000000
O O15 0.500000 0.500000 0.217356
#
# Coordination Sequence:
#
# PCOD8227471 Si02
#       6
#     8   8   8   8   8   8
#     4  10  22  40  65  89 117 157 201 245 293 354
#     4  10  22  40  65  89 117 157 201 245 293 354
#     4  10  22  42  64  89 118 156 202 245 292 353
#     4  12  23  40  60  88 121 158 196 239 301 355
#     4  10  22  42  64  89 118 156 202 245 292 353
#     4  12  27  40  58  90 125 160 196 248 301 351
#
# _framework density 20.092957999999999
#
# number of rings (size 3 to 8) (size 9 to 14) (size 15 to 20)
#    0.000    1.333    3.333    1.000    4.667    2.667 
#    0.000    0.000    0.000    0.000    0.000    0.000 
#    0.000    0.000    0.000    0.000    0.000    0.000 
#
# Total GULP energy -595530.936528 kJ/mol
# GULP energy per Si atom -12406.894511 kJ/mol
# Density = 2.004723 g / cm^3
# Si number density = 20.092958 Si / 1000 Ang^3
#
#
#
# Elastic Constant Matrix: (Units=GPa)
#
#
# Indices 1 2 3 4 5 6 
#
# 1 81.5544 41.3722 43.3411 0.0000 0.0000 0.0000
# 2 41.3722 101.4526 15.6899 0.0000 0.0000 0.0000
# 3 43.3411 15.6899 73.8412 0.0000 0.0000 0.0000
# 4 0.0000 0.0000 0.0000 26.2021 0.0000 0.0000
# 5 0.0000 0.0000 0.0000 0.0000 17.7601 0.0000
# 6 0.0000 0.0000 0.0000 0.0000 0.0000 37.1500
#
#
#
# Elastic Compliance Matrix: (Units=1/GPa)
#
#
# Indices 1 2 3 4 5 6 
#
# 1 0.021943 -0.007193 -0.011351 0.000000 0.000000 0.000000
# 2 -0.007193 0.012550 0.001555 0.000000 0.000000 0.000000
# 3 -0.011351 0.001555 0.019875 0.000000 0.000000 0.000000
# 4 0.000000 0.000000 0.000000 0.038165 0.000000 0.000000
# 5 0.000000 0.000000 0.000000 0.000000 0.056306 0.000000
# 6 0.000000 0.000000 0.000000 0.000000 0.000000 0.026918
#
#
# Mechanical properties :
#
#
# Convention : Reuss Voigt Hill
#
# Bulk Modulus (GPa) = 49.04396 50.85050 49.94723
# Shear Modulus (GPa) = 23.09148 26.65212 24.87180
#
# Velocity S-wave (km/s) = 3.39371 3.64598 3.52211
# Velocity P-wave (km/s) = 6.31014 6.56406 6.43835
#
# Compressibility (1/GPa) = 0.02038987
#
# Stress axis : x y z
#
# Youngs Moduli (GPa) = 45.57237 79.68428 50.31527
#
# Poissons Ratio (x) = 0.57316 0.57114
# Poissons Ratio (y) = 0.32780 -0.07826
# Poissons Ratio (z) = 0.51730 -0.12393
#
# Static dielectric constant tensor:
#      x y z
#    x 3.606780 0.000000 0.000000 
#    y 0.000000 3.788880 0.000000 
#    z 0.000000 0.000000 3.710220 
# 
# 
# High freq. dielectric constant tensor:
#      x y z
#    x 1.781070 0.000000 0.000000 
#    y 0.000000 1.793520 0.000000 
#    z 0.000000 0.000000 1.793800 
# 
# From -- ./inp_files/17329.got.cif
#   From: 2010.03.12/outbox.cif.g09.slc.cpg/sg55_9_cif.got.tgz:17329.got - 2010.04.16 15:19:21.
