data_PCOD8227322
_publ_section_title
;
Structure prediction by ZEFSAII (Michael W. Deem and Ramdas Pophale) SiO2 
 PCOD8227322
Probable space group: P B A M
;
_chemical_formula_sum "Si O2"
_cell_formula_units_Z 48
_cell_length_a 14.545835
_cell_length_b 9.428959
_cell_length_c 16.661683
_cell_angle_alpha 90.000000
_cell_angle_beta 90.000000
_cell_angle_gamma 90.000000
_cell_volume 2285.184510
_symmetry_space_group_name_H-M "P B A M"
_symmetry_group_IT_number 55
_symmetry_cell_setting 'orthorhombic'
loop_
_space_group_symop_operation_xyz
x,y,z
-x,-y,z
1/2+x,1/2-y,-z
1/2-x,1/2+y,-z
-x,-y,-z
x,y,-z
1/2-x,1/2+y,z
1/2+x,1/2-y,z
loop_
_atom_site_type_symbol
_atom_site_label
_atom_site_fract_x
_atom_site_fract_y
_atom_site_fract_z
Si Si1 0.500000 0.000000 0.881506
Si Si2 0.104268 0.021739 0.167950
Si Si3 0.303778 0.453648 0.000000
Si Si4 0.871324 0.365920 0.000000
Si Si5 0.099455 0.325195 0.241163
Si Si6 0.500000 0.000000 0.360302
Si Si7 0.189105 0.620090 0.408768
Si Si8 0.791787 0.100519 0.311464
O O1 0.442092 0.121433 0.926708
O O2 0.579054 0.082179 0.836051
O O3 0.155884 0.018378 0.082526
O O4 0.139591 0.910853 0.235064
O O5 0.114136 0.165860 0.216123
O O6 0.000000 0.000000 0.144398
O O7 0.316843 0.283132 0.000000
O O8 0.197508 0.499556 0.000000
O O9 0.019234 0.359024 0.306021
O O10 0.192857 0.380532 0.275515
O O11 0.591833 0.965307 0.410846
O O12 0.218692 0.649377 0.500000
O O13 0.173454 0.769340 0.364695
O O14 0.275900 0.538278 0.367763
#
# Coordination Sequence:
#
# PCOD8227322 Si02
#       8
#     4   8   4   4   8   4   8   8
#     4  10  22  43  71  88 130 172 220 269 337 394
#     4  12  25  42  67  92 135 169 228 274 327 385
#     4  12  29  42  66  97 135 175 230 277 337 381
#     4  11  26  44  62  94 132 172 218 282 336 387
#     4  10  21  41  66  96 124 174 219 265 324 399
#     4   9  21  39  67  97 133 172 218 262 338 398
#     4  11  22  41  67  99 133 172 220 270 331 400
#     4  11  23  41  68  95 133 175 216 272 331 393
#
# _framework density 21.004867999999998
#
# number of rings (size 3 to 8) (size 9 to 14) (size 15 to 20)
#    0.000    1.167    1.667    4.000    4.667    3.333 
#    0.000    0.000    0.000    2.000    0.000    0.000 
#    0.000    0.000    0.000    0.000    0.000    0.000 
#
# Total GULP energy -594759.815325 kJ/mol
# GULP energy per Si atom -12390.829486 kJ/mol
# Density = 2.095706 g / cm^3
# Si number density = 21.004868 Si / 1000 Ang^3
#
#
#
# Elastic Constant Matrix: (Units=GPa)
#
#
# Indices 1 2 3 4 5 6 
#
# 1 72.9166 4.8367 29.6559 0.0000 0.0000 0.0000
# 2 4.8367 92.0785 33.7433 0.0000 0.0000 0.0000
# 3 29.6559 33.7433 139.5292 0.0000 0.0000 0.0000
# 4 0.0000 0.0000 0.0000 53.5490 0.0000 0.0000
# 5 0.0000 0.0000 0.0000 0.0000 40.5755 0.0000
# 6 0.0000 0.0000 0.0000 0.0000 0.0000 28.4809
#
#
#
# Elastic Compliance Matrix: (Units=1/GPa)
#
#
# Indices 1 2 3 4 5 6 
#
# 1 0.015027 0.000418 -0.003295 0.000000 0.000000 0.000000
# 2 0.000418 0.011928 -0.002974 0.000000 0.000000 0.000000
# 3 -0.003295 -0.002974 0.008586 0.000000 0.000000 0.000000
# 4 0.000000 0.000000 0.000000 0.018674 0.000000 0.000000
# 5 0.000000 0.000000 0.000000 0.000000 0.024645 0.000000
# 6 0.000000 0.000000 0.000000 0.000000 0.000000 0.035111
#
#
# Mechanical properties :
#
#
# Convention : Reuss Voigt Hill
#
# Bulk Modulus (GPa) = 41.94550 48.99957 45.47254
# Shear Modulus (GPa) = 37.41967 40.27364 38.84665
#
# Velocity S-wave (km/s) = 4.22533 4.38350 4.30514
# Velocity P-wave (km/s) = 6.61947 6.99989 6.81234
#
# Compressibility (1/GPa) = 0.02384046
#
# Stress axis : x y z
#
# Youngs Moduli (GPa) = 66.54846 83.83625 116.46354
#
# Poissons Ratio (x) = -0.03506 0.38374
# Poissons Ratio (y) = -0.02783 0.34631
# Poissons Ratio (z) = 0.21927 0.24929
#
# Static dielectric constant tensor:
#      x y z
#    x 6.105200 0.000000 0.000000 
#    y 0.000000 3.809770 0.000000 
#    z 0.000000 0.000000 4.028800 
# 
# 
# High freq. dielectric constant tensor:
#      x y z
#    x 1.826900 0.000000 0.000000 
#    y 0.000000 1.819190 0.000000 
#    z 0.000000 0.000000 1.834090 
# 
# From -- ./inp_files/21558.got.cif
#   From: 2010.03.12/outbox.cif.g09.slc.cpg/sg55_11_cif.got.tgz:21558.got - 2010.04.16 15:19:21.
