data_PCOD8227981
_publ_section_title
;
Structure prediction by ZEFSAII (Michael W. Deem and Ramdas Pophale) SiO2 
 PCOD8227981
Probable space group: P C C N
;
_chemical_formula_sum "Si O2"
_cell_formula_units_Z 56
_cell_length_a 17.205223
_cell_length_b 19.750677
_cell_length_c 8.922941
_cell_angle_alpha 90.000000
_cell_angle_beta 90.000000
_cell_angle_gamma 90.000000
_cell_volume 3032.147431
_symmetry_space_group_name_H-M "P C C N"
_symmetry_group_IT_number 56
_symmetry_cell_setting 'orthorhombic'
loop_
_space_group_symop_operation_xyz
x,y,z
1/2-x,1/2-y,z
1/2+x,-y,1/2-z
-x,1/2+y,1/2-z
-x,-y,-z
1/2+x,1/2+y,-z
1/2-x,y,1/2+z
x,1/2-y,1/2+z
loop_
_atom_site_type_symbol
_atom_site_label
_atom_site_fract_x
_atom_site_fract_y
_atom_site_fract_z
Si Si1 0.859659 0.449218 0.747251
Si Si2 0.092343 0.056178 0.130454
Si Si3 0.555484 0.254903 0.533458
Si Si4 0.897394 0.342780 0.280819
Si Si5 0.027209 0.060940 0.830037
Si Si6 0.791980 0.046460 0.914015
Si Si7 0.994090 0.157505 0.277585
O O1 0.911617 0.517390 0.767949
O O2 0.800222 0.449328 0.886900
O O3 0.814225 0.446119 0.588700
O O4 0.913710 0.383528 0.758526
O O5 0.067830 0.106347 0.264889
O O6 0.180547 0.028850 0.142907
O O7 0.072712 0.092785 0.972788
O O8 0.043152 0.987099 0.119100
O O9 0.603181 0.205711 0.425422
O O10 0.617813 0.298390 0.631628
O O11 0.501511 0.305981 0.437362
O O12 0.500619 0.213127 0.646221
O O13 0.983195 0.376563 0.250694
O O14 0.829391 0.396254 0.307503
#
# Coordination Sequence:
#
# PCOD8227981 Si02
#       7
#     8   8   8   8   8   8   8
#     4  10  20  34  51  72 101 131 160 200 246 291
#     4   8  14  30  53  70  91 125 161 202 248 283
#     4  10  20  30  53  72 101 126 170 198 236 280
#     4  10  18  35  50  75  97 129 163 206 235 287
#     4   8  14  30  53  70  91 125 161 202 248 283
#     4  10  20  34  51  72 101 131 160 200 246 291
#     4  10  18  35  50  75  97 129 163 206 235 287
#
# _framework density 18.468758999999999
#
# number of rings (size 3 to 8) (size 9 to 14) (size 15 to 20)
#    0.000    2.571    2.857    1.714    2.000    0.000 
#    2.571    6.429    0.000    0.000    0.000    6.000 
#    0.000    0.000    0.000    0.000    0.000    0.000 
#
# Total GULP energy -693775.801026 kJ/mol
# GULP energy per Si atom -12388.853590 kJ/mol
# Density = 1.842672 g / cm^3
# Si number density = 18.468759 Si / 1000 Ang^3
#
#
#
# Elastic Constant Matrix: (Units=GPa)
#
#
# Indices 1 2 3 4 5 6 
#
# 1 44.5346 41.3595 16.0430 0.0000 0.0000 0.0000
# 2 41.3595 55.4947 24.5999 0.0000 0.0000 0.0000
# 3 16.0430 24.5999 67.5090 0.0000 0.0000 0.0000
# 4 0.0000 0.0000 0.0000 18.5154 0.0000 0.0000
# 5 0.0000 0.0000 0.0000 0.0000 19.4182 0.0000
# 6 0.0000 0.0000 0.0000 0.0000 0.0000 12.1134
#
#
#
# Elastic Compliance Matrix: (Units=1/GPa)
#
#
# Indices 1 2 3 4 5 6 
#
# 1 0.073437 -0.056049 0.002972 0.000000 0.000000 0.000000
# 2 -0.056049 0.064270 -0.010100 0.000000 0.000000 0.000000
# 3 0.002972 -0.010100 0.017787 0.000000 0.000000 0.000000
# 4 0.000000 0.000000 0.000000 0.054009 0.000000 0.000000
# 5 0.000000 0.000000 0.000000 0.000000 0.051498 0.000000
# 6 0.000000 0.000000 0.000000 0.000000 0.000000 0.082553
#
#
# Mechanical properties :
#
#
# Convention : Reuss Voigt Hill
#
# Bulk Modulus (GPa) = 34.31725 36.83813 35.57769
# Shear Modulus (GPa) = 10.42492 15.71179 13.06835
#
# Velocity S-wave (km/s) = 2.37842 2.91988 2.66295
# Velocity P-wave (km/s) = 5.11508 5.59974 5.36289
#
# Compressibility (1/GPa) = 0.02913987
#
# Stress axis : x y z
#
# Youngs Moduli (GPa) = 13.61715 15.55947 56.22138
#
# Poissons Ratio (x) = 0.87209 -0.16710
# Poissons Ratio (y) = 0.76323 0.56782
# Poissons Ratio (z) = -0.04047 0.15715
#
# Static dielectric constant tensor:
#      x y z
#    x 3.127000 0.000000 0.000000 
#    y 0.000000 3.559500 0.000000 
#    z 0.000000 0.000000 3.313380 
# 
# 
# High freq. dielectric constant tensor:
#      x y z
#    x 1.668800 0.000000 0.000000 
#    y 0.000000 1.717150 0.000000 
#    z 0.000000 0.000000 1.710140 
# 
# From -- ./inp_files/3568.got.cif
#   From: 2010.03.12/outbox.cif.g09.slc.cpg/sg56_2_cif.got.tgz:3568.got - 2010.04.16 15:33:40.
