data_PCOD8227747
_publ_section_title
;
Structure prediction by ZEFSAII (Michael W. Deem and Ramdas Pophale) SiO2 
 PCOD8227747
Probable space group: P B A M
;
_chemical_formula_sum "Si O2"
_cell_formula_units_Z 48
_cell_length_a 14.676219
_cell_length_b 8.865269
_cell_length_c 16.826574
_cell_angle_alpha 90.000000
_cell_angle_beta 90.000000
_cell_angle_gamma 90.000000
_cell_volume 2189.282480
_symmetry_space_group_name_H-M "P B A M"
_symmetry_group_IT_number 55
_symmetry_cell_setting 'orthorhombic'
loop_
_space_group_symop_operation_xyz
x,y,z
-x,-y,z
1/2+x,1/2-y,-z
1/2-x,1/2+y,-z
-x,-y,-z
x,y,-z
1/2-x,1/2+y,z
1/2+x,1/2-y,z
loop_
_atom_site_type_symbol
_atom_site_label
_atom_site_fract_x
_atom_site_fract_y
_atom_site_fract_z
Si Si1 0.990280 0.666176 0.334759
Si Si2 0.148170 0.841011 0.592984
Si Si3 0.972924 0.240874 0.000000
Si Si4 0.357161 0.563682 0.000000
Si Si5 0.037935 0.763566 0.169851
Si Si6 0.647420 0.452294 0.168944
Si Si7 0.807853 0.842284 0.668402
O O1 0.885480 0.715379 0.337736
O O2 0.000000 0.500000 0.373061
O O3 0.046224 0.788968 0.385294
O O4 0.028518 0.652328 0.244377
O O5 0.164946 0.829801 0.500000
O O6 0.215361 0.724659 0.635596
O O7 0.162122 0.012103 0.619166
O O8 0.947833 0.323616 0.084223
O O9 0.081198 0.213530 0.000000
O O10 0.921047 0.082269 0.000000
O O11 0.299840 0.562662 0.083139
O O12 0.947019 0.862984 0.163360
O O13 0.123842 0.873178 0.187259
O O14 0.709948 0.388651 0.239634
#
# Coordination Sequence:
#
# PCOD8227747 Si02
#       7
#     8   8   4   4   8   8   8
#     4  11  23  40  63  91 125 163 203 250 307 371
#     4  12  26  43  65  91 119 155 204 259 315 376
#     4   7  10  18  41  77 117 150 191 243 280 335
#     4   7  10  18  42  81 113 148 195 236 284 340
#     4   8  13  26  49  83 117 154 199 239 289 349
#     4   8  13  26  52  82 116 155 195 241 290 351
#     4  11  23  42  65  90 122 160 200 252 311 372
#
# _framework density 21.924992
#
# number of rings (size 3 to 8) (size 9 to 14) (size 15 to 20)
#    0.000    2.500    1.667    4.000    0.000    2.333 
#    0.000    0.417    0.000    2.000    0.000    2.333 
#    0.000    0.000    0.000    0.000    0.000    0.000 
#
# Total GULP energy -594708.426336 kJ/mol
# GULP energy per Si atom -12389.758882 kJ/mol
# Density = 2.187509 g / cm^3
# Si number density = 21.924992 Si / 1000 Ang^3
#
#
#
# Elastic Constant Matrix: (Units=GPa)
#
#
# Indices 1 2 3 4 5 6 
#
# 1 25.6154 -0.7381 16.9091 0.0000 0.0000 0.0000
# 2 -0.7381 60.6854 7.1328 0.0000 0.0000 0.0000
# 3 16.9091 7.1328 156.5376 0.0000 0.0000 0.0000
# 4 0.0000 0.0000 0.0000 13.6443 0.0000 0.0000
# 5 0.0000 0.0000 0.0000 0.0000 19.1889 0.0000
# 6 0.0000 0.0000 0.0000 0.0000 0.0000 24.8754
#
#
#
# Elastic Compliance Matrix: (Units=1/GPa)
#
#
# Indices 1 2 3 4 5 6 
#
# 1 0.042103 0.001052 -0.004596 0.000000 0.000000 0.000000
# 2 0.001052 0.016593 -0.000870 0.000000 0.000000 0.000000
# 3 -0.004596 -0.000870 0.006924 0.000000 0.000000 0.000000
# 4 0.000000 0.000000 0.000000 0.073291 0.000000 0.000000
# 5 0.000000 0.000000 0.000000 0.000000 0.052113 0.000000
# 6 0.000000 0.000000 0.000000 0.000000 0.000000 0.040200
#
#
# Mechanical properties :
#
#
# Convention : Reuss Voigt Hill
#
# Bulk Modulus (GPa) = 17.60743 32.16066 24.88405
# Shear Modulus (GPa) = 19.30623 26.17736 22.74180
#
# Velocity S-wave (km/s) = 2.97064 3.45911 3.22414
# Velocity P-wave (km/s) = 4.45134 5.53663 5.02338
#
# Compressibility (1/GPa) = 0.05679420
#
# Stress axis : x y z
#
# Youngs Moduli (GPa) = 23.75115 60.26475 144.41857
#
# Poissons Ratio (x) = -0.06341 0.66373
# Poissons Ratio (y) = -0.02499 0.12561
# Poissons Ratio (z) = 0.10916 0.05242
#
# Static dielectric constant tensor:
#      x y z
#    x 3.453960 0.000000 0.000000 
#    y 0.000000 3.543750 0.000000 
#    z 0.000000 0.000000 4.616570 
# 
# 
# High freq. dielectric constant tensor:
#      x y z
#    x 1.818690 0.000000 0.000000 
#    y 0.000000 1.833230 0.000000 
#    z 0.000000 0.000000 1.884850 
# 
# From -- ./inp_files/20853.got.cif
#   From: 2010.03.12/outbox.cif.g09.slc.cpg/sg55_11_cif.got.tgz:20853.got - 2010.04.16 15:19:21.
