data_PCOD8227103
_publ_section_title
;
Structure prediction by ZEFSAII (Michael W. Deem and Ramdas Pophale) SiO2 
 PCOD8227103
Probable space group: P B A M
;
_chemical_formula_sum "Si O2"
_cell_formula_units_Z 64
_cell_length_a 15.180492
_cell_length_b 23.749903
_cell_length_c 8.872143
_cell_angle_alpha 90.000000
_cell_angle_beta 90.000000
_cell_angle_gamma 90.000000
_cell_volume 3198.719962
_symmetry_space_group_name_H-M "P B A M"
_symmetry_group_IT_number 55
_symmetry_cell_setting 'orthorhombic'
loop_
_space_group_symop_operation_xyz
x,y,z
-x,-y,z
1/2+x,1/2-y,-z
1/2-x,1/2+y,-z
-x,-y,-z
x,y,-z
1/2-x,1/2+y,z
1/2+x,1/2-y,z
loop_
_atom_site_type_symbol
_atom_site_label
_atom_site_fract_x
_atom_site_fract_y
_atom_site_fract_z
Si Si1 0.741076 0.800776 0.824314
Si Si2 0.154712 0.502929 0.178013
Si Si3 0.244051 0.327405 0.177160
Si Si4 0.891615 0.886683 0.827859
Si Si5 0.090328 0.397476 0.326492
Si Si6 0.662649 0.499552 0.676534
Si Si7 0.088361 0.898531 0.826744
Si Si8 0.392297 0.119520 0.326554
O O1 0.753813 0.737082 0.770084
O O2 0.831674 0.833238 0.787677
O O3 0.659924 0.826428 0.732112
O O4 0.716953 0.803841 0.000000
O O5 0.085264 0.458069 0.243822
O O6 0.250002 0.482469 0.233658
O O7 0.137143 0.565661 0.232163
O O8 0.150008 0.501247 0.000000
O O9 0.163311 0.356895 0.258794
O O10 0.336673 0.355034 0.225979
O O11 0.227915 0.332882 0.000000
O O12 0.867012 0.937053 0.717219
O O13 0.993330 0.869187 0.803616
O O14 0.874603 0.906390 0.000000
O O15 0.112237 0.408701 0.500000
O O16 0.995633 0.368186 0.305058
O O17 0.680434 0.503052 0.500000
O O18 0.589360 0.544924 0.726001
O O19 0.102110 0.916208 0.000000
O O20 0.368651 0.107825 0.500000
#
# Coordination Sequence:
#
# PCOD8227103 Si02
#       8
#     8   8   8   8   8   8   8   8
#     4  10  22  40  63  90 120 160 209 254 296 350
#     4  12  23  38  63  92 122 158 199 247 306 365
#     4  10  22  40  63  90 120 160 209 254 296 350
#     4  10  21  38  60  87 121 160 199 245 300 356
#     4  11  24  41  62  91 126 162 199 246 305 364
#     4  12  23  36  59  90 122 156 195 245 302 361
#     4  10  21  38  60  87 121 160 199 245 300 356
#     4  11  24  41  62  91 126 162 199 246 305 364
#
# _framework density 20.008004
#
# number of rings (size 3 to 8) (size 9 to 14) (size 15 to 20)
#    0.000    1.250    2.500    3.750    0.000    7.000 
#    0.000    2.500    0.000    0.000    0.000    0.000 
#    0.000    0.000    0.000    0.000    0.000    0.000 
#
# Total GULP energy -793958.504490 kJ/mol
# GULP energy per Si atom -12405.601633 kJ/mol
# Density = 1.996246 g / cm^3
# Si number density = 20.008004 Si / 1000 Ang^3
#
#
#
# Elastic Constant Matrix: (Units=GPa)
#
#
# Indices 1 2 3 4 5 6 
#
# 1 106.1524 39.4563 45.8011 0.0000 0.0000 0.0000
# 2 39.4563 122.0349 51.7181 0.0000 0.0000 0.0000
# 3 45.8011 51.7181 106.8973 0.0000 0.0000 0.0000
# 4 0.0000 0.0000 0.0000 15.0704 0.0000 0.0000
# 5 0.0000 0.0000 0.0000 0.0000 30.1551 0.0000
# 6 0.0000 0.0000 0.0000 0.0000 0.0000 15.8874
#
#
#
# Elastic Compliance Matrix: (Units=1/GPa)
#
#
# Indices 1 2 3 4 5 6 
#
# 1 0.011984 -0.002137 -0.004101 0.000000 0.000000 0.000000
# 2 -0.002137 0.010689 -0.004256 0.000000 0.000000 0.000000
# 3 -0.004101 -0.004256 0.013171 0.000000 0.000000 0.000000
# 4 0.000000 0.000000 0.000000 0.066355 0.000000 0.000000
# 5 0.000000 0.000000 0.000000 0.000000 0.033162 0.000000
# 6 0.000000 0.000000 0.000000 0.000000 0.000000 0.062943
#
#
# Mechanical properties :
#
#
# Convention : Reuss Voigt Hill
#
# Bulk Modulus (GPa) = 67.30948 67.67065 67.49007
# Shear Modulus (GPa) = 22.29723 25.42985 23.86354
#
# Velocity S-wave (km/s) = 3.34191 3.56895 3.45729
# Velocity P-wave (km/s) = 6.97176 7.13291 7.05280
#
# Compressibility (1/GPa) = 0.01485675
#
# Stress axis : x y z
#
# Youngs Moduli (GPa) = 83.44445 93.55537 75.92503
#
# Poissons Ratio (x) = 0.19990 0.31136
# Poissons Ratio (y) = 0.17830 0.32313
# Poissons Ratio (z) = 0.34220 0.39816
#
# Static dielectric constant tensor:
#      x y z
#    x 3.846250 0.000000 0.000000 
#    y 0.000000 3.568870 0.000000 
#    z 0.000000 0.000000 3.617180 
# 
# 
# High freq. dielectric constant tensor:
#      x y z
#    x 1.793760 0.000000 0.000000 
#    y 0.000000 1.773740 0.000000 
#    z 0.000000 0.000000 1.779340 
# 
# From -- ./inp_files/6576.got.cif
#   From: 2010.03.12/outbox.cif.g09.slc.cpg/sg55_4_cif.got.tgz:6576.got - 2010.04.16 15:19:21.
