data_PCOD8227568
_publ_section_title
;
Structure prediction by ZEFSAII (Michael W. Deem and Ramdas Pophale) SiO2 
 PCOD8227568
Probable space group: P B A M
;
_chemical_formula_sum "Si O2"
_cell_formula_units_Z 56
_cell_length_a 9.069138
_cell_length_b 15.322046
_cell_length_c 19.286827
_cell_angle_alpha 90.000000
_cell_angle_beta 90.000000
_cell_angle_gamma 90.000000
_cell_volume 2680.054077
_symmetry_space_group_name_H-M "P B A M"
_symmetry_group_IT_number 55
_symmetry_cell_setting 'orthorhombic'
loop_
_space_group_symop_operation_xyz
x,y,z
-x,-y,z
1/2+x,1/2-y,-z
1/2-x,1/2+y,-z
-x,-y,-z
x,y,-z
1/2-x,1/2+y,z
1/2+x,1/2-y,z
loop_
_atom_site_type_symbol
_atom_site_label
_atom_site_fract_x
_atom_site_fract_y
_atom_site_fract_z
Si Si1 0.852107 0.829903 0.076030
Si Si2 0.129093 0.448126 0.794330
Si Si3 0.172969 0.016098 0.422128
Si Si4 0.606743 0.323566 0.664518
Si Si5 0.012161 0.648890 0.922557
Si Si6 0.614027 0.429170 0.203004
Si Si7 0.262079 0.354617 0.667649
O O1 0.679854 0.826542 0.096606
O O2 0.945314 0.885573 0.132351
O O3 0.911936 0.733484 0.077176
O O4 0.875441 0.871996 0.000000
O O5 0.241451 0.520590 0.820044
O O6 0.211984 0.377842 0.745913
O O7 0.000000 0.500000 0.752364
O O8 0.057856 0.411756 0.864311
O O9 0.236890 0.018142 0.500000
O O10 0.192144 0.110653 0.387143
O O11 0.260294 0.940076 0.380609
O O12 0.000000 0.000000 0.422179
O O13 0.650936 0.353735 0.741722
O O14 0.430214 0.324208 0.661154
O O15 0.660836 0.226659 0.644815
O O16 0.004846 0.606231 0.000000
O O17 0.500000 0.500000 0.235580
#
# Coordination Sequence:
#
# PCOD8227568 Si02
#       7
#     8   8   8   8   8   8   8
#     4  10  23  41  59  84 118 160 210 264 320 383
#     4  12  24  39  63  90 121 165 211 267 321 377
#     4   9  19  41  67  93 130 170 208 251 304 368
#     4  11  23  41  64  94 129 168 209 259 313 373
#     4  10  23  41  59  83 118 160 210 264 323 384
#     4  12  23  40  62  87 125 160 209 264 317 382
#     4  11  24  40  65  96 129 167 211 259 314 375
#
# _framework density 20.895099999999999
#
# number of rings (size 3 to 8) (size 9 to 14) (size 15 to 20)
#    0.000    1.286    4.286    1.286    4.000    4.000 
#    0.000    0.000    0.000    3.000    0.000    0.000 
#    0.000    0.000    0.000    0.000    0.000    0.000 
#
# Total GULP energy -694099.173438 kJ/mol
# GULP energy per Si atom -12394.628097 kJ/mol
# Density = 2.084754 g / cm^3
# Si number density = 20.895100 Si / 1000 Ang^3
#
#
#
# Elastic Constant Matrix: (Units=GPa)
#
#
# Indices 1 2 3 4 5 6 
#
# 1 63.3508 34.6265 20.4741 0.0000 0.0000 0.0000
# 2 34.6265 105.0474 46.1890 0.0000 0.0000 0.0000
# 3 20.4741 46.1890 124.5220 0.0000 0.0000 0.0000
# 4 0.0000 0.0000 0.0000 65.3053 0.0000 0.0000
# 5 0.0000 0.0000 0.0000 0.0000 -1.6035 0.0000
# 6 0.0000 0.0000 0.0000 0.0000 0.0000 42.9832
#
#
#
# Elastic Compliance Matrix: (Units=1/GPa)
#
#
# Indices 1 2 3 4 5 6 
#
# 1 0.019353 -0.005951 -0.000975 0.000000 0.000000 0.000000
# 2 -0.005951 0.013204 -0.003920 0.000000 0.000000 0.000000
# 3 -0.000975 -0.003920 0.009645 0.000000 0.000000 0.000000
# 4 0.000000 0.000000 0.000000 0.015313 0.000000 0.000000
# 5 0.000000 0.000000 0.000000 0.000000 -0.623619 0.000000
# 6 0.000000 0.000000 0.000000 0.000000 0.000000 0.023265
#
#
# Mechanical properties :
#
#
# Convention : Reuss Voigt Hill
#
# Bulk Modulus (GPa) = 48.75142 55.05549 51.90345
# Shear Modulus (GPa) = -9.72171 34.11236 12.19533
#
# Velocity S-wave (km/s) = -2.15933 4.04487 2.41850
# Velocity P-wave (km/s) = 4.14309 6.94409 5.71776
#
# Compressibility (1/GPa) = 0.02051222
#
# Stress axis : x y z
#
# Youngs Moduli (GPa) = 51.67253 75.73248 103.68236
#
# Poissons Ratio (x) = 0.45065 0.10106
# Poissons Ratio (y) = 0.30748 0.40638
# Poissons Ratio (z) = 0.05037 0.29683
#
# Static dielectric constant tensor:
#      x y z
#    x 3.942940 0.000000 0.000000 
#    y 0.000000 3.819290 0.000000 
#    z 0.000000 0.000000 3.945590 
# 
# 
# High freq. dielectric constant tensor:
#      x y z
#    x 1.811130 0.000000 0.000000 
#    y 0.000000 1.821890 0.000000 
#    z 0.000000 0.000000 1.815340 
# 
# From -- ./inp_files/22625.got.cif
#   From: 2010.03.12/outbox.cif.g09.slc.cpg/sg55_12_cif.got.tgz:22625.got - 2010.04.16 15:19:21.
