data_PCOD8227954
_publ_section_title
;
Structure prediction by ZEFSAII (Michael W. Deem and Ramdas Pophale) SiO2 
 PCOD8227954
Probable space group: P C C N
;
_chemical_formula_sum "Si O2"
_cell_formula_units_Z 64
_cell_length_a 22.306797
_cell_length_b 18.310952
_cell_length_c 9.556912
_cell_angle_alpha 90.000000
_cell_angle_beta 90.000000
_cell_angle_gamma 90.000000
_cell_volume 3903.603748
_symmetry_space_group_name_H-M "P C C N"
_symmetry_group_IT_number 56
_symmetry_cell_setting 'orthorhombic'
loop_
_space_group_symop_operation_xyz
x,y,z
1/2-x,1/2-y,z
1/2+x,-y,1/2-z
-x,1/2+y,1/2-z
-x,-y,-z
1/2+x,1/2+y,-z
1/2-x,y,1/2+z
x,1/2-y,1/2+z
loop_
_atom_site_type_symbol
_atom_site_label
_atom_site_fract_x
_atom_site_fract_y
_atom_site_fract_z
Si Si1 0.129898 0.748425 0.895137
Si Si2 0.577848 0.476488 0.582086
Si Si3 0.997394 0.099983 0.357210
Si Si4 0.806064 0.399935 0.039193
Si Si5 0.431008 0.963090 0.381086
Si Si6 0.484693 0.586836 0.154544
Si Si7 0.310985 0.606436 0.792096
Si Si8 0.545489 0.243550 0.355604
O O1 0.167619 0.674206 0.894856
O O2 0.173044 0.812646 0.843906
O O3 0.070441 0.746243 0.801123
O O4 0.105159 0.762698 0.050374
O O5 0.554279 0.446413 0.434404
O O6 0.561536 0.562554 0.605540
O O7 0.649180 0.466365 0.578625
O O8 0.545279 0.425929 0.695778
O O9 0.980053 0.089461 0.194766
O O10 0.995058 0.185723 0.394109
O O11 0.745121 0.420524 0.117415
O O12 0.795972 0.392704 0.872727
O O13 0.436152 0.944276 0.544311
O O14 0.364409 0.950134 0.324334
O O15 0.450780 0.047208 0.356489
O O16 0.496467 0.672664 0.129630
#
# Coordination Sequence:
#
# PCOD8227954 Si02
#       8
#     8   8   8   8   8   8   8   8
#     4  12  21  34  50  72 108 135 172 208 243 296
#     4  10  19  34  51  74  96 133 176 209 256 300
#     4  10  18  33  54  70 102 132 165 216 257 298
#     4  12  25  37  50  73 100 144 179 211 249 297
#     4  10  19  36  47  74 102 134 164 218 251 291
#     4  10  20  29  56  74 100 132 169 203 262 305
#     4  12  25  37  51  69 106 140 179 213 246 295
#     4  12  18  32  53  80 101 136 167 206 253 314
#
# _framework density 16.395106999999999
#
# number of rings (size 3 to 8) (size 9 to 14) (size 15 to 20)
#    0.000    1.000    7.500    0.375    3.500    1.000 
#    0.000    0.000    0.000    0.000    0.000    0.875 
#    0.000    2.000    0.000    0.000    0.000    0.000 
#
# Total GULP energy -793465.687822 kJ/mol
# GULP energy per Si atom -12397.901372 kJ/mol
# Density = 1.635779 g / cm^3
# Si number density = 16.395107 Si / 1000 Ang^3
#
#
#
# Elastic Constant Matrix: (Units=GPa)
#
#
# Indices 1 2 3 4 5 6 
#
# 1 95.6506 57.4141 29.6027 0.0000 0.0000 0.0000
# 2 57.4141 98.4847 23.1677 0.0000 0.0000 0.0000
# 3 29.6027 23.1677 63.3459 0.0000 0.0000 0.0000
# 4 0.0000 0.0000 0.0000 17.3861 0.0000 0.0000
# 5 0.0000 0.0000 0.0000 0.0000 24.6987 0.0000
# 6 0.0000 0.0000 0.0000 0.0000 0.0000 27.6134
#
#
#
# Elastic Compliance Matrix: (Units=1/GPa)
#
#
# Indices 1 2 3 4 5 6 
#
# 1 0.017330 -0.008969 -0.004818 0.000000 0.000000 0.000000
# 2 -0.008969 0.015752 -0.001569 0.000000 0.000000 0.000000
# 3 -0.004818 -0.001569 0.018612 0.000000 0.000000 0.000000
# 4 0.000000 0.000000 0.000000 0.057517 0.000000 0.000000
# 5 0.000000 0.000000 0.000000 0.000000 0.040488 0.000000
# 6 0.000000 0.000000 0.000000 0.000000 0.000000 0.036214
#
#
# Mechanical properties :
#
#
# Convention : Reuss Voigt Hill
#
# Bulk Modulus (GPa) = 47.66499 53.09447 50.37973
# Shear Modulus (GPa) = 22.35932 23.75941 23.05936
#
# Velocity S-wave (km/s) = 3.69695 3.81094 3.75437
# Velocity P-wave (km/s) = 6.88179 7.19854 7.04194
#
# Compressibility (1/GPa) = 0.02097976
#
# Stress axis : x y z
#
# Youngs Moduli (GPa) = 57.70433 63.48401 53.72894
#
# Poissons Ratio (x) = 0.56941 0.25887
# Poissons Ratio (y) = 0.51757 0.08433
# Poissons Ratio (z) = 0.27803 0.09964
#
# Static dielectric constant tensor:
#      x y z
#    x 2.915830 0.000000 0.000000 
#    y 0.000000 3.159620 0.000000 
#    z 0.000000 0.000000 3.315290 
# 
# 
# High freq. dielectric constant tensor:
#      x y z
#    x 1.592710 0.000000 0.000000 
#    y 0.000000 1.614310 0.000000 
#    z 0.000000 0.000000 1.659170 
# 
# From -- ./inp_files/4571.got.cif
#   From: 2010.03.12/outbox.cif.g09.slc.cpg/sg56_3_cif.got.tgz:4571.got - 2010.04.16 15:33:40.
