data_PCOD8227494
_publ_section_title
;
Structure prediction by ZEFSAII (Michael W. Deem and Ramdas Pophale) SiO2 
 PCOD8227494
Probable space group: P B A M
;
_chemical_formula_sum "Si O2"
_cell_formula_units_Z 48
_cell_length_a 10.455367
_cell_length_b 27.839305
_cell_length_c 7.962933
_cell_angle_alpha 90.000000
_cell_angle_beta 90.000000
_cell_angle_gamma 90.000000
_cell_volume 2317.772109
_symmetry_space_group_name_H-M "P B A M"
_symmetry_group_IT_number 55
_symmetry_cell_setting 'orthorhombic'
loop_
_space_group_symop_operation_xyz
x,y,z
-x,-y,z
1/2+x,1/2-y,-z
1/2-x,1/2+y,-z
-x,-y,-z
x,y,-z
1/2-x,1/2+y,z
1/2+x,1/2-y,z
loop_
_atom_site_type_symbol
_atom_site_label
_atom_site_fract_x
_atom_site_fract_y
_atom_site_fract_z
Si Si1 0.470942 0.896798 0.193497
Si Si2 0.001075 0.942950 0.818687
Si Si3 0.038488 0.290723 0.298385
Si Si4 0.758433 0.882473 0.808275
Si Si5 0.745984 0.779912 0.690725
Si Si6 0.886448 0.039169 0.500000
Si Si7 0.393754 0.959869 0.500000
O O1 0.428399 0.841924 0.217778
O O2 0.620325 0.903536 0.238743
O O3 0.397895 0.929224 0.328692
O O4 0.441996 0.912745 0.000000
O O5 0.096407 0.927841 0.667664
O O6 0.859929 0.924287 0.772305
O O7 0.045657 0.921530 0.000000
O O8 0.000000 0.000000 0.832529
O O9 0.035823 0.294947 0.500000
O O10 0.897280 0.273944 0.232344
O O11 0.145985 0.254239 0.226055
O O12 0.791303 0.835188 0.701221
O O13 0.758920 0.865365 0.000000
O O14 0.740092 0.763494 0.500000
O O15 0.746511 0.015550 0.500000
O O16 0.000000 0.000000 0.500000
O O17 0.500000 0.000000 0.500000
#
# Coordination Sequence:
#
# PCOD8227494 Si02
#       7
#     8   8   8   8   8   4   4
#     4  10  22  41  66  91 126 165 204 256 313 368
#     4   9  19  36  59  85 120 156 198 253 305 359
#     4   9  17  36  57  86 122 162 203 251 303 362
#     4   9  19  35  59  91 118 159 209 251 305 373
#     4   9  18  31  55  83 116 159 201 247 300 357
#     4  10  24  42  62  91 115 157 201 243 309 365
#     4  12  28  44  66  95 123 159 211 261 304 379
#
# _framework density 20.709544000000001
#
# number of rings (size 3 to 8) (size 9 to 14) (size 15 to 20)
#    0.000    2.500    0.833    0.000    7.000    1.667 
#    3.000    0.000    0.000    0.000    0.000    0.000 
#    0.000    0.000    0.000    0.000    0.000    0.000 
#
# Total GULP energy -594762.177699 kJ/mol
# GULP energy per Si atom -12390.878702 kJ/mol
# Density = 2.066241 g / cm^3
# Si number density = 20.709544 Si / 1000 Ang^3
#
#
#
# Elastic Constant Matrix: (Units=GPa)
#
#
# Indices 1 2 3 4 5 6 
#
# 1 131.8676 60.1970 40.2932 0.0000 0.0000 0.0000
# 2 60.1970 79.8341 20.6298 0.0000 0.0000 0.0000
# 3 40.2932 20.6298 110.2362 0.0000 0.0000 0.0000
# 4 0.0000 0.0000 0.0000 8.5240 0.0000 0.0000
# 5 0.0000 0.0000 0.0000 0.0000 11.2403 0.0000
# 6 0.0000 0.0000 0.0000 0.0000 0.0000 40.0504
#
#
#
# Elastic Compliance Matrix: (Units=1/GPa)
#
#
# Indices 1 2 3 4 5 6 
#
# 1 0.012400 -0.008594 -0.002924 0.000000 0.000000 0.000000
# 2 -0.008594 0.019119 -0.000437 0.000000 0.000000 0.000000
# 3 -0.002924 -0.000437 0.010222 0.000000 0.000000 0.000000
# 4 0.000000 0.000000 0.000000 0.117316 0.000000 0.000000
# 5 0.000000 0.000000 0.000000 0.000000 0.088966 0.000000
# 6 0.000000 0.000000 0.000000 0.000000 0.000000 0.024969
#
#
# Mechanical properties :
#
#
# Convention : Reuss Voigt Hill
#
# Bulk Modulus (GPa) = 56.08186 62.68644 59.38415
# Shear Modulus (GPa) = 16.51010 25.35080 20.93045
#
# Velocity S-wave (km/s) = 2.82657 3.50253 3.18255
# Velocity P-wave (km/s) = 6.14749 6.83315 6.49937
#
# Compressibility (1/GPa) = 0.01783108
#
# Stress axis : x y z
#
# Youngs Moduli (GPa) = 80.64407 52.30337 97.82882
#
# Poissons Ratio (x) = 0.44952 0.28606
# Poissons Ratio (y) = 0.69309 0.04271
# Poissons Ratio (z) = 0.23581 0.02284
#
# Static dielectric constant tensor:
#      x y z
#    x 3.846500 0.000000 0.000000 
#    y 0.000000 3.371300 0.000000 
#    z 0.000000 0.000000 5.114960 
# 
# 
# High freq. dielectric constant tensor:
#      x y z
#    x 1.806080 0.000000 0.000000 
#    y 0.000000 1.781100 0.000000 
#    z 0.000000 0.000000 1.819730 
# 
# From -- ./inp_files/2940.got.cif
#   From: 2010.03.12/outbox.cif.g09.slc.cpg/sg55_2_cif.got.tgz:2940.got - 2010.04.16 15:19:21.
