data_PCOD8227181
_publ_section_title
;
Structure prediction by ZEFSAII (Michael W. Deem and Ramdas Pophale) SiO2 
 PCOD8227181
Probable space group: P B A M
;
_chemical_formula_sum "Si O2"
_cell_formula_units_Z 64
_cell_length_a 9.529832
_cell_length_b 14.463295
_cell_length_c 21.964977
_cell_angle_alpha 90.000000
_cell_angle_beta 90.000000
_cell_angle_gamma 90.000000
_cell_volume 3027.493656
_symmetry_space_group_name_H-M "P B A M"
_symmetry_group_IT_number 55
_symmetry_cell_setting 'orthorhombic'
loop_
_space_group_symop_operation_xyz
x,y,z
-x,-y,z
1/2+x,1/2-y,-z
1/2-x,1/2+y,-z
-x,-y,-z
x,y,-z
1/2-x,1/2+y,z
1/2+x,1/2-y,z
loop_
_atom_site_type_symbol
_atom_site_label
_atom_site_fract_x
_atom_site_fract_y
_atom_site_fract_z
Si Si1 0.781421 0.365624 0.568204
Si Si2 0.863240 0.701517 0.845261
Si Si3 0.787139 0.065457 0.929950
Si Si4 0.864847 0.296097 0.767227
Si Si5 0.082058 0.870750 0.313163
Si Si6 0.279489 0.550902 0.306524
Si Si7 0.599157 0.369402 0.068895
Si Si8 0.483131 0.294042 0.566782
O O1 0.776550 0.411741 0.500000
O O2 0.771495 0.439178 0.623269
O O3 0.651795 0.293379 0.575330
O O4 0.926343 0.309906 0.576000
O O5 0.821857 0.608656 0.881952
O O6 0.758345 0.730795 0.792290
O O7 0.851703 0.784714 0.892027
O O8 0.017531 0.686436 0.818093
O O9 0.933780 0.118024 0.923460
O O10 0.812902 0.959400 0.910693
O O11 0.732668 0.072293 0.000000
O O12 0.915273 0.233546 0.711287
O O13 0.821806 0.396669 0.741087
O O14 0.088309 0.865018 0.386307
O O15 0.932543 0.909496 0.293178
O O16 0.207968 0.940402 0.292188
O O17 0.637547 0.346126 0.000000
O O18 0.441523 0.330856 0.500000
#
# Coordination Sequence:
#
# PCOD8227181 Si02
#       8
#     8   8   8   8   8   8   8   8
#     4   9  17  31  57  86 114 148 196 256 315 376
#     4  12  23  40  64  92 128 166 208 256 299 362
#     4   9  19  39  67  98 127 161 204 251 306 366
#     4  12  24  40  60  88 124 166 215 252 300 367
#     4  10  21  39  61  84 120 160 206 258 313 375
#     4  10  21  39  61  86 117 163 206 255 317 370
#     4   9  19  39  67  96 126 161 204 251 309 371
#     4   9  17  31  57  86 113 149 195 256 318 376
#
# _framework density 21.139596999999998
#
# number of rings (size 3 to 8) (size 9 to 14) (size 15 to 20)
#    0.000    2.000    3.750    1.125    0.000    1.500 
#    0.000    5.000    0.000    1.500    0.000    3.500 
#    0.000    0.000    0.000    0.000    0.000    0.000 
#
# Total GULP energy -793170.735002 kJ/mol
# GULP energy per Si atom -12393.292734 kJ/mol
# Density = 2.109148 g / cm^3
# Si number density = 21.139597 Si / 1000 Ang^3
#
#
#
# Elastic Constant Matrix: (Units=GPa)
#
#
# Indices 1 2 3 4 5 6 
#
# 1 50.3845 25.3387 26.9356 0.0000 0.0000 0.0000
# 2 25.3387 81.6988 43.9487 0.0000 0.0000 0.0000
# 3 26.9356 43.9487 87.8037 0.0000 0.0000 0.0000
# 4 0.0000 0.0000 0.0000 30.1059 0.0000 0.0000
# 5 0.0000 0.0000 0.0000 0.0000 26.2450 0.0000
# 6 0.0000 0.0000 0.0000 0.0000 0.0000 29.6073
#
#
#
# Elastic Compliance Matrix: (Units=1/GPa)
#
#
# Indices 1 2 3 4 5 6 
#
# 1 0.025147 -0.004994 -0.005215 0.000000 0.000000 0.000000
# 2 -0.004994 0.017742 -0.007348 0.000000 0.000000 0.000000
# 3 -0.005215 -0.007348 0.016667 0.000000 0.000000 0.000000
# 4 0.000000 0.000000 0.000000 0.033216 0.000000 0.000000
# 5 0.000000 0.000000 0.000000 0.000000 0.038103 0.000000
# 6 0.000000 0.000000 0.000000 0.000000 0.000000 0.033775
#
#
# Mechanical properties :
#
#
# Convention : Reuss Voigt Hill
#
# Bulk Modulus (GPa) = 40.91427 45.81479 43.36453
# Shear Modulus (GPa) = 24.04880 25.43590 24.74235
#
# Velocity S-wave (km/s) = 3.37652 3.47253 3.42486
# Velocity P-wave (km/s) = 5.88197 6.14797 6.01644
#
# Compressibility (1/GPa) = 0.02444135
#
# Stress axis : x y z
#
# Youngs Moduli (GPa) = 39.76675 56.36364 59.99945
#
# Poissons Ratio (x) = 0.28148 0.31287
# Poissons Ratio (y) = 0.19860 0.44090
# Poissons Ratio (z) = 0.20737 0.41418
#
# Static dielectric constant tensor:
#      x y z
#    x 3.705290 0.000000 0.000000 
#    y 0.000000 3.658630 0.000000 
#    z 0.000000 0.000000 4.021980 
# 
# 
# High freq. dielectric constant tensor:
#      x y z
#    x 1.812290 0.000000 0.000000 
#    y 0.000000 1.808350 0.000000 
#    z 0.000000 0.000000 1.842220 
# 
# From -- ./inp_files/23488.got.cif
#   From: 2010.03.12/outbox.cif.g09.slc.cpg/sg55_12_cif.got.tgz:23488.got - 2010.04.16 15:19:21.
