data_PCOD8227545
_publ_section_title
;
Structure prediction by ZEFSAII (Michael W. Deem and Ramdas Pophale) SiO2 
 PCOD8227545
Probable space group: P B A M
;
_chemical_formula_sum "Si O2"
_cell_formula_units_Z 64
_cell_length_a 9.115284
_cell_length_b 18.412388
_cell_length_c 18.373551
_cell_angle_alpha 90.000000
_cell_angle_beta 90.000000
_cell_angle_gamma 90.000000
_cell_volume 3083.709236
_symmetry_space_group_name_H-M "P B A M"
_symmetry_group_IT_number 55
_symmetry_cell_setting 'orthorhombic'
loop_
_space_group_symop_operation_xyz
x,y,z
-x,-y,z
1/2+x,1/2-y,-z
1/2-x,1/2+y,-z
-x,-y,-z
x,y,-z
1/2-x,1/2+y,z
1/2+x,1/2-y,z
loop_
_atom_site_type_symbol
_atom_site_label
_atom_site_fract_x
_atom_site_fract_y
_atom_site_fract_z
Si Si1 0.256381 0.678664 0.286835
Si Si2 0.328590 0.013625 0.298874
Si Si3 0.865647 0.053217 0.584626
Si Si4 0.013488 0.085254 0.919168
Si Si5 0.417487 0.825420 0.920088
Si Si6 0.741520 0.815207 0.120608
Si Si7 0.232831 0.898397 0.806524
Si Si8 0.595217 0.686964 0.321166
O O1 0.212647 0.597238 0.307315
O O2 0.207080 0.695517 0.205164
O O3 0.429074 0.692488 0.293894
O O4 0.162056 0.733233 0.338704
O O5 0.500000 0.000000 0.290090
O O6 0.276702 0.973801 0.372165
O O7 0.247795 0.979344 0.227422
O O8 0.827985 0.051889 0.500000
O O9 0.904171 0.135660 0.607721
O O10 0.000000 0.000000 0.604375
O O11 0.900384 0.116170 0.861045
O O12 0.175979 0.108622 0.894342
O O13 0.978302 0.115476 0.000000
O O14 0.000000 0.000000 0.918532
O O15 0.344334 0.747787 0.909220
O O16 0.590867 0.814830 0.922420
O O17 0.377319 0.879628 0.853688
O O18 0.371640 0.856547 0.000000
O O19 0.205755 0.844593 0.739562
#
# Coordination Sequence:
#
# PCOD8227545 Si02
#       8
#     8   8   8   8   8   8   8   8
#     4  12  23  42  66 100 133 171 224 280 333 388
#     4  11  25  42  71 102 137 176 223 275 330 400
#     4  10  22  46  74 103 141 181 220 262 325 395
#     4  11  23  39  59  84 117 163 220 278 339 404
#     4  12  24  39  60  90 128 173 220 277 344 404
#     4  12  23  40  60  90 127 170 219 280 336 406
#     4  11  23  41  61  93 124 172 222 280 333 393
#     4  11  24  40  68 100 131 173 222 273 328 392
#
# _framework density 20.754225999999999
#
# number of rings (size 3 to 8) (size 9 to 14) (size 15 to 20)
#    0.000    0.750    3.750    4.500    3.500    0.250 
#    0.000    1.250    0.000    3.750    0.000    0.000 
#    0.000    0.000    0.000    0.000    0.000    0.000 
#
# Total GULP energy -793681.132984 kJ/mol
# GULP energy per Si atom -12401.267703 kJ/mol
# Density = 2.070699 g / cm^3
# Si number density = 20.754226 Si / 1000 Ang^3
#
#
#
# Elastic Constant Matrix: (Units=GPa)
#
#
# Indices 1 2 3 4 5 6 
#
# 1 109.5637 38.3997 30.4389 0.0000 0.0000 0.0000
# 2 38.3997 130.3872 35.0179 0.0000 0.0000 0.0000
# 3 30.4389 35.0179 104.5575 0.0000 0.0000 0.0000
# 4 0.0000 0.0000 0.0000 23.4006 0.0000 0.0000
# 5 0.0000 0.0000 0.0000 0.0000 45.8671 0.0000
# 6 0.0000 0.0000 0.0000 0.0000 0.0000 32.8965
#
#
#
# Elastic Compliance Matrix: (Units=1/GPa)
#
#
# Indices 1 2 3 4 5 6 
#
# 1 0.010639 -0.002529 -0.002250 0.000000 0.000000 0.000000
# 2 -0.002529 0.009029 -0.002288 0.000000 0.000000 0.000000
# 3 -0.002250 -0.002288 0.010985 0.000000 0.000000 0.000000
# 4 0.000000 0.000000 0.000000 0.042734 0.000000 0.000000
# 5 0.000000 0.000000 0.000000 0.000000 0.021802 0.000000
# 6 0.000000 0.000000 0.000000 0.000000 0.000000 0.030398
#
#
# Mechanical properties :
#
#
# Convention : Reuss Voigt Hill
#
# Bulk Modulus (GPa) = 60.53523 61.35793 60.94658
# Shear Modulus (GPa) = 34.42897 36.47630 35.45264
#
# Velocity S-wave (km/s) = 4.07737 4.19685 4.13754
# Velocity P-wave (km/s) = 7.16921 7.28786 7.22878
#
# Compressibility (1/GPa) = 0.01651931
#
# Stress axis : x y z
#
# Youngs Moduli (GPa) = 93.99789 110.75928 91.03025
#
# Poissons Ratio (x) = 0.28008 0.20483
# Poissons Ratio (y) = 0.23770 0.20824
# Poissons Ratio (z) = 0.21151 0.25338
#
# Static dielectric constant tensor:
#      x y z
#    x 3.933760 0.000000 0.000000 
#    y 0.000000 3.890240 0.000000 
#    z 0.000000 0.000000 3.717810 
# 
# 
# High freq. dielectric constant tensor:
#      x y z
#    x 1.817350 0.000000 0.000000 
#    y 0.000000 1.816880 0.000000 
#    z 0.000000 0.000000 1.800690 
# 
# From -- ./inp_files/21089.got.cif
#   From: 2010.03.12/outbox.cif.g09.slc.cpg/sg55_11_cif.got.tgz:21089.got - 2010.04.16 15:19:21.
