data_PCOD8227704
_publ_section_title
;
Structure prediction by ZEFSAII (Michael W. Deem and Ramdas Pophale) SiO2 
 PCOD8227704
Probable space group: P B A M
;
_chemical_formula_sum "Si O2"
_cell_formula_units_Z 48
_cell_length_a 20.050766
_cell_length_b 14.316161
_cell_length_c 8.435533
_cell_angle_alpha 90.000000
_cell_angle_beta 90.000000
_cell_angle_gamma 90.000000
_cell_volume 2421.419699
_symmetry_space_group_name_H-M "P B A M"
_symmetry_group_IT_number 55
_symmetry_cell_setting 'orthorhombic'
loop_
_space_group_symop_operation_xyz
x,y,z
-x,-y,z
1/2+x,1/2-y,-z
1/2-x,1/2+y,-z
-x,-y,-z
x,y,-z
1/2-x,1/2+y,z
1/2+x,1/2-y,z
loop_
_atom_site_type_symbol
_atom_site_label
_atom_site_fract_x
_atom_site_fract_y
_atom_site_fract_z
Si Si1 0.579391 0.315913 0.318092
Si Si2 0.232805 0.485880 0.683732
Si Si3 0.438984 0.299219 0.183681
Si Si4 0.122267 0.995263 0.184328
Si Si5 0.700035 0.207352 0.815564
Si Si6 0.324818 0.183334 0.317704
O O1 0.597967 0.297019 0.500000
O O2 0.505278 0.279503 0.283732
O O3 0.583241 0.425984 0.281825
O O4 0.630695 0.260532 0.207501
O O5 0.252816 0.477224 0.500000
O O6 0.299235 0.499739 0.785355
O O7 0.192864 0.395543 0.742294
O O8 0.184676 0.573598 0.713341
O O9 0.405330 0.395576 0.240870
O O10 0.387170 0.215778 0.213049
O O11 0.458106 0.303463 0.000000
O O12 0.108307 0.012287 0.000000
O O13 0.758198 0.262177 0.727544
O O14 0.717783 0.200797 0.000000
O O15 0.340746 0.204749 0.500000
#
# Coordination Sequence:
#
# PCOD8227704 Si02
#       6
#     8   8   8   8   8   8
#     4  12  25  41  62  90 126 167 209 258 312 371
#     4  11  23  39  63  94 127 161 207 257 307 363
#     4  11  24  41  62  91 127 166 206 255 311 372
#     4  11  22  37  61  93 129 164 204 253 311 371
#     4  12  24  40  64  91 124 164 208 258 308 367
#     4  11  23  40  64  92 124 163 206 254 306 367
#
# _framework density 19.823080999999998
#
# number of rings (size 3 to 8) (size 9 to 14) (size 15 to 20)
#    0.000    0.667    3.333    5.500    0.000    6.000 
#    0.000    0.833    0.000    5.000    0.000    0.000 
#    0.000    0.000    0.000    0.000    0.000    0.000 
#
# Total GULP energy -595628.049342 kJ/mol
# GULP energy per Si atom -12408.917695 kJ/mol
# Density = 1.977796 g / cm^3
# Si number density = 19.823081 Si / 1000 Ang^3
#
#
#
# Elastic Constant Matrix: (Units=GPa)
#
#
# Indices 1 2 3 4 5 6 
#
# 1 78.0299 10.0886 4.1304 0.0000 0.0000 0.0000
# 2 10.0886 92.1303 25.9949 0.0000 0.0000 0.0000
# 3 4.1304 25.9949 60.1753 0.0000 0.0000 0.0000
# 4 0.0000 0.0000 0.0000 32.2372 0.0000 0.0000
# 5 0.0000 0.0000 0.0000 0.0000 33.3707 0.0000
# 6 0.0000 0.0000 0.0000 0.0000 0.0000 21.4538
#
#
#
# Elastic Compliance Matrix: (Units=1/GPa)
#
#
# Indices 1 2 3 4 5 6 
#
# 1 0.013005 -0.001335 -0.000316 0.000000 0.000000 0.000000
# 2 -0.001335 0.012498 -0.005307 0.000000 0.000000 0.000000
# 3 -0.000316 -0.005307 0.018932 0.000000 0.000000 0.000000
# 4 0.000000 0.000000 0.000000 0.031020 0.000000 0.000000
# 5 0.000000 0.000000 0.000000 0.000000 0.029966 0.000000
# 6 0.000000 0.000000 0.000000 0.000000 0.000000 0.046612
#
#
# Mechanical properties :
#
#
# Convention : Reuss Voigt Hill
#
# Bulk Modulus (GPa) = 32.76660 34.52925 33.64793
# Shear Modulus (GPa) = 28.38928 30.08710 29.23819
#
# Velocity S-wave (km/s) = 3.78846 3.90010 3.84468
# Velocity P-wave (km/s) = 5.97511 6.14309 6.05968
#
# Compressibility (1/GPa) = 0.03051888
#
# Stress axis : x y z
#
# Youngs Moduli (GPa) = 76.89394 80.01392 52.81933
#
# Poissons Ratio (x) = 0.10681 0.01669
# Poissons Ratio (y) = 0.10265 0.28033
# Poissons Ratio (z) = 0.02430 0.42465
#
# Static dielectric constant tensor:
#      x y z
#    x 3.491920 0.000000 0.000000 
#    y 0.000000 3.808270 0.000000 
#    z 0.000000 0.000000 3.694210 
# 
# 
# High freq. dielectric constant tensor:
#      x y z
#    x 1.766870 0.000000 0.000000 
#    y 0.000000 1.775250 0.000000 
#    z 0.000000 0.000000 1.786710 
# 
# From -- ./inp_files/7407.got.cif
#   From: 2010.03.12/outbox.cif.g09.slc.cpg/sg55_4_cif.got.tgz:7407.got - 2010.04.16 15:19:21.
