data_PCOD8227364
_publ_section_title
;
Structure prediction by ZEFSAII (Michael W. Deem and Ramdas Pophale) SiO2 
 PCOD8227364
Probable space group: P B A M
;
_chemical_formula_sum "Si O2"
_cell_formula_units_Z 48
_cell_length_a 12.404012
_cell_length_b 14.451865
_cell_length_c 13.135329
_cell_angle_alpha 90.000000
_cell_angle_beta 90.000000
_cell_angle_gamma 90.000000
_cell_volume 2354.653616
_symmetry_space_group_name_H-M "P B A M"
_symmetry_group_IT_number 55
_symmetry_cell_setting 'orthorhombic'
loop_
_space_group_symop_operation_xyz
x,y,z
-x,-y,z
1/2+x,1/2-y,-z
1/2-x,1/2+y,-z
-x,-y,-z
x,y,-z
1/2-x,1/2+y,z
1/2+x,1/2-y,z
loop_
_atom_site_type_symbol
_atom_site_label
_atom_site_fract_x
_atom_site_fract_y
_atom_site_fract_z
Si Si1 0.287370 0.801168 0.613282
Si Si2 0.555143 0.595418 0.117952
Si Si3 0.567107 0.239986 0.775270
Si Si4 0.626196 0.004439 0.312894
Si Si5 0.191528 0.414703 0.116523
Si Si6 0.596129 0.820803 0.386226
O O1 0.331071 0.781728 0.500000
O O2 0.342353 0.729844 0.693431
O O3 0.161076 0.775813 0.619274
O O4 0.308558 0.907648 0.643207
O O5 0.500000 0.500000 0.153176
O O6 0.496382 0.675272 0.179628
O O7 0.681992 0.599627 0.141001
O O8 0.531970 0.612951 0.000000
O O9 0.623944 0.179518 0.863815
O O10 0.492117 0.174972 0.703853
O O11 0.673058 0.910214 0.363246
O O12 0.500000 0.000000 0.342543
O O13 0.645393 0.005092 0.190239
O O14 0.175382 0.446223 0.000000
O O15 0.545343 0.829591 0.500000
#
# Coordination Sequence:
#
# PCOD8227364 Si02
#       6
#     8   8   8   8   8   8
#     4  10  22  37  58  90 124 159 204 251 301 364
#     4  10  23  43  64  88 125 169 205 248 311 376
#     4  11  20  38  63  90 119 160 205 255 303 357
#     4  11  21  39  64  89 119 164 207 251 311 363
#     4  10  22  40  60  91 125 153 205 256 301 367
#     4  11  23  39  61  90 125 163 203 253 311 366
#
# _framework density 20.385162999999999
#
# number of rings (size 3 to 8) (size 9 to 14) (size 15 to 20)
#    0.000    1.500    3.333    3.500    2.333    1.000 
#    0.000    0.000    0.000    1.000    0.000    0.000 
#    0.000    0.000    0.000    0.000    0.000    0.000 
#
# Total GULP energy -594637.208475 kJ/mol
# GULP energy per Si atom -12388.275177 kJ/mol
# Density = 2.033877 g / cm^3
# Si number density = 20.385163 Si / 1000 Ang^3
#
#
#
# Elastic Constant Matrix: (Units=GPa)
#
#
# Indices 1 2 3 4 5 6 
#
# 1 82.0907 41.5236 33.3012 0.0000 0.0000 0.0000
# 2 41.5236 102.4985 34.0842 0.0000 0.0000 0.0000
# 3 33.3012 34.0842 107.3339 0.0000 0.0000 0.0000
# 4 0.0000 0.0000 0.0000 26.4017 0.0000 0.0000
# 5 0.0000 0.0000 0.0000 0.0000 49.8786 0.0000
# 6 0.0000 0.0000 0.0000 0.0000 0.0000 22.8996
#
#
#
# Elastic Compliance Matrix: (Units=1/GPa)
#
#
# Indices 1 2 3 4 5 6 
#
# 1 0.016310 -0.005506 -0.003312 0.000000 0.000000 0.000000
# 2 -0.005506 0.012767 -0.002346 0.000000 0.000000 0.000000
# 3 -0.003312 -0.002346 0.011089 0.000000 0.000000 0.000000
# 4 0.000000 0.000000 0.000000 0.037876 0.000000 0.000000
# 5 0.000000 0.000000 0.000000 0.000000 0.020049 0.000000
# 6 0.000000 0.000000 0.000000 0.000000 0.000000 0.043669
#
#
# Mechanical properties :
#
#
# Convention : Reuss Voigt Hill
#
# Bulk Modulus (GPa) = 56.05829 56.63790 56.34810
# Shear Modulus (GPa) = 29.40578 32.03691 30.72135
#
# Velocity S-wave (km/s) = 3.80216 3.96862 3.88628
# Velocity P-wave (km/s) = 6.84357 6.98885 6.91659
#
# Compressibility (1/GPa) = 0.01783858
#
# Stress axis : x y z
#
# Youngs Moduli (GPa) = 61.31067 78.32713 90.17790
#
# Poissons Ratio (x) = 0.43129 0.29866
# Poissons Ratio (y) = 0.33759 0.21154
# Poissons Ratio (z) = 0.20305 0.18374
#
# Static dielectric constant tensor:
#      x y z
#    x 3.731960 0.000000 0.000000 
#    y 0.000000 3.717600 0.000000 
#    z 0.000000 0.000000 3.946040 
# 
# 
# High freq. dielectric constant tensor:
#      x y z
#    x 1.793900 0.000000 0.000000 
#    y 0.000000 1.782800 0.000000 
#    z 0.000000 0.000000 1.811600 
# 
# From -- ./inp_files/18274.got.cif
#   From: 2010.03.12/outbox.cif.g09.slc.cpg/sg55_10_cif.got.tgz:18274.got - 2010.04.16 15:19:21.
