data_PCOD8227407
_publ_section_title
;
Structure prediction by ZEFSAII (Michael W. Deem and Ramdas Pophale) SiO2 
 PCOD8227407
Probable space group: P B A M
;
_chemical_formula_sum "Si O2"
_cell_formula_units_Z 32
_cell_length_a 5.036702
_cell_length_b 11.820687
_cell_length_c 23.463075
_cell_angle_alpha 90.000000
_cell_angle_beta 90.000000
_cell_angle_gamma 90.000000
_cell_volume 1396.927616
_symmetry_space_group_name_H-M "P B A M"
_symmetry_group_IT_number 55
_symmetry_cell_setting 'orthorhombic'
loop_
_space_group_symop_operation_xyz
x,y,z
-x,-y,z
1/2+x,1/2-y,-z
1/2-x,1/2+y,-z
-x,-y,-z
x,y,-z
1/2-x,1/2+y,z
1/2+x,1/2-y,z
loop_
_atom_site_type_symbol
_atom_site_label
_atom_site_fract_x
_atom_site_fract_y
_atom_site_fract_z
Si Si1 0.500000 0.000000 0.403552
Si Si2 0.500000 0.500000 0.859290
Si Si3 0.098588 0.672465 0.500000
Si Si4 0.731959 0.176111 0.066013
Si Si5 0.000000 0.000000 0.329480
Si Si6 0.413803 0.673921 0.233831
O O1 0.606804 0.899771 0.442688
O O2 0.749983 0.042473 0.366460
O O3 0.280259 0.438363 0.898518
O O4 0.645020 0.408030 0.819460
O O5 0.349464 0.749314 0.500000
O O6 0.445894 0.226746 0.081596
O O7 0.753603 0.142381 0.000000
O O8 0.111246 0.103722 0.292060
O O9 0.710067 0.723138 0.230929
#
# Coordination Sequence:
#
# PCOD8227407 Si02
#       6
#     4   4   4   8   4   8
#     4  11  24  42  64  96 124 158 211 244 288 364
#     4  11  23  40  63  87 120 159 197 248 304 358
#     4  11  24  41  64  94 130 165 196 245 302 348
#     4  10  22  39  60  88 119 154 198 245 298 361
#     4  11  24  41  65  89 121 162 203 254 296 346
#     4  11  25  42  61  89 121 157 203 250 303 358
#
# _framework density 22.907413999999999
#
# number of rings (size 3 to 8) (size 9 to 14) (size 15 to 20)
#    0.000    1.250    0.000    4.875    0.000   14.000 
#    0.000    3.750    0.000    0.000    0.000    0.000 
#    0.000    0.000    0.000    0.000    0.000    0.000 
#
# Total GULP energy -397014.209171 kJ/mol
# GULP energy per Si atom -12406.694037 kJ/mol
# Density = 2.285528 g / cm^3
# Si number density = 22.907414 Si / 1000 Ang^3
#
#
#
# Elastic Constant Matrix: (Units=GPa)
#
#
# Indices 1 2 3 4 5 6 
#
# 1 95.8822 13.8999 25.8957 0.0000 0.0000 0.0000
# 2 13.8999 101.7853 48.7008 0.0000 0.0000 0.0000
# 3 25.8957 48.7008 123.4559 0.0000 0.0000 0.0000
# 4 0.0000 0.0000 0.0000 -23.9613 0.0000 0.0000
# 5 0.0000 0.0000 0.0000 0.0000 17.4248 0.0000
# 6 0.0000 0.0000 0.0000 0.0000 0.0000 28.1630
#
#
#
# Elastic Compliance Matrix: (Units=1/GPa)
#
#
# Indices 1 2 3 4 5 6 
#
# 1 0.011076 -0.000494 -0.002128 0.000000 0.000000 0.000000
# 2 -0.000494 0.012132 -0.004682 0.000000 0.000000 0.000000
# 3 -0.002128 -0.004682 0.010394 0.000000 0.000000 0.000000
# 4 0.000000 0.000000 0.000000 -0.041734 0.000000 0.000000
# 5 0.000000 0.000000 0.000000 0.000000 0.057390 0.000000
# 6 0.000000 0.000000 0.000000 0.000000 0.000000 0.035508
#
#
# Mechanical properties :
#
#
# Convention : Reuss Voigt Hill
#
# Bulk Modulus (GPa) = 52.65309 55.34623 53.99966
# Shear Modulus (GPa) = 47.30127 19.83377 33.56752
#
# Velocity S-wave (km/s) = 4.54903 2.94568 3.83215
# Velocity P-wave (km/s) = 7.11524 5.98186 6.57303
#
# Compressibility (1/GPa) = 0.01899224
#
# Stress axis : x y z
#
# Youngs Moduli (GPa) = 90.28602 82.42381 96.21347
#
# Poissons Ratio (x) = 0.04074 0.20477
# Poissons Ratio (y) = 0.04462 0.45050
# Poissons Ratio (z) = 0.19215 0.38593
#
# Static dielectric constant tensor:
#      x y z
#    x 3.894490 0.000000 0.000000 
#    y 0.000000 4.125620 0.000000 
#    z 0.000000 0.000000 4.436540 
# 
# 
# High freq. dielectric constant tensor:
#      x y z
#    x 1.905120 0.000000 0.000000 
#    y 0.000000 1.908240 0.000000 
#    z 0.000000 0.000000 1.923960 
# 
# From -- ./inp_files/23224.got.cif
#   From: 2010.03.12/outbox.cif.g09.slc.cpg/sg55_12_cif.got.tgz:23224.got - 2010.04.16 15:19:21.
