data_PCOD8227942
_publ_section_title
;
Structure prediction by ZEFSAII (Michael W. Deem and Ramdas Pophale) SiO2 
 PCOD8227942
Probable space group: P C C N
;
_chemical_formula_sum "Si O2"
_cell_formula_units_Z 64
_cell_length_a 8.948536
_cell_length_b 16.884796
_cell_length_c 19.394984
_cell_angle_alpha 90.000000
_cell_angle_beta 90.000000
_cell_angle_gamma 90.000000
_cell_volume 2930.469686
_symmetry_space_group_name_H-M "P C C N"
_symmetry_group_IT_number 56
_symmetry_cell_setting 'orthorhombic'
loop_
_space_group_symop_operation_xyz
x,y,z
1/2-x,1/2-y,z
1/2+x,-y,1/2-z
-x,1/2+y,1/2-z
-x,-y,-z
1/2+x,1/2+y,-z
1/2-x,y,1/2+z
x,1/2-y,1/2+z
loop_
_atom_site_type_symbol
_atom_site_label
_atom_site_fract_x
_atom_site_fract_y
_atom_site_fract_z
Si Si1 0.125747 0.379653 0.912927
Si Si2 0.558529 0.516966 0.906363
Si Si3 0.263713 0.528536 0.349958
Si Si4 0.409348 0.210035 0.779714
Si Si5 0.563966 0.874812 0.528439
Si Si6 0.979281 0.334665 0.179463
Si Si7 0.578434 0.778741 0.964228
Si Si8 0.764219 0.568750 0.284498
O O1 0.117181 0.473713 0.893601
O O2 0.044655 0.324035 0.855089
O O3 0.303628 0.359674 0.916034
O O4 0.060271 0.358140 0.988714
O O5 0.386914 0.543286 0.892734
O O6 0.564198 0.428130 0.936918
O O7 0.662545 0.510786 0.839962
O O8 0.628238 0.578681 0.960967
O O9 0.329470 0.613411 0.326873
O O10 0.218249 0.479795 0.282396
O O11 0.250000 0.250000 0.787167
O O12 0.525546 0.272687 0.744430
O O13 0.390158 0.135261 0.729112
O O14 0.493503 0.791525 0.505167
O O15 0.999976 0.286717 0.108929
O O16 0.114683 0.394955 0.185390
O O17 0.750000 0.750000 0.955218
#
# Coordination Sequence:
#
# PCOD8227942 Si02
#       8
#     8   8   8   8   8   8   8   8
#     4   9  18  33  54  80 109 141 186 239 280 326
#     4  10  19  35  55  79 113 148 183 232 287 345
#     4  10  22  35  51  80 114 149 181 221 286 347
#     4   9  17  31  53  80 108 141 184 236 280 319
#     4   9  18  32  55  81 106 142 190 238 287 334
#     4  11  21  34  56  84 112 142 183 235 283 332
#     4  10  18  32  54  81 104 134 187 239 276 315
#     4  10  19  34  55  78 108 143 188 230 271 331
#
# _framework density 21.839500999999998
#
# number of rings (size 3 to 8) (size 9 to 14) (size 15 to 20)
#    0.000    2.250    0.000    5.250    0.000    3.500 
#    0.000    2.500    0.000    0.000    0.000    7.000 
#    0.000    0.000    0.000    0.000    0.000    0.000 
#
# Total GULP energy -793116.259474 kJ/mol
# GULP energy per Si atom -12392.441554 kJ/mol
# Density = 2.178979 g / cm^3
# Si number density = 21.839501 Si / 1000 Ang^3
#
#
#
# Elastic Constant Matrix: (Units=GPa)
#
#
# Indices 1 2 3 4 5 6 
#
# 1 34.3597 21.0191 19.9180 0.0000 0.0000 0.0000
# 2 21.0191 65.1479 30.4533 0.0000 0.0000 0.0000
# 3 19.9180 30.4533 89.9961 0.0000 0.0000 0.0000
# 4 0.0000 0.0000 0.0000 39.0571 0.0000 0.0000
# 5 0.0000 0.0000 0.0000 0.0000 18.2902 0.0000
# 6 0.0000 0.0000 0.0000 0.0000 0.0000 25.7152
#
#
#
# Elastic Compliance Matrix: (Units=1/GPa)
#
#
# Indices 1 2 3 4 5 6 
#
# 1 0.038119 -0.009925 -0.005078 0.000000 0.000000 0.000000
# 2 -0.009925 0.020818 -0.004848 0.000000 0.000000 0.000000
# 3 -0.005078 -0.004848 0.013876 0.000000 0.000000 0.000000
# 4 0.000000 0.000000 0.000000 0.025604 0.000000 0.000000
# 5 0.000000 0.000000 0.000000 0.000000 0.054674 0.000000
# 6 0.000000 0.000000 0.000000 0.000000 0.000000 0.038888
#
#
# Mechanical properties :
#
#
# Convention : Reuss Voigt Hill
#
# Bulk Modulus (GPa) = 30.20128 36.92051 33.56089
# Shear Modulus (GPa) = 20.60013 24.48671 22.54342
#
# Velocity S-wave (km/s) = 3.07457 3.35208 3.21632
# Velocity P-wave (km/s) = 5.14420 5.65013 5.40309
#
# Compressibility (1/GPa) = 0.03311118
#
# Stress axis : x y z
#
# Youngs Moduli (GPa) = 26.23362 48.03543 72.06714
#
# Poissons Ratio (x) = 0.47674 0.36596
# Poissons Ratio (y) = 0.26037 0.34938
# Poissons Ratio (z) = 0.13322 0.23287
#
# Static dielectric constant tensor:
#      x y z
#    x 3.276160 0.000000 0.000000 
#    y 0.000000 4.253090 0.000000 
#    z 0.000000 0.000000 4.154840 
# 
# 
# High freq. dielectric constant tensor:
#      x y z
#    x 1.787220 0.000000 0.000000 
#    y 0.000000 1.865590 0.000000 
#    z 0.000000 0.000000 1.875370 
# 
# From -- ./inp_files/18367.got.cif
#   From: 2010.03.12/outbox.cif.g09.slc.cpg/sg56_10_cif.got.tgz:18367.got - 2010.04.16 15:33:40.
