data_PCOD8227085
_publ_section_title
;
Structure prediction by ZEFSAII (Michael W. Deem and Ramdas Pophale) SiO2 
 PCOD8227085
Probable space group: P B A M
;
_chemical_formula_sum "Si O2"
_cell_formula_units_Z 48
_cell_length_a 11.182815
_cell_length_b 18.115987
_cell_length_c 12.102656
_cell_angle_alpha 90.000000
_cell_angle_beta 90.000000
_cell_angle_gamma 90.000000
_cell_volume 2451.849620
_symmetry_space_group_name_H-M "P B A M"
_symmetry_group_IT_number 55
_symmetry_cell_setting 'orthorhombic'
loop_
_space_group_symop_operation_xyz
x,y,z
-x,-y,z
1/2+x,1/2-y,-z
1/2-x,1/2+y,-z
-x,-y,-z
x,y,-z
1/2-x,1/2+y,z
1/2+x,1/2-y,z
loop_
_atom_site_type_symbol
_atom_site_label
_atom_site_fract_x
_atom_site_fract_y
_atom_site_fract_z
Si Si1 0.644410 0.176420 0.759175
Si Si2 0.150189 0.894973 0.625227
Si Si3 0.861634 0.723321 0.000000
Si Si4 0.593917 0.319836 0.624902
Si Si5 0.055244 0.572277 0.193091
Si Si6 0.261222 0.046710 0.623392
Si Si7 0.872719 0.322423 0.000000
O O1 0.766174 0.153349 0.702764
O O2 0.602119 0.255408 0.714224
O O3 0.541757 0.117305 0.735436
O O4 0.667154 0.177028 0.890806
O O5 0.182272 0.873097 0.500000
O O6 0.016722 0.871930 0.655413
O O7 0.162505 0.982756 0.643424
O O8 0.762930 0.789594 0.000000
O O9 0.010534 0.734949 0.000000
O O10 0.583105 0.287676 0.500000
O O11 0.708585 0.371604 0.635185
O O12 0.141063 0.536687 0.283589
O O13 0.121007 0.625737 0.107390
O O14 0.000000 0.500000 0.131756
O O15 0.315630 0.037397 0.500000
#
# Coordination Sequence:
#
# PCOD8227085 Si02
#       7
#     8   8   4   8   8   8   4
#     4  11  23  39  60  88 121 157 199 257 304 364
#     4  10  21  38  59  85 121 161 201 248 302 364
#     4  10  24  40  62  90 122 161 203 257 313 362
#     4  10  22  37  60  88 120 160 204 249 304 366
#     4  11  22  40  60  88 118 159 203 248 302 360
#     4  10  21  38  60  87 123 160 200 248 302 363
#     4  10  23  42  66  90 123 161 205 257 308 367
#
# _framework density 19.577058000000001
#
# number of rings (size 3 to 8) (size 9 to 14) (size 15 to 20)
#    0.000    1.667    1.667    2.250    7.000    3.667 
#    0.000    0.000    0.000    0.000    0.000    7.000 
#    0.000    0.000    0.000    0.000    0.000    0.000 
#
# Total GULP energy -594884.702892 kJ/mol
# GULP energy per Si atom -12393.431310 kJ/mol
# Density = 1.953250 g / cm^3
# Si number density = 19.577058 Si / 1000 Ang^3
#
#
#
# Elastic Constant Matrix: (Units=GPa)
#
#
# Indices 1 2 3 4 5 6 
#
# 1 65.3673 28.6921 33.5618 0.0000 0.0000 0.0000
# 2 28.6921 103.0385 32.7594 0.0000 0.0000 0.0000
# 3 33.5618 32.7594 95.9608 0.0000 0.0000 0.0000
# 4 0.0000 0.0000 0.0000 21.1932 0.0000 0.0000
# 5 0.0000 0.0000 0.0000 0.0000 8.7155 0.0000
# 6 0.0000 0.0000 0.0000 0.0000 0.0000 39.2523
#
#
#
# Elastic Compliance Matrix: (Units=1/GPa)
#
#
# Indices 1 2 3 4 5 6 
#
# 1 0.019843 -0.003723 -0.005669 0.000000 0.000000 0.000000
# 2 -0.003723 0.011585 -0.002653 0.000000 0.000000 0.000000
# 3 -0.005669 -0.002653 0.013309 0.000000 0.000000 0.000000
# 4 0.000000 0.000000 0.000000 0.047185 0.000000 0.000000
# 5 0.000000 0.000000 0.000000 0.000000 0.114738 0.000000
# 6 0.000000 0.000000 0.000000 0.000000 0.000000 0.025476
#
#
# Mechanical properties :
#
#
# Convention : Reuss Voigt Hill
#
# Bulk Modulus (GPa) = 48.43177 50.48815 49.45996
# Shear Modulus (GPa) = 19.00354 25.12242 22.06298
#
# Velocity S-wave (km/s) = 3.11899 3.58615 3.36070
# Velocity P-wave (km/s) = 6.14521 6.55688 6.35438
#
# Compressibility (1/GPa) = 0.02064760
#
# Stress axis : x y z
#
# Youngs Moduli (GPa) = 50.39546 86.31636 75.13553
#
# Poissons Ratio (x) = 0.32137 0.42594
# Poissons Ratio (y) = 0.18763 0.19933
# Poissons Ratio (z) = 0.28569 0.22899
#
# Static dielectric constant tensor:
#      x y z
#    x 3.623160 0.000000 0.000000 
#    y 0.000000 3.623040 0.000000 
#    z 0.000000 0.000000 3.590650 
# 
# 
# High freq. dielectric constant tensor:
#      x y z
#    x 1.760010 0.000000 0.000000 
#    y 0.000000 1.765300 0.000000 
#    z 0.000000 0.000000 1.763850 
# 
# From -- ./inp_files/13244.got.cif
#   From: 2010.03.12/outbox.cif.g09.slc.cpg/sg55_7_cif.got.tgz:13244.got - 2010.04.16 15:19:21.
