data_PCOD8227796
_publ_section_title
;
Structure prediction by ZEFSAII (Michael W. Deem and Ramdas Pophale) SiO2 
 PCOD8227796
Probable space group: P B A M
;
_chemical_formula_sum "Si O2"
_cell_formula_units_Z 40
_cell_length_a 17.083837
_cell_length_b 12.541894
_cell_length_c 8.886047
_cell_angle_alpha 90.000000
_cell_angle_beta 90.000000
_cell_angle_gamma 90.000000
_cell_volume 1903.957067
_symmetry_space_group_name_H-M "P B A M"
_symmetry_group_IT_number 55
_symmetry_cell_setting 'orthorhombic'
loop_
_space_group_symop_operation_xyz
x,y,z
-x,-y,z
1/2+x,1/2-y,-z
1/2-x,1/2+y,-z
-x,-y,-z
x,y,-z
1/2-x,1/2+y,z
1/2+x,1/2-y,z
loop_
_atom_site_type_symbol
_atom_site_label
_atom_site_fract_x
_atom_site_fract_y
_atom_site_fract_z
Si Si1 0.600703 0.898205 0.666162
Si Si2 0.090923 0.990918 0.321534
Si Si3 0.326842 0.288815 0.174525
Si Si4 0.161590 0.196276 0.825431
Si Si5 0.918591 0.629534 0.665480
O O1 0.634566 0.867072 0.500000
O O2 0.627754 0.820881 0.797931
O O3 0.508709 0.894701 0.657776
O O4 0.626525 0.019375 0.707492
O O5 0.091627 0.992629 0.500000
O O6 0.131809 0.882225 0.267885
O O7 0.144815 0.087116 0.262229
O O8 0.000000 0.000000 0.264358
O O9 0.239010 0.260167 0.228565
O O10 0.329583 0.320285 0.000000
O O11 0.092948 0.279512 0.789950
O O12 0.165250 0.167138 0.000000
O O13 0.890153 0.669410 0.500000
#
# Coordination Sequence:
#
# PCOD8227796 Si02
#       5
#     8   8   8   8   8
#     4   9  19  37  61  89 120 155 200 251 300 359
#     4  11  25  45  69  95 124 165 218 267 313 374
#     4  11  25  41  60  90 129 165 203 254 311 371
#     4  11  25  41  60  90 129 165 203 254 311 371
#     4   9  19  37  61  89 120 155 200 251 300 359
#
# _framework density 21.008876000000001
#
# number of rings (size 3 to 8) (size 9 to 14) (size 15 to 20)
#    0.000    1.800    0.000    4.200    2.800   11.200 
#    0.000    2.000    0.000    0.000    0.000    0.000 
#    0.000    0.000    0.000    0.000    0.000    0.000 
#
# Total GULP energy -495738.942592 kJ/mol
# GULP energy per Si atom -12393.473565 kJ/mol
# Density = 2.096106 g / cm^3
# Si number density = 21.008876 Si / 1000 Ang^3
#
#
#
# Elastic Constant Matrix: (Units=GPa)
#
#
# Indices 1 2 3 4 5 6 
#
# 1 48.9869 5.7690 33.2875 0.0000 0.0000 0.0000
# 2 5.7690 76.7677 34.5047 0.0000 0.0000 0.0000
# 3 33.2875 34.5047 67.8024 0.0000 0.0000 0.0000
# 4 0.0000 0.0000 0.0000 -43.9944 0.0000 0.0000
# 5 0.0000 0.0000 0.0000 0.0000 3.8186 0.0000
# 6 0.0000 0.0000 0.0000 0.0000 0.0000 33.3379
#
#
#
# Elastic Compliance Matrix: (Units=1/GPa)
#
#
# Indices 1 2 3 4 5 6 
#
# 1 0.032747 0.006179 -0.019222 0.000000 0.000000 0.000000
# 2 0.006179 0.018055 -0.012222 0.000000 0.000000 0.000000
# 3 -0.019222 -0.012222 0.030405 0.000000 0.000000 0.000000
# 4 0.000000 0.000000 0.000000 -0.022730 0.000000 0.000000
# 5 0.000000 0.000000 0.000000 0.000000 0.261879 0.000000
# 6 0.000000 0.000000 0.000000 0.000000 0.000000 0.029996
#
#
# Mechanical properties :
#
#
# Convention : Reuss Voigt Hill
#
# Bulk Modulus (GPa) = 32.59616 37.85327 35.22471
# Shear Modulus (GPa) = 12.16225 6.63214 9.39720
#
# Velocity S-wave (km/s) = 2.40867 1.77867 2.11723
# Velocity P-wave (km/s) = 4.82542 4.71965 4.77283
#
# Compressibility (1/GPa) = 0.03067846
#
# Stress axis : x y z
#
# Youngs Moduli (GPa) = 30.53675 55.38544 32.88913
#
# Poissons Ratio (x) = -0.34220 0.63218
# Poissons Ratio (y) = -0.18867 0.40196
# Poissons Ratio (z) = 0.58696 0.67691
#
# Static dielectric constant tensor:
#      x y z
#    x 4.000930 0.000000 0.000000 
#    y 0.000000 4.492970 0.000000 
#    z 0.000000 0.000000 3.729880 
# 
# 
# High freq. dielectric constant tensor:
#      x y z
#    x 1.818400 0.000000 0.000000 
#    y 0.000000 1.839620 0.000000 
#    z 0.000000 0.000000 1.816550 
# 
# From -- ./inp_files/3609.got.cif
#   From: 2010.03.12/outbox.cif.g09.slc.cpg/sg55_2_cif.got.tgz:3609.got - 2010.04.16 15:19:21.
