data_PCOD8227474
_publ_section_title
;
Structure prediction by ZEFSAII (Michael W. Deem and Ramdas Pophale) SiO2 
 PCOD8227474
Probable space group: P B A M
;
_chemical_formula_sum "Si O2"
_cell_formula_units_Z 64
_cell_length_a 11.822030
_cell_length_b 30.290081
_cell_length_c 8.889488
_cell_angle_alpha 90.000000
_cell_angle_beta 90.000000
_cell_angle_gamma 90.000000
_cell_volume 3183.238947
_symmetry_space_group_name_H-M "P B A M"
_symmetry_group_IT_number 55
_symmetry_cell_setting 'orthorhombic'
loop_
_space_group_symop_operation_xyz
x,y,z
-x,-y,z
1/2+x,1/2-y,-z
1/2-x,1/2+y,-z
-x,-y,-z
x,y,-z
1/2-x,1/2+y,z
1/2+x,1/2-y,z
loop_
_atom_site_type_symbol
_atom_site_label
_atom_site_fract_x
_atom_site_fract_y
_atom_site_fract_z
Si Si1 0.636621 0.624169 0.176522
Si Si2 0.394858 0.627394 0.322488
Si Si3 0.290325 0.957354 0.827760
Si Si4 0.795145 0.705022 0.174258
Si Si5 0.507638 0.929329 0.329132
Si Si6 0.490651 0.171531 0.670559
Si Si7 0.757897 0.444223 0.172466
Si Si8 0.762188 0.303811 0.824868
O O1 0.523139 0.624227 0.271073
O O2 0.705800 0.580861 0.225839
O O3 0.706830 0.667508 0.222381
O O4 0.607653 0.623677 0.000000
O O5 0.388029 0.629921 0.500000
O O6 0.328325 0.583922 0.270678
O O7 0.340821 0.671938 0.257107
O O8 0.403391 0.958809 0.727650
O O9 0.226829 0.004126 0.809523
O O10 0.327090 0.948944 0.000000
O O11 0.909957 0.702324 0.268479
O O12 0.739273 0.751930 0.210715
O O13 0.827795 0.700008 0.000000
O O14 0.537774 0.942645 0.500000
O O15 0.467963 0.878721 0.318783
O O16 0.614455 0.936710 0.223937
O O17 0.462019 0.185216 0.500000
O O18 0.379780 0.176568 0.770147
O O19 0.747100 0.428946 0.000000
O O20 0.749121 0.313439 0.000000
#
# Coordination Sequence:
#
# PCOD8227474 Si02
#       8
#     8   8   8   8   8   8   8   8
#     4  10  22  43  66  89 121 160 203 254 302 362
#     4  12  26  43  62  89 124 164 205 253 312 370
#     4  10  22  40  65  93 121 159 208 253 305 365
#     4  10  23  42  67  94 122 161 210 254 302 362
#     4  11  22  37  60  93 130 163 200 249 307 366
#     4  11  23  39  63  95 130 164 201 250 309 366
#     4  11  23  40  64  92 121 161 208 255 303 364
#     4  11  24  42  66  94 123 163 211 257 302 362
#
# _framework density 20.105308000000001
#
# number of rings (size 3 to 8) (size 9 to 14) (size 15 to 20)
#    0.000    1.250    2.500    3.000    1.750    6.000 
#    0.000    2.500    0.000    0.000    0.000    0.000 
#    0.000    0.000    0.000    0.000    0.000    0.000 
#
# Total GULP energy -794015.419824 kJ/mol
# GULP energy per Si atom -12406.490935 kJ/mol
# Density = 2.005955 g / cm^3
# Si number density = 20.105308 Si / 1000 Ang^3
#
#
#
# Elastic Constant Matrix: (Units=GPa)
#
#
# Indices 1 2 3 4 5 6 
#
# 1 110.7488 38.5937 49.9769 0.0000 0.0000 0.0000
# 2 38.5937 112.2265 41.2388 0.0000 0.0000 0.0000
# 3 49.9769 41.2388 106.1162 0.0000 0.0000 0.0000
# 4 0.0000 0.0000 0.0000 21.6535 0.0000 0.0000
# 5 0.0000 0.0000 0.0000 0.0000 -764.3238 0.0000
# 6 0.0000 0.0000 0.0000 0.0000 0.0000 22.0358
#
#
#
# Elastic Compliance Matrix: (Units=1/GPa)
#
#
# Indices 1 2 3 4 5 6 
#
# 1 0.011992 -0.002390 -0.004719 0.000000 0.000000 0.000000
# 2 -0.002390 0.010871 -0.003099 0.000000 0.000000 0.000000
# 3 -0.004719 -0.003099 0.012851 0.000000 0.000000 0.000000
# 4 0.000000 0.000000 0.000000 0.046182 0.000000 0.000000
# 5 0.000000 0.000000 0.000000 0.000000 -0.001308 0.000000
# 6 0.000000 0.000000 0.000000 0.000000 0.000000 0.045381
#
#
# Mechanical properties :
#
#
# Convention : Reuss Voigt Hill
#
# Bulk Modulus (GPa) = 65.37035 65.41223 65.39129
# Shear Modulus (GPa) = 33.00699 -130.84144 -48.91722
#
# Velocity S-wave (km/s) = 4.05619 -8.07585 -4.93795
# Velocity P-wave (km/s) = 7.38387 7.37249 0.28966
#
# Compressibility (1/GPa) = 0.01529745
#
# Stress axis : x y z
#
# Youngs Moduli (GPa) = 83.39073 91.98576 77.81790
#
# Poissons Ratio (x) = 0.21983 0.36722
# Poissons Ratio (y) = 0.19929 0.24118
# Poissons Ratio (z) = 0.39352 0.28509
#
# Static dielectric constant tensor:
#      x y z
#    x 3.548170 0.000000 0.000000 
#    y 0.000000 3.927330 0.000000 
#    z 0.000000 0.000000 3.682220 
# 
# 
# High freq. dielectric constant tensor:
#      x y z
#    x 1.781530 0.000000 0.000000 
#    y 0.000000 1.799780 0.000000 
#    z 0.000000 0.000000 1.788760 
# 
# From -- ./inp_files/4533.got.cif
#   From: 2010.03.12/outbox.cif.g09.slc.cpg/sg55_3_cif.got.tgz:4533.got - 2010.04.16 15:19:21.
