data_PCOD8227797
_publ_section_title
;
Structure prediction by ZEFSAII (Michael W. Deem and Ramdas Pophale) SiO2 
 PCOD8227797
Probable space group: P B A M
;
_chemical_formula_sum "Si O2"
_cell_formula_units_Z 40
_cell_length_a 17.778763
_cell_length_b 9.264816
_cell_length_c 11.364049
_cell_angle_alpha 90.000000
_cell_angle_beta 90.000000
_cell_angle_gamma 90.000000
_cell_volume 1871.851694
_symmetry_space_group_name_H-M "P B A M"
_symmetry_group_IT_number 55
_symmetry_cell_setting 'orthorhombic'
loop_
_space_group_symop_operation_xyz
x,y,z
-x,-y,z
1/2+x,1/2-y,-z
1/2-x,1/2+y,-z
-x,-y,-z
x,y,-z
1/2-x,1/2+y,z
1/2+x,1/2-y,z
loop_
_atom_site_type_symbol
_atom_site_label
_atom_site_fract_x
_atom_site_fract_y
_atom_site_fract_z
Si Si1 0.523686 0.164042 0.133851
Si Si2 0.739975 0.248977 0.000000
Si Si3 0.822744 0.696853 0.245445
Si Si4 0.707853 0.500912 0.361828
Si Si5 0.148175 0.976283 0.000000
Si Si6 0.570386 0.587327 0.773605
O O1 0.587582 0.184608 0.233390
O O2 0.452503 0.255571 0.179674
O O3 0.500000 0.000000 0.130526
O O4 0.547410 0.213048 0.000000
O O5 0.707380 0.173024 0.885153
O O6 0.827086 0.194187 0.000000
O O7 0.722700 0.420288 0.000000
O O8 0.787358 0.571840 0.326806
O O9 0.798456 0.847832 0.299864
O O10 0.704140 0.479237 0.500000
O O11 0.637714 0.601893 0.320734
O O12 0.099176 0.010276 0.884272
O O13 0.500000 0.500000 0.718433
#
# Coordination Sequence:
#
# PCOD8227797 Si02
#       6
#     8   4   8   8   4   8
#     4  11  25  42  68 107 148 175 213 282 364 427
#     4  12  20  38  65 107 132 175 218 285 351 409
#     4  12  24  46  69 101 138 177 232 284 347 414
#     4  12  28  47  70  95 135 190 240 284 329 404
#     4  12  23  36  67 101 142 173 217 281 355 410
#     4  12  23  43  69  99 138 178 225 282 345 410
#
# _framework density 21.369215000000001
#
# number of rings (size 3 to 8) (size 9 to 14) (size 15 to 20)
#    0.000    0.200    8.000    0.900    2.800    2.000 
#    0.000    0.000    0.000    3.000    0.000    0.000 
#    0.000    0.000    0.000    0.000    0.000    0.000 
#
# Total GULP energy -495977.183912 kJ/mol
# GULP energy per Si atom -12399.429598 kJ/mol
# Density = 2.132058 g / cm^3
# Si number density = 21.369215 Si / 1000 Ang^3
#
#
#
# Elastic Constant Matrix: (Units=GPa)
#
#
# Indices 1 2 3 4 5 6 
#
# 1 71.9411 6.3728 1.8250 0.0000 0.0000 0.0000
# 2 6.3728 70.9437 -12.6052 0.0000 0.0000 0.0000
# 3 1.8250 -12.6052 60.3885 0.0000 0.0000 0.0000
# 4 0.0000 0.0000 0.0000 11.8375 0.0000 0.0000
# 5 0.0000 0.0000 0.0000 0.0000 24.7849 0.0000
# 6 0.0000 0.0000 0.0000 0.0000 0.0000 37.4535
#
#
#
# Elastic Compliance Matrix: (Units=1/GPa)
#
#
# Indices 1 2 3 4 5 6 
#
# 1 0.014041 -0.001388 -0.000714 0.000000 0.000000 0.000000
# 2 -0.001388 0.014776 0.003126 0.000000 0.000000 0.000000
# 3 -0.000714 0.003126 0.017234 0.000000 0.000000 0.000000
# 4 0.000000 0.000000 0.000000 0.084478 0.000000 0.000000
# 5 0.000000 0.000000 0.000000 0.000000 0.040347 0.000000
# 6 0.000000 0.000000 0.000000 0.000000 0.000000 0.026700
#
#
# Mechanical properties :
#
#
# Convention : Reuss Voigt Hill
#
# Bulk Modulus (GPa) = 20.79066 21.60650 21.19858
# Shear Modulus (GPa) = 23.63392 28.66055 26.14724
#
# Velocity S-wave (km/s) = 3.32924 3.66622 3.50179
# Velocity P-wave (km/s) = 4.95265 5.29666 5.12754
#
# Compressibility (1/GPa) = 0.04809853
#
# Stress axis : x y z
#
# Youngs Moduli (GPa) = 71.21828 67.67802 58.02624
#
# Poissons Ratio (x) = 0.09395 0.04144
# Poissons Ratio (y) = 0.09887 -0.18140
# Poissons Ratio (z) = 0.05086 -0.21157
#
# Static dielectric constant tensor:
#      x y z
#    x 4.146440 0.000000 0.000000 
#    y 0.000000 3.808780 0.000000 
#    z 0.000000 0.000000 3.785020 
# 
# 
# High freq. dielectric constant tensor:
#      x y z
#    x 1.841860 0.000000 0.000000 
#    y 0.000000 1.843640 0.000000 
#    z 0.000000 0.000000 1.817300 
# 
# From -- ./inp_files/14682.got.cif
#   From: 2010.03.12/outbox.cif.g09.slc.cpg/sg55_8_cif.got.tgz:14682.got - 2010.04.16 15:19:21.
