data_PCOD8227765
_publ_section_title
;
Structure prediction by ZEFSAII (Michael W. Deem and Ramdas Pophale) SiO2 
 PCOD8227765
Probable space group: P B A M
;
_chemical_formula_sum "Si O2"
_cell_formula_units_Z 48
_cell_length_a 19.449080
_cell_length_b 8.740349
_cell_length_c 13.558218
_cell_angle_alpha 90.000000
_cell_angle_beta 90.000000
_cell_angle_gamma 90.000000
_cell_volume 2304.785163
_symmetry_space_group_name_H-M "P B A M"
_symmetry_group_IT_number 55
_symmetry_cell_setting 'orthorhombic'
loop_
_space_group_symop_operation_xyz
x,y,z
-x,-y,z
1/2+x,1/2-y,-z
1/2-x,1/2+y,-z
-x,-y,-z
x,y,-z
1/2-x,1/2+y,z
1/2+x,1/2-y,z
loop_
_atom_site_type_symbol
_atom_site_label
_atom_site_fract_x
_atom_site_fract_y
_atom_site_fract_z
Si Si1 0.216449 0.525986 0.000000
Si Si2 0.889249 0.925026 0.500000
Si Si3 0.343771 0.346385 0.000000
Si Si4 0.967032 0.243382 0.500000
Si Si5 0.555573 0.878233 0.705510
Si Si6 0.565356 0.583303 0.822221
Si Si7 0.672401 0.385974 0.290191
Si Si8 0.188470 0.458220 0.781028
O O1 0.298685 0.500218 0.000000
O O2 0.183058 0.456018 0.900581
O O3 0.209779 0.707955 0.000000
O O4 0.839606 0.895342 0.592881
O O5 0.953300 0.807938 0.500000
O O6 0.916507 0.098163 0.500000
O O7 0.390265 0.334344 0.904676
O O8 0.949989 0.356128 0.410692
O O9 0.537533 0.714120 0.750638
O O10 0.500000 0.000000 0.744434
O O11 0.631357 0.931155 0.735606
O O12 0.500000 0.500000 0.871174
O O13 0.606292 0.457352 0.761392
O O14 0.679288 0.211806 0.257786
O O15 0.738607 0.480658 0.256404
#
# Coordination Sequence:
#
# PCOD8227765 Si02
#       8
#     4   4   4   4   8   8   8   8
#     4  12  24  46  72 100 139 180 238 288 353 430
#     4  11  24  43  71 106 141 181 236 288 350 423
#     4  12  25  44  70 102 136 187 232 295 355 429
#     4  11  23  43  73 102 138 193 231 282 354 431
#     4  12  25  45  72 103 143 188 238 292 350 427
#     4  12  24  44  68 102 142 185 236 291 353 421
#     4  12  26  45  71 104 142 188 235 295 356 419
#     4  12  26  46  72 103 139 187 238 297 358 423
#
# _framework density 20.826233999999999
#
# number of rings (size 3 to 8) (size 9 to 14) (size 15 to 20)
#    0.000    0.167    5.000    5.500    0.000    2.000 
#    0.000    3.333    0.000    0.000    0.000    0.000 
#    0.000    0.000    0.000    0.000    0.000    0.000 
#
# Total GULP energy -595451.651517 kJ/mol
# GULP energy per Si atom -12405.242740 kJ/mol
# Density = 2.077883 g / cm^3
# Si number density = 20.826234 Si / 1000 Ang^3
#
#
#
# Elastic Constant Matrix: (Units=GPa)
#
#
# Indices 1 2 3 4 5 6 
#
# 1 115.3263 51.7728 42.1030 0.0000 0.0000 0.0000
# 2 51.7728 118.1786 32.7076 0.0000 0.0000 0.0000
# 3 42.1030 32.7076 142.0481 0.0000 0.0000 0.0000
# 4 0.0000 0.0000 0.0000 7.1894 0.0000 0.0000
# 5 0.0000 0.0000 0.0000 0.0000 30.8518 0.0000
# 6 0.0000 0.0000 0.0000 0.0000 0.0000 45.4816
#
#
#
# Elastic Compliance Matrix: (Units=1/GPa)
#
#
# Indices 1 2 3 4 5 6 
#
# 1 0.011515 -0.004379 -0.002405 0.000000 0.000000 0.000000
# 2 -0.004379 0.010703 -0.001167 0.000000 0.000000 0.000000
# 3 -0.002405 -0.001167 0.008021 0.000000 0.000000 0.000000
# 4 0.000000 0.000000 0.000000 0.139094 0.000000 0.000000
# 5 0.000000 0.000000 0.000000 0.000000 0.032413 0.000000
# 6 0.000000 0.000000 0.000000 0.000000 0.000000 0.021987
#
#
# Mechanical properties :
#
#
# Convention : Reuss Voigt Hill
#
# Bulk Modulus (GPa) = 69.74161 69.85776 69.79969
# Shear Modulus (GPa) = 20.45722 33.30253 26.87988
#
# Velocity S-wave (km/s) = 3.13754 4.00317 3.59649
# Velocity P-wave (km/s) = 6.83269 7.41506 7.12982
#
# Compressibility (1/GPa) = 0.01433864
#
# Stress axis : x y z
#
# Youngs Moduli (GPa) = 86.84500 93.43178 124.66939
#
# Poissons Ratio (x) = 0.40913 0.29979
# Poissons Ratio (y) = 0.38029 0.14543
# Poissons Ratio (z) = 0.20883 0.10899
#
# Static dielectric constant tensor:
#      x y z
#    x 4.002560 0.000000 0.000000 
#    y 0.000000 3.862330 0.000000 
#    z 0.000000 0.000000 4.020200 
# 
# 
# High freq. dielectric constant tensor:
#      x y z
#    x 1.820670 0.000000 0.000000 
#    y 0.000000 1.831590 0.000000 
#    z 0.000000 0.000000 1.827970 
# 
# From -- ./inp_files/19411.got.cif
#   From: 2010.03.12/outbox.cif.g09.slc.cpg/sg55_10_cif.got.tgz:19411.got - 2010.04.16 15:19:21.
