data_PCOD8227261
_publ_section_title
;
Structure prediction by ZEFSAII (Michael W. Deem and Ramdas Pophale) SiO2 
 PCOD8227261
Probable space group: P B A M
;
_chemical_formula_sum "Si O2"
_cell_formula_units_Z 48
_cell_length_a 16.192578
_cell_length_b 10.199529
_cell_length_c 14.701333
_cell_angle_alpha 90.000000
_cell_angle_beta 90.000000
_cell_angle_gamma 90.000000
_cell_volume 2428.023187
_symmetry_space_group_name_H-M "P B A M"
_symmetry_group_IT_number 55
_symmetry_cell_setting 'orthorhombic'
loop_
_space_group_symop_operation_xyz
x,y,z
-x,-y,z
1/2+x,1/2-y,-z
1/2-x,1/2+y,-z
-x,-y,-z
x,y,-z
1/2-x,1/2+y,z
1/2+x,1/2-y,z
loop_
_atom_site_type_symbol
_atom_site_label
_atom_site_fract_x
_atom_site_fract_y
_atom_site_fract_z
Si Si1 0.190063 0.818150 0.500000
Si Si2 0.882232 0.096348 0.314261
Si Si3 0.090162 0.458800 0.685599
Si Si4 0.666088 0.973208 0.500000
Si Si5 0.056382 0.177275 0.730169
Si Si6 0.265127 0.949825 0.183518
Si Si7 0.831361 0.811191 0.896308
O O1 0.133931 0.845899 0.413042
O O2 0.271221 0.906327 0.500000
O O3 0.215345 0.664640 0.500000
O O4 0.801686 0.110194 0.252625
O O5 0.956907 0.178005 0.268438
O O6 0.907861 0.945169 0.325394
O O7 0.107818 0.521703 0.587947
O O8 0.093629 0.301577 0.677990
O O9 0.157657 0.505774 0.758846
O O10 0.000000 0.500000 0.721041
O O11 0.087120 0.173695 0.834522
O O12 0.290001 0.830836 0.117655
O O13 0.232277 0.071797 0.125527
O O14 0.860232 0.823543 0.000000
#
# Coordination Sequence:
#
# PCOD8227261 Si02
#       7
#     4   8   8   4   8   8   8
#     4  12  26  37  66  90 128 163 218 256 289 368
#     4  10  21  41  61  92 123 164 212 245 314 359
#     4  11  23  39  61  89 129 162 211 253 309 362
#     4  12  27  38  60  95 122 169 214 260 295 361
#     4   9  22  39  64  88 121 166 198 260 311 374
#     4  10  22  37  66  87 123 165 198 250 310 372
#     4  10  21  40  63  92 121 156 206 257 308 374
#
# _framework density 19.769168000000001
#
# number of rings (size 3 to 8) (size 9 to 14) (size 15 to 20)
#    0.000    1.667    1.667    1.750    7.000    2.000 
#    0.000    7.500    0.000    2.500    0.000    0.000 
#    0.000    0.000    0.000    0.000    0.000    0.000 
#
# Total GULP energy -595357.428873 kJ/mol
# GULP energy per Si atom -12403.279768 kJ/mol
# Density = 1.972417 g / cm^3
# Si number density = 19.769168 Si / 1000 Ang^3
#
#
#
# Elastic Constant Matrix: (Units=GPa)
#
#
# Indices 1 2 3 4 5 6 
#
# 1 118.7521 15.3036 41.8938 0.0000 0.0000 0.0000
# 2 15.3036 79.3964 38.1930 0.0000 0.0000 0.0000
# 3 41.8938 38.1930 119.1622 0.0000 0.0000 0.0000
# 4 0.0000 0.0000 0.0000 24.9802 0.0000 0.0000
# 5 0.0000 0.0000 0.0000 0.0000 22.3418 0.0000
# 6 0.0000 0.0000 0.0000 0.0000 0.0000 27.7595
#
#
#
# Elastic Compliance Matrix: (Units=1/GPa)
#
#
# Indices 1 2 3 4 5 6 
#
# 1 0.009618 -0.000269 -0.003295 0.000000 0.000000 0.000000
# 2 -0.000269 0.014898 -0.004681 0.000000 0.000000 0.000000
# 3 -0.003295 -0.004681 0.011051 0.000000 0.000000 0.000000
# 4 0.000000 0.000000 0.000000 0.040032 0.000000 0.000000
# 5 0.000000 0.000000 0.000000 0.000000 0.044759 0.000000
# 6 0.000000 0.000000 0.000000 0.000000 0.000000 0.036024
#
#
# Mechanical properties :
#
#
# Convention : Reuss Voigt Hill
#
# Bulk Modulus (GPa) = 52.41688 56.45462 54.43575
# Shear Modulus (GPa) = 27.89706 29.81098 28.85402
#
# Velocity S-wave (km/s) = 3.76059 3.88745 3.82455
# Velocity P-wave (km/s) = 6.74003 6.98345 6.86282
#
# Compressibility (1/GPa) = 0.01907782
#
# Stress axis : x y z
#
# Youngs Moduli (GPa) = 103.97108 67.12117 90.49227
#
# Poissons Ratio (x) = 0.01803 0.29820
# Poissons Ratio (y) = 0.02794 0.42356
# Poissons Ratio (z) = 0.34262 0.31417
#
# Static dielectric constant tensor:
#      x y z
#    x 3.657760 0.000000 0.000000 
#    y 0.000000 3.769400 0.000000 
#    z 0.000000 0.000000 3.425070 
# 
# 
# High freq. dielectric constant tensor:
#      x y z
#    x 1.773600 0.000000 0.000000 
#    y 0.000000 1.788560 0.000000 
#    z 0.000000 0.000000 1.755330 
# 
# From -- ./inp_files/18889.got.cif
#   From: 2010.03.12/outbox.cif.g09.slc.cpg/sg55_10_cif.got.tgz:18889.got - 2010.04.16 15:19:21.
