data_PCOD8227287
_publ_section_title
;
Structure prediction by ZEFSAII (Michael W. Deem and Ramdas Pophale) SiO2 
 PCOD8227287
Probable space group: P B A M
;
_chemical_formula_sum "Si O2"
_cell_formula_units_Z 48
_cell_length_a 18.631840
_cell_length_b 14.747503
_cell_length_c 8.453771
_cell_angle_alpha 90.000000
_cell_angle_beta 90.000000
_cell_angle_gamma 90.000000
_cell_volume 2322.869002
_symmetry_space_group_name_H-M "P B A M"
_symmetry_group_IT_number 55
_symmetry_cell_setting 'orthorhombic'
loop_
_space_group_symop_operation_xyz
x,y,z
-x,-y,z
1/2+x,1/2-y,-z
1/2-x,1/2+y,-z
-x,-y,-z
x,y,-z
1/2-x,1/2+y,z
1/2+x,1/2-y,z
loop_
_atom_site_type_symbol
_atom_site_label
_atom_site_fract_x
_atom_site_fract_y
_atom_site_fract_z
Si Si1 0.781396 0.010918 0.182242
Si Si2 0.916203 0.753773 0.815655
Si Si3 0.678765 0.845949 0.185394
Si Si4 0.022612 0.597572 0.811974
Si Si5 0.768764 0.694343 0.681282
Si Si6 0.072287 0.051131 0.316509
O O1 0.751044 0.090440 0.290490
O O2 0.737660 0.921210 0.226452
O O3 0.864670 0.992689 0.213556
O O4 0.770110 0.037909 0.000000
O O5 0.834081 0.725385 0.791451
O O6 0.936749 0.842844 0.718534
O O7 0.966828 0.673162 0.752261
O O8 0.928722 0.773485 0.000000
O O9 0.601787 0.878249 0.250003
O O10 0.699333 0.754360 0.276468
O O11 0.675332 0.824902 0.000000
O O12 0.000000 0.500000 0.740933
O O13 0.021776 0.592382 0.000000
O O14 0.790848 0.708232 0.500000
O O15 0.090426 0.036905 0.500000
O O16 0.000000 0.000000 0.267197
#
# Coordination Sequence:
#
# PCOD8227287 Si02
#       6
#     8   8   8   8   8   8
#     4  11  23  41  68  94 123 163 215 265 312 379
#     4  11  22  40  66  95 125 167 216 260 312 378
#     4  10  21  40  65  95 124 158 206 261 314 376
#     4   9  19  37  63  94 125 156 199 258 315 366
#     4  12  25  40  62  91 128 168 207 260 323 379
#     4  11  25  43  62  90 131 171 209 261 327 387
#
# _framework density 20.664100000000001
#
# number of rings (size 3 to 8) (size 9 to 14) (size 15 to 20)
#    0.000    1.333    1.667    4.000    2.333    4.667 
#    0.000    0.833    0.000    3.500    0.000    0.000 
#    0.000    0.000    0.000    0.000    0.000    0.000 
#
# Total GULP energy -595552.277537 kJ/mol
# GULP energy per Si atom -12407.339115 kJ/mol
# Density = 2.061707 g / cm^3
# Si number density = 20.664100 Si / 1000 Ang^3
#
#
#
# Elastic Constant Matrix: (Units=GPa)
#
#
# Indices 1 2 3 4 5 6 
#
# 1 117.6121 33.4927 13.5157 0.0000 0.0000 0.0000
# 2 33.4927 100.8172 17.8968 0.0000 0.0000 0.0000
# 3 13.5157 17.8968 44.3329 0.0000 0.0000 0.0000
# 4 0.0000 0.0000 0.0000 25.0342 0.0000 0.0000
# 5 0.0000 0.0000 0.0000 0.0000 18.1917 0.0000
# 6 0.0000 0.0000 0.0000 0.0000 0.0000 41.1004
#
#
#
# Elastic Compliance Matrix: (Units=1/GPa)
#
#
# Indices 1 2 3 4 5 6 
#
# 1 0.009515 -0.002850 -0.001750 0.000000 0.000000 0.000000
# 2 -0.002850 0.011538 -0.003789 0.000000 0.000000 0.000000
# 3 -0.001750 -0.003789 0.024620 0.000000 0.000000 0.000000
# 4 0.000000 0.000000 0.000000 0.039945 0.000000 0.000000
# 5 0.000000 0.000000 0.000000 0.000000 0.054970 0.000000
# 6 0.000000 0.000000 0.000000 0.000000 0.000000 0.024331
#
#
# Mechanical properties :
#
#
# Convention : Reuss Voigt Hill
#
# Bulk Modulus (GPa) = 34.60882 43.61918 39.11400
# Shear Modulus (GPa) = 26.13278 30.05573 28.09426
#
# Velocity S-wave (km/s) = 3.56004 3.81792 3.69123
# Velocity P-wave (km/s) = 5.80372 6.37101 6.09397
#
# Compressibility (1/GPa) = 0.02889437
#
# Stress axis : x y z
#
# Youngs Moduli (GPa) = 105.09298 86.66643 40.61770
#
# Poissons Ratio (x) = 0.24704 0.07109
# Poissons Ratio (y) = 0.29956 0.15390
# Poissons Ratio (z) = 0.18394 0.32838
#
# Static dielectric constant tensor:
#      x y z
#    x 3.831040 0.000000 0.000000 
#    y 0.000000 3.898970 0.000000 
#    z 0.000000 0.000000 3.476130 
# 
# 
# High freq. dielectric constant tensor:
#      x y z
#    x 1.818190 0.000000 0.000000 
#    y 0.000000 1.822400 0.000000 
#    z 0.000000 0.000000 1.790910 
# 
# From -- ./inp_files/7434.got.cif
#   From: 2010.03.12/outbox.cif.g09.slc.cpg/sg55_4_cif.got.tgz:7434.got - 2010.04.16 15:19:21.
