data_PCOD8227646
_publ_section_title
;
Structure prediction by ZEFSAII (Michael W. Deem and Ramdas Pophale) SiO2 
 PCOD8227646
Probable space group: P B A M
;
_chemical_formula_sum "Si O2"
_cell_formula_units_Z 64
_cell_length_a 14.185289
_cell_length_b 30.195077
_cell_length_c 8.680663
_cell_angle_alpha 90.000000
_cell_angle_beta 90.000000
_cell_angle_gamma 90.000000
_cell_volume 3718.152737
_symmetry_space_group_name_H-M "P B A M"
_symmetry_group_IT_number 55
_symmetry_cell_setting 'orthorhombic'
loop_
_space_group_symop_operation_xyz
x,y,z
-x,-y,z
1/2+x,1/2-y,-z
1/2-x,1/2+y,-z
-x,-y,-z
x,y,-z
1/2-x,1/2+y,z
1/2+x,1/2-y,z
loop_
_atom_site_type_symbol
_atom_site_label
_atom_site_fract_x
_atom_site_fract_y
_atom_site_fract_z
Si Si1 0.525358 0.230885 0.679111
Si Si2 0.537446 0.321528 0.826462
Si Si3 0.105464 0.948683 0.682094
Si Si4 0.339902 0.362912 0.174170
Si Si5 0.292864 0.633203 0.679793
Si Si6 0.347334 0.197546 0.819478
Si Si7 0.392581 0.546864 0.681971
Si Si8 0.240931 0.280867 0.321051
O O1 0.512751 0.241358 0.500000
O O2 0.498598 0.273938 0.777658
O O3 0.448070 0.195108 0.733119
O O4 0.630411 0.214813 0.717611
O O5 0.451311 0.355106 0.816744
O O6 0.617751 0.334997 0.706204
O O7 0.578978 0.320000 0.000000
O O8 0.109404 0.941323 0.500000
O O9 0.173824 0.912725 0.761864
O O10 0.998108 0.944512 0.744915
O O11 0.143191 0.997769 0.727834
O O12 0.284882 0.327915 0.277840
O O13 0.301992 0.359477 0.000000
O O14 0.267721 0.633284 0.500000
O O15 0.204872 0.652021 0.774438
O O16 0.319573 0.584101 0.743446
O O17 0.285839 0.240348 0.772302
O O18 0.364681 0.199157 0.000000
O O19 0.398952 0.551085 0.500000
O O20 0.258916 0.271163 0.500000
#
# Coordination Sequence:
#
# PCOD8227646 Si02
#       8
#     8   8   8   8   8   8   8   8
#     4  11  23  38  55  74  99 134 179 220 256 299
#     4  11  21  31  47  73 107 141 173 211 258 301
#     4   9  16  31  51  73 101 135 174 212 252 301
#     4  11  22  33  48  75 107 140 173 208 255 309
#     4  11  20  33  52  75 102 139 181 216 252 303
#     4  12  24  36  52  75 105 138 171 212 261 309
#     4   8  16  29  50  75 100 133 173 215 254 295
#     4  11  23  37  55  75  98 134 177 217 254 300
#
# _framework density 17.212848999999999
#
# number of rings (size 3 to 8) (size 9 to 14) (size 15 to 20)
#    0.000    1.500    3.750    3.750    0.000    2.500 
#    0.000    2.500    0.000    0.000    0.000    0.875 
#    0.000    7.000    0.000    0.000    0.000    0.000 
#
# Total GULP energy -793578.762532 kJ/mol
# GULP energy per Si atom -12399.668165 kJ/mol
# Density = 1.717367 g / cm^3
# Si number density = 17.212849 Si / 1000 Ang^3
#
#
#
# Elastic Constant Matrix: (Units=GPa)
#
#
# Indices 1 2 3 4 5 6 
#
# 1 60.9767 17.4185 24.3692 0.0000 0.0000 0.0000
# 2 17.4185 94.3566 19.8051 0.0000 0.0000 0.0000
# 3 24.3692 19.8051 63.8060 0.0000 0.0000 0.0000
# 4 0.0000 0.0000 0.0000 15.6475 0.0000 0.0000
# 5 0.0000 0.0000 0.0000 0.0000 20.0399 0.0000
# 6 0.0000 0.0000 0.0000 0.0000 0.0000 24.2577
#
#
#
# Elastic Compliance Matrix: (Units=1/GPa)
#
#
# Indices 1 2 3 4 5 6 
#
# 1 0.019775 -0.002209 -0.006867 0.000000 0.000000 0.000000
# 2 -0.002209 0.011583 -0.002752 0.000000 0.000000 0.000000
# 3 -0.006867 -0.002752 0.019149 0.000000 0.000000 0.000000
# 4 0.000000 0.000000 0.000000 0.063908 0.000000 0.000000
# 5 0.000000 0.000000 0.000000 0.000000 0.049901 0.000000
# 6 0.000000 0.000000 0.000000 0.000000 0.000000 0.041224
#
#
# Mechanical properties :
#
#
# Convention : Reuss Voigt Hill
#
# Bulk Modulus (GPa) = 37.24081 38.03607 37.63844
# Shear Modulus (GPa) = 20.99547 22.49213 21.74380
#
# Velocity S-wave (km/s) = 3.49629 3.61876 3.55805
# Velocity P-wave (km/s) = 6.16289 6.29333 6.22845
#
# Compressibility (1/GPa) = 0.02685226
#
# Stress axis : x y z
#
# Youngs Moduli (GPa) = 50.56861 86.32975 52.22128
#
# Poissons Ratio (x) = 0.19072 0.35860
# Poissons Ratio (y) = 0.11172 0.14370
# Poissons Ratio (z) = 0.34725 0.23755
#
# Static dielectric constant tensor:
#      x y z
#    x 3.080820 0.000000 0.000000 
#    y 0.000000 3.369230 0.000000 
#    z 0.000000 0.000000 3.167390 
# 
# 
# High freq. dielectric constant tensor:
#      x y z
#    x 1.634770 0.000000 0.000000 
#    y 0.000000 1.657420 0.000000 
#    z 0.000000 0.000000 1.666480 
# 
# From -- ./inp_files/6911.got.cif
#   From: 2010.03.12/outbox.cif.g09.slc.cpg/sg55_4_cif.got.tgz:6911.got - 2010.04.16 15:19:21.
