data_PCOD8227673
_publ_section_title
;
Structure prediction by ZEFSAII (Michael W. Deem and Ramdas Pophale) SiO2 
 PCOD8227673
Probable space group: P B A M
;
_chemical_formula_sum "Si O2"
_cell_formula_units_Z 40
_cell_length_a 9.027817
_cell_length_b 12.998825
_cell_length_c 13.717247
_cell_angle_alpha 90.000000
_cell_angle_beta 90.000000
_cell_angle_gamma 90.000000
_cell_volume 1609.732835
_symmetry_space_group_name_H-M "P B A M"
_symmetry_group_IT_number 55
_symmetry_cell_setting 'orthorhombic'
loop_
_space_group_symop_operation_xyz
x,y,z
-x,-y,z
1/2+x,1/2-y,-z
1/2-x,1/2+y,-z
-x,-y,-z
x,y,-z
1/2-x,1/2+y,z
1/2+x,1/2-y,z
loop_
_atom_site_type_symbol
_atom_site_label
_atom_site_fract_x
_atom_site_fract_y
_atom_site_fract_z
Si Si1 0.291173 0.688488 0.500000
Si Si2 0.993569 0.804508 0.791462
Si Si3 0.381917 0.388735 0.500000
Si Si4 0.819840 0.616681 0.794321
Si Si5 0.804078 0.954951 0.335285
Si Si6 0.753937 0.544138 0.000000
Si Si7 0.930465 0.859185 0.000000
O O1 0.469166 0.678492 0.500000
O O2 0.253494 0.808604 0.500000
O O3 0.227261 0.631896 0.596744
O O4 0.946979 0.691985 0.750533
O O5 0.923439 0.902266 0.736338
O O6 0.929217 0.793758 0.901203
O O7 0.168167 0.818349 0.785392
O O8 0.380883 0.459371 0.595501
O O9 0.818407 0.513070 0.729640
O O10 0.845083 0.581502 0.905880
O O11 0.583847 0.579311 0.000000
O O12 0.725427 0.421827 0.000000
#
# Coordination Sequence:
#
# PCOD8227673 Si02
#       7
#     4   8   4   8   8   4   4
#     4  11  23  41  62  86 112 145 187 233 282 336
#     4  11  21  36  58  85 114 149 190 232 275 327
#     4  11  23  41  62  86 112 145 187 233 282 336
#     4  11  21  36  58  85 114 149 190 232 275 327
#     4  11  22  39  63  84 111 151 192 227 273 342
#     4   9  17  32  57  82 109 150 195 227 264 328
#     4   9  17  32  57  82 109 150 195 227 264 328
#
# _framework density 24.848845000000001
#
# number of rings (size 3 to 8) (size 9 to 14) (size 15 to 20)
#    0.000    1.400    2.000    6.000    0.000    0.000 
#    0.000    5.000    0.000    1.200    0.000    0.000 
#    0.000    0.000    0.000    0.000    0.000    0.000 
#
# Total GULP energy -495807.390688 kJ/mol
# GULP energy per Si atom -12395.184767 kJ/mol
# Density = 2.479229 g / cm^3
# Si number density = 24.848845 Si / 1000 Ang^3
#
#
#
# Elastic Constant Matrix: (Units=GPa)
#
#
# Indices 1 2 3 4 5 6 
#
# 1 7.4809 6.9680 5.0253 0.0000 0.0000 0.0000
# 2 6.9680 71.4428 19.9661 0.0000 0.0000 0.0000
# 3 5.0253 19.9661 142.5181 0.0000 0.0000 0.0000
# 4 0.0000 0.0000 0.0000 192.3061 0.0000 0.0000
# 5 0.0000 0.0000 0.0000 0.0000 20.8036 0.0000
# 6 0.0000 0.0000 0.0000 0.0000 0.0000 34.4310
#
#
#
# Elastic Compliance Matrix: (Units=1/GPa)
#
#
# Indices 1 2 3 4 5 6 
#
# 1 0.148542 -0.013555 -0.003339 0.000000 0.000000 0.000000
# 2 -0.013555 0.015804 -0.001736 0.000000 0.000000 0.000000
# 3 -0.003339 -0.001736 0.007378 0.000000 0.000000 0.000000
# 4 0.000000 0.000000 0.000000 0.005200 0.000000 0.000000
# 5 0.000000 0.000000 0.000000 0.000000 0.048069 0.000000
# 6 0.000000 0.000000 0.000000 0.000000 0.000000 0.029044
#
#
# Mechanical properties :
#
#
# Convention : Reuss Voigt Hill
#
# Bulk Modulus (GPa) = 7.43690 31.70673 19.57181
# Shear Modulus (GPa) = 14.87580 62.14029 38.50804
#
# Velocity S-wave (km/s) = 2.44939 5.00616 3.94088
# Velocity P-wave (km/s) = 3.31643 6.79728 5.34798
#
# Compressibility (1/GPa) = 0.13446470
#
# Stress axis : x y z
#
# Youngs Moduli (GPa) = 6.73212 63.27341 135.54519
#
# Poissons Ratio (x) = 0.85764 0.45256
# Poissons Ratio (y) = 0.09125 0.23533
# Poissons Ratio (z) = 0.02248 0.10985
#
# Static dielectric constant tensor:
#      x y z
#    x 3.770170 0.000000 0.000000 
#    y 0.000000 4.507600 0.000000 
#    z 0.000000 0.000000 5.075120 
# 
# 
# High freq. dielectric constant tensor:
#      x y z
#    x 1.946440 0.000000 0.000000 
#    y 0.000000 1.994590 0.000000 
#    z 0.000000 0.000000 2.007930 
# 
# From -- ./inp_files/18188.got.cif
#   From: 2010.03.12/outbox.cif.g09.slc.cpg/sg55_10_cif.got.tgz:18188.got - 2010.04.16 15:19:21.
