data_PCOD8227812
_publ_section_title
;
Structure prediction by ZEFSAII (Michael W. Deem and Ramdas Pophale) SiO2 
 PCOD8227812
Probable space group: P B A M
;
_chemical_formula_sum "Si O2"
_cell_formula_units_Z 32
_cell_length_a 26.035167
_cell_length_b 5.003200
_cell_length_c 11.279203
_cell_angle_alpha 90.000000
_cell_angle_beta 90.000000
_cell_angle_gamma 90.000000
_cell_volume 1469.219368
_symmetry_space_group_name_H-M "P B A M"
_symmetry_group_IT_number 55
_symmetry_cell_setting 'orthorhombic'
loop_
_space_group_symop_operation_xyz
x,y,z
-x,-y,z
1/2+x,1/2-y,-z
1/2-x,1/2+y,-z
-x,-y,-z
x,y,-z
1/2-x,1/2+y,z
1/2+x,1/2-y,z
loop_
_atom_site_type_symbol
_atom_site_label
_atom_site_fract_x
_atom_site_fract_y
_atom_site_fract_z
Si Si1 0.442056 0.440372 0.754207
Si Si2 0.108792 0.440447 0.138151
Si Si3 0.668332 0.987800 0.500000
Si Si4 0.783073 0.551989 0.248429
Si Si5 0.901049 0.987752 0.500000
O O1 0.500000 0.500000 0.792936
O O2 0.403620 0.640119 0.821323
O O3 0.436605 0.466829 0.613451
O O4 0.428387 0.139856 0.791204
O O5 0.167634 0.505046 0.167702
O O6 0.098730 0.475435 0.000000
O O7 0.703408 0.034868 0.613509
O O8 0.619869 0.186250 0.500000
O O9 0.647595 0.685677 0.500000
O O10 0.738825 0.341722 0.217065
#
# Coordination Sequence:
#
# PCOD8227812 Si02
#       5
#     8   8   4   8   4
#     4  12  25  45  72 101 134 175 221 276 338 397
#     4  12  27  47  68  97 137 180 227 275 322 392
#     4  12  22  41  69  97 138 173 213 277 340 394
#     4  12  24  42  68  99 131 176 222 273 336 392
#     4  12  21  43  70  99 136 173 210 277 345 394
#
# _framework density 21.780275
#
# number of rings (size 3 to 8) (size 9 to 14) (size 15 to 20)
#    0.000    0.000    5.000    5.625    0.000    4.000 
#    0.000    3.750    0.000    0.000    0.000    0.000 
#    0.000    0.000    0.000    0.000    0.000    0.000 
#
# Total GULP energy -397163.471601 kJ/mol
# GULP energy per Si atom -12411.358488 kJ/mol
# Density = 2.173070 g / cm^3
# Si number density = 21.780275 Si / 1000 Ang^3
#
#
#
# Elastic Constant Matrix: (Units=GPa)
#
#
# Indices 1 2 3 4 5 6 
#
# 1 89.4292 9.1193 28.0838 0.0000 0.0000 0.0000
# 2 9.1193 83.4481 16.2150 0.0000 0.0000 0.0000
# 3 28.0838 16.2150 121.4290 0.0000 0.0000 0.0000
# 4 0.0000 0.0000 0.0000 2.6050 0.0000 0.0000
# 5 0.0000 0.0000 0.0000 0.0000 2.6396 0.0000
# 6 0.0000 0.0000 0.0000 0.0000 0.0000 34.4646
#
#
#
# Elastic Compliance Matrix: (Units=1/GPa)
#
#
# Indices 1 2 3 4 5 6 
#
# 1 0.012110 -0.000800 -0.002694 0.000000 0.000000 0.000000
# 2 -0.000800 0.012356 -0.001465 0.000000 0.000000 0.000000
# 3 -0.002694 -0.001465 0.009054 0.000000 0.000000 0.000000
# 4 0.000000 0.000000 0.000000 0.383879 0.000000 0.000000
# 5 0.000000 0.000000 0.000000 0.000000 0.378840 0.000000
# 6 0.000000 0.000000 0.000000 0.000000 0.000000 0.029015
#
#
# Mechanical properties :
#
#
# Convention : Reuss Voigt Hill
#
# Bulk Modulus (GPa) = 42.36980 44.57140 43.47060
# Shear Modulus (GPa) = 5.93093 24.00107 14.96600
#
# Velocity S-wave (km/s) = 1.65196 3.32318 2.62417
# Velocity P-wave (km/s) = 4.80980 5.93576 5.40220
#
# Compressibility (1/GPa) = 0.02360172
#
# Stress axis : x y z
#
# Youngs Moduli (GPa) = 82.57942 80.93522 110.44959
#
# Poissons Ratio (x) = 0.06474 0.29753
# Poissons Ratio (y) = 0.06606 0.16180
# Poissons Ratio (z) = 0.22246 0.11856
#
# Static dielectric constant tensor:
#      x y z
#    x 3.790480 0.000000 0.000000 
#    y 0.000000 4.121370 0.000000 
#    z 0.000000 0.000000 3.945340 
# 
# 
# High freq. dielectric constant tensor:
#      x y z
#    x 1.860100 0.000000 0.000000 
#    y 0.000000 1.872030 0.000000 
#    z 0.000000 0.000000 1.856880 
# 
# From -- ./inp_files/11216.got.cif
#   From: 2010.03.12/outbox.cif.g09.slc.cpg/sg55_6_cif.got.tgz:11216.got - 2010.04.16 15:19:21.
