data_PCOD8227126
_publ_section_title
;
Structure prediction by ZEFSAII (Michael W. Deem and Ramdas Pophale) SiO2 
 PCOD8227126
Probable space group: P B A M
;
_chemical_formula_sum "Si O2"
_cell_formula_units_Z 64
_cell_length_a 24.471747
_cell_length_b 14.221815
_cell_length_c 8.669600
_cell_angle_alpha 90.000000
_cell_angle_beta 90.000000
_cell_angle_gamma 90.000000
_cell_volume 3017.303937
_symmetry_space_group_name_H-M "P B A M"
_symmetry_group_IT_number 55
_symmetry_cell_setting 'orthorhombic'
loop_
_space_group_symop_operation_xyz
x,y,z
-x,-y,z
1/2+x,1/2-y,-z
1/2-x,1/2+y,-z
-x,-y,-z
x,y,-z
1/2-x,1/2+y,z
1/2+x,1/2-y,z
loop_
_atom_site_type_symbol
_atom_site_label
_atom_site_fract_x
_atom_site_fract_y
_atom_site_fract_z
Si Si1 0.891593 0.654657 0.174467
Si Si2 0.910659 0.270216 0.680103
Si Si3 0.698012 0.284517 0.318871
Si Si4 0.830730 0.982443 0.178309
Si Si5 0.017568 0.207787 0.826683
Si Si6 0.441720 0.536226 0.679414
Si Si7 0.061491 0.519528 0.318397
Si Si8 0.302856 0.310824 0.821114
O O1 0.854473 0.722926 0.276527
O O2 0.894158 0.549883 0.241670
O O3 0.954492 0.690043 0.178346
O O4 0.868508 0.653145 0.000000
O O5 0.921116 0.257969 0.500000
O O6 0.955915 0.207748 0.765567
O O7 0.918326 0.377740 0.731533
O O8 0.851205 0.233605 0.721638
O O9 0.709291 0.277532 0.500000
O O10 0.690900 0.394604 0.277233
O O11 0.748289 0.242181 0.225466
O O12 0.795590 0.076975 0.209959
O O13 0.892291 0.010888 0.227511
O O14 0.829289 0.952709 0.000000
O O15 0.057062 0.146663 0.716521
O O16 0.017678 0.166851 0.000000
O O17 0.500000 0.500000 0.740935
O O18 0.432785 0.515633 0.500000
O O19 0.064152 0.504070 0.500000
O O20 0.000000 0.500000 0.258499
O O21 0.315827 0.293140 0.000000
#
# Coordination Sequence:
#
# PCOD8227126 Si02
#       8
#     8   8   8   8   8   8   8   8
#     4  11  23  39  63  94 128 167 215 267 319 381
#     4  11  23  40  64  94 132 173 219 272 327 388
#     4  12  26  45  72  98 128 169 217 271 324 382
#     4  11  24  44  69  96 128 169 214 264 323 385
#     4  11  22  36  59  90 127 169 212 263 323 386
#     4  11  23  37  59  93 130 170 214 264 323 387
#     4  10  21  38  61  91 130 175 218 266 324 385
#     4  11  26  47  70  96 131 171 215 267 325 387
#
# _framework density 21.210989999999999
#
# number of rings (size 3 to 8) (size 9 to 14) (size 15 to 20)
#    0.000    1.000    2.500    4.125    0.000    8.250 
#    0.000    0.000    0.000    0.000    0.000    0.000 
#    0.000    0.000    0.000    0.000    0.000    0.000 
#
# Total GULP energy -793754.778171 kJ/mol
# GULP energy per Si atom -12402.418409 kJ/mol
# Density = 2.116271 g / cm^3
# Si number density = 21.210990 Si / 1000 Ang^3
#
#
#
# Elastic Constant Matrix: (Units=GPa)
#
#
# Indices 1 2 3 4 5 6 
#
# 1 85.2276 27.2403 4.9577 0.0000 0.0000 0.0000
# 2 27.2403 93.6181 26.5854 0.0000 0.0000 0.0000
# 3 4.9577 26.5854 53.6030 0.0000 0.0000 0.0000
# 4 0.0000 0.0000 0.0000 33.4878 0.0000 0.0000
# 5 0.0000 0.0000 0.0000 0.0000 34.7212 0.0000
# 6 0.0000 0.0000 0.0000 0.0000 0.0000 34.4959
#
#
#
# Elastic Compliance Matrix: (Units=1/GPa)
#
#
# Indices 1 2 3 4 5 6 
#
# 1 0.012964 -0.003994 0.000782 0.000000 0.000000 0.000000
# 2 -0.003994 0.013663 -0.006407 0.000000 0.000000 0.000000
# 3 0.000782 -0.006407 0.021761 0.000000 0.000000 0.000000
# 4 0.000000 0.000000 0.000000 0.029862 0.000000 0.000000
# 5 0.000000 0.000000 0.000000 0.000000 0.028801 0.000000
# 6 0.000000 0.000000 0.000000 0.000000 0.000000 0.028989
#
#
# Mechanical properties :
#
#
# Convention : Reuss Voigt Hill
#
# Bulk Modulus (GPa) = 34.30544 38.89062 36.59803
# Shear Modulus (GPa) = 30.30372 32.11867 31.21120
#
# Velocity S-wave (km/s) = 3.78389 3.89555 3.84013
# Velocity P-wave (km/s) = 5.94129 6.21359 6.07897
#
# Compressibility (1/GPa) = 0.02914990
#
# Stress axis : x y z
#
# Youngs Moduli (GPa) = 77.13388 73.18797 45.95352
#
# Poissons Ratio (x) = 0.29234 -0.03594
# Poissons Ratio (y) = 0.30810 0.29443
# Poissons Ratio (z) = -0.06032 0.46893
#
# Static dielectric constant tensor:
#      x y z
#    x 3.722380 0.000000 0.000000 
#    y 0.000000 3.925330 0.000000 
#    z 0.000000 0.000000 3.793860 
# 
# 
# High freq. dielectric constant tensor:
#      x y z
#    x 1.824000 0.000000 0.000000 
#    y 0.000000 1.842670 0.000000 
#    z 0.000000 0.000000 1.837420 
# 
# From -- ./inp_files/9781.got.cif
#   From: 2010.03.12/outbox.cif.g09.slc.cpg/sg55_5_cif.got.tgz:9781.got - 2010.04.16 15:19:21.
