data_PCOD8227189
_publ_section_title
;
Structure prediction by ZEFSAII (Michael W. Deem and Ramdas Pophale) SiO2 
 PCOD8227189
Probable space group: P B A M
;
_chemical_formula_sum "Si O2"
_cell_formula_units_Z 56
_cell_length_a 9.230255
_cell_length_b 20.150663
_cell_length_c 15.502721
_cell_angle_alpha 90.000000
_cell_angle_beta 90.000000
_cell_angle_gamma 90.000000
_cell_volume 2883.440342
_symmetry_space_group_name_H-M "P B A M"
_symmetry_group_IT_number 55
_symmetry_cell_setting 'orthorhombic'
loop_
_space_group_symop_operation_xyz
x,y,z
-x,-y,z
1/2+x,1/2-y,-z
1/2-x,1/2+y,-z
-x,-y,-z
x,y,-z
1/2-x,1/2+y,z
1/2+x,1/2-y,z
loop_
_atom_site_type_symbol
_atom_site_label
_atom_site_fract_x
_atom_site_fract_y
_atom_site_fract_z
Si Si1 0.200619 0.241126 0.791628
Si Si2 0.652751 0.329093 0.500000
Si Si3 0.193969 0.629009 0.335145
Si Si4 0.332267 0.993587 0.246526
Si Si5 0.936032 0.193717 0.098897
Si Si6 0.807530 0.190607 0.500000
Si Si7 0.359262 0.860180 0.663239
Si Si8 0.135974 0.959420 0.902338
O O1 0.279337 0.190278 0.728192
O O2 0.304470 0.260638 0.870157
O O3 0.151073 0.305375 0.738038
O O4 0.066536 0.205225 0.835797
O O5 0.695024 0.370048 0.415065
O O6 0.756085 0.265645 0.500000
O O7 0.482544 0.311380 0.500000
O O8 0.231113 0.559909 0.289031
O O9 0.026647 0.632810 0.366366
O O10 0.500000 0.000000 0.232063
O O11 0.295893 0.930047 0.304794
O O12 0.272425 0.982959 0.151440
O O13 0.890271 0.118074 0.106894
O O14 0.975255 0.212303 0.000000
O O15 0.744647 0.155996 0.584191
O O16 0.168913 0.980223 0.000000
O O17 0.000000 0.000000 0.866086
#
# Coordination Sequence:
#
# PCOD8227189 Si02
#       8
#     8   4   8   8   8   4   8   8
#     4  12  22  39  65  92 125 168 213 259 320 378
#     4  12  26  41  64  99 127 165 213 259 328 378
#     4  11  24  42  66  93 129 164 210 265 313 388
#     4  10  23  42  65  93 124 169 214 260 316 379
#     4  11  24  40  62  93 129 167 213 270 319 374
#     4  12  26  41  66  95 131 165 209 265 312 390
#     4  11  23  42  65  93 127 167 212 259 320 372
#     4  10  21  39  61  90 129 169 213 265 322 380
#
# _framework density 19.421244999999999
#
# number of rings (size 3 to 8) (size 9 to 14) (size 15 to 20)
#    0.000    1.000    4.286    2.571    2.000    2.000 
#    0.000    3.571    0.000    0.000    0.000    0.000 
#    0.000    0.000    0.000    0.000    0.000    0.000 
#
# Total GULP energy -694549.698573 kJ/mol
# GULP energy per Si atom -12402.673189 kJ/mol
# Density = 1.937704 g / cm^3
# Si number density = 19.421245 Si / 1000 Ang^3
#
#
#
# Elastic Constant Matrix: (Units=GPa)
#
#
# Indices 1 2 3 4 5 6 
#
# 1 83.6303 22.4617 47.6523 0.0000 0.0000 0.0000
# 2 22.4617 102.1310 33.0622 0.0000 0.0000 0.0000
# 3 47.6523 33.0622 101.6097 0.0000 0.0000 0.0000
# 4 0.0000 0.0000 0.0000 40.6798 0.0000 0.0000
# 5 0.0000 0.0000 0.0000 0.0000 40.0867 0.0000
# 6 0.0000 0.0000 0.0000 0.0000 0.0000 26.4681
#
#
#
# Elastic Compliance Matrix: (Units=1/GPa)
#
#
# Indices 1 2 3 4 5 6 
#
# 1 0.016460 -0.001253 -0.007312 0.000000 0.000000 0.000000
# 2 -0.001253 0.011040 -0.003004 0.000000 0.000000 0.000000
# 3 -0.007312 -0.003004 0.014248 0.000000 0.000000 0.000000
# 4 0.000000 0.000000 0.000000 0.024582 0.000000 0.000000
# 5 0.000000 0.000000 0.000000 0.000000 0.024946 0.000000
# 6 0.000000 0.000000 0.000000 0.000000 0.000000 0.037781
#
#
# Mechanical properties :
#
#
# Convention : Reuss Voigt Hill
#
# Bulk Modulus (GPa) = 53.73610 54.85816 54.29713
# Shear Modulus (GPa) = 31.56594 33.72658 32.64626
#
# Velocity S-wave (km/s) = 4.03591 4.17175 4.10439
# Velocity P-wave (km/s) = 7.03185 7.17722 7.10491
#
# Compressibility (1/GPa) = 0.01860946
#
# Stress axis : x y z
#
# Youngs Moduli (GPa) = 60.75301 90.58341 70.18476
#
# Poissons Ratio (x) = 0.11351 0.51316
# Poissons Ratio (y) = 0.07613 0.21086
# Poissons Ratio (z) = 0.44420 0.27215
#
# Static dielectric constant tensor:
#      x y z
#    x 3.568810 0.000000 0.000000 
#    y 0.000000 3.884880 0.000000 
#    z 0.000000 0.000000 3.601970 
# 
# 
# High freq. dielectric constant tensor:
#      x y z
#    x 1.760580 0.000000 0.000000 
#    y 0.000000 1.767370 0.000000 
#    z 0.000000 0.000000 1.765700 
# 
# From -- ./inp_files/17695.got.cif
#   From: 2010.03.12/outbox.cif.g09.slc.cpg/sg55_9_cif.got.tgz:17695.got - 2010.04.16 15:19:21.
