data_PCOD8227091
_publ_section_title
;
Structure prediction by ZEFSAII (Michael W. Deem and Ramdas Pophale) SiO2 
 PCOD8227091
Probable space group: P B A M
;
_chemical_formula_sum "Si O2"
_cell_formula_units_Z 64
_cell_length_a 8.760968
_cell_length_b 18.518113
_cell_length_c 20.525147
_cell_angle_alpha 90.000000
_cell_angle_beta 90.000000
_cell_angle_gamma 90.000000
_cell_volume 3329.929970
_symmetry_space_group_name_H-M "P B A M"
_symmetry_group_IT_number 55
_symmetry_cell_setting 'orthorhombic'
loop_
_space_group_symop_operation_xyz
x,y,z
-x,-y,z
1/2+x,1/2-y,-z
1/2-x,1/2+y,-z
-x,-y,-z
x,y,-z
1/2-x,1/2+y,z
1/2+x,1/2-y,z
loop_
_atom_site_type_symbol
_atom_site_label
_atom_site_fract_x
_atom_site_fract_y
_atom_site_fract_z
Si Si1 0.567616 0.424722 0.314765
Si Si2 0.468241 0.157227 0.789901
Si Si3 0.579825 0.661916 0.424158
Si Si4 0.574438 0.925442 0.333428
Si Si5 0.855914 0.801204 0.068881
Si Si6 0.570714 0.188144 0.575480
Si Si7 0.486989 0.155516 0.069232
Si Si8 0.115616 0.188997 0.790587
O O1 0.500000 0.500000 0.289021
O O2 0.482001 0.404339 0.381659
O O3 0.745580 0.434581 0.327695
O O4 0.532200 0.364409 0.259710
O O5 0.503642 0.098288 0.734782
O O6 0.501302 0.116527 0.860030
O O7 0.296003 0.184089 0.781499
O O8 0.571815 0.227815 0.778608
O O9 0.566208 0.640953 0.500000
O O10 0.753951 0.677946 0.404502
O O11 0.476254 0.730658 0.406558
O O12 0.540365 0.866037 0.387602
O O13 0.500000 0.000000 0.356090
O O14 0.674708 0.805208 0.070980
O O15 0.884095 0.716006 0.067850
O O16 0.928671 0.835358 0.134767
O O17 0.916786 0.836390 0.000000
O O18 0.542892 0.172997 0.500000
O O19 0.500914 0.109729 0.000000
#
# Coordination Sequence:
#
# PCOD8227091 Si02
#       8
#     8   8   8   8   8   8   8   8
#     4  11  23  37  53  74 103 138 175 214 256 303
#     4   9  18  31  49  74 100 129 166 207 252 301
#     4  10  21  38  60  84 108 134 166 205 249 299
#     4  11  23  37  53  74 103 138 175 214 256 303
#     4   8  13  23  41  66  95 124 156 198 247 296
#     4  10  21  38  60  84 108 134 166 205 249 299
#     4   8  13  23  41  66  95 124 156 198 247 296
#     4   9  18  31  49  74 100 129 166 207 252 301
#
# _framework density 19.219622000000001
#
# number of rings (size 3 to 8) (size 9 to 14) (size 15 to 20)
#    0.000    2.500    0.000    2.250    0.000    6.000 
#    0.000    0.000    0.000    0.750    0.000    0.000 
#    0.000    0.000    0.000    0.000    0.000    0.250 
#
# Total GULP energy -792929.853432 kJ/mol
# GULP energy per Si atom -12389.528960 kJ/mol
# Density = 1.917588 g / cm^3
# Si number density = 19.219622 Si / 1000 Ang^3
#
#
#
# Elastic Constant Matrix: (Units=GPa)
#
#
# Indices 1 2 3 4 5 6 
#
# 1 45.9992 7.6186 16.1443 0.0000 0.0000 0.0000
# 2 7.6186 39.7738 19.7597 0.0000 0.0000 0.0000
# 3 16.1443 19.7597 83.8144 0.0000 0.0000 0.0000
# 4 0.0000 0.0000 0.0000 7.4396 0.0000 0.0000
# 5 0.0000 0.0000 0.0000 0.0000 21.9211 0.0000
# 6 0.0000 0.0000 0.0000 0.0000 0.0000 23.2668
#
#
#
# Elastic Compliance Matrix: (Units=1/GPa)
#
#
# Indices 1 2 3 4 5 6 
#
# 1 0.023543 -0.002556 -0.003932 0.000000 0.000000 0.000000
# 2 -0.002556 0.028755 -0.006287 0.000000 0.000000 0.000000
# 3 -0.003932 -0.006287 0.014171 0.000000 0.000000 0.000000
# 4 0.000000 0.000000 0.000000 0.134416 0.000000 0.000000
# 5 0.000000 0.000000 0.000000 0.000000 0.045618 0.000000
# 6 0.000000 0.000000 0.000000 0.000000 0.000000 0.042980
#
#
# Mechanical properties :
#
#
# Convention : Reuss Voigt Hill
#
# Bulk Modulus (GPa) = 24.43883 28.51474 26.47678
# Shear Modulus (GPa) = 15.21270 18.92980 17.07125
#
# Velocity S-wave (km/s) = 2.81645 3.14175 2.98353
# Velocity P-wave (km/s) = 4.82904 5.29427 5.06700
#
# Compressibility (1/GPa) = 0.04091850
#
# Stress axis : x y z
#
# Youngs Moduli (GPa) = 42.47561 34.77644 70.56812
#
# Poissons Ratio (x) = 0.08889 0.27749
# Poissons Ratio (y) = 0.10857 0.44365
# Poissons Ratio (z) = 0.16702 0.21863
#
# Static dielectric constant tensor:
#      x y z
#    x 3.477920 0.000000 0.000000 
#    y 0.000000 3.109730 0.000000 
#    z 0.000000 0.000000 4.176910 
# 
# 
# High freq. dielectric constant tensor:
#      x y z
#    x 1.748560 0.000000 0.000000 
#    y 0.000000 1.696720 0.000000 
#    z 0.000000 0.000000 1.776670 
# 
# From -- ./inp_files/22713.got.cif
#   From: 2010.03.12/outbox.cif.g09.slc.cpg/sg55_12_cif.got.tgz:22713.got - 2010.04.16 15:19:21.
