data_PCOD8227301
_publ_section_title
;
Structure prediction by ZEFSAII (Michael W. Deem and Ramdas Pophale) SiO2 
 PCOD8227301
Probable space group: P B A M
;
_chemical_formula_sum "Si O2"
_cell_formula_units_Z 48
_cell_length_a 19.158481
_cell_length_b 8.909994
_cell_length_c 13.277852
_cell_angle_alpha 90.000000
_cell_angle_beta 90.000000
_cell_angle_gamma 90.000000
_cell_volume 2266.555238
_symmetry_space_group_name_H-M "P B A M"
_symmetry_group_IT_number 55
_symmetry_cell_setting 'orthorhombic'
loop_
_space_group_symop_operation_xyz
x,y,z
-x,-y,z
1/2+x,1/2-y,-z
1/2-x,1/2+y,-z
-x,-y,-z
x,y,-z
1/2-x,1/2+y,z
1/2+x,1/2-y,z
loop_
_atom_site_type_symbol
_atom_site_label
_atom_site_fract_x
_atom_site_fract_y
_atom_site_fract_z
Si Si1 0.322214 0.571307 0.194271
Si Si2 0.153342 0.555989 0.614039
Si Si3 0.944160 0.379136 0.207505
Si Si4 0.533916 0.342448 0.890979
Si Si5 0.789550 0.770947 0.385140
Si Si6 0.188025 0.742455 0.884139
O O1 0.385160 0.644926 0.134269
O O2 0.331465 0.616466 0.311793
O O3 0.318953 0.392045 0.183096
O O4 0.253009 0.645535 0.150377
O O5 0.126240 0.546379 0.500000
O O6 0.084756 0.583552 0.681312
O O7 0.206786 0.694778 0.628906
O O8 0.194011 0.401956 0.643588
O O9 0.879038 0.364457 0.131534
O O10 0.000000 0.500000 0.169209
O O11 0.990296 0.228843 0.201344
O O12 0.500000 0.500000 0.907647
O O13 0.527823 0.257281 0.000000
O O14 0.811960 0.806699 0.500000
O O15 0.194274 0.790400 0.000000
#
# Coordination Sequence:
#
# PCOD8227301 Si02
#       6
#     8   8   8   8   8   8
#     4  12  24  44  69  99 135 173 228 284 342 405
#     4  10  22  42  68 103 141 178 224 283 347 406
#     4  12  26  43  65  97 136 184 227 277 339 408
#     4  11  24  44  66  89 131 185 228 276 339 402
#     4  10  21  40  70 104 136 175 224 283 343 405
#     4  12  26  43  67  99 135 175 227 286 339 404
#
# _framework density 21.177512
#
# number of rings (size 3 to 8) (size 9 to 14) (size 15 to 20)
#    0.000    0.833    3.333    4.000    2.333    1.667 
#    0.000    0.833    0.000    1.000    0.000    0.000 
#    0.000    0.000    0.000    0.000    0.000    0.000 
#
# Total GULP energy -594999.424885 kJ/mol
# GULP energy per Si atom -12395.821352 kJ/mol
# Density = 2.112931 g / cm^3
# Si number density = 21.177512 Si / 1000 Ang^3
#
#
#
# Elastic Constant Matrix: (Units=GPa)
#
#
# Indices 1 2 3 4 5 6 
#
# 1 150.9034 65.6485 49.1604 0.0000 0.0000 0.0000
# 2 65.6485 101.6363 71.0361 0.0000 0.0000 0.0000
# 3 49.1604 71.0361 115.6162 0.0000 0.0000 0.0000
# 4 0.0000 0.0000 0.0000 33.4048 0.0000 0.0000
# 5 0.0000 0.0000 0.0000 0.0000 44.0817 0.0000
# 6 0.0000 0.0000 0.0000 0.0000 0.0000 40.6802
#
#
#
# Elastic Compliance Matrix: (Units=1/GPa)
#
#
# Indices 1 2 3 4 5 6 
#
# 1 0.009230 -0.005642 -0.000459 0.000000 0.000000 0.000000
# 2 -0.005642 0.020692 -0.010315 0.000000 0.000000 0.000000
# 3 -0.000459 -0.010315 0.015182 0.000000 0.000000 0.000000
# 4 0.000000 0.000000 0.000000 0.029936 0.000000 0.000000
# 5 0.000000 0.000000 0.000000 0.000000 0.022685 0.000000
# 6 0.000000 0.000000 0.000000 0.000000 0.000000 0.024582
#
#
# Mechanical properties :
#
#
# Convention : Reuss Voigt Hill
#
# Bulk Modulus (GPa) = 81.46848 82.20510 81.83679
# Shear Modulus (GPa) = 31.40136 35.78740 33.59438
#
# Velocity S-wave (km/s) = 3.85485 4.11527 3.98719
# Velocity P-wave (km/s) = 7.63977 7.84105 7.74106
#
# Compressibility (1/GPa) = 0.01227469
#
# Stress axis : x y z
#
# Youngs Moduli (GPa) = 108.33723 48.32734 65.86838
#
# Poissons Ratio (x) = 0.27264 0.03020
# Poissons Ratio (y) = 0.61120 0.67942
# Poissons Ratio (z) = 0.04968 0.49848
#
# Static dielectric constant tensor:
#      x y z
#    x 3.973460 0.000000 0.000000 
#    y 0.000000 3.889350 0.000000 
#    z 0.000000 0.000000 4.118480 
# 
# 
# High freq. dielectric constant tensor:
#      x y z
#    x 1.829220 0.000000 0.000000 
#    y 0.000000 1.830320 0.000000 
#    z 0.000000 0.000000 1.838160 
# 
# From -- ./inp_files/19333.got.cif
#   From: 2010.03.12/outbox.cif.g09.slc.cpg/sg55_10_cif.got.tgz:19333.got - 2010.04.16 15:19:21.
