data_PCOD8227774
_publ_section_title
;
Structure prediction by ZEFSAII (Michael W. Deem and Ramdas Pophale) SiO2 
 PCOD8227774
Probable space group: P B A M
;
_chemical_formula_sum "Si O2"
_cell_formula_units_Z 32
_cell_length_a 10.208244
_cell_length_b 17.462560
_cell_length_c 8.407165
_cell_angle_alpha 90.000000
_cell_angle_beta 90.000000
_cell_angle_gamma 90.000000
_cell_volume 1498.678664
_symmetry_space_group_name_H-M "P B A M"
_symmetry_group_IT_number 55
_symmetry_cell_setting 'orthorhombic'
loop_
_space_group_symop_operation_xyz
x,y,z
-x,-y,z
1/2+x,1/2-y,-z
1/2-x,1/2+y,-z
-x,-y,-z
x,y,-z
1/2-x,1/2+y,z
1/2+x,1/2-y,z
loop_
_atom_site_type_symbol
_atom_site_label
_atom_site_fract_x
_atom_site_fract_y
_atom_site_fract_z
Si Si1 0.498607 0.839464 0.816106
Si Si2 0.251921 0.413524 0.683744
Si Si3 0.488469 0.673933 0.316372
Si Si4 0.238789 0.076287 0.183774
O O1 0.372137 0.892230 0.790942
O O2 0.488899 0.764453 0.708747
O O3 0.624612 0.887117 0.760155
O O4 0.510497 0.815655 0.000000
O O5 0.217185 0.400255 0.500000
O O6 0.372471 0.360369 0.736922
O O7 0.290615 0.501445 0.712266
O O8 0.459737 0.655359 0.500000
O O9 0.375557 0.637411 0.209592
O O10 0.244597 0.052668 0.000000
#
# Coordination Sequence:
#
# PCOD8227774 Si02
#       4
#     8   8   8   8
#     4  11  24  41  62  90 122 158 202 249 300 359
#     4  11  24  41  63  91 123 160 202 249 301 358
#     4  11  24  41  62  90 122 158 202 249 300 359
#     4  11  24  41  63  91 123 160 202 249 301 358
#
# _framework density 21.352143999999999
#
# number of rings (size 3 to 8) (size 9 to 14) (size 15 to 20)
#    0.000    1.000    0.000    6.000    0.000   18.000 
#    0.000    0.000    0.000    0.000    0.000    0.000 
#    0.000    0.000    0.000    0.000    0.000    0.000 
#
# Total GULP energy -397150.217213 kJ/mol
# GULP energy per Si atom -12410.944288 kJ/mol
# Density = 2.130355 g / cm^3
# Si number density = 21.352144 Si / 1000 Ang^3
#
#
#
# Elastic Constant Matrix: (Units=GPa)
#
#
# Indices 1 2 3 4 5 6 
#
# 1 105.8882 19.3168 37.1213 0.0000 0.0000 0.0000
# 2 19.3168 96.9878 19.8190 0.0000 0.0000 0.0000
# 3 37.1213 19.8190 42.8910 0.0000 0.0000 0.0000
# 4 0.0000 0.0000 0.0000 33.6205 0.0000 0.0000
# 5 0.0000 0.0000 0.0000 0.0000 25.0462 0.0000
# 6 0.0000 0.0000 0.0000 0.0000 0.0000 53.4241
#
#
#
# Elastic Compliance Matrix: (Units=1/GPa)
#
#
# Indices 1 2 3 4 5 6 
#
# 1 0.013567 -0.000334 -0.011588 0.000000 0.000000 0.000000
# 2 -0.000334 0.011394 -0.004976 0.000000 0.000000 0.000000
# 3 -0.011588 -0.004976 0.035643 0.000000 0.000000 0.000000
# 4 0.000000 0.000000 0.000000 0.029744 0.000000 0.000000
# 5 0.000000 0.000000 0.000000 0.000000 0.039926 0.000000
# 6 0.000000 0.000000 0.000000 0.000000 0.000000 0.018718
#
#
# Mechanical properties :
#
#
# Convention : Reuss Voigt Hill
#
# Bulk Modulus (GPa) = 37.30095 44.25349 40.77722
# Shear Modulus (GPa) = 26.07922 33.71881 29.89901
#
# Velocity S-wave (km/s) = 3.49863 3.97820 3.74609
# Velocity P-wave (km/s) = 5.81617 6.47085 6.15223
#
# Compressibility (1/GPa) = 0.02680897
#
# Stress axis : x y z
#
# Youngs Moduli (GPa) = 73.70720 87.76638 28.05606
#
# Poissons Ratio (x) = 0.02934 0.32510
# Poissons Ratio (y) = 0.02464 0.13960
# Poissons Ratio (z) = 0.85410 0.43669
#
# Static dielectric constant tensor:
#      x y z
#    x 3.926950 0.000000 0.000000 
#    y 0.000000 3.753750 0.000000 
#    z 0.000000 0.000000 3.681470 
# 
# 
# High freq. dielectric constant tensor:
#      x y z
#    x 1.851820 0.000000 0.000000 
#    y 0.000000 1.848520 0.000000 
#    z 0.000000 0.000000 1.840120 
# 
# From -- ./inp_files/2014.got.cif
#   From: 2010.03.12/outbox.cif.g09.slc.cpg/sg55_2_cif.got.tgz:2014.got - 2010.04.16 15:19:21.
