data_PCOD8227157
_publ_section_title
;
Structure prediction by ZEFSAII (Michael W. Deem and Ramdas Pophale) SiO2 
 PCOD8227157
Probable space group: P B A M
;
_chemical_formula_sum "Si O2"
_cell_formula_units_Z 48
_cell_length_a 17.306670
_cell_length_b 8.663304
_cell_length_c 14.524131
_cell_angle_alpha 90.000000
_cell_angle_beta 90.000000
_cell_angle_gamma 90.000000
_cell_volume 2177.645712
_symmetry_space_group_name_H-M "P B A M"
_symmetry_group_IT_number 55
_symmetry_cell_setting 'orthorhombic'
loop_
_space_group_symop_operation_xyz
x,y,z
-x,-y,z
1/2+x,1/2-y,-z
1/2-x,1/2+y,-z
-x,-y,-z
x,y,-z
1/2-x,1/2+y,z
1/2+x,1/2-y,z
loop_
_atom_site_type_symbol
_atom_site_label
_atom_site_fract_x
_atom_site_fract_y
_atom_site_fract_z
Si Si1 0.136219 0.374106 0.000000
Si Si2 0.414725 0.432516 0.327898
Si Si3 0.081725 0.434611 0.192642
Si Si4 0.168947 0.237355 0.678771
Si Si5 0.858606 0.222667 0.500000
Si Si6 0.199367 0.425625 0.500000
Si Si7 0.176588 0.732063 0.201111
Si Si8 0.723185 0.811053 0.000000
O O1 0.079335 0.384515 0.913673
O O2 0.183858 0.213105 0.000000
O O3 0.201266 0.509265 0.000000
O O4 0.500000 0.500000 0.319124
O O5 0.350633 0.563162 0.349878
O O6 0.411321 0.306161 0.410113
O O7 0.390996 0.348334 0.232907
O O8 0.099622 0.285658 0.253466
O O9 0.149705 0.556322 0.211096
O O10 0.000000 0.500000 0.223253
O O11 0.164593 0.346565 0.590424
O O12 0.250103 0.250801 0.732040
O O13 0.821778 0.393303 0.500000
O O14 0.790877 0.096322 0.500000
O O15 0.192364 0.770542 0.093729
#
# Coordination Sequence:
#
# PCOD8227157 Si02
#       8
#     4   8   8   8   4   4   8   4
#     4  10  21  38  64  94 131 172 218 276 325 382
#     4  12  26  44  67 100 140 176 216 273 338 394
#     4  11  23  41  64  97 134 175 222 271 332 390
#     4  12  24  42  69  99 128 176 223 272 330 391
#     4  12  25  45  69  96 135 168 223 274 334 387
#     4  12  26  43  72 102 126 172 228 280 319 399
#     4  11  23  42  66  96 131 176 222 277 323 391
#     4  10  22  38  65  96 127 166 226 274 320 386
#
# _framework density 22.042154
#
# number of rings (size 3 to 8) (size 9 to 14) (size 15 to 20)
#    0.000    0.667    3.333    5.000    2.333    0.000 
#    0.000    1.667    0.000    0.000    0.000    0.000 
#    0.000    0.000    0.000    0.000    0.000    0.000 
#
# Total GULP energy -595293.608911 kJ/mol
# GULP energy per Si atom -12401.950186 kJ/mol
# Density = 2.199199 g / cm^3
# Si number density = 22.042154 Si / 1000 Ang^3
#
#
#
# Elastic Constant Matrix: (Units=GPa)
#
#
# Indices 1 2 3 4 5 6 
#
# 1 62.2096 2.0843 31.4025 0.0000 0.0000 0.0000
# 2 2.0843 72.0882 42.5813 0.0000 0.0000 0.0000
# 3 31.4025 42.5813 146.7496 0.0000 0.0000 0.0000
# 4 0.0000 0.0000 0.0000 24.8267 0.0000 0.0000
# 5 0.0000 0.0000 0.0000 0.0000 27.0660 0.0000
# 6 0.0000 0.0000 0.0000 0.0000 0.0000 31.4034
#
#
#
# Elastic Compliance Matrix: (Units=1/GPa)
#
#
# Indices 1 2 3 4 5 6 
#
# 1 0.018294 0.002152 -0.004539 0.000000 0.000000 0.000000
# 2 0.002152 0.016994 -0.005392 0.000000 0.000000 0.000000
# 3 -0.004539 -0.005392 0.009350 0.000000 0.000000 0.000000
# 4 0.000000 0.000000 0.000000 0.040279 0.000000 0.000000
# 5 0.000000 0.000000 0.000000 0.000000 0.036947 0.000000
# 6 0.000000 0.000000 0.000000 0.000000 0.000000 0.031844
#
#
# Mechanical properties :
#
#
# Convention : Reuss Voigt Hill
#
# Bulk Modulus (GPa) = 34.38643 48.13153 41.25898
# Shear Modulus (GPa) = 27.93934 30.32449 29.13192
#
# Velocity S-wave (km/s) = 3.56412 3.71313 3.63939
# Velocity P-wave (km/s) = 5.70714 6.34560 6.03482
#
# Compressibility (1/GPa) = 0.02908124
#
# Stress axis : x y z
#
# Youngs Moduli (GPa) = 54.66308 58.84264 106.95034
#
# Poissons Ratio (x) = -0.12665 0.48547
# Poissons Ratio (y) = -0.11765 0.57665
# Poissons Ratio (z) = 0.24812 0.31726
#
# Static dielectric constant tensor:
#      x y z
#    x 3.698090 0.000000 0.000000 
#    y 0.000000 3.993030 0.000000 
#    z 0.000000 0.000000 4.242000 
# 
# 
# High freq. dielectric constant tensor:
#      x y z
#    x 1.853970 0.000000 0.000000 
#    y 0.000000 1.867180 0.000000 
#    z 0.000000 0.000000 1.885890 
# 
# From -- ./inp_files/19396.got.cif
#   From: 2010.03.12/outbox.cif.g09.slc.cpg/sg55_10_cif.got.tgz:19396.got - 2010.04.16 15:19:21.
