data_PCOD8227827
_publ_section_title
;
Structure prediction by ZEFSAII (Michael W. Deem and Ramdas Pophale) SiO2 
 PCOD8227827
Probable space group: P B A M
;
_chemical_formula_sum "Si O2"
_cell_formula_units_Z 40
_cell_length_a 14.169209
_cell_length_b 8.985544
_cell_length_c 16.698474
_cell_angle_alpha 90.000000
_cell_angle_beta 90.000000
_cell_angle_gamma 90.000000
_cell_volume 2126.017163
_symmetry_space_group_name_H-M "P B A M"
_symmetry_group_IT_number 55
_symmetry_cell_setting 'orthorhombic'
loop_
_space_group_symop_operation_xyz
x,y,z
-x,-y,z
1/2+x,1/2-y,-z
1/2-x,1/2+y,-z
-x,-y,-z
x,y,-z
1/2-x,1/2+y,z
1/2+x,1/2-y,z
loop_
_atom_site_type_symbol
_atom_site_label
_atom_site_fract_x
_atom_site_fract_y
_atom_site_fract_z
Si Si1 0.320531 0.615303 0.500000
Si Si2 0.194921 0.072289 0.908861
Si Si3 0.034972 0.168689 0.197609
Si Si4 0.625108 0.726790 0.500000
Si Si5 0.972284 0.829151 0.377006
Si Si6 0.625584 0.753054 0.090488
O O1 0.329880 0.437329 0.500000
O O2 0.209905 0.654719 0.500000
O O3 0.372528 0.686513 0.577231
O O4 0.304491 0.109441 0.894761
O O5 0.134626 0.173429 0.847843
O O6 0.182500 0.898448 0.891642
O O7 0.164802 0.112440 0.000000
O O8 0.961755 0.272558 0.150151
O O9 0.042486 0.233379 0.287513
O O10 0.000000 0.000000 0.196912
O O11 0.558256 0.754731 0.577642
O O12 0.000000 0.000000 0.375082
O O13 0.586268 0.751679 0.000000
#
# Coordination Sequence:
#
# PCOD8227827 Si02
#       6
#     4   8   8   4   8   8
#     4   9  17  31  50  68  88 115 145 177 216 260
#     4   9  17  29  45  65  88 115 148 183 217 255
#     4   9  16  28  47  66  86 116 151 181 211 255
#     4   9  17  31  50  68  88 115 145 177 216 260
#     4   8  16  30  46  66  90 116 146 177 213 262
#     4   9  17  29  45  65  88 115 148 183 217 255
#
# _framework density 18.814522
#
# number of rings (size 3 to 8) (size 9 to 14) (size 15 to 20)
#    0.000    3.200    0.000    1.800    0.000    4.000 
#    0.000    3.000    0.000    7.200    0.000    0.000 
#    0.000    0.000    0.000    0.000    0.000    0.000 
#
# Total GULP energy -495825.535661 kJ/mol
# GULP energy per Si atom -12395.638392 kJ/mol
# Density = 1.877170 g / cm^3
# Si number density = 18.814522 Si / 1000 Ang^3
#
#
#
# Elastic Constant Matrix: (Units=GPa)
#
#
# Indices 1 2 3 4 5 6 
#
# 1 35.8924 -6.0574 16.9869 0.0000 0.0000 0.0000
# 2 -6.0574 11.7705 0.8856 0.0000 0.0000 0.0000
# 3 16.9869 0.8856 113.6741 0.0000 0.0000 0.0000
# 4 0.0000 0.0000 0.0000 12.8999 0.0000 0.0000
# 5 0.0000 0.0000 0.0000 0.0000 17.6834 0.0000
# 6 0.0000 0.0000 0.0000 0.0000 0.0000 27.7065
#
#
#
# Elastic Compliance Matrix: (Units=1/GPa)
#
#
# Indices 1 2 3 4 5 6 
#
# 1 0.033226 0.017483 -0.005101 0.000000 0.000000 0.000000
# 2 0.017483 0.094207 -0.003346 0.000000 0.000000 0.000000
# 3 -0.005101 -0.003346 0.009585 0.000000 0.000000 0.000000
# 4 0.000000 0.000000 0.000000 0.077520 0.000000 0.000000
# 5 0.000000 0.000000 0.000000 0.000000 0.056550 0.000000
# 6 0.000000 0.000000 0.000000 0.000000 0.000000 0.036093
#
#
# Mechanical properties :
#
#
# Convention : Reuss Voigt Hill
#
# Bulk Modulus (GPa) = 6.44798 20.55192 13.49995
# Shear Modulus (GPa) = 14.67106 21.62607 18.14857
#
# Velocity S-wave (km/s) = 2.79547 3.39401 3.10918
# Velocity P-wave (km/s) = 3.72211 5.12896 4.48109
#
# Compressibility (1/GPa) = 0.15508742
#
# Stress axis : x y z
#
# Youngs Moduli (GPa) = 30.09710 10.61497 104.32457
#
# Poissons Ratio (x) = -0.18558 0.53219
# Poissons Ratio (y) = -0.52617 0.34911
# Poissons Ratio (z) = 0.15353 0.03552
#
# Static dielectric constant tensor:
#      x y z
#    x 3.361780 0.000000 0.000000 
#    y 0.000000 2.959880 0.000000 
#    z 0.000000 0.000000 3.877130 
# 
# 
# High freq. dielectric constant tensor:
#      x y z
#    x 1.727210 0.000000 0.000000 
#    y 0.000000 1.684000 0.000000 
#    z 0.000000 0.000000 1.733000 
# 
# From -- ./inp_files/18764.got.cif
#   From: 2010.03.12/outbox.cif.g09.slc.cpg/sg55_10_cif.got.tgz:18764.got - 2010.04.16 15:19:21.
