data_PCOD8227838
_publ_section_title
;
Structure prediction by ZEFSAII (Michael W. Deem and Ramdas Pophale) SiO2 
 PCOD8227838
Probable space group: P B A M
;
_chemical_formula_sum "Si O2"
_cell_formula_units_Z 64
_cell_length_a 18.000000
_cell_length_b 21.000000
_cell_length_c 9.000000
_cell_angle_alpha 90.000000
_cell_angle_beta 90.000000
_cell_angle_gamma 90.000000
_cell_volume 3402.000000
_symmetry_space_group_name_H-M "P B A M"
_symmetry_group_IT_number 55
_symmetry_cell_setting 'orthorhombic'
loop_
_space_group_symop_operation_xyz
x,y,z
-x,-y,z
1/2+x,1/2-y,-z
1/2-x,1/2+y,-z
-x,-y,-z
x,y,-z
1/2-x,1/2+y,z
1/2+x,1/2-y,z
loop_
_atom_site_type_symbol
_atom_site_label
_atom_site_fract_x
_atom_site_fract_y
_atom_site_fract_z
Si Si1 0.183623 0.968965 0.825632
Si Si2 0.621186 0.833993 0.824986
Si Si3 0.822641 0.216066 0.665837
Si Si4 0.796863 0.641721 0.825870
Si Si5 0.457001 0.817281 0.824598
Si Si6 0.060727 0.896088 0.333332
Si Si7 0.926392 0.826586 0.176726
Si Si8 0.274025 0.607915 0.176119
O O1 0.254094 0.923624 0.787378
O O2 0.104349 0.952767 0.750590
O O3 0.207295 0.037761 0.765194
O O4 0.168295 0.968526 0.000000
O O5 0.637918 0.762230 0.781313
O O6 0.535962 0.847671 0.764222
O O7 0.691502 0.874162 0.758138
O O8 0.620430 0.842464 0.000000
O O9 0.811425 0.244948 0.500000
O O10 0.742334 0.197497 0.732116
O O11 0.877864 0.157851 0.658623
O O12 0.884881 0.639467 0.780294
O O13 0.789927 0.658621 0.000000
O O14 0.443494 0.745109 0.765869
O O15 0.464008 0.813590 0.000000
O O16 0.038364 0.917508 0.500000
O O17 0.986040 0.874847 0.248678
O O18 0.841722 0.845239 0.225706
O O19 0.934574 0.832424 0.000000
O O20 0.267867 0.609116 0.000000
#
# Coordination Sequence:
#
# PCOD8227838 Si02
#       8
#     8   8   8   8   8   8   8   8
#     4   9  18  34  53  72  99 137 176 207 245 293
#     4  10  18  32  53  73 100 132 166 205 253 303
#     4  10  19  31  48  73 102 129 162 204 255 306
#     4   9  17  31  52  74  98 131 172 209 244 297
#     4   9  17  29  50  79 101 126 165 207 251 302
#     4  10  20  33  50  74 102 130 163 207 253 296
#     4  10  18  31  50  73 101 130 165 204 251 307
#     4   9  19  33  51  75 101 133 172 213 247 293
#
# _framework density 18.812463000000001
#
# number of rings (size 3 to 8) (size 9 to 14) (size 15 to 20)
#    0.000    2.500    1.250    1.500    0.000    3.500 
#    0.000    7.500    0.000    3.750    0.000    0.000 
#    0.000    5.000    0.000    0.000    0.000    0.000 
#
# Total GULP energy -792872.062179 kJ/mol
# GULP energy per Si atom -12388.625972 kJ/mol
# Density = 1.876965 g / cm^3
# Si number density = 18.812463 Si / 1000 Ang^3
#
#
#
# Elastic Constant Matrix: (Units=GPa)
#
#
# Indices 1 2 3 4 5 6 
#
# 1 174.7803 31.3510 25.4256 0.0000 0.0000 0.0000
# 2 31.3510 52.9873 12.5095 0.0000 0.0000 0.0000
# 3 25.4256 12.5095 29.8653 0.0000 0.0000 0.0000
# 4 0.0000 0.0000 0.0000 8.7312 0.0000 0.0000
# 5 0.0000 0.0000 0.0000 0.0000 15.9762 0.0000
# 6 0.0000 0.0000 0.0000 0.0000 0.0000 24.6712
#
#
#
# Elastic Compliance Matrix: (Units=1/GPa)
#
#
# Indices 1 2 3 4 5 6 
#
# 1 0.006937 -0.003007 -0.004646 0.000000 0.000000 0.000000
# 2 -0.003007 0.022247 -0.006758 0.000000 0.000000 0.000000
# 3 -0.004646 -0.006758 0.040270 0.000000 0.000000 0.000000
# 4 0.000000 0.000000 0.000000 0.114532 0.000000 0.000000
# 5 0.000000 0.000000 0.000000 0.000000 0.062593 0.000000
# 6 0.000000 0.000000 0.000000 0.000000 0.000000 0.040533
#
#
# Mechanical properties :
#
#
# Convention : Reuss Voigt Hill
#
# Bulk Modulus (GPa) = 24.61194 44.02279 34.31737
# Shear Modulus (GPa) = 15.17550 22.43217 18.80383
#
# Velocity S-wave (km/s) = 2.84328 3.45687 3.16498
# Velocity P-wave (km/s) = 4.88776 6.27575 5.62473
#
# Compressibility (1/GPa) = 0.04063068
#
# Stress axis : x y z
#
# Youngs Moduli (GPa) = 144.15937 44.94908 24.83258
#
# Poissons Ratio (x) = 0.13518 0.11537
# Poissons Ratio (y) = 0.43355 0.16783
# Poissons Ratio (z) = 0.66974 0.30378
#
# Static dielectric constant tensor:
#      x y z
#    x 4.113960 0.000000 0.000000 
#    y 0.000000 3.368520 0.000000 
#    z 0.000000 0.000000 3.321760 
# 
# 
# High freq. dielectric constant tensor:
#      x y z
#    x 1.764910 0.000000 0.000000 
#    y 0.000000 1.706060 0.000000 
#    z 0.000000 0.000000 1.698060 
# 
# From -- ./inp_files/7984.got.cif
#   From: 2010.03.12/outbox.ucp.g09.slc.cvg/sg55_4_cif.got.tgz:7984.got - 2010.05.04 19:23:19.
