data_PCOD8227361
_publ_section_title
;
Structure prediction by ZEFSAII (Michael W. Deem and Ramdas Pophale) SiO2 
 PCOD8227361
Probable space group: P B A M
;
_chemical_formula_sum "Si O2"
_cell_formula_units_Z 48
_cell_length_a 11.456350
_cell_length_b 22.948911
_cell_length_c 9.846158
_cell_angle_alpha 90.000000
_cell_angle_beta 90.000000
_cell_angle_gamma 90.000000
_cell_volume 2588.660849
_symmetry_space_group_name_H-M "P B A M"
_symmetry_group_IT_number 55
_symmetry_cell_setting 'orthorhombic'
loop_
_space_group_symop_operation_xyz
x,y,z
-x,-y,z
1/2+x,1/2-y,-z
1/2-x,1/2+y,-z
-x,-y,-z
x,y,-z
1/2-x,1/2+y,z
1/2+x,1/2-y,z
loop_
_atom_site_type_symbol
_atom_site_label
_atom_site_fract_x
_atom_site_fract_y
_atom_site_fract_z
Si Si1 0.882098 0.215825 0.341625
Si Si2 0.600376 0.361607 0.650803
Si Si3 0.133292 0.653773 0.654852
Si Si4 0.746998 0.629231 0.158414
Si Si5 0.491383 0.931421 0.159442
Si Si6 0.515167 0.566951 0.854735
O O1 0.845117 0.210537 0.500000
O O2 0.910711 0.282441 0.301814
O O3 0.778796 0.186628 0.250642
O O4 0.005951 0.186785 0.308473
O O5 0.576832 0.384642 0.500000
O O6 0.728662 0.337235 0.667710
O O7 0.584236 0.415944 0.749246
O O8 0.097261 0.637726 0.500000
O O9 0.087819 0.603659 0.754849
O O10 0.866558 0.596527 0.198956
O O11 0.645777 0.582745 0.193285
O O12 0.749528 0.647553 0.000000
O O13 0.500000 0.000000 0.198186
O O14 0.517898 0.923462 0.000000
O O15 0.500000 0.500000 0.875580
O O16 0.492417 0.598300 0.000000
#
# Coordination Sequence:
#
# PCOD8227361 Si02
#       6
#     8   8   8   8   8   8
#     4   9  19  36  59  83 109 144 180 223 281 332
#     4   9  19  35  52  79 111 137 176 224 271 324
#     4  10  22  37  58  84 111 145 185 229 275 334
#     4   9  19  36  55  81 112 141 182 229 270 325
#     4  10  23  40  58  81 114 154 191 229 279 334
#     4   9  18  32  55  80 103 138 179 219 266 320
#
# _framework density 18.542406
#
# number of rings (size 3 to 8) (size 9 to 14) (size 15 to 20)
#    0.000    2.667    0.000    0.000    4.667    2.667 
#    0.000    0.000    0.000    0.000    0.000    0.000 
#    0.000    0.000    0.000    0.000    0.000    0.000 
#
# Total GULP energy -594899.594594 kJ/mol
# GULP energy per Si atom -12393.741554 kJ/mol
# Density = 1.850020 g / cm^3
# Si number density = 18.542406 Si / 1000 Ang^3
#
#
#
# Elastic Constant Matrix: (Units=GPa)
#
#
# Indices 1 2 3 4 5 6 
#
# 1 71.6692 39.2444 43.1887 0.0000 0.0000 0.0000
# 2 39.2444 116.4306 61.4207 0.0000 0.0000 0.0000
# 3 43.1887 61.4207 82.3324 0.0000 0.0000 0.0000
# 4 0.0000 0.0000 0.0000 32.3074 0.0000 0.0000
# 5 0.0000 0.0000 0.0000 0.0000 29.0600 0.0000
# 6 0.0000 0.0000 0.0000 0.0000 0.0000 26.0086
#
#
#
# Elastic Compliance Matrix: (Units=1/GPa)
#
#
# Indices 1 2 3 4 5 6 
#
# 1 0.020698 -0.002059 -0.009321 0.000000 0.000000 0.000000
# 2 -0.002059 0.014367 -0.009638 0.000000 0.000000 0.000000
# 3 -0.009321 -0.009638 0.024225 0.000000 0.000000 0.000000
# 4 0.000000 0.000000 0.000000 0.030953 0.000000 0.000000
# 5 0.000000 0.000000 0.000000 0.000000 0.034412 0.000000
# 6 0.000000 0.000000 0.000000 0.000000 0.000000 0.038449
#
#
# Mechanical properties :
#
#
# Convention : Reuss Voigt Hill
#
# Bulk Modulus (GPa) = 57.95813 62.01552 59.98682
# Shear Modulus (GPa) = 23.70900 25.91374 24.81137
#
# Velocity S-wave (km/s) = 3.57968 3.74242 3.66196
# Velocity P-wave (km/s) = 6.95776 7.22441 7.09234
#
# Compressibility (1/GPa) = 0.01725384
#
# Stress axis : x y z
#
# Youngs Moduli (GPa) = 48.31491 69.60323 41.27927
#
# Poissons Ratio (x) = 0.14333 0.38476
# Poissons Ratio (y) = 0.09949 0.39784
# Poissons Ratio (z) = 0.45034 0.67082
#
# Static dielectric constant tensor:
#      x y z
#    x 3.392940 0.000000 0.000000 
#    y 0.000000 3.388060 0.000000 
#    z 0.000000 0.000000 3.675880 
# 
# 
# High freq. dielectric constant tensor:
#      x y z
#    x 1.718970 0.000000 0.000000 
#    y 0.000000 1.713000 0.000000 
#    z 0.000000 0.000000 1.721850 
# 
# From -- ./inp_files/4040.got.cif
#   From: 2010.03.12/outbox.cif.g09.slc.cpg/sg55_3_cif.got.tgz:4040.got - 2010.04.16 15:19:21.
