data_PCOD8227267
_publ_section_title
;
Structure prediction by ZEFSAII (Michael W. Deem and Ramdas Pophale) SiO2 
 PCOD8227267
Probable space group: P B A M
;
_chemical_formula_sum "Si O2"
_cell_formula_units_Z 36
_cell_length_a 16.855894
_cell_length_b 14.807509
_cell_length_c 7.429279
_cell_angle_alpha 90.000000
_cell_angle_beta 90.000000
_cell_angle_gamma 90.000000
_cell_volume 1854.301993
_symmetry_space_group_name_H-M "P B A M"
_symmetry_group_IT_number 55
_symmetry_cell_setting 'orthorhombic'
loop_
_space_group_symop_operation_xyz
x,y,z
-x,-y,z
1/2+x,1/2-y,-z
1/2-x,1/2+y,-z
-x,-y,-z
x,y,-z
1/2-x,1/2+y,z
1/2+x,1/2-y,z
loop_
_atom_site_type_symbol
_atom_site_label
_atom_site_fract_x
_atom_site_fract_y
_atom_site_fract_z
Si Si1 0.844411 0.634121 0.294548
Si Si2 0.110913 0.745291 0.000000
Si Si3 0.736522 0.798931 0.293988
Si Si4 0.916828 0.049676 0.000000
Si Si5 0.292470 0.503387 0.289168
Si Si6 0.972075 0.602134 0.000000
O O1 0.868420 0.615123 0.500000
O O2 0.812753 0.735338 0.266624
O O3 0.776251 0.565485 0.231621
O O4 0.922387 0.620824 0.178665
O O5 0.163687 0.736343 0.177828
O O6 0.069124 0.842748 0.000000
O O7 0.046671 0.667204 0.000000
O O8 0.707376 0.797173 0.500000
O O9 0.762565 0.897959 0.233061
O O10 0.870885 0.020334 0.179636
O O11 0.000000 0.000000 0.000000
O O12 0.313057 0.496493 0.500000
O O13 0.000000 0.500000 0.000000
#
# Coordination Sequence:
#
# PCOD8227267 Si02
#       6
#     8   4   8   4   8   4
#     4  10  21  40  64  88 116 154 202 250 293 350
#     4  12  24  39  61  90 128 162 193 245 305 364
#     4  10  21  40  67  90 112 154 206 251 295 349
#     4  12  26  38  57  89 128 164 195 244 305 363
#     4  10  21  41  67  89 114 155 206 253 295 351
#     4  12  26  39  58  91 126 160 193 242 308 361
#
# _framework density 19.414314000000001
#
# number of rings (size 3 to 8) (size 9 to 14) (size 15 to 20)
#    0.000    1.333    2.222    3.333    3.111    1.778 
#    0.000    0.000    0.000    0.000    0.000    0.000 
#    0.000    0.000    0.000    0.000    0.000    0.000 
#
# Total GULP energy -446621.399476 kJ/mol
# GULP energy per Si atom -12406.149985 kJ/mol
# Density = 1.937013 g / cm^3
# Si number density = 19.414314 Si / 1000 Ang^3
#
#
#
# Elastic Constant Matrix: (Units=GPa)
#
#
# Indices 1 2 3 4 5 6 
#
# 1 94.6616 24.4380 53.7328 0.0000 0.0000 0.0000
# 2 24.4380 125.3218 26.7975 0.0000 0.0000 0.0000
# 3 53.7328 26.7975 99.1279 0.0000 0.0000 0.0000
# 4 0.0000 0.0000 0.0000 22.2311 0.0000 0.0000
# 5 0.0000 0.0000 0.0000 0.0000 -62.2820 0.0000
# 6 0.0000 0.0000 0.0000 0.0000 0.0000 34.1386
#
#
#
# Elastic Compliance Matrix: (Units=1/GPa)
#
#
# Indices 1 2 3 4 5 6 
#
# 1 0.015455 -0.001297 -0.008027 0.000000 0.000000 0.000000
# 2 -0.001297 0.008578 -0.001616 0.000000 0.000000 0.000000
# 3 -0.008027 -0.001616 0.014876 0.000000 0.000000 0.000000
# 4 0.000000 0.000000 0.000000 0.044982 0.000000 0.000000
# 5 0.000000 0.000000 0.000000 0.000000 -0.016056 0.000000
# 6 0.000000 0.000000 0.000000 0.000000 0.000000 0.029292
#
#
# Mechanical properties :
#
#
# Convention : Reuss Voigt Hill
#
# Bulk Modulus (GPa) = 58.72305 58.78308 58.75307
# Shear Modulus (GPa) = 40.10159 13.09373 26.59766
#
# Velocity S-wave (km/s) = 4.54978 2.59981 3.70537
# Velocity P-wave (km/s) = 7.61010 6.27343 6.97387
#
# Compressibility (1/GPa) = 0.01702909
#
# Stress axis : x y z
#
# Youngs Moduli (GPa) = 64.70337 116.57829 67.22370
#
# Poissons Ratio (x) = 0.15125 0.53959
# Poissons Ratio (y) = 0.08395 0.10861
# Poissons Ratio (z) = 0.51936 0.18835
#
# Static dielectric constant tensor:
#      x y z
#    x 3.446340 0.000000 0.000000 
#    y 0.000000 3.907090 0.000000 
#    z 0.000000 0.000000 3.677660 
# 
# 
# High freq. dielectric constant tensor:
#      x y z
#    x 1.738170 0.000000 0.000000 
#    y 0.000000 1.780880 0.000000 
#    z 0.000000 0.000000 1.772520 
# 
# From -- ./inp_files/5145.got.cif
#   From: 2010.03.12/outbox.cif.g09.slc.cpg/sg55_3_cif.got.tgz:5145.got - 2010.04.16 15:19:21.
