data_PCOD8227598
_publ_section_title
;
Structure prediction by ZEFSAII (Michael W. Deem and Ramdas Pophale) SiO2 
 PCOD8227598
Probable space group: P B A M
;
_chemical_formula_sum "Si O2"
_cell_formula_units_Z 40
_cell_length_a 18.578775
_cell_length_b 12.140832
_cell_length_c 8.466897
_cell_angle_alpha 90.000000
_cell_angle_beta 90.000000
_cell_angle_gamma 90.000000
_cell_volume 1909.808410
_symmetry_space_group_name_H-M "P B A M"
_symmetry_group_IT_number 55
_symmetry_cell_setting 'orthorhombic'
loop_
_space_group_symop_operation_xyz
x,y,z
-x,-y,z
1/2+x,1/2-y,-z
1/2-x,1/2+y,-z
-x,-y,-z
x,y,-z
1/2-x,1/2+y,z
1/2+x,1/2-y,z
loop_
_atom_site_type_symbol
_atom_site_label
_atom_site_fract_x
_atom_site_fract_y
_atom_site_fract_z
Si Si1 0.614486 0.174038 0.815551
Si Si2 0.548051 0.786057 0.182689
Si Si3 0.690938 0.399979 0.816920
Si Si4 0.341866 0.049645 0.681211
Si Si5 0.574464 0.553853 0.683481
O O1 0.531285 0.176992 0.764769
O O2 0.650053 0.289175 0.767610
O O3 0.655065 0.079685 0.718946
O O4 0.623481 0.149327 0.000000
O O5 0.600932 0.888001 0.209277
O O6 0.573855 0.683954 0.287561
O O7 0.548398 0.750587 0.000000
O O8 0.762312 0.406235 0.713397
O O9 0.639596 0.503136 0.782688
O O10 0.712472 0.400985 0.000000
O O11 0.361510 0.071107 0.500000
O O12 0.500000 0.500000 0.743120
O O13 0.587223 0.528850 0.500000
#
# Coordination Sequence:
#
# PCOD8227598 Si02
#       5
#     8   8   8   8   8
#     4  10  23  44  69  95 125 169 221 268 317 383
#     4  11  23  43  70  97 128 169 221 268 316 387
#     4  11  24  44  68  94 128 173 222 267 318 382
#     4  12  27  43  64  96 135 173 213 268 333 388
#     4  11  23  40  65  98 134 168 209 265 326 384
#
# _framework density 20.944510999999999
#
# number of rings (size 3 to 8) (size 9 to 14) (size 15 to 20)
#    0.000    1.000    2.000    4.200    2.800    6.400 
#    0.000    0.000    0.000    0.000    0.000    0.000 
#    0.000    0.000    0.000    0.000    0.000    0.000 
#
# Total GULP energy -496408.129070 kJ/mol
# GULP energy per Si atom -12410.203227 kJ/mol
# Density = 2.089684 g / cm^3
# Si number density = 20.944511 Si / 1000 Ang^3
#
#
#
# Elastic Constant Matrix: (Units=GPa)
#
#
# Indices 1 2 3 4 5 6 
#
# 1 133.2747 38.2592 25.2194 0.0000 0.0000 0.0000
# 2 38.2592 84.4638 23.9021 0.0000 0.0000 0.0000
# 3 25.2194 23.9021 58.5906 0.0000 0.0000 0.0000
# 4 0.0000 0.0000 0.0000 23.1178 0.0000 0.0000
# 5 0.0000 0.0000 0.0000 0.0000 29.2897 0.0000
# 6 0.0000 0.0000 0.0000 0.0000 0.0000 36.0969
#
#
#
# Elastic Compliance Matrix: (Units=1/GPa)
#
#
# Indices 1 2 3 4 5 6 
#
# 1 0.008933 -0.003344 -0.002481 0.000000 0.000000 0.000000
# 2 -0.003344 0.014637 -0.004532 0.000000 0.000000 0.000000
# 3 -0.002481 -0.004532 0.019984 0.000000 0.000000 0.000000
# 4 0.000000 0.000000 0.000000 0.043257 0.000000 0.000000
# 5 0.000000 0.000000 0.000000 0.000000 0.034142 0.000000
# 6 0.000000 0.000000 0.000000 0.000000 0.000000 0.027703
#
#
# Mechanical properties :
#
#
# Convention : Reuss Voigt Hill
#
# Bulk Modulus (GPa) = 43.78203 50.12117 46.95160
# Shear Modulus (GPa) = 28.25158 30.29745 29.27452
#
# Velocity S-wave (km/s) = 3.67669 3.80749 3.74266
# Velocity P-wave (km/s) = 6.24286 6.58116 6.41424
#
# Compressibility (1/GPa) = 0.02284042
#
# Stress axis : x y z
#
# Youngs Moduli (GPa) = 111.94775 68.32192 50.04007
#
# Poissons Ratio (x) = 0.22848 0.12413
# Poissons Ratio (y) = 0.37438 0.22676
# Poissons Ratio (z) = 0.27770 0.30960
#
# Static dielectric constant tensor:
#      x y z
#    x 3.805300 0.000000 0.000000 
#    y 0.000000 3.729390 0.000000 
#    z 0.000000 0.000000 3.647130 
# 
# 
# High freq. dielectric constant tensor:
#      x y z
#    x 1.828880 0.000000 0.000000 
#    y 0.000000 1.829930 0.000000 
#    z 0.000000 0.000000 1.820230 
# 
# From -- ./inp_files/3603.got.cif
#   From: 2010.03.12/outbox.cif.g09.slc.cpg/sg55_2_cif.got.tgz:3603.got - 2010.04.16 15:19:21.
