data_PCOD8227008
_publ_section_title
;
Structure prediction by ZEFSAII (Michael W. Deem and Ramdas Pophale) SiO2 
 PCOD8227008
Probable space group: P B A M
;
_chemical_formula_sum "Si O2"
_cell_formula_units_Z 56
_cell_length_a 19.750986
_cell_length_b 16.232212
_cell_length_c 9.188034
_cell_angle_alpha 90.000000
_cell_angle_beta 90.000000
_cell_angle_gamma 90.000000
_cell_volume 2945.703840
_symmetry_space_group_name_H-M "P B A M"
_symmetry_group_IT_number 55
_symmetry_cell_setting 'orthorhombic'
loop_
_space_group_symop_operation_xyz
x,y,z
-x,-y,z
1/2+x,1/2-y,-z
1/2-x,1/2+y,-z
-x,-y,-z
x,y,-z
1/2-x,1/2+y,z
1/2+x,1/2-y,z
loop_
_atom_site_type_symbol
_atom_site_label
_atom_site_fract_x
_atom_site_fract_y
_atom_site_fract_z
Si Si1 0.009797 0.242185 0.172001
Si Si2 0.802538 0.002800 0.831751
Si Si3 0.624133 0.794428 0.667685
Si Si4 0.625966 0.132919 0.829888
Si Si5 0.726468 0.689032 0.165516
Si Si6 0.332638 0.023557 0.332001
Si Si7 0.944776 0.936498 0.173059
O O1 0.062653 0.312321 0.219022
O O2 0.038106 0.154918 0.227885
O O3 0.938453 0.258227 0.245026
O O4 0.998864 0.240827 0.000000
O O5 0.809381 0.100887 0.813279
O O6 0.740493 0.966763 0.741011
O O7 0.870644 0.961592 0.769460
O O8 0.789779 0.979992 0.000000
O O9 0.616718 0.769982 0.500000
O O10 0.693189 0.755123 0.728031
O O11 0.626164 0.892373 0.688425
O O12 0.694462 0.182531 0.793213
O O13 0.622848 0.047718 0.742315
O O14 0.624247 0.110896 0.000000
O O15 0.717856 0.719843 0.000000
O O16 0.321910 0.001326 0.500000
O O17 0.944782 0.941406 0.000000
O O18 0.000000 0.000000 0.237062
#
# Coordination Sequence:
#
# PCOD8227008 Si02
#       7
#     8   8   8   8   8   8   8
#     4  10  21  37  58  84 112 145 186 235 284 333
#     4   9  18  34  59  86 109 140 183 230 279 332
#     4  11  24  38  53  79 113 152 192 225 273 338
#     4   9  20  38  59  85 110 139 187 238 288 336
#     4   9  18  34  58  85 111 141 181 230 280 330
#     4  10  22  38  55  78 110 148 188 230 278 332
#     4   9  17  31  55  85 115 143 175 220 278 335
#
# _framework density 19.010736999999999
#
# number of rings (size 3 to 8) (size 9 to 14) (size 15 to 20)
#    0.000    2.429    0.000    2.571    2.000    8.000 
#    0.000    3.571    0.000    1.714    0.000    0.000 
#    0.000    0.000    0.000    0.000    0.000    0.000 
#
# Total GULP energy -694568.452912 kJ/mol
# GULP energy per Si atom -12403.008088 kJ/mol
# Density = 1.896747 g / cm^3
# Si number density = 19.010737 Si / 1000 Ang^3
#
#
#
# Elastic Constant Matrix: (Units=GPa)
#
#
# Indices 1 2 3 4 5 6 
#
# 1 39.2723 12.2196 18.2020 0.0000 0.0000 0.0000
# 2 12.2196 71.8175 33.4383 0.0000 0.0000 0.0000
# 3 18.2020 33.4383 54.6330 0.0000 0.0000 0.0000
# 4 0.0000 0.0000 0.0000 24.8213 0.0000 0.0000
# 5 0.0000 0.0000 0.0000 0.0000 7.9651 0.0000
# 6 0.0000 0.0000 0.0000 0.0000 0.0000 34.6152
#
#
#
# Elastic Compliance Matrix: (Units=1/GPa)
#
#
# Indices 1 2 3 4 5 6 
#
# 1 0.030134 -0.000633 -0.009652 0.000000 0.000000 0.000000
# 2 -0.000633 0.019487 -0.011716 0.000000 0.000000 0.000000
# 3 -0.009652 -0.011716 0.028691 0.000000 0.000000 0.000000
# 4 0.000000 0.000000 0.000000 0.040288 0.000000 0.000000
# 5 0.000000 0.000000 0.000000 0.000000 0.125547 0.000000
# 6 0.000000 0.000000 0.000000 0.000000 0.000000 0.028889
#
#
# Mechanical properties :
#
#
# Convention : Reuss Voigt Hill
#
# Bulk Modulus (GPa) = 29.14718 32.60472 30.87595
# Shear Modulus (GPa) = 15.22187 20.27118 17.74652
#
# Velocity S-wave (km/s) = 2.83273 3.26897 3.05864
# Velocity P-wave (km/s) = 5.10533 5.60679 5.36193
#
# Compressibility (1/GPa) = 0.03430864
#
# Stress axis : x y z
#
# Youngs Moduli (GPa) = 33.18530 51.31648 34.85467
#
# Poissons Ratio (x) = 0.03249 0.33642
# Poissons Ratio (y) = 0.02101 0.40836
# Poissons Ratio (z) = 0.32031 0.60123
#
# Static dielectric constant tensor:
#      x y z
#    x 3.484390 0.000000 0.000000 
#    y 0.000000 3.529120 0.000000 
#    z 0.000000 0.000000 3.275550 
# 
# 
# High freq. dielectric constant tensor:
#      x y z
#    x 1.744390 0.000000 0.000000 
#    y 0.000000 1.745010 0.000000 
#    z 0.000000 0.000000 1.715790 
# 
# From -- ./inp_files/5973.got.cif
#   From: 2010.03.12/outbox.cif.g09.slc.cpg/sg55_3_cif.got.tgz:5973.got - 2010.04.16 15:19:21.
