data_PCOD8227984
_publ_section_title
;
Structure prediction by ZEFSAII (Michael W. Deem and Ramdas Pophale) SiO2 
 PCOD8227984
Probable space group: P C C N
;
_chemical_formula_sum "Si O2"
_cell_formula_units_Z 64
_cell_length_a 18.977753
_cell_length_b 19.168851
_cell_length_c 9.735933
_cell_angle_alpha 90.000000
_cell_angle_beta 90.000000
_cell_angle_gamma 90.000000
_cell_volume 3541.754448
_symmetry_space_group_name_H-M "P C C N"
_symmetry_group_IT_number 56
_symmetry_cell_setting 'orthorhombic'
loop_
_space_group_symop_operation_xyz
x,y,z
1/2-x,1/2-y,z
1/2+x,-y,1/2-z
-x,1/2+y,1/2-z
-x,-y,-z
1/2+x,1/2+y,-z
1/2-x,y,1/2+z
x,1/2-y,1/2+z
loop_
_atom_site_type_symbol
_atom_site_label
_atom_site_fract_x
_atom_site_fract_y
_atom_site_fract_z
Si Si1 0.015715 0.677720 0.094453
Si Si2 0.190600 0.535323 0.966869
Si Si3 0.382429 0.669871 0.356717
Si Si4 0.884111 0.324435 0.656660
Si Si5 0.949506 0.964718 0.609650
Si Si6 0.470775 0.475028 0.856555
Si Si7 0.819176 0.460969 0.709845
Si Si8 0.474600 0.832291 0.603616
O O1 0.956197 0.619416 0.118168
O O2 0.987180 0.756599 0.117817
O O3 0.082043 0.666648 0.193448
O O4 0.044639 0.666594 0.941182
O O5 0.202982 0.535824 0.130495
O O6 0.172429 0.612420 0.908979
O O7 0.130127 0.480562 0.930088
O O8 0.259221 0.505798 0.887344
O O9 0.350440 0.748193 0.371912
O O10 0.405213 0.659331 0.199146
O O11 0.822414 0.381253 0.655467
O O12 0.946036 0.342753 0.549950
O O13 0.000000 0.000000 0.500000
O O14 0.969240 0.998647 0.753658
O O15 0.393800 0.501662 0.815148
O O16 0.467768 0.390667 0.858733
O O17 0.500000 0.500000 0.000000
#
# Coordination Sequence:
#
# PCOD8227984 Si02
#       8
#     8   8   8   8   8   8   8   8
#     4  10  18  35  57  87 115 143 193 241 288 338
#     4  12  26  40  57  84 118 158 196 241 293 346
#     4  10  19  34  58  82 114 150 192 229 284 346
#     4  10  19  36  54  84 119 149 186 235 278 344
#     4  12  19  38  64  84 108 156 199 245 286 336
#     4  12  21  36  62  88 115 151 195 242 287 337
#     4  12  26  41  55  84 122 155 196 240 290 347
#     4  10  20  31  59  91 113 145 187 241 292 340
#
# _framework density 18.070139999999999
#
# number of rings (size 3 to 8) (size 9 to 14) (size 15 to 20)
#    0.000    1.000    7.500    0.000    3.500    0.500 
#    0.000    1.250    0.000    0.750    0.000    1.750 
#    0.000    0.000    0.000    0.000    0.000    0.000 
#
# Total GULP energy -793387.921998 kJ/mol
# GULP energy per Si atom -12396.686281 kJ/mol
# Density = 1.802901 g / cm^3
# Si number density = 18.070140 Si / 1000 Ang^3
#
#
#
# Elastic Constant Matrix: (Units=GPa)
#
#
# Indices 1 2 3 4 5 6 
#
# 1 68.2916 32.4694 23.5006 0.0000 0.0000 0.0000
# 2 32.4694 109.9814 29.2029 0.0000 0.0000 0.0000
# 3 23.5006 29.2029 93.8137 0.0000 0.0000 0.0000
# 4 0.0000 0.0000 0.0000 24.0478 0.0000 0.0000
# 5 0.0000 0.0000 0.0000 0.0000 26.3223 0.0000
# 6 0.0000 0.0000 0.0000 0.0000 0.0000 21.6476
#
#
#
# Elastic Compliance Matrix: (Units=1/GPa)
#
#
# Indices 1 2 3 4 5 6 
#
# 1 0.017815 -0.004442 -0.003080 0.000000 0.000000 0.000000
# 2 -0.004442 0.011019 -0.002317 0.000000 0.000000 0.000000
# 3 -0.003080 -0.002317 0.012152 0.000000 0.000000 0.000000
# 4 0.000000 0.000000 0.000000 0.041584 0.000000 0.000000
# 5 0.000000 0.000000 0.000000 0.000000 0.037991 0.000000
# 6 0.000000 0.000000 0.000000 0.000000 0.000000 0.046195
#
#
# Mechanical properties :
#
#
# Convention : Reuss Voigt Hill
#
# Bulk Modulus (GPa) = 46.93062 49.15918 48.04490
# Shear Modulus (GPa) = 25.83499 26.86446 26.34972
#
# Velocity S-wave (km/s) = 3.78525 3.85993 3.82277
# Velocity P-wave (km/s) = 6.71803 6.86506 6.79194
#
# Compressibility (1/GPa) = 0.02130805
#
# Stress axis : x y z
#
# Youngs Moduli (GPa) = 56.13329 90.75190 82.28840
#
# Poissons Ratio (x) = 0.40308 0.25345
# Poissons Ratio (y) = 0.24932 0.19070
# Poissons Ratio (z) = 0.17289 0.21031
#
# Static dielectric constant tensor:
#      x y z
#    x 2.971450 0.000000 0.000000 
#    y 0.000000 3.731020 0.000000 
#    z 0.000000 0.000000 3.564030 
# 
# 
# High freq. dielectric constant tensor:
#      x y z
#    x 1.649110 0.000000 0.000000 
#    y 0.000000 1.704660 0.000000 
#    z 0.000000 0.000000 1.726790 
# 
# From -- ./inp_files/4218.got.cif
#   From: 2010.03.12/outbox.cif.g09.slc.cpg/sg56_3_cif.got.tgz:4218.got - 2010.04.16 15:33:40.
