data_PCOD8227025
_publ_section_title
;
Structure prediction by ZEFSAII (Michael W. Deem and Ramdas Pophale) SiO2 
 PCOD8227025
Probable space group: P B A M
;
_chemical_formula_sum "Si O2"
_cell_formula_units_Z 56
_cell_length_a 19.761358
_cell_length_b 16.495748
_cell_length_c 8.535861
_cell_angle_alpha 90.000000
_cell_angle_beta 90.000000
_cell_angle_gamma 90.000000
_cell_volume 2782.506155
_symmetry_space_group_name_H-M "P B A M"
_symmetry_group_IT_number 55
_symmetry_cell_setting 'orthorhombic'
loop_
_space_group_symop_operation_xyz
x,y,z
-x,-y,z
1/2+x,1/2-y,-z
1/2-x,1/2+y,-z
-x,-y,-z
x,y,-z
1/2-x,1/2+y,z
1/2+x,1/2-y,z
loop_
_atom_site_type_symbol
_atom_site_label
_atom_site_fract_x
_atom_site_fract_y
_atom_site_fract_z
Si Si1 0.160870 0.517833 0.816360
Si Si2 0.189637 0.990193 0.816088
Si Si3 0.870155 0.649063 0.682317
Si Si4 0.118469 0.682638 0.682064
Si Si5 0.216961 0.823187 0.317690
Si Si6 0.485179 0.743554 0.816914
Si Si7 0.553610 0.434703 0.186591
O O1 0.238396 0.523879 0.753591
O O2 0.123487 0.445746 0.724401
O O3 0.122205 0.600827 0.782093
O O4 0.158667 0.498270 0.000000
O O5 0.127729 0.042244 0.744371
O O6 0.180536 0.896050 0.773267
O O7 0.186900 0.998677 0.000000
O O8 0.886814 0.661592 0.500000
O O9 0.795841 0.682333 0.727127
O O10 0.922220 0.697801 0.788348
O O11 0.122159 0.660319 0.500000
O O12 0.180965 0.739889 0.732122
O O13 0.048718 0.727105 0.717569
O O14 0.207579 0.841253 0.500000
O O15 0.466387 0.654295 0.754004
O O16 0.503533 0.743121 0.000000
O O17 0.500000 0.500000 0.251644
O O18 0.554766 0.436671 0.000000
#
# Coordination Sequence:
#
# PCOD8227025 Si02
#       7
#     8   8   8   8   8   8   8
#     4  10  21  37  59  87 114 146 196 246 290 342
#     4   9  18  34  57  85 114 148 189 237 287 339
#     4  10  21  40  61  84 117 154 192 239 295 348
#     4  11  23  39  58  83 117 155 195 237 290 348
#     4   9  20  37  58  84 116 154 193 235 284 344
#     4  11  23  38  59  87 117 153 196 241 290 346
#     4   9  18  33  55  84 119 153 186 229 286 344
#
# _framework density 20.125741000000001
#
# number of rings (size 3 to 8) (size 9 to 14) (size 15 to 20)
#    0.000    2.143    0.000    2.571    2.000    4.000 
#    0.000    4.286    0.000    3.857    0.000    0.000 
#    0.000    0.000    0.000    0.000    0.000    0.000 
#
# Total GULP energy -694581.915538 kJ/mol
# GULP energy per Si atom -12403.248492 kJ/mol
# Density = 2.007993 g / cm^3
# Si number density = 20.125741 Si / 1000 Ang^3
#
#
#
# Elastic Constant Matrix: (Units=GPa)
#
#
# Indices 1 2 3 4 5 6 
#
# 1 62.8023 32.5637 17.2820 0.0000 0.0000 0.0000
# 2 32.5637 110.3522 15.6397 0.0000 0.0000 0.0000
# 3 17.2820 15.6397 24.9174 0.0000 0.0000 0.0000
# 4 0.0000 0.0000 0.0000 26.7190 0.0000 0.0000
# 5 0.0000 0.0000 0.0000 0.0000 20.7612 0.0000
# 6 0.0000 0.0000 0.0000 0.0000 0.0000 37.8866
#
#
#
# Elastic Compliance Matrix: (Units=1/GPa)
#
#
# Indices 1 2 3 4 5 6 
#
# 1 0.021680 -0.004683 -0.012097 0.000000 0.000000 0.000000
# 2 -0.004683 0.010958 -0.003630 0.000000 0.000000 0.000000
# 3 -0.012097 -0.003630 0.050801 0.000000 0.000000 0.000000
# 4 0.000000 0.000000 0.000000 0.037426 0.000000 0.000000
# 5 0.000000 0.000000 0.000000 0.000000 0.048167 0.000000
# 6 0.000000 0.000000 0.000000 0.000000 0.000000 0.026395
#
#
# Mechanical properties :
#
#
# Convention : Reuss Voigt Hill
#
# Bulk Modulus (GPa) = 23.46374 36.56029 30.01202
# Shear Modulus (GPa) = 19.96368 25.91248 22.93808
#
# Velocity S-wave (km/s) = 3.15294 3.59211 3.37966
# Velocity P-wave (km/s) = 4.99385 5.95060 5.49310
#
# Compressibility (1/GPa) = 0.04261894
#
# Stress axis : x y z
#
# Youngs Moduli (GPa) = 46.12516 91.25509 19.68451
#
# Poissons Ratio (x) = 0.42736 0.23813
# Poissons Ratio (y) = 0.21601 0.07146
# Poissons Ratio (z) = 0.55799 0.33126
#
# Static dielectric constant tensor:
#      x y z
#    x 3.867410 0.000000 0.000000 
#    y 0.000000 3.694000 0.000000 
#    z 0.000000 0.000000 3.393040 
# 
# 
# High freq. dielectric constant tensor:
#      x y z
#    x 1.792160 0.000000 0.000000 
#    y 0.000000 1.790230 0.000000 
#    z 0.000000 0.000000 1.769700 
# 
# From -- ./inp_files/8672.got.cif
#   From: 2010.03.12/outbox.cif.g09.slc.cpg/sg55_5_cif.got.tgz:8672.got - 2010.04.16 15:19:21.
