data_PCOD8227557
_publ_section_title
;
Structure prediction by ZEFSAII (Michael W. Deem and Ramdas Pophale) SiO2 
 PCOD8227557
Probable space group: P B A M
;
_chemical_formula_sum "Si O2"
_cell_formula_units_Z 56
_cell_length_a 31.047749
_cell_length_b 5.299641
_cell_length_c 15.795038
_cell_angle_alpha 90.000000
_cell_angle_beta 90.000000
_cell_angle_gamma 90.000000
_cell_volume 2598.945935
_symmetry_space_group_name_H-M "P B A M"
_symmetry_group_IT_number 55
_symmetry_cell_setting 'orthorhombic'
loop_
_space_group_symop_operation_xyz
x,y,z
-x,-y,z
1/2+x,1/2-y,-z
1/2-x,1/2+y,-z
-x,-y,-z
x,y,-z
1/2-x,1/2+y,z
1/2+x,1/2-y,z
loop_
_atom_site_type_symbol
_atom_site_label
_atom_site_fract_x
_atom_site_fract_y
_atom_site_fract_z
Si Si1 0.579371 0.749082 0.406589
Si Si2 0.560115 0.141568 0.263924
Si Si3 0.223669 0.242196 0.598903
Si Si4 0.901262 0.593399 0.094202
Si Si5 0.723651 0.604842 0.000000
Si Si6 0.500000 0.500000 0.344215
Si Si7 0.143221 0.045954 0.311870
Si Si8 0.651418 0.597651 0.869118
O O1 0.581377 0.876157 0.500000
O O2 0.540901 0.543822 0.405800
O O3 0.626858 0.637622 0.387413
O O4 0.564776 0.922777 0.330989
O O5 0.561772 0.052043 0.165882
O O6 0.514116 0.273922 0.280888
O O7 0.601202 0.317209 0.277387
O O8 0.212671 0.238343 0.500000
O O9 0.252170 0.999111 0.624254
O O10 0.178955 0.234101 0.650459
O O11 0.867567 0.365914 0.103070
O O12 0.878978 0.864913 0.105226
O O13 0.921877 0.582712 0.000000
O O14 0.696445 0.560301 0.084621
O O15 0.760194 0.392473 0.000000
O O16 0.161577 0.892895 0.231565
#
# Coordination Sequence:
#
# PCOD8227557 Si02
#       8
#     8   8   8   8   4   4   8   8
#     4  11  22  39  65  95 129 174 222 270 332 400
#     4  10  23  39  64  96 127 170 219 271 324 403
#     4  10  23  40  60  86 123 168 212 267 328 379
#     4  11  20  40  67  92 123 169 216 261 317 378
#     4  12  24  38  58  96 132 167 209 269 333 406
#     4  10  23  42  59  92 140 172 207 272 339 394
#     4  10  23  40  62  92 126 165 225 270 326 388
#     4  11  22  39  63  89 126 166 210 265 320 386
#
# _framework density 21.547198000000002
#
# number of rings (size 3 to 8) (size 9 to 14) (size 15 to 20)
#    0.000    1.429    2.857    1.929    2.000    5.143 
#    0.000    0.357    0.000    1.714    0.000    0.000 
#    0.000    0.000    0.000    0.000    0.000    0.000 
#
# Total GULP energy -694094.345767 kJ/mol
# GULP energy per Si atom -12394.541889 kJ/mol
# Density = 2.149816 g / cm^3
# Si number density = 21.547198 Si / 1000 Ang^3
#
#
#
# Elastic Constant Matrix: (Units=GPa)
#
#
# Indices 1 2 3 4 5 6 
#
# 1 45.5984 -7.8274 26.9951 0.0000 0.0000 0.0000
# 2 -7.8274 70.2015 9.9009 0.0000 0.0000 0.0000
# 3 26.9951 9.9009 152.4342 0.0000 0.0000 0.0000
# 4 0.0000 0.0000 0.0000 33.0637 0.0000 0.0000
# 5 0.0000 0.0000 0.0000 0.0000 22.2681 0.0000
# 6 0.0000 0.0000 0.0000 0.0000 0.0000 14.8714
#
#
#
# Elastic Compliance Matrix: (Units=1/GPa)
#
#
# Indices 1 2 3 4 5 6 
#
# 1 0.025318 0.003487 -0.004710 0.000000 0.000000 0.000000
# 2 0.003487 0.014857 -0.001583 0.000000 0.000000 0.000000
# 3 -0.004710 -0.001583 0.007497 0.000000 0.000000 0.000000
# 4 0.000000 0.000000 0.000000 0.030245 0.000000 0.000000
# 5 0.000000 0.000000 0.000000 0.000000 0.044907 0.000000
# 6 0.000000 0.000000 0.000000 0.000000 0.000000 0.067243
#
#
# Mechanical properties :
#
#
# Convention : Reuss Voigt Hill
#
# Bulk Modulus (GPa) = 23.77518 36.26346 30.01932
# Shear Modulus (GPa) = 23.84386 29.98501 26.91443
#
# Velocity S-wave (km/s) = 3.33015 3.73446 3.53808
# Velocity P-wave (km/s) = 5.08375 5.95493 5.53650
#
# Compressibility (1/GPa) = 0.04206067
#
# Stress axis : x y z
#
# Youngs Moduli (GPa) = 39.49811 67.30955 133.38448
#
# Poissons Ratio (x) = -0.23472 0.62825
# Poissons Ratio (y) = -0.13774 0.21109
# Poissons Ratio (z) = 0.18604 0.10652
#
# Static dielectric constant tensor:
#      x y z
#    x 3.948000 0.000000 0.000000 
#    y 0.000000 3.980490 0.000000 
#    z 0.000000 0.000000 4.411720 
# 
# 
# High freq. dielectric constant tensor:
#      x y z
#    x 1.831600 0.000000 0.000000 
#    y 0.000000 1.848180 0.000000 
#    z 0.000000 0.000000 1.856590 
# 
# From -- ./inp_files/20162.got.cif
#   From: 2010.03.12/outbox.cif.g09.slc.cpg/sg55_11_cif.got.tgz:20162.got - 2010.04.16 15:19:21.
