data_PCOD8227064
_publ_section_title
;
Structure prediction by ZEFSAII (Michael W. Deem and Ramdas Pophale) SiO2 
 PCOD8227064
Probable space group: P B A M
;
_chemical_formula_sum "Si O2"
_cell_formula_units_Z 56
_cell_length_a 21.385420
_cell_length_b 14.359434
_cell_length_c 9.520400
_cell_angle_alpha 90.000000
_cell_angle_beta 90.000000
_cell_angle_gamma 90.000000
_cell_volume 2923.548491
_symmetry_space_group_name_H-M "P B A M"
_symmetry_group_IT_number 55
_symmetry_cell_setting 'orthorhombic'
loop_
_space_group_symop_operation_xyz
x,y,z
-x,-y,z
1/2+x,1/2-y,-z
1/2-x,1/2+y,-z
-x,-y,-z
x,y,-z
1/2-x,1/2+y,z
1/2+x,1/2-y,z
loop_
_atom_site_type_symbol
_atom_site_label
_atom_site_fract_x
_atom_site_fract_y
_atom_site_fract_z
Si Si1 0.928378 0.487425 0.834222
Si Si2 0.116013 0.687720 0.663158
Si Si3 0.727896 0.680022 0.334827
Si Si4 0.528756 0.641736 0.343481
Si Si5 0.354798 0.490498 0.342165
Si Si6 0.850965 0.667954 0.158949
Si Si7 0.410570 0.636793 0.159709
O O1 0.895164 0.402072 0.757432
O O2 0.889543 0.578508 0.789626
O O3 0.000000 0.500000 0.783975
O O4 0.926030 0.469030 0.000000
O O5 0.117173 0.658785 0.500000
O O6 0.181911 0.735042 0.706241
O O7 0.060629 0.760195 0.693108
O O8 0.740097 0.681265 0.500000
O O9 0.697896 0.581351 0.290097
O O10 0.792617 0.690546 0.256052
O O11 0.499077 0.646340 0.500000
O O12 0.578536 0.559508 0.338654
O O13 0.476810 0.617511 0.230513
O O14 0.339816 0.524970 0.500000
O O15 0.356057 0.578941 0.238778
O O16 0.897836 0.754075 0.169482
O O17 0.827014 0.654058 0.000000
O O18 0.413310 0.601846 0.000000
#
# Coordination Sequence:
#
# PCOD8227064 Si02
#       7
#     8   8   8   8   8   8   8
#     4  10  21  38  58  80 110 148 185 224 275 328
#     4   9  19  36  58  83 108 137 178 225 270 319
#     4   9  20  39  59  79 105 139 179 221 268 322
#     4   9  18  34  55  79 109 140 169 209 262 316
#     4   9  19  36  56  78 106 139 173 212 261 315
#     4  10  23  39  53  75 109 144 179 222 268 317
#     4  11  22  34  51  78 109 140 175 214 258 310
#
# _framework density 19.154805
#
# number of rings (size 3 to 8) (size 9 to 14) (size 15 to 20)
#    0.000    2.429    0.000    3.429    0.000    8.286 
#    0.000    8.571    0.000    0.000    0.000    0.000 
#    0.000    0.000    0.000    0.000    0.000    0.000 
#
# Total GULP energy -694463.561822 kJ/mol
# GULP energy per Si atom -12401.135033 kJ/mol
# Density = 1.911121 g / cm^3
# Si number density = 19.154805 Si / 1000 Ang^3
#
#
#
# Elastic Constant Matrix: (Units=GPa)
#
#
# Indices 1 2 3 4 5 6 
#
# 1 74.5451 10.8166 28.9818 0.0000 0.0000 0.0000
# 2 10.8166 98.5395 37.7632 0.0000 0.0000 0.0000
# 3 28.9818 37.7632 68.6632 0.0000 0.0000 0.0000
# 4 0.0000 0.0000 0.0000 34.1632 0.0000 0.0000
# 5 0.0000 0.0000 0.0000 0.0000 24.6718 0.0000
# 6 0.0000 0.0000 0.0000 0.0000 0.0000 17.2926
#
#
#
# Elastic Compliance Matrix: (Units=1/GPa)
#
#
# Indices 1 2 3 4 5 6 
#
# 1 0.016136 0.001063 -0.007395 0.000000 0.000000 0.000000
# 2 0.001063 0.012928 -0.007559 0.000000 0.000000 0.000000
# 3 -0.007395 -0.007559 0.021842 0.000000 0.000000 0.000000
# 4 0.000000 0.000000 0.000000 0.029271 0.000000 0.000000
# 5 0.000000 0.000000 0.000000 0.000000 0.040532 0.000000
# 6 0.000000 0.000000 0.000000 0.000000 0.000000 0.057828
#
#
# Mechanical properties :
#
#
# Convention : Reuss Voigt Hill
#
# Bulk Modulus (GPa) = 43.24519 44.09678 43.67098
# Shear Modulus (GPa) = 23.36137 26.17126 24.76631
#
# Velocity S-wave (km/s) = 3.49608 3.70036 3.59967
# Velocity P-wave (km/s) = 6.23879 6.42870 6.33445
#
# Compressibility (1/GPa) = 0.02312396
#
# Stress axis : x y z
#
# Youngs Moduli (GPa) = 61.97489 77.34943 45.78240
#
# Poissons Ratio (x) = -0.08221 0.33857
# Poissons Ratio (y) = -0.06587 0.34606
# Poissons Ratio (z) = 0.45831 0.58468
#
# Static dielectric constant tensor:
#      x y z
#    x 3.372540 0.000000 0.000000 
#    y 0.000000 3.598570 0.000000 
#    z 0.000000 0.000000 3.482540 
# 
# 
# High freq. dielectric constant tensor:
#      x y z
#    x 1.737990 0.000000 0.000000 
#    y 0.000000 1.753740 0.000000 
#    z 0.000000 0.000000 1.739600 
# 
# From -- ./inp_files/8674.got.cif
#   From: 2010.03.12/outbox.cif.g09.slc.cpg/sg55_5_cif.got.tgz:8674.got - 2010.04.16 15:19:21.
