data_PCOD8227788
_publ_section_title
;
Structure prediction by ZEFSAII (Michael W. Deem and Ramdas Pophale) SiO2 
 PCOD8227788
Probable space group: P B A M
;
_chemical_formula_sum "Si O2"
_cell_formula_units_Z 40
_cell_length_a 9.110944
_cell_length_b 14.329508
_cell_length_c 13.086005
_cell_angle_alpha 90.000000
_cell_angle_beta 90.000000
_cell_angle_gamma 90.000000
_cell_volume 1708.447897
_symmetry_space_group_name_H-M "P B A M"
_symmetry_group_IT_number 55
_symmetry_cell_setting 'orthorhombic'
loop_
_space_group_symop_operation_xyz
x,y,z
-x,-y,z
1/2+x,1/2-y,-z
1/2-x,1/2+y,-z
-x,-y,-z
x,y,-z
1/2-x,1/2+y,z
1/2+x,1/2-y,z
loop_
_atom_site_type_symbol
_atom_site_label
_atom_site_fract_x
_atom_site_fract_y
_atom_site_fract_z
Si Si1 0.362807 0.329583 0.714276
Si Si2 0.000000 0.500000 0.669621
Si Si3 0.896444 0.378265 0.500000
Si Si4 0.425617 0.210799 0.000000
Si Si5 0.226246 0.302204 0.500000
Si Si6 0.500000 0.500000 0.173487
Si Si7 0.432331 0.824586 0.209667
Si Si8 0.883394 0.882175 0.000000
O O1 0.301106 0.345716 0.600513
O O2 0.421669 0.427701 0.752968
O O3 0.237100 0.291367 0.792623
O O4 0.484231 0.248304 0.716437
O O5 0.117197 0.554961 0.598871
O O6 0.081841 0.426381 0.740593
O O7 0.757659 0.309137 0.500000
O O8 0.052822 0.323053 0.500000
O O9 0.499393 0.164502 0.901372
O O10 0.252353 0.189551 0.000000
O O11 0.464712 0.321371 0.000000
O O12 0.382237 0.553653 0.101066
#
# Coordination Sequence:
#
# PCOD8227788 Si02
#       8
#     8   4   4   4   4   4   8   4
#     4  12  26  48  74 106 149 192 243 307 363 430
#     4  11  24  45  68 112 142 189 234 311 352 424
#     4  11  24  46  76 100 149 189 248 298 366 429
#     4  12  26  46  79 105 139 199 246 287 367 442
#     4  12  22  49  72 106 135 202 240 291 364 437
#     4  11  28  47  72 106 154 187 238 307 376 412
#     4  12  27  46  77 106 148 191 248 301 367 426
#     4  11  26  49  76 103 148 195 241 300 365 440
#
# _framework density 23.413063999999999
#
# number of rings (size 3 to 8) (size 9 to 14) (size 15 to 20)
#    0.000    0.400    6.000    1.200    2.800    1.600 
#    3.600    0.000    0.000    0.000    0.000    0.000 
#    0.000    0.000    0.000    0.000    0.000    0.000 
#
# Total GULP energy -495987.368443 kJ/mol
# GULP energy per Si atom -12399.684211 kJ/mol
# Density = 2.335977 g / cm^3
# Si number density = 23.413064 Si / 1000 Ang^3
#
#
#
# Elastic Constant Matrix: (Units=GPa)
#
#
# Indices 1 2 3 4 5 6 
#
# 1 105.7844 51.6702 11.7704 0.0000 0.0000 0.0000
# 2 51.6702 155.5216 48.1304 0.0000 0.0000 0.0000
# 3 11.7704 48.1304 126.1416 0.0000 0.0000 0.0000
# 4 0.0000 0.0000 0.0000 45.3198 0.0000 0.0000
# 5 0.0000 0.0000 0.0000 0.0000 17.4416 0.0000
# 6 0.0000 0.0000 0.0000 0.0000 0.0000 32.7001
#
#
#
# Elastic Compliance Matrix: (Units=1/GPa)
#
#
# Indices 1 2 3 4 5 6 
#
# 1 0.011305 -0.003889 0.000429 0.000000 0.000000 0.000000
# 2 -0.003889 0.008629 -0.002929 0.000000 0.000000 0.000000
# 3 0.000429 -0.002929 0.009005 0.000000 0.000000 0.000000
# 4 0.000000 0.000000 0.000000 0.022065 0.000000 0.000000
# 5 0.000000 0.000000 0.000000 0.000000 0.057334 0.000000
# 6 0.000000 0.000000 0.000000 0.000000 0.000000 0.030581
#
#
# Mechanical properties :
#
#
# Convention : Reuss Voigt Hill
#
# Bulk Modulus (GPa) = 61.87993 67.84329 64.86161
# Shear Modulus (GPa) = 31.83004 37.48409 34.65707
#
# Velocity S-wave (km/s) = 3.69114 4.00558 3.85157
# Velocity P-wave (km/s) = 6.68229 7.10158 6.89513
#
# Compressibility (1/GPa) = 0.01616033
#
# Stress axis : x y z
#
# Youngs Moduli (GPa) = 88.45750 115.89473 111.04536
#
# Poissons Ratio (x) = 0.45067 -0.04762
# Poissons Ratio (y) = 0.34398 0.32530
# Poissons Ratio (z) = -0.03794 0.33951
#
# Static dielectric constant tensor:
#      x y z
#    x 4.190800 0.000000 0.000000 
#    y 0.000000 4.296850 0.000000 
#    z 0.000000 0.000000 4.476660 
# 
# 
# High freq. dielectric constant tensor:
#      x y z
#    x 1.909910 0.000000 0.000000 
#    y 0.000000 1.933070 0.000000 
#    z 0.000000 0.000000 1.947940 
# 
# From -- ./inp_files/17160.got.cif
#   From: 2010.03.12/outbox.cif.g09.slc.cpg/sg55_9_cif.got.tgz:17160.got - 2010.04.16 15:19:21.
