data_PCOD8227951
_publ_section_title
;
Structure prediction by ZEFSAII (Michael W. Deem and Ramdas Pophale) SiO2 
 PCOD8227951
Probable space group: P C C N
;
_chemical_formula_sum "Si O2"
_cell_formula_units_Z 44
_cell_length_a 21.077319
_cell_length_b 11.303213
_cell_length_c 8.396184
_cell_angle_alpha 90.000000
_cell_angle_beta 90.000000
_cell_angle_gamma 90.000000
_cell_volume 2000.318850
_symmetry_space_group_name_H-M "P C C N"
_symmetry_group_IT_number 56
_symmetry_cell_setting 'orthorhombic'
loop_
_space_group_symop_operation_xyz
x,y,z
1/2-x,1/2-y,z
1/2+x,-y,1/2-z
-x,1/2+y,1/2-z
-x,-y,-z
1/2+x,1/2+y,-z
1/2-x,y,1/2+z
x,1/2-y,1/2+z
loop_
_atom_site_type_symbol
_atom_site_label
_atom_site_fract_x
_atom_site_fract_y
_atom_site_fract_z
Si Si1 0.750000 0.750000 0.981207
Si Si2 0.917508 0.348383 0.360460
Si Si3 0.056420 0.282819 0.466293
Si Si4 0.327386 0.120946 0.275481
Si Si5 0.106496 0.606239 0.288562
Si Si6 0.461379 0.077707 0.777396
O O1 0.691074 0.801034 0.879179
O O2 0.773178 0.859038 0.091037
O O3 0.881645 0.236864 0.282777
O O4 0.883092 0.388567 0.521239
O O5 0.920677 0.457568 0.235619
O O6 0.989005 0.318775 0.398481
O O7 0.106882 0.339480 0.349671
O O8 0.063286 0.327203 0.645705
O O9 0.056858 0.138299 0.447760
O O10 0.338167 0.983155 0.227542
O O11 0.036622 0.557177 0.243198
#
# Coordination Sequence:
#
# PCOD8227951 Si02
#       6
#     4   8   8   8   8   8
#     4  10  26  38  66  86 108 140 220 252 292 318
#     4  10  19  36  52  95 123 158 177 221 277 393
#     4  10  18  32  61  83 125 148 185 226 299 328
#     4  11  20  43  59  90 108 153 188 263 285 330
#     4  10  20  36  59  81 130 155 189 223 291 343
#     4  10  18  34  52  94 124 158 181 224 274 382
#
# _framework density 21.996492
#
# number of rings (size 3 to 8) (size 9 to 14) (size 15 to 20)
#    0.000    1.818    3.636    2.182    0.000    0.000 
#    6.545    3.636    0.000    3.273    0.000    0.000 
#    0.000    0.000    0.000    0.000    0.000    0.000 
#
# Total GULP energy -545250.385098 kJ/mol
# GULP energy per Si atom -12392.054207 kJ/mol
# Density = 2.194643 g / cm^3
# Si number density = 21.996492 Si / 1000 Ang^3
#
#
#
# Elastic Constant Matrix: (Units=GPa)
#
#
# Indices 1 2 3 4 5 6 
#
# 1 33.1766 35.6136 9.4241 0.0000 0.0000 0.0000
# 2 35.6136 150.4653 42.6239 0.0000 0.0000 0.0000
# 3 9.4241 42.6239 44.0330 0.0000 0.0000 0.0000
# 4 0.0000 0.0000 0.0000 31.7412 0.0000 0.0000
# 5 0.0000 0.0000 0.0000 0.0000 13.0429 0.0000
# 6 0.0000 0.0000 0.0000 0.0000 0.0000 33.6642
#
#
#
# Elastic Compliance Matrix: (Units=1/GPa)
#
#
# Indices 1 2 3 4 5 6 
#
# 1 0.040431 -0.009808 0.000841 0.000000 0.000000 0.000000
# 2 -0.009808 0.011536 -0.009068 0.000000 0.000000 0.000000
# 3 0.000841 -0.009068 0.031308 0.000000 0.000000 0.000000
# 4 0.000000 0.000000 0.000000 0.031505 0.000000 0.000000
# 5 0.000000 0.000000 0.000000 0.000000 0.076670 0.000000
# 6 0.000000 0.000000 0.000000 0.000000 0.000000 0.029705
#
#
# Mechanical properties :
#
#
# Convention : Reuss Voigt Hill
#
# Bulk Modulus (GPa) = 21.18402 44.77756 32.98079
# Shear Modulus (GPa) = 18.31766 25.02387 21.67076
#
# Velocity S-wave (km/s) = 2.88888 3.37654 3.14218
# Velocity P-wave (km/s) = 4.55840 5.96676 5.30948
#
# Compressibility (1/GPa) = 0.04720540
#
# Stress axis : x y z
#
# Youngs Moduli (GPa) = 24.73339 86.68339 31.94067
#
# Poissons Ratio (x) = 0.85017 -0.02685
# Poissons Ratio (y) = 0.24258 0.28964
# Poissons Ratio (z) = -0.02079 0.78604
#
# Static dielectric constant tensor:
#      x y z
#    x 3.603600 0.000000 0.000000 
#    y 0.000000 4.494370 0.000000 
#    z 0.000000 0.000000 4.278230 
# 
# 
# High freq. dielectric constant tensor:
#      x y z
#    x 1.817180 0.000000 0.000000 
#    y 0.000000 1.872580 0.000000 
#    z 0.000000 0.000000 1.864610 
# 
# From -- ./inp_files/2748.got.cif
#   From: 2010.03.12/outbox.cif.g09.slc.cpg/sg56_2_cif.got.tgz:2748.got - 2010.04.16 15:33:40.
