data_PCOD8227691
_publ_section_title
;
Structure prediction by ZEFSAII (Michael W. Deem and Ramdas Pophale) SiO2 
 PCOD8227691
Probable space group: P B A M
;
_chemical_formula_sum "Si O2"
_cell_formula_units_Z 48
_cell_length_a 30.205774
_cell_length_b 10.086881
_cell_length_c 8.702424
_cell_angle_alpha 90.000000
_cell_angle_beta 90.000000
_cell_angle_gamma 90.000000
_cell_volume 2651.472366
_symmetry_space_group_name_H-M "P B A M"
_symmetry_group_IT_number 55
_symmetry_cell_setting 'orthorhombic'
loop_
_space_group_symop_operation_xyz
x,y,z
-x,-y,z
1/2+x,1/2-y,-z
1/2-x,1/2+y,-z
-x,-y,-z
x,y,-z
1/2-x,1/2+y,z
1/2+x,1/2-y,z
loop_
_atom_site_type_symbol
_atom_site_label
_atom_site_fract_x
_atom_site_fract_y
_atom_site_fract_z
Si Si1 0.214857 0.359116 0.319615
Si Si2 0.048252 0.149645 0.318597
Si Si3 0.881498 0.354164 0.180209
Si Si4 0.551823 0.649275 0.318180
Si Si5 0.883907 0.634490 0.316718
Si Si6 0.287255 0.158255 0.318336
O O1 0.214738 0.336231 0.500000
O O2 0.165476 0.329583 0.256664
O O3 0.250515 0.257834 0.247935
O O4 0.228453 0.509363 0.278116
O O5 0.051288 0.154101 0.500000
O O6 0.082364 0.256515 0.247954
O O7 0.998340 0.186045 0.269865
O O8 0.061427 0.001847 0.266005
O O9 0.916070 0.240990 0.221763
O O10 0.897856 0.490382 0.256965
O O11 0.833738 0.308492 0.240467
O O12 0.879314 0.375057 0.000000
O O13 0.559383 0.668549 0.500000
O O14 0.885093 0.629517 0.500000
O O15 0.293722 0.176036 0.500000
#
# Coordination Sequence:
#
# PCOD8227691 Si02
#       6
#     8   8   8   8   8   8
#     4   8  15  27  48  73  94 117 154 198 243 287
#     4   8  16  31  55  80  99 122 161 206 252 299
#     4  11  22  34  47  70 102 138 172 202 238 289
#     4   9  17  33  54  77 101 127 160 205 252 297
#     4   9  17  33  54  76  99 127 162 205 248 291
#     4   9  17  32  51  72  96 125 160 204 248 289
#
# _framework density 18.103149999999999
#
# number of rings (size 3 to 8) (size 9 to 14) (size 15 to 20)
#    0.000    3.000    0.000    3.500    0.000    2.000 
#    0.000   15.000    0.000    0.000    0.000    0.000 
#    0.000    0.000    0.000    0.000    0.000    0.000 
#
# Total GULP energy -595031.904233 kJ/mol
# GULP energy per Si atom -12396.498005 kJ/mol
# Density = 1.806195 g / cm^3
# Si number density = 18.103150 Si / 1000 Ang^3
#
#
#
# Elastic Constant Matrix: (Units=GPa)
#
#
# Indices 1 2 3 4 5 6 
#
# 1 119.2012 95.3578 24.1755 0.0000 0.0000 0.0000
# 2 95.3578 129.6231 22.1676 0.0000 0.0000 0.0000
# 3 24.1755 22.1676 33.1042 0.0000 0.0000 0.0000
# 4 0.0000 0.0000 0.0000 3.7875 0.0000 0.0000
# 5 0.0000 0.0000 0.0000 0.0000 5.5038 0.0000
# 6 0.0000 0.0000 0.0000 0.0000 0.0000 44.9104
#
#
#
# Elastic Compliance Matrix: (Units=1/GPa)
#
#
# Indices 1 2 3 4 5 6 
#
# 1 0.021304 -0.014695 -0.005718 0.000000 0.000000 0.000000
# 2 -0.014695 0.018848 -0.001890 0.000000 0.000000 0.000000
# 3 -0.005718 -0.001890 0.035649 0.000000 0.000000 0.000000
# 4 0.000000 0.000000 0.000000 0.264030 0.000000 0.000000
# 5 0.000000 0.000000 0.000000 0.000000 0.181692 0.000000
# 6 0.000000 0.000000 0.000000 0.000000 0.000000 0.022267
#
#
# Mechanical properties :
#
#
# Convention : Reuss Voigt Hill
#
# Bulk Modulus (GPa) = 32.05552 62.81448 47.43500
# Shear Modulus (GPa) = 8.35011 20.18883 14.26947
#
# Velocity S-wave (km/s) = 2.15001 3.34310 2.81059
# Velocity P-wave (km/s) = 4.88968 7.04806 6.06565
#
# Compressibility (1/GPa) = 0.03119588
#
# Stress axis : x y z
#
# Youngs Moduli (GPa) = 46.93898 53.05576 28.05114
#
# Poissons Ratio (x) = 0.77964 0.16040
# Poissons Ratio (y) = 0.68975 0.05302
# Poissons Ratio (z) = 0.26841 0.10027
#
# Static dielectric constant tensor:
#      x y z
#    x 3.701480 0.000000 0.000000 
#    y 0.000000 3.603790 0.000000 
#    z 0.000000 0.000000 2.880390 
# 
# 
# High freq. dielectric constant tensor:
#      x y z
#    x 1.706960 0.000000 0.000000 
#    y 0.000000 1.707150 0.000000 
#    z 0.000000 0.000000 1.657350 
# 
# From -- ./inp_files/2849.got.cif
#   From: 2010.03.12/outbox.cif.g09.slc.cpg/sg55_2_cif.got.tgz:2849.got - 2010.04.16 15:19:21.
