data_PCOD8227478
_publ_section_title
;
Structure prediction by ZEFSAII (Michael W. Deem and Ramdas Pophale) SiO2 
 PCOD8227478
Probable space group: P B A M
;
_chemical_formula_sum "Si O2"
_cell_formula_units_Z 64
_cell_length_a 30.422123
_cell_length_b 11.779424
_cell_length_c 9.006326
_cell_angle_alpha 90.000000
_cell_angle_beta 90.000000
_cell_angle_gamma 90.000000
_cell_volume 3227.462726
_symmetry_space_group_name_H-M "P B A M"
_symmetry_group_IT_number 55
_symmetry_cell_setting 'orthorhombic'
loop_
_space_group_symop_operation_xyz
x,y,z
-x,-y,z
1/2+x,1/2-y,-z
1/2-x,1/2+y,-z
-x,-y,-z
x,y,-z
1/2-x,1/2+y,z
1/2+x,1/2-y,z
loop_
_atom_site_type_symbol
_atom_site_label
_atom_site_fract_x
_atom_site_fract_y
_atom_site_fract_z
Si Si1 0.624943 0.132379 0.675610
Si Si2 0.293752 0.273182 0.830465
Si Si3 0.833990 0.983274 0.172189
Si Si4 0.549429 0.729086 0.824546
Si Si5 0.423866 0.499751 0.670514
Si Si6 0.627984 0.891465 0.172917
Si Si7 0.706899 0.282667 0.324877
Si Si8 0.538093 0.259448 0.670122
O O1 0.624934 0.125975 0.500000
O O2 0.667605 0.201310 0.730288
O O3 0.581146 0.195717 0.732790
O O4 0.626627 0.006941 0.738154
O O5 0.320891 0.387129 0.803919
O O6 0.325774 0.168843 0.793205
O O7 0.252890 0.273775 0.719384
O O8 0.276879 0.266330 0.000000
O O9 0.878175 0.958419 0.261478
O O10 0.796403 0.902543 0.239758
O O11 0.841292 0.955287 0.000000
O O12 0.556267 0.604942 0.758351
O O13 0.588353 0.811606 0.771618
O O14 0.503448 0.780393 0.767186
O O15 0.548819 0.717040 0.000000
O O16 0.416537 0.464827 0.500000
O O17 0.457122 0.604915 0.683403
O O18 0.622689 0.918168 0.000000
O O19 0.705258 0.303600 0.500000
O O20 0.529521 0.224712 0.500000
#
# Coordination Sequence:
#
# PCOD8227478 Si02
#       8
#     8   8   8   8   8   8   8   8
#     4  10  23  43  62  86 122 160 203 251 301 360
#     4  10  23  43  63  89 124 162 202 249 301 358
#     4  11  22  40  66  93 125 162 203 249 305 362
#     4  11  23  40  61  91 124 157 203 254 302 363
#     4  11  21  38  63  91 126 162 200 248 306 360
#     4  10  23  43  62  85 122 160 201 251 302 357
#     4  11  24  42  63  93 126 158 202 253 302 359
#     4  10  22  41  61  87 123 160 198 248 305 363
#
# _framework density 19.829818
#
# number of rings (size 3 to 8) (size 9 to 14) (size 15 to 20)
#    0.000    1.500    2.500    1.875    1.750    7.000 
#    0.000    2.500    0.000    0.000    0.000    0.000 
#    0.000    0.000    0.000    0.000    0.000    0.000 
#
# Total GULP energy -793953.125136 kJ/mol
# GULP energy per Si atom -12405.517580 kJ/mol
# Density = 1.978468 g / cm^3
# Si number density = 19.829818 Si / 1000 Ang^3
#
#
#
# Elastic Constant Matrix: (Units=GPa)
#
#
# Indices 1 2 3 4 5 6 
#
# 1 111.4214 21.8135 36.4026 0.0000 0.0000 0.0000
# 2 21.8135 88.8007 29.1070 0.0000 0.0000 0.0000
# 3 36.4026 29.1070 66.3195 0.0000 0.0000 0.0000
# 4 0.0000 0.0000 0.0000 33.8390 0.0000 0.0000
# 5 0.0000 0.0000 0.0000 0.0000 39.2525 0.0000
# 6 0.0000 0.0000 0.0000 0.0000 0.0000 22.3737
#
#
#
# Elastic Compliance Matrix: (Units=1/GPa)
#
#
# Indices 1 2 3 4 5 6 
#
# 1 0.010990 -0.000844 -0.005662 0.000000 0.000000 0.000000
# 2 -0.000844 0.013218 -0.005338 0.000000 0.000000 0.000000
# 3 -0.005662 -0.005338 0.020529 0.000000 0.000000 0.000000
# 4 0.000000 0.000000 0.000000 0.029552 0.000000 0.000000
# 5 0.000000 0.000000 0.000000 0.000000 0.025476 0.000000
# 6 0.000000 0.000000 0.000000 0.000000 0.000000 0.044695
#
#
# Mechanical properties :
#
#
# Convention : Reuss Voigt Hill
#
# Bulk Modulus (GPa) = 47.50718 49.02086 48.26402
# Shear Modulus (GPa) = 28.54451 31.04095 29.79273
#
# Velocity S-wave (km/s) = 3.79816 3.96076 3.88031
# Velocity P-wave (km/s) = 6.57603 6.75954 6.66841
#
# Compressibility (1/GPa) = 0.02104945
#
# Stress axis : x y z
#
# Youngs Moduli (GPa) = 90.99200 75.65339 48.71085
#
# Poissons Ratio (x) = 0.06383 0.27580
# Poissons Ratio (y) = 0.07677 0.26003
# Poissons Ratio (z) = 0.51520 0.40385
#
# Static dielectric constant tensor:
#      x y z
#    x 3.776330 0.000000 0.000000 
#    y 0.000000 3.547040 0.000000 
#    z 0.000000 0.000000 3.568300 
# 
# 
# High freq. dielectric constant tensor:
#      x y z
#    x 1.784600 0.000000 0.000000 
#    y 0.000000 1.775330 0.000000 
#    z 0.000000 0.000000 1.772670 
# 
# From -- ./inp_files/10842.got.cif
#   From: 2010.03.12/outbox.cif.g09.slc.cpg/sg55_6_cif.got.tgz:10842.got - 2010.04.16 15:19:21.
