data_PCOD8227625
_publ_section_title
;
Structure prediction by ZEFSAII (Michael W. Deem and Ramdas Pophale) SiO2 
 PCOD8227625
Probable space group: P B A M
;
_chemical_formula_sum "Si O2"
_cell_formula_units_Z 32
_cell_length_a 4.995033
_cell_length_b 17.493051
_cell_length_c 15.156341
_cell_angle_alpha 90.000000
_cell_angle_beta 90.000000
_cell_angle_gamma 90.000000
_cell_volume 1324.336327
_symmetry_space_group_name_H-M "P B A M"
_symmetry_group_IT_number 55
_symmetry_cell_setting 'orthorhombic'
loop_
_space_group_symop_operation_xyz
x,y,z
-x,-y,z
1/2+x,1/2-y,-z
1/2-x,1/2+y,-z
-x,-y,-z
x,y,-z
1/2-x,1/2+y,z
1/2+x,1/2-y,z
loop_
_atom_site_type_symbol
_atom_site_label
_atom_site_fract_x
_atom_site_fract_y
_atom_site_fract_z
Si Si1 0.225211 0.699565 0.101950
Si Si2 0.136569 0.303178 0.705697
Si Si3 0.876961 0.416840 0.598828
Si Si4 0.028267 0.086608 0.769745
O O1 0.433139 0.767504 0.125859
O O2 0.269125 0.624695 0.160319
O O3 0.253558 0.676582 0.000000
O O4 0.339163 0.232440 0.718157
O O5 0.239017 0.370789 0.771751
O O6 0.101025 0.349497 0.612989
O O7 0.759323 0.409489 0.500000
O O8 0.642233 0.406138 0.670225
O O9 0.000000 0.500000 0.614066
O O10 0.000000 0.000000 0.800681
#
# Coordination Sequence:
#
# PCOD8227625 Si02
#       4
#     8   8   8   8
#     4  10  24  46  73 106 144 186 231 289 364 434
#     4  12  25  44  67 100 136 182 238 297 348 412
#     4  11  26  47  70 101 146 196 242 294 361 428
#     4  12  25  43  75 106 144 191 242 293 359 426
#
# _framework density 24.163043999999999
#
# number of rings (size 3 to 8) (size 9 to 14) (size 15 to 20)
#    0.000    0.750    5.000    1.500    3.500    3.000 
#    0.000    0.000    0.000    5.250    0.000    0.000 
#    0.000    0.000    0.000    0.000    0.000    0.000 
#
# Total GULP energy -396428.627607 kJ/mol
# GULP energy per Si atom -12388.394613 kJ/mol
# Density = 2.410805 g / cm^3
# Si number density = 24.163044 Si / 1000 Ang^3
#
#
#
# Elastic Constant Matrix: (Units=GPa)
#
#
# Indices 1 2 3 4 5 6 
#
# 1 126.0659 58.3762 52.3143 0.0000 0.0000 0.0000
# 2 58.3762 184.8239 65.2589 0.0000 0.0000 0.0000
# 3 52.3143 65.2589 134.5359 0.0000 0.0000 0.0000
# 4 0.0000 0.0000 0.0000 32.6166 0.0000 0.0000
# 5 0.0000 0.0000 0.0000 0.0000 31.6639 0.0000
# 6 0.0000 0.0000 0.0000 0.0000 0.0000 36.8475
#
#
#
# Elastic Compliance Matrix: (Units=1/GPa)
#
#
# Indices 1 2 3 4 5 6 
#
# 1 0.010141 -0.002185 -0.002883 0.000000 0.000000 0.000000
# 2 -0.002185 0.006999 -0.002546 0.000000 0.000000 0.000000
# 3 -0.002883 -0.002546 0.009789 0.000000 0.000000 0.000000
# 4 0.000000 0.000000 0.000000 0.030659 0.000000 0.000000
# 5 0.000000 0.000000 0.000000 0.000000 0.031582 0.000000
# 6 0.000000 0.000000 0.000000 0.000000 0.000000 0.027139
#
#
# Mechanical properties :
#
#
# Convention : Reuss Voigt Hill
#
# Bulk Modulus (GPa) = 85.46025 88.59162 87.02593
# Shear Modulus (GPa) = 36.91755 38.19069 37.55412
#
# Velocity S-wave (km/s) = 3.91301 3.97992 3.94661
# Velocity P-wave (km/s) = 7.47399 7.60679 7.54068
#
# Compressibility (1/GPa) = 0.01170135
#
# Stress axis : x y z
#
# Youngs Moduli (GPa) = 98.61348 142.86831 102.15568
#
# Poissons Ratio (x) = 0.31214 0.29456
# Poissons Ratio (y) = 0.21545 0.26005
# Poissons Ratio (z) = 0.28434 0.36369
#
# Static dielectric constant tensor:
#      x y z
#    x 4.530820 0.000000 0.000000 
#    y 0.000000 5.024550 0.000000 
#    z 0.000000 0.000000 4.680990 
# 
# 
# High freq. dielectric constant tensor:
#      x y z
#    x 1.968780 0.000000 0.000000 
#    y 0.000000 1.975680 0.000000 
#    z 0.000000 0.000000 1.955600 
# 
# From -- ./inp_files/16408.got.cif
#   From: 2010.03.12/outbox.cif.g09.slc.cpg/sg55_9_cif.got.tgz:16408.got - 2010.04.16 15:19:21.
