data_PCOD8227601
_publ_section_title
;
Structure prediction by ZEFSAII (Michael W. Deem and Ramdas Pophale) SiO2 
 PCOD8227601
Probable space group: P B A M
;
_chemical_formula_sum "Si O2"
_cell_formula_units_Z 40
_cell_length_a 10.364362
_cell_length_b 8.898111
_cell_length_c 15.417526
_cell_angle_alpha 90.000000
_cell_angle_beta 90.000000
_cell_angle_gamma 90.000000
_cell_volume 1421.854255
_symmetry_space_group_name_H-M "P B A M"
_symmetry_group_IT_number 55
_symmetry_cell_setting 'orthorhombic'
loop_
_space_group_symop_operation_xyz
x,y,z
-x,-y,z
1/2+x,1/2-y,-z
1/2-x,1/2+y,-z
-x,-y,-z
x,y,-z
1/2-x,1/2+y,z
1/2+x,1/2-y,z
loop_
_atom_site_type_symbol
_atom_site_label
_atom_site_fract_x
_atom_site_fract_y
_atom_site_fract_z
Si Si1 0.054788 0.651077 0.098771
Si Si2 0.365082 0.573603 0.593019
Si Si3 0.544514 0.164853 0.303296
Si Si4 0.310799 0.376108 0.244192
Si Si5 0.337936 0.609535 0.899539
O O1 0.960498 0.787400 0.112841
O O2 0.202033 0.691246 0.129663
O O3 0.000000 0.500000 0.148491
O O4 0.067870 0.603962 0.000000
O O5 0.500000 0.500000 0.576801
O O6 0.288041 0.568997 0.500000
O O7 0.396154 0.747506 0.614785
O O8 0.296009 0.486821 0.671757
O O9 0.419380 0.245526 0.259207
O O10 0.662282 0.178044 0.232633
O O11 0.500000 0.000000 0.333211
O O12 0.359177 0.464603 0.159641
O O13 0.329176 0.555343 0.000000
#
# Coordination Sequence:
#
# PCOD8227601 Si02
#       5
#     8   8   8   8   8
#     4   9  20  43  75 110 148 192 249 314 378 450
#     4   9  21  45  77 114 155 197 246 309 381 456
#     4  11  25  47  77 112 152 203 260 318 381 453
#     4  11  25  48  78 112 155 205 258 318 385 457
#     4  10  23  47  79 113 152 203 260 318 384 458
#
# _framework density 28.132279
#
# number of rings (size 3 to 8) (size 9 to 14) (size 15 to 20)
#    0.000    2.000    0.000    1.200    0.000    6.800 
#    0.000   16.000    0.000   16.800    0.000    0.000 
#    0.000    0.000    0.000    0.000    0.000    0.000 
#
# Total GULP energy -495744.916344 kJ/mol
# GULP energy per Si atom -12393.622909 kJ/mol
# Density = 2.806825 g / cm^3
# Si number density = 28.132279 Si / 1000 Ang^3
#
#
#
# Elastic Constant Matrix: (Units=GPa)
#
#
# Indices 1 2 3 4 5 6 
#
# 1 180.6290 90.0481 43.4903 0.0000 0.0000 0.0000
# 2 90.0481 182.0036 47.1613 0.0000 0.0000 0.0000
# 3 43.4903 47.1613 160.1563 0.0000 0.0000 0.0000
# 4 0.0000 0.0000 0.0000 35.8361 0.0000 0.0000
# 5 0.0000 0.0000 0.0000 0.0000 40.3753 0.0000
# 6 0.0000 0.0000 0.0000 0.0000 0.0000 43.5371
#
#
#
# Elastic Compliance Matrix: (Units=1/GPa)
#
#
# Indices 1 2 3 4 5 6 
#
# 1 0.007500 -0.003446 -0.001022 0.000000 0.000000 0.000000
# 2 -0.003446 0.007532 -0.001282 0.000000 0.000000 0.000000
# 3 -0.001022 -0.001282 0.006899 0.000000 0.000000 0.000000
# 4 0.000000 0.000000 0.000000 0.027905 0.000000 0.000000
# 5 0.000000 0.000000 0.000000 0.000000 0.024768 0.000000
# 6 0.000000 0.000000 0.000000 0.000000 0.000000 0.022969
#
#
# Mechanical properties :
#
#
# Convention : Reuss Voigt Hill
#
# Bulk Modulus (GPa) = 95.87078 98.24314 97.05696
# Shear Modulus (GPa) = 44.42516 46.75565 45.59040
#
# Velocity S-wave (km/s) = 3.97817 4.08118 4.03000
# Velocity P-wave (km/s) = 7.43328 7.56344 7.49864
#
# Compressibility (1/GPa) = 0.01043071
#
# Stress axis : x y z
#
# Youngs Moduli (GPa) = 133.33037 132.77491 144.94990
#
# Poissons Ratio (x) = 0.45754 0.14813
# Poissons Ratio (y) = 0.45945 0.18584
# Poissons Ratio (z) = 0.13625 0.17023
#
# Static dielectric constant tensor:
#      x y z
#    x 5.511210 0.000000 0.000000 
#    y 0.000000 4.413290 0.000000 
#    z 0.000000 0.000000 6.552780 
# 
# 
# High freq. dielectric constant tensor:
#      x y z
#    x 2.159740 0.000000 0.000000 
#    y 0.000000 2.148720 0.000000 
#    z 0.000000 0.000000 2.157670 
# 
# From -- ./inp_files/21172.got.cif
#   From: 2010.03.12/outbox.cif.g09.slc.cpg/sg55_11_cif.got.tgz:21172.got - 2010.04.16 15:19:21.
