data_PCOD8227155
_publ_section_title
;
Structure prediction by ZEFSAII (Michael W. Deem and Ramdas Pophale) SiO2 
 PCOD8227155
Probable space group: P B A M
;
_chemical_formula_sum "Si O2"
_cell_formula_units_Z 40
_cell_length_a 9.352542
_cell_length_b 27.517856
_cell_length_c 7.453229
_cell_angle_alpha 90.000000
_cell_angle_beta 90.000000
_cell_angle_gamma 90.000000
_cell_volume 1918.177206
_symmetry_space_group_name_H-M "P B A M"
_symmetry_group_IT_number 55
_symmetry_cell_setting 'orthorhombic'
loop_
_space_group_symop_operation_xyz
x,y,z
-x,-y,z
1/2+x,1/2-y,-z
1/2-x,1/2+y,-z
-x,-y,-z
x,y,-z
1/2-x,1/2+y,z
1/2+x,1/2-y,z
loop_
_atom_site_type_symbol
_atom_site_label
_atom_site_fract_x
_atom_site_fract_y
_atom_site_fract_z
Si Si1 0.649776 0.024649 0.500000
Si Si2 0.102202 0.045097 0.500000
Si Si3 0.520708 0.380091 0.793732
Si Si4 0.200934 0.212227 0.787249
Si Si5 0.521200 0.197630 0.213180
Si Si6 0.305612 0.895213 0.792959
O O1 0.676807 0.056435 0.677091
O O2 0.500000 0.000000 0.500000
O O3 0.740675 0.975779 0.500000
O O4 0.077038 0.075153 0.320140
O O5 0.000000 0.000000 0.500000
O O6 0.601093 0.332096 0.725359
O O7 0.351650 0.372445 0.766176
O O8 0.557790 0.391399 0.000000
O O9 0.127942 0.261101 0.710187
O O10 0.361221 0.205413 0.708724
O O11 0.209256 0.214943 0.000000
O O12 0.580376 0.145059 0.273159
O O13 0.518635 0.201032 0.000000
O O14 0.331297 0.909471 0.000000
#
# Coordination Sequence:
#
# PCOD8227155 Si02
#       6
#     4   4   8   8   8   8
#     4  12  28  44  61  86 119 156 199 254 305 350
#     4  12  24  44  63  86 117 154 201 252 299 352
#     4  10  21  38  64  91 119 155 198 244 296 354
#     4   9  17  31  55  89 123 158 195 238 289 350
#     4   9  17  31  55  87 124 158 195 238 288 350
#     4  10  21  40  63  89 120 157 198 244 296 354
#
# _framework density 20.85313
#
# number of rings (size 3 to 8) (size 9 to 14) (size 15 to 20)
#    0.000    2.000    2.000    1.200    2.800    6.400 
#    0.000    1.000    0.000    0.000    0.000    0.000 
#    0.000    0.000    0.000    0.000    0.000    0.000 
#
# Total GULP energy -495986.950902 kJ/mol
# GULP energy per Si atom -12399.673773 kJ/mol
# Density = 2.080567 g / cm^3
# Si number density = 20.853130 Si / 1000 Ang^3
#
#
#
# Elastic Constant Matrix: (Units=GPa)
#
#
# Indices 1 2 3 4 5 6 
#
# 1 153.7198 47.1956 27.1871 0.0000 0.0000 0.0000
# 2 47.1956 104.5677 41.5474 0.0000 0.0000 0.0000
# 3 27.1871 41.5474 75.3251 0.0000 0.0000 0.0000
# 4 0.0000 0.0000 0.0000 -134.0382 0.0000 0.0000
# 5 0.0000 0.0000 0.0000 0.0000 12.1022 0.0000
# 6 0.0000 0.0000 0.0000 0.0000 0.0000 52.3217
#
#
#
# Elastic Compliance Matrix: (Units=1/GPa)
#
#
# Indices 1 2 3 4 5 6 
#
# 1 0.007621 -0.003006 -0.001093 0.000000 0.000000 0.000000
# 2 -0.003006 0.013432 -0.006324 0.000000 0.000000 0.000000
# 3 -0.001093 -0.006324 0.017159 0.000000 0.000000 0.000000
# 4 0.000000 0.000000 0.000000 -0.007461 0.000000 0.000000
# 5 0.000000 0.000000 0.000000 0.000000 0.082630 0.000000
# 6 0.000000 0.000000 0.000000 0.000000 0.000000 0.019113
#
#
# Mechanical properties :
#
#
# Convention : Reuss Voigt Hill
#
# Bulk Modulus (GPa) = 57.58086 62.83033 60.20559
# Shear Modulus (GPa) = 31.42115 0.58931 16.00523
#
# Velocity S-wave (km/s) = 3.88594 0.53218 2.77342
# Velocity P-wave (km/s) = 6.91423 5.52928 6.26017
#
# Compressibility (1/GPa) = 0.01736688
#
# Stress axis : x y z
#
# Youngs Moduli (GPa) = 131.20883 74.44642 58.28000
#
# Poissons Ratio (x) = 0.22375 0.06370
# Poissons Ratio (y) = 0.39436 0.36857
# Poissons Ratio (z) = 0.14341 0.47081
#
# Static dielectric constant tensor:
#      x y z
#    x 4.082340 0.000000 0.000000 
#    y 0.000000 3.567960 0.000000 
#    z 0.000000 0.000000 3.415300 
# 
# 
# High freq. dielectric constant tensor:
#      x y z
#    x 1.830330 0.000000 0.000000 
#    y 0.000000 1.817350 0.000000 
#    z 0.000000 0.000000 1.803180 
# 
# From -- ./inp_files/2536.got.cif
#   From: 2010.03.12/outbox.cif.g09.slc.cpg/sg55_2_cif.got.tgz:2536.got - 2010.04.16 15:19:21.
