data_PCOD8227344
_publ_section_title
;
Structure prediction by ZEFSAII (Michael W. Deem and Ramdas Pophale) SiO2 
 PCOD8227344
Probable space group: P B A M
;
_chemical_formula_sum "Si O2"
_cell_formula_units_Z 44
_cell_length_a 13.208467
_cell_length_b 9.718609
_cell_length_c 15.268657
_cell_angle_alpha 90.000000
_cell_angle_beta 90.000000
_cell_angle_gamma 90.000000
_cell_volume 1960.005836
_symmetry_space_group_name_H-M "P B A M"
_symmetry_group_IT_number 55
_symmetry_cell_setting 'orthorhombic'
loop_
_space_group_symop_operation_xyz
x,y,z
-x,-y,z
1/2+x,1/2-y,-z
1/2-x,1/2+y,-z
-x,-y,-z
x,y,-z
1/2-x,1/2+y,z
1/2+x,1/2-y,z
loop_
_atom_site_type_symbol
_atom_site_label
_atom_site_fract_x
_atom_site_fract_y
_atom_site_fract_z
Si Si1 0.500000 0.500000 0.694482
Si Si2 0.131942 0.373308 0.000000
Si Si3 0.198030 0.359680 0.500000
Si Si4 0.467005 0.794577 0.635846
Si Si5 0.706574 0.416315 0.000000
Si Si6 0.816937 0.955337 0.811928
Si Si7 0.128976 0.351459 0.192061
Si Si8 0.630903 0.849976 0.500000
O O1 0.486702 0.631826 0.633731
O O2 0.598019 0.528196 0.754299
O O3 0.074687 0.358083 0.094521
O O4 0.215390 0.250000 0.000000
O O5 0.179764 0.524604 0.000000
O O6 0.139100 0.315299 0.412984
O O7 0.309312 0.293533 0.500000
O O8 0.211039 0.525242 0.500000
O O9 0.459120 0.857140 0.734290
O O10 0.559664 0.867052 0.585505
O O11 0.650428 0.473755 0.913725
O O12 0.708115 0.024605 0.794260
O O13 0.810657 0.791973 0.792318
#
# Coordination Sequence:
#
# PCOD8227344 Si02
#       8
#     4   4   4   8   4   8   8   4
#     4  10  22  36  58  94 128 162 206 263 302 383
#     4   8  14  28  52  86 123 160 217 248 308 366
#     4  11  27  46  71  95 121 166 203 254 330 372
#     4  10  23  42  64  96 133 159 215 255 314 373
#     4   8  14  27  50  76 120 162 207 270 291 366
#     4   9  18  33  53  87 121 166 218 250 321 356
#     4   9  18  34  59  90 125 172 206 264 309 370
#     4  11  27  48  71  97 127 157 212 259 313 393
#
# _framework density 22.448913000000001
#
# number of rings (size 3 to 8) (size 9 to 14) (size 15 to 20)
#    0.000    2.545    0.000    1.091    5.091    2.545 
#    3.273    0.909    0.000    0.000    0.000    2.545 
#    0.000    1.818    0.000    0.000    0.000    0.000 
#
# Total GULP energy -545209.221540 kJ/mol
# GULP energy per Si atom -12391.118671 kJ/mol
# Density = 2.239782 g / cm^3
# Si number density = 22.448913 Si / 1000 Ang^3
#
#
#
# Elastic Constant Matrix: (Units=GPa)
#
#
# Indices 1 2 3 4 5 6 
#
# 1 74.6218 26.5280 43.8323 0.0000 0.0000 0.0000
# 2 26.5280 92.5905 36.3847 0.0000 0.0000 0.0000
# 3 43.8323 36.3847 152.2793 0.0000 0.0000 0.0000
# 4 0.0000 0.0000 0.0000 21.8994 0.0000 0.0000
# 5 0.0000 0.0000 0.0000 0.0000 -12.7881 0.0000
# 6 0.0000 0.0000 0.0000 0.0000 0.0000 32.4216
#
#
#
# Elastic Compliance Matrix: (Units=1/GPa)
#
#
# Indices 1 2 3 4 5 6 
#
# 1 0.016969 -0.003247 -0.004108 0.000000 0.000000 0.000000
# 2 -0.003247 0.012541 -0.002062 0.000000 0.000000 0.000000
# 3 -0.004108 -0.002062 0.008242 0.000000 0.000000 0.000000
# 4 0.000000 0.000000 0.000000 0.045663 0.000000 0.000000
# 5 0.000000 0.000000 0.000000 0.000000 -0.078198 0.000000
# 6 0.000000 0.000000 0.000000 0.000000 0.000000 0.030844
#
#
# Mechanical properties :
#
#
# Convention : Reuss Voigt Hill
#
# Bulk Modulus (GPa) = 52.86322 59.22017 56.04170
# Shear Modulus (GPa) = 81.69850 22.48970 52.09410
#
# Velocity S-wave (km/s) = 6.03921 3.16858 4.82245
# Velocity P-wave (km/s) = 8.49875 6.31061 7.48507
#
# Compressibility (1/GPa) = 0.01891674
#
# Stress axis : x y z
#
# Youngs Moduli (GPa) = 58.93264 79.73982 121.32886
#
# Poissons Ratio (x) = 0.25893 0.49847
# Poissons Ratio (y) = 0.19137 0.25015
# Poissons Ratio (z) = 0.24212 0.16440
#
# Static dielectric constant tensor:
#      x y z
#    x 3.450510 0.000000 0.000000 
#    y 0.000000 4.141470 0.000000 
#    z 0.000000 0.000000 4.458030 
# 
# 
# High freq. dielectric constant tensor:
#      x y z
#    x 1.830270 0.000000 0.000000 
#    y 0.000000 1.896870 0.000000 
#    z 0.000000 0.000000 1.906350 
# 
# From -- ./inp_files/18862.got.cif
#   From: 2010.03.12/outbox.cif.g09.slc.cpg/sg55_10_cif.got.tgz:18862.got - 2010.04.16 15:19:21.
