data_PCOD8227080
_publ_section_title
;
Structure prediction by ZEFSAII (Michael W. Deem and Ramdas Pophale) SiO2 
 PCOD8227080
Probable space group: P B A M
;
_chemical_formula_sum "Si O2"
_cell_formula_units_Z 56
_cell_length_a 20.116315
_cell_length_b 15.772855
_cell_length_c 8.985000
_cell_angle_alpha 90.000000
_cell_angle_beta 90.000000
_cell_angle_gamma 90.000000
_cell_volume 2850.866101
_symmetry_space_group_name_H-M "P B A M"
_symmetry_group_IT_number 55
_symmetry_cell_setting 'orthorhombic'
loop_
_space_group_symop_operation_xyz
x,y,z
-x,-y,z
1/2+x,1/2-y,-z
1/2-x,1/2+y,-z
-x,-y,-z
x,y,-z
1/2-x,1/2+y,z
1/2+x,1/2-y,z
loop_
_atom_site_type_symbol
_atom_site_label
_atom_site_fract_x
_atom_site_fract_y
_atom_site_fract_z
Si Si1 0.834741 0.335667 0.326900
Si Si2 0.798497 0.816225 0.826249
Si Si3 0.098571 0.324579 0.176859
Si Si4 0.545093 0.579187 0.826754
Si Si5 0.688220 0.509258 0.172907
Si Si6 0.821465 0.530919 0.674187
Si Si7 0.971887 0.253428 0.323924
O O1 0.823330 0.322200 0.500000
O O2 0.771975 0.293313 0.246473
O O3 0.840448 0.434625 0.287195
O O4 0.900716 0.288729 0.271131
O O5 0.854000 0.751568 0.766994
O O6 0.822071 0.910796 0.784005
O O7 0.788787 0.804764 0.000000
O O8 0.126441 0.412997 0.236089
O O9 0.026413 0.312169 0.246810
O O10 0.092774 0.327021 0.000000
O O11 0.500000 0.500000 0.781379
O O12 0.621332 0.559143 0.788691
O O13 0.520166 0.657221 0.729218
O O14 0.535228 0.601400 0.000000
O O15 0.746753 0.550489 0.270140
O O16 0.707246 0.517858 0.000000
O O17 0.826119 0.551044 0.500000
O O18 0.980707 0.259038 0.500000
#
# Coordination Sequence:
#
# PCOD8227080 Si02
#       7
#     8   8   8   8   8   8   8
#     4   9  21  40  59  83 117 153 192 239 293 348
#     4   9  19  36  60  85 113 149 191 238 287 343
#     4  11  23  39  59  86 117 151 195 243 294 350
#     4  10  21  38  60  85 119 158 195 239 293 349
#     4   9  18  35  58  84 113 147 190 236 286 345
#     4  10  21  38  59  83 113 151 192 239 293 346
#     4  11  24  40  58  85 118 155 197 242 295 353
#
# _framework density 19.643153000000002
#
# number of rings (size 3 to 8) (size 9 to 14) (size 15 to 20)
#    0.000    2.143    0.000    2.143    2.000    6.571 
#    0.000    5.714    0.000    0.000    0.000    0.000 
#    0.000    0.000    0.000    0.000    0.000    0.000 
#
# Total GULP energy -694694.912830 kJ/mol
# GULP energy per Si atom -12405.266301 kJ/mol
# Density = 1.959844 g / cm^3
# Si number density = 19.643153 Si / 1000 Ang^3
#
#
#
# Elastic Constant Matrix: (Units=GPa)
#
#
# Indices 1 2 3 4 5 6 
#
# 1 88.9248 19.7570 33.0063 0.0000 0.0000 0.0000
# 2 19.7570 48.2461 21.5536 0.0000 0.0000 0.0000
# 3 33.0063 21.5536 56.2348 0.0000 0.0000 0.0000
# 4 0.0000 0.0000 0.0000 31.5177 0.0000 0.0000
# 5 0.0000 0.0000 0.0000 0.0000 27.2358 0.0000
# 6 0.0000 0.0000 0.0000 0.0000 0.0000 36.7248
#
#
#
# Elastic Compliance Matrix: (Units=1/GPa)
#
#
# Indices 1 2 3 4 5 6 
#
# 1 0.014644 -0.002603 -0.007597 0.000000 0.000000 0.000000
# 2 -0.002603 0.025472 -0.008235 0.000000 0.000000 0.000000
# 3 -0.007597 -0.008235 0.025398 0.000000 0.000000 0.000000
# 4 0.000000 0.000000 0.000000 0.031728 0.000000 0.000000
# 5 0.000000 0.000000 0.000000 0.000000 0.036716 0.000000
# 6 0.000000 0.000000 0.000000 0.000000 0.000000 0.027230
#
#
# Mechanical properties :
#
#
# Convention : Reuss Voigt Hill
#
# Bulk Modulus (GPa) = 34.91229 38.00439 36.45834
# Shear Modulus (GPa) = 24.08408 27.03491 25.55950
#
# Velocity S-wave (km/s) = 3.50534 3.71388 3.61112
# Velocity P-wave (km/s) = 5.84766 6.14654 5.99896
#
# Compressibility (1/GPa) = 0.02864321
#
# Stress axis : x y z
#
# Youngs Moduli (GPa) = 68.28918 39.25899 39.37287
#
# Poissons Ratio (x) = 0.10217 0.29913
# Poissons Ratio (y) = 0.17773 0.32425
# Poissons Ratio (z) = 0.51882 0.32331
#
# Static dielectric constant tensor:
#      x y z
#    x 3.712370 0.000000 0.000000 
#    y 0.000000 3.595200 0.000000 
#    z 0.000000 0.000000 3.491420 
# 
# 
# High freq. dielectric constant tensor:
#      x y z
#    x 1.774390 0.000000 0.000000 
#    y 0.000000 1.767440 0.000000 
#    z 0.000000 0.000000 1.761350 
# 
# From -- ./inp_files/8678.got.cif
#   From: 2010.03.12/outbox.cif.g09.slc.cpg/sg55_5_cif.got.tgz:8678.got - 2010.04.16 15:19:21.
