data_PCOD8227378
_publ_section_title
;
Structure prediction by ZEFSAII (Michael W. Deem and Ramdas Pophale) SiO2 
 PCOD8227378
Probable space group: P B A M
;
_chemical_formula_sum "Si O2"
_cell_formula_units_Z 64
_cell_length_a 22.443142
_cell_length_b 11.670005
_cell_length_c 12.813380
_cell_angle_alpha 90.000000
_cell_angle_beta 90.000000
_cell_angle_gamma 90.000000
_cell_volume 3355.972593
_symmetry_space_group_name_H-M "P B A M"
_symmetry_group_IT_number 55
_symmetry_cell_setting 'orthorhombic'
loop_
_space_group_symop_operation_xyz
x,y,z
-x,-y,z
1/2+x,1/2-y,-z
1/2-x,1/2+y,-z
-x,-y,-z
x,y,-z
1/2-x,1/2+y,z
1/2+x,1/2-y,z
loop_
_atom_site_type_symbol
_atom_site_label
_atom_site_fract_x
_atom_site_fract_y
_atom_site_fract_z
Si Si1 0.133172 0.293634 0.264611
Si Si2 0.299477 0.591105 0.379742
Si Si3 0.569491 0.003205 0.623260
Si Si4 0.556588 0.347664 0.115797
Si Si5 0.422912 0.397199 0.885458
Si Si6 0.321837 0.127616 0.709674
Si Si7 0.790302 0.542767 0.125091
Si Si8 0.319565 0.379806 0.749284
O O1 0.176011 0.203659 0.321670
O O2 0.102037 0.378338 0.346910
O O3 0.079998 0.233402 0.204924
O O4 0.169684 0.358439 0.175367
O O5 0.315077 0.604973 0.500000
O O6 0.228654 0.567810 0.362910
O O7 0.331537 0.475847 0.338190
O O8 0.569365 0.989060 0.500000
O O9 0.500000 0.000000 0.663695
O O10 0.610823 0.900751 0.670903
O O11 0.591595 0.467384 0.115138
O O12 0.489391 0.371478 0.148338
O O13 0.561304 0.291846 0.000000
O O14 0.380578 0.338046 0.802577
O O15 0.410586 0.346385 0.000000
O O16 0.301081 0.259657 0.698167
O O17 0.312163 0.079444 0.827863
O O18 0.723075 0.570034 0.160378
O O19 0.795485 0.540632 0.000000
#
# Coordination Sequence:
#
# PCOD8227378 Si02
#       8
#     8   8   8   8   8   8   8   8
#     4  11  20  39  60  86 118 155 196 249 293 358
#     4  11  23  39  60  88 118 155 200 250 307 357
#     4  10  23  42  64  86 112 159 212 255 302 355
#     4   9  18  33  56  82 112 154 191 224 279 349
#     4   9  18  32  53  83 116 149 185 225 279 348
#     4  10  23  41  60  86 119 157 199 246 298 358
#     4  10  22  38  58  87 122 155 191 239 296 358
#     4  11  21  38  58  90 116 152 193 245 302 354
#
# _framework density 19.070478000000001
#
# number of rings (size 3 to 8) (size 9 to 14) (size 15 to 20)
#    0.000    1.875    2.500    2.250    1.750    2.000 
#    0.000    0.000    0.000    2.625    0.000    0.000 
#    0.000    0.000    0.000    0.000    0.000    0.000 
#
# Total GULP energy -793172.942073 kJ/mol
# GULP energy per Si atom -12393.327220 kJ/mol
# Density = 1.902707 g / cm^3
# Si number density = 19.070478 Si / 1000 Ang^3
#
#
#
# Elastic Constant Matrix: (Units=GPa)
#
#
# Indices 1 2 3 4 5 6 
#
# 1 92.4601 23.2679 36.2010 0.0000 0.0000 0.0000
# 2 23.2679 87.6855 33.2619 0.0000 0.0000 0.0000
# 3 36.2010 33.2619 104.9093 0.0000 0.0000 0.0000
# 4 0.0000 0.0000 0.0000 20.5076 0.0000 0.0000
# 5 0.0000 0.0000 0.0000 0.0000 27.9072 0.0000
# 6 0.0000 0.0000 0.0000 0.0000 0.0000 26.3955
#
#
#
# Elastic Compliance Matrix: (Units=1/GPa)
#
#
# Indices 1 2 3 4 5 6 
#
# 1 0.012793 -0.001955 -0.003795 0.000000 0.000000 0.000000
# 2 -0.001955 0.013262 -0.003530 0.000000 0.000000 0.000000
# 3 -0.003795 -0.003530 0.011961 0.000000 0.000000 0.000000
# 4 0.000000 0.000000 0.000000 0.048762 0.000000 0.000000
# 5 0.000000 0.000000 0.000000 0.000000 0.035833 0.000000
# 6 0.000000 0.000000 0.000000 0.000000 0.000000 0.037885
#
#
# Mechanical properties :
#
#
# Convention : Reuss Voigt Hill
#
# Bulk Modulus (GPa) = 51.39783 52.27962 51.83872
# Shear Modulus (GPa) = 26.94799 27.78367 27.36583
#
# Velocity S-wave (km/s) = 3.76317 3.82107 3.79223
# Velocity P-wave (km/s) = 6.77436 6.85134 6.81296
#
# Compressibility (1/GPa) = 0.01945608
#
# Stress axis : x y z
#
# Youngs Moduli (GPa) = 78.16623 75.40141 83.60718
#
# Poissons Ratio (x) = 0.14744 0.31726
# Poissons Ratio (y) = 0.15284 0.29515
# Poissons Ratio (z) = 0.29661 0.26618
#
# Static dielectric constant tensor:
#      x y z
#    x 3.593420 0.000000 0.000000 
#    y 0.000000 3.588100 0.000000 
#    z 0.000000 0.000000 3.316470 
# 
# 
# High freq. dielectric constant tensor:
#      x y z
#    x 1.748490 0.000000 0.000000 
#    y 0.000000 1.737150 0.000000 
#    z 0.000000 0.000000 1.731940 
# 
# From -- ./inp_files/15762.got.cif
#   From: 2010.03.12/outbox.cif.g09.slc.cpg/sg55_8_cif.got.tgz:15762.got - 2010.04.16 15:19:21.
