data_PCOD8227050
_publ_section_title
;
Structure prediction by ZEFSAII (Michael W. Deem and Ramdas Pophale) SiO2 
 PCOD8227050
Probable space group: P B A M
;
_chemical_formula_sum "Si O2"
_cell_formula_units_Z 64
_cell_length_a 23.362239
_cell_length_b 15.301703
_cell_length_c 8.873002
_cell_angle_alpha 90.000000
_cell_angle_beta 90.000000
_cell_angle_gamma 90.000000
_cell_volume 3171.938879
_symmetry_space_group_name_H-M "P B A M"
_symmetry_group_IT_number 55
_symmetry_cell_setting 'orthorhombic'
loop_
_space_group_symop_operation_xyz
x,y,z
-x,-y,z
1/2+x,1/2-y,-z
1/2-x,1/2+y,-z
-x,-y,-z
x,y,-z
1/2-x,1/2+y,z
1/2+x,1/2-y,z
loop_
_atom_site_type_symbol
_atom_site_label
_atom_site_fract_x
_atom_site_fract_y
_atom_site_fract_z
Si Si1 0.690362 0.296726 0.823727
Si Si2 0.625387 0.150122 0.322489
Si Si3 0.804650 0.310929 0.676108
Si Si4 0.791890 0.504950 0.673049
Si Si5 0.510302 0.102124 0.173992
Si Si6 0.333770 0.523437 0.674111
Si Si7 0.931206 0.259827 0.323051
Si Si8 0.450321 0.435676 0.678474
O O1 0.638905 0.240533 0.757399
O O2 0.751137 0.263916 0.756198
O O3 0.673720 0.394258 0.780379
O O4 0.693398 0.286207 0.000000
O O5 0.632917 0.161192 0.500000
O O6 0.668083 0.077627 0.250447
O O7 0.561001 0.126799 0.284720
O O8 0.790163 0.313307 0.500000
O O9 0.806594 0.409897 0.742543
O O10 0.863087 0.259230 0.708767
O O11 0.810215 0.500966 0.500000
O O12 0.725035 0.531965 0.690809
O O13 0.456790 0.161038 0.225910
O O14 0.500000 0.000000 0.197864
O O15 0.524349 0.122660 0.000000
O O16 0.342001 0.552652 0.500000
O O17 0.388020 0.468449 0.732498
O O18 0.942978 0.276188 0.500000
O O19 0.957201 0.165761 0.270184
O O20 0.500000 0.500000 0.745152
O O21 0.453251 0.438288 0.500000
#
# Coordination Sequence:
#
# PCOD8227050 Si02
#       8
#     8   8   8   8   8   8   8   8
#     4  11  23  37  55  85 122 157 193 238 299 368
#     4  11  22  37  62  88 114 151 202 255 299 351
#     4   9  18  36  60  86 115 149 196 247 296 349
#     4   8  16  31  55  85 110 142 189 245 299 345
#     4  11  25  43  61  87 127 166 197 242 307 371
#     4   9  18  36  60  84 116 154 194 242 297 354
#     4  10  21  37  64  94 120 157 209 258 295 354
#     4   9  19  34  57  90 121 150 196 255 307 347
#
# _framework density 20.176932000000001
#
# number of rings (size 3 to 8) (size 9 to 14) (size 15 to 20)
#    0.000    2.250    0.000    3.375    3.500    2.500 
#    0.000    6.875    0.000    0.750    0.000    0.000 
#    0.000    0.000    0.000    0.000    0.000    0.000 
#
# Total GULP energy -793428.830952 kJ/mol
# GULP energy per Si atom -12397.325484 kJ/mol
# Density = 2.013101 g / cm^3
# Si number density = 20.176932 Si / 1000 Ang^3
#
#
#
# Elastic Constant Matrix: (Units=GPa)
#
#
# Indices 1 2 3 4 5 6 
#
# 1 98.5275 39.1409 29.1538 0.0000 0.0000 0.0000
# 2 39.1409 88.5948 34.8005 0.0000 0.0000 0.0000
# 3 29.1538 34.8005 72.8729 0.0000 0.0000 0.0000
# 4 0.0000 0.0000 0.0000 17.0407 0.0000 0.0000
# 5 0.0000 0.0000 0.0000 0.0000 17.4281 0.0000
# 6 0.0000 0.0000 0.0000 0.0000 0.0000 34.5051
#
#
#
# Elastic Compliance Matrix: (Units=1/GPa)
#
#
# Indices 1 2 3 4 5 6 
#
# 1 0.012816 -0.004490 -0.002983 0.000000 0.000000 0.000000
# 2 -0.004490 0.015467 -0.005590 0.000000 0.000000 0.000000
# 3 -0.002983 -0.005590 0.017585 0.000000 0.000000 0.000000
# 4 0.000000 0.000000 0.000000 0.058683 0.000000 0.000000
# 5 0.000000 0.000000 0.000000 0.000000 0.057379 0.000000
# 6 0.000000 0.000000 0.000000 0.000000 0.000000 0.028981
#
#
# Mechanical properties :
#
#
# Convention : Reuss Voigt Hill
#
# Bulk Modulus (GPa) = 50.65313 51.79838 51.22575
# Shear Modulus (GPa) = 22.35963 24.25479 23.30721
#
# Velocity S-wave (km/s) = 3.33254 3.47090 3.40242
# Velocity P-wave (km/s) = 6.32193 6.46457 6.39365
#
# Compressibility (1/GPa) = 0.01974212
#
# Stress axis : x y z
#
# Youngs Moduli (GPa) = 78.02824 64.65432 56.86594
#
# Poissons Ratio (x) = 0.29032 0.16962
# Poissons Ratio (y) = 0.35038 0.31787
# Poissons Ratio (z) = 0.23274 0.36140
#
# Static dielectric constant tensor:
#      x y z
#    x 3.828110 0.000000 0.000000 
#    y 0.000000 4.667110 0.000000 
#    z 0.000000 0.000000 3.275760 
# 
# 
# High freq. dielectric constant tensor:
#      x y z
#    x 1.797410 0.000000 0.000000 
#    y 0.000000 1.790700 0.000000 
#    z 0.000000 0.000000 1.748890 
# 
# From -- ./inp_files/9748.got.cif
#   From: 2010.03.12/outbox.cif.g09.slc.cpg/sg55_5_cif.got.tgz:9748.got - 2010.04.16 15:19:21.
