data_PCOD8227208
_publ_section_title
;
Structure prediction by ZEFSAII (Michael W. Deem and Ramdas Pophale) SiO2 
 PCOD8227208
Probable space group: P B A M
;
_chemical_formula_sum "Si O2"
_cell_formula_units_Z 48
_cell_length_a 26.540876
_cell_length_b 10.212211
_cell_length_c 8.470750
_cell_angle_alpha 90.000000
_cell_angle_beta 90.000000
_cell_angle_gamma 90.000000
_cell_volume 2295.920770
_symmetry_space_group_name_H-M "P B A M"
_symmetry_group_IT_number 55
_symmetry_cell_setting 'orthorhombic'
loop_
_space_group_symop_operation_xyz
x,y,z
-x,-y,z
1/2+x,1/2-y,-z
1/2-x,1/2+y,-z
-x,-y,-z
x,y,-z
1/2-x,1/2+y,z
1/2+x,1/2-y,z
loop_
_atom_site_type_symbol
_atom_site_label
_atom_site_fract_x
_atom_site_fract_y
_atom_site_fract_z
Si Si1 0.698249 0.866914 0.317910
Si Si2 0.527493 0.631444 0.817539
Si Si3 0.306043 0.624279 0.181334
Si Si4 0.140747 0.368722 0.683799
Si Si5 0.635831 0.613429 0.317372
Si Si6 0.027976 0.374597 0.684466
O O1 0.715460 0.860921 0.500000
O O2 0.746753 0.887577 0.210328
O O3 0.671590 0.732712 0.266610
O O4 0.659511 0.984225 0.287632
O O5 0.500000 0.500000 0.761489
O O6 0.586602 0.617447 0.789910
O O7 0.505247 0.747587 0.713871
O O8 0.516549 0.660736 0.000000
O O9 0.323751 0.770490 0.220963
O O10 0.335488 0.522216 0.290636
O O11 0.317504 0.591739 0.000000
O O12 0.143043 0.330559 0.500000
O O13 0.084199 0.358616 0.754285
O O14 0.620132 0.625231 0.500000
O O15 0.034121 0.399758 0.500000
O O16 0.000000 0.500000 0.761752
#
# Coordination Sequence:
#
# PCOD8227208 Si02
#       6
#     8   8   8   8   8   8
#     4  10  22  41  64  89 116 151 199 248 293 345
#     4  11  24  40  59  88 124 158 195 242 297 355
#     4  12  25  39  58  88 124 158 194 239 293 353
#     4  10  21  39  63  88 116 153 196 242 290 345
#     4  11  23  41  65  89 116 155 202 249 294 345
#     4  10  21  39  63  90 118 152 198 245 291 349
#
# _framework density 20.906645999999999
#
# number of rings (size 3 to 8) (size 9 to 14) (size 15 to 20)
#    0.000    1.333    0.000    5.500    0.000   13.667 
#    0.000    1.667    0.000    0.000    0.000    0.000 
#    0.000    0.000    0.000    0.000    0.000    0.000 
#
# Total GULP energy -595573.715891 kJ/mol
# GULP energy per Si atom -12407.785748 kJ/mol
# Density = 2.085906 g / cm^3
# Si number density = 20.906646 Si / 1000 Ang^3
#
#
#
# Elastic Constant Matrix: (Units=GPa)
#
#
# Indices 1 2 3 4 5 6 
#
# 1 121.1599 29.4150 18.9236 0.0000 0.0000 0.0000
# 2 29.4150 106.0940 19.1836 0.0000 0.0000 0.0000
# 3 18.9236 19.1836 39.3578 0.0000 0.0000 0.0000
# 4 0.0000 0.0000 0.0000 8.2122 0.0000 0.0000
# 5 0.0000 0.0000 0.0000 0.0000 -9.1274 0.0000
# 6 0.0000 0.0000 0.0000 0.0000 0.0000 41.1644
#
#
#
# Elastic Compliance Matrix: (Units=1/GPa)
#
#
# Indices 1 2 3 4 5 6 
#
# 1 0.009272 -0.001935 -0.003515 0.000000 0.000000 0.000000
# 2 -0.001935 0.010740 -0.004305 0.000000 0.000000 0.000000
# 3 -0.003515 -0.004305 0.029196 0.000000 0.000000 0.000000
# 4 0.000000 0.000000 0.000000 0.121771 0.000000 0.000000
# 5 0.000000 0.000000 0.000000 0.000000 -0.109560 0.000000
# 6 0.000000 0.000000 0.000000 0.000000 0.000000 0.024293
#
#
# Mechanical properties :
#
#
# Convention : Reuss Voigt Hill
#
# Bulk Modulus (GPa) = 33.67079 44.62843 39.14961
# Shear Modulus (GPa) = 43.43214 21.32247 32.37730
#
# Velocity S-wave (km/s) = 4.56283 3.19704 3.93957
# Velocity P-wave (km/s) = 6.62567 5.91785 6.28174
#
# Compressibility (1/GPa) = 0.02969934
#
# Stress axis : x y z
#
# Youngs Moduli (GPa) = 107.84712 93.10556 34.25117
#
# Poissons Ratio (x) = 0.18018 0.12039
# Poissons Ratio (y) = 0.20871 0.14744
# Poissons Ratio (z) = 0.37908 0.40078
#
# Static dielectric constant tensor:
#      x y z
#    x 3.755510 0.000000 0.000000 
#    y 0.000000 3.765910 0.000000 
#    z 0.000000 0.000000 3.575350 
# 
# 
# High freq. dielectric constant tensor:
#      x y z
#    x 1.833600 0.000000 0.000000 
#    y 0.000000 1.834050 0.000000 
#    z 0.000000 0.000000 1.803000 
# 
# From -- ./inp_files/10520.got.cif
#   From: 2010.03.12/outbox.cif.g09.slc.cpg/sg55_6_cif.got.tgz:10520.got - 2010.04.16 15:19:21.
