data_PCOD8227491
_publ_section_title
;
Structure prediction by ZEFSAII (Michael W. Deem and Ramdas Pophale) SiO2 
 PCOD8227491
Probable space group: P B A M
;
_chemical_formula_sum "Si O2"
_cell_formula_units_Z 28
_cell_length_a 17.364788
_cell_length_b 4.823861
_cell_length_c 11.010031
_cell_angle_alpha 90.000000
_cell_angle_beta 90.000000
_cell_angle_gamma 90.000000
_cell_volume 922.258810
_symmetry_space_group_name_H-M "P B A M"
_symmetry_group_IT_number 55
_symmetry_cell_setting 'orthorhombic'
loop_
_space_group_symop_operation_xyz
x,y,z
-x,-y,z
1/2+x,1/2-y,-z
1/2-x,1/2+y,-z
-x,-y,-z
x,y,-z
1/2-x,1/2+y,z
1/2+x,1/2-y,z
loop_
_atom_site_type_symbol
_atom_site_label
_atom_site_fract_x
_atom_site_fract_y
_atom_site_fract_z
Si Si1 0.804858 0.564463 0.728029
Si Si2 0.408496 0.502169 0.631699
Si Si3 0.801257 0.601375 0.000000
Si Si4 0.944137 0.256325 0.134455
O O1 0.767957 0.265749 0.701140
O O2 0.842645 0.565531 0.867210
O O3 0.874949 0.684931 0.646426
O O4 0.500000 0.500000 0.634134
O O5 0.380777 0.384498 0.500000
O O6 0.385290 0.304948 0.749448
O O7 0.722941 0.423860 0.000000
O O8 0.000000 0.500000 0.171085
O O9 0.901874 0.302374 0.000000
O O10 0.000000 0.000000 0.114915
#
# Coordination Sequence:
#
# PCOD8227491 Si02
#       4
#     8   8   4   8
#     4  10  22  41  65  93 128 170 217 267 327 395
#     4  10  23  42  66  97 134 174 219 274 332 389
#     4   8  16  34  59  88 121 160 204 260 320 378
#     4   9  19  37  60  88 122 162 207 257 314 377
#
# _framework density 30.360242
#
# number of rings (size 3 to 8) (size 9 to 14) (size 15 to 20)
#    0.000    2.571    0.000    0.000    2.000    6.286 
#    0.000    5.714    0.000    0.000    0.000    0.000 
#    0.000    0.000    0.000    0.000    0.000    0.000 
#
# Total GULP energy -346923.184371 kJ/mol
# GULP energy per Si atom -12390.113728 kJ/mol
# Density = 3.029114 g / cm^3
# Si number density = 30.360242 Si / 1000 Ang^3
#
#
#
# Elastic Constant Matrix: (Units=GPa)
#
#
# Indices 1 2 3 4 5 6 
#
# 1 139.4598 32.4804 52.0031 0.0000 0.0000 0.0000
# 2 32.4804 134.1979 47.2839 0.0000 0.0000 0.0000
# 3 52.0031 47.2839 267.3107 0.0000 0.0000 0.0000
# 4 0.0000 0.0000 0.0000 48.5080 0.0000 0.0000
# 5 0.0000 0.0000 0.0000 0.0000 23.6382 0.0000
# 6 0.0000 0.0000 0.0000 0.0000 0.0000 45.2284
#
#
#
# Elastic Compliance Matrix: (Units=1/GPa)
#
#
# Indices 1 2 3 4 5 6 
#
# 1 0.007998 -0.001480 -0.001294 0.000000 0.000000 0.000000
# 2 -0.001480 0.008221 -0.001166 0.000000 0.000000 0.000000
# 3 -0.001294 -0.001166 0.004199 0.000000 0.000000 0.000000
# 4 0.000000 0.000000 0.000000 0.020615 0.000000 0.000000
# 5 0.000000 0.000000 0.000000 0.000000 0.042304 0.000000
# 6 0.000000 0.000000 0.000000 0.000000 0.000000 0.022110
#
#
# Mechanical properties :
#
#
# Convention : Reuss Voigt Hill
#
# Bulk Modulus (GPa) = 79.76261 89.38925 84.57593
# Shear Modulus (GPa) = 42.55088 50.75501 46.65294
#
# Velocity S-wave (km/s) = 3.74777 4.09315 3.92426
# Velocity P-wave (km/s) = 6.71243 7.20037 6.96068
#
# Compressibility (1/GPa) = 0.01253720
#
# Stress axis : x y z
#
# Youngs Moduli (GPa) = 125.03548 121.64328 238.15023
#
# Poissons Ratio (x) = 0.18000 0.30820
# Poissons Ratio (y) = 0.18502 0.27775
# Poissons Ratio (z) = 0.16181 0.14187
#
# Static dielectric constant tensor:
#      x y z
#    x 5.671810 0.000000 0.000000 
#    y 0.000000 5.999530 0.000000 
#    z 0.000000 0.000000 7.844330 
# 
# 
# High freq. dielectric constant tensor:
#      x y z
#    x 2.287820 0.000000 0.000000 
#    y 0.000000 2.272400 0.000000 
#    z 0.000000 0.000000 2.250990 
# 
# From -- ./inp_files/11190.got.cif
#   From: 2010.03.12/outbox.cif.g09.slc.cpg/sg55_6_cif.got.tgz:11190.got - 2010.04.16 15:19:21.
