data_PCOD8227164
_publ_section_title
;
Structure prediction by ZEFSAII (Michael W. Deem and Ramdas Pophale) SiO2 
 PCOD8227164
Probable space group: P B A M
;
_chemical_formula_sum "Si O2"
_cell_formula_units_Z 40
_cell_length_a 8.957231
_cell_length_b 15.171283
_cell_length_c 13.591170
_cell_angle_alpha 90.000000
_cell_angle_beta 90.000000
_cell_angle_gamma 90.000000
_cell_volume 1846.940603
_symmetry_space_group_name_H-M "P B A M"
_symmetry_group_IT_number 55
_symmetry_cell_setting 'orthorhombic'
loop_
_space_group_symop_operation_xyz
x,y,z
-x,-y,z
1/2+x,1/2-y,-z
1/2-x,1/2+y,-z
-x,-y,-z
x,y,-z
1/2-x,1/2+y,z
1/2+x,1/2-y,z
loop_
_atom_site_type_symbol
_atom_site_label
_atom_site_fract_x
_atom_site_fract_y
_atom_site_fract_z
Si Si1 0.164142 0.034023 0.787044
Si Si2 0.721883 0.868073 0.390262
Si Si3 0.392082 0.804298 0.389693
Si Si4 0.744352 0.149268 0.193928
Si Si5 0.050371 0.200389 0.886320
O O1 0.255405 0.054323 0.687638
O O2 0.160888 0.119911 0.857127
O O3 0.247760 0.952741 0.842705
O O4 0.000000 0.000000 0.758342
O O5 0.722779 0.908955 0.500000
O O6 0.566855 0.817830 0.370568
O O7 0.857736 0.799420 0.376327
O O8 0.345907 0.835181 0.500000
O O9 0.294422 0.856316 0.309686
O O10 0.623084 0.204467 0.133050
O O11 0.902740 0.196852 0.179462
O O12 0.007402 0.191367 0.000000
#
# Coordination Sequence:
#
# PCOD8227164 Si02
#       5
#     8   8   8   8   8
#     4  10  24  40  64  97 127 171 215 264 320 387
#     4  10  21  39  63  97 136 174 217 260 314 382
#     4  10  21  38  66  95 130 174 212 258 317 380
#     4  11  23  42  67  94 125 168 213 264 324 385
#     4  11  24  44  67  92 126 168 216 270 329 381
#
# _framework density 21.657437000000002
#
# number of rings (size 3 to 8) (size 9 to 14) (size 15 to 20)
#    0.000    1.600    2.000    1.800    2.800    6.400 
#    0.000    2.000    0.000    2.400    0.000    0.000 
#    0.000    0.000    0.000    0.000    0.000    0.000 
#
# Total GULP energy -495939.179654 kJ/mol
# GULP energy per Si atom -12398.479491 kJ/mol
# Density = 2.160814 g / cm^3
# Si number density = 21.657437 Si / 1000 Ang^3
#
#
#
# Elastic Constant Matrix: (Units=GPa)
#
#
# Indices 1 2 3 4 5 6 
#
# 1 94.3495 55.2474 42.9815 0.0000 0.0000 0.0000
# 2 55.2474 94.3995 41.2607 0.0000 0.0000 0.0000
# 3 42.9815 41.2607 108.3884 0.0000 0.0000 0.0000
# 4 0.0000 0.0000 0.0000 16.8655 0.0000 0.0000
# 5 0.0000 0.0000 0.0000 0.0000 24.5183 0.0000
# 6 0.0000 0.0000 0.0000 0.0000 0.0000 30.2001
#
#
#
# Elastic Compliance Matrix: (Units=1/GPa)
#
#
# Indices 1 2 3 4 5 6 
#
# 1 0.017215 -0.008507 -0.003588 0.000000 0.000000 0.000000
# 2 -0.008507 0.016911 -0.003064 0.000000 0.000000 0.000000
# 3 -0.003588 -0.003064 0.011816 0.000000 0.000000 0.000000
# 4 0.000000 0.000000 0.000000 0.059293 0.000000 0.000000
# 5 0.000000 0.000000 0.000000 0.000000 0.040786 0.000000
# 6 0.000000 0.000000 0.000000 0.000000 0.000000 0.033113
#
#
# Mechanical properties :
#
#
# Convention : Reuss Voigt Hill
#
# Bulk Modulus (GPa) = 64.00818 64.01296 64.01057
# Shear Modulus (GPa) = 23.29284 24.82663 24.05974
#
# Velocity S-wave (km/s) = 3.28306 3.38943 3.33667
# Velocity P-wave (km/s) = 6.63252 6.70364 6.66817
#
# Compressibility (1/GPa) = 0.01562300
#
# Stress axis : x y z
#
# Youngs Moduli (GPa) = 58.09013 59.13269 84.63435
#
# Poissons Ratio (x) = 0.50301 0.30369
# Poissons Ratio (y) = 0.49414 0.25935
# Poissons Ratio (z) = 0.20844 0.18120
#
# Static dielectric constant tensor:
#      x y z
#    x 3.837860 0.000000 0.000000 
#    y 0.000000 3.909990 0.000000 
#    z 0.000000 0.000000 3.934870 
# 
# 
# High freq. dielectric constant tensor:
#      x y z
#    x 1.845330 0.000000 0.000000 
#    y 0.000000 1.845550 0.000000 
#    z 0.000000 0.000000 1.847420 
# 
# From -- ./inp_files/17037.got.cif
#   From: 2010.03.12/outbox.cif.g09.slc.cpg/sg55_9_cif.got.tgz:17037.got - 2010.04.16 15:19:21.
