data_PCOD8227433
_publ_section_title
;
Structure prediction by ZEFSAII (Michael W. Deem and Ramdas Pophale) SiO2 
 PCOD8227433
Probable space group: P B A M
;
_chemical_formula_sum "Si O2"
_cell_formula_units_Z 32
_cell_length_a 14.109736
_cell_length_b 12.633252
_cell_length_c 9.033759
_cell_angle_alpha 90.000000
_cell_angle_beta 90.000000
_cell_angle_gamma 90.000000
_cell_volume 1610.284259
_symmetry_space_group_name_H-M "P B A M"
_symmetry_group_IT_number 55
_symmetry_cell_setting 'orthorhombic'
loop_
_space_group_symop_operation_xyz
x,y,z
-x,-y,z
1/2+x,1/2-y,-z
1/2-x,1/2+y,-z
-x,-y,-z
x,y,-z
1/2-x,1/2+y,z
1/2+x,1/2-y,z
loop_
_atom_site_type_symbol
_atom_site_label
_atom_site_fract_x
_atom_site_fract_y
_atom_site_fract_z
Si Si1 0.074153 0.405633 0.337295
Si Si2 0.603839 0.535954 0.673037
Si Si3 0.598233 0.779157 0.673451
Si Si4 0.784115 0.458967 0.174707
O O1 0.119603 0.385043 0.500000
O O2 0.157802 0.436062 0.225082
O O3 0.000000 0.500000 0.347602
O O4 0.012210 0.304358 0.284254
O O5 0.500000 0.500000 0.722884
O O6 0.619649 0.514533 0.500000
O O7 0.618859 0.658550 0.713447
O O8 0.677864 0.466153 0.764570
O O9 0.612998 0.803613 0.500000
O O10 0.670416 0.851280 0.764790
O O11 0.783484 0.454638 0.000000
#
# Coordination Sequence:
#
# PCOD8227433 Si02
#       4
#     8   8   8   8
#     4   8  15  31  55  81 107 139 184 231 270 315
#     4  10  22  40  60  82 109 145 191 237 279 325
#     4   9  19  37  60  83 109 145 189 235 278 323
#     4  11  22  35  55  85 118 150 184 224 277 340
#
# _framework density 19.872267999999998
#
# number of rings (size 3 to 8) (size 9 to 14) (size 15 to 20)
#    0.000    2.500    0.000    3.750    0.000    8.000 
#    0.000    5.000    0.000    0.000    0.000    0.000 
#    0.000    0.000    0.000    0.000    0.000    0.000 
#
# Total GULP energy -396744.457614 kJ/mol
# GULP energy per Si atom -12398.264300 kJ/mol
# Density = 1.982704 g / cm^3
# Si number density = 19.872268 Si / 1000 Ang^3
#
#
#
# Elastic Constant Matrix: (Units=GPa)
#
#
# Indices 1 2 3 4 5 6 
#
# 1 142.8907 52.8744 79.0652 0.0000 0.0000 0.0000
# 2 52.8744 74.8937 53.5624 0.0000 0.0000 0.0000
# 3 79.0652 53.5624 118.6398 0.0000 0.0000 0.0000
# 4 0.0000 0.0000 0.0000 9.4876 0.0000 0.0000
# 5 0.0000 0.0000 0.0000 0.0000 4.0962 0.0000
# 6 0.0000 0.0000 0.0000 0.0000 0.0000 27.2224
#
#
#
# Elastic Compliance Matrix: (Units=1/GPa)
#
#
# Indices 1 2 3 4 5 6 
#
# 1 0.011851 -0.004015 -0.006086 0.000000 0.000000 0.000000
# 2 -0.004015 0.021079 -0.006841 0.000000 0.000000 0.000000
# 3 -0.006086 -0.006841 0.015573 0.000000 0.000000 0.000000
# 4 0.000000 0.000000 0.000000 0.105401 0.000000 0.000000
# 5 0.000000 0.000000 0.000000 0.000000 0.244131 0.000000
# 6 0.000000 0.000000 0.000000 0.000000 0.000000 0.036734
#
#
# Mechanical properties :
#
#
# Convention : Reuss Voigt Hill
#
# Bulk Modulus (GPa) = 68.39562 78.60313 73.49938
# Shear Modulus (GPa) = 10.55907 18.22271 14.39089
#
# Velocity S-wave (km/s) = 2.30760 3.03147 2.69396
# Velocity P-wave (km/s) = 6.44921 7.20369 6.83687
#
# Compressibility (1/GPa) = 0.01462082
#
# Stress axis : x y z
#
# Youngs Moduli (GPa) = 84.37981 47.44007 64.21358
#
# Poissons Ratio (x) = 0.19045 0.39077
# Poissons Ratio (y) = 0.33875 0.43930
# Poissons Ratio (z) = 0.51349 0.32455
#
# Static dielectric constant tensor:
#      x y z
#    x 3.780780 0.000000 0.000000 
#    y 0.000000 3.717320 0.000000 
#    z 0.000000 0.000000 3.364660 
# 
# 
# High freq. dielectric constant tensor:
#      x y z
#    x 1.777700 0.000000 0.000000 
#    y 0.000000 1.766790 0.000000 
#    z 0.000000 0.000000 1.751860 
# 
# From -- ./inp_files/3329.got.cif
#   From: 2010.03.12/outbox.cif.g09.slc.cpg/sg55_2_cif.got.tgz:3329.got - 2010.04.16 15:19:21.
