data_PCOD8227586
_publ_section_title
;
Structure prediction by ZEFSAII (Michael W. Deem and Ramdas Pophale) SiO2 
 PCOD8227586
Probable space group: P B A M
;
_chemical_formula_sum "Si O2"
_cell_formula_units_Z 40
_cell_length_a 28.198334
_cell_length_b 7.763753
_cell_length_c 8.805101
_cell_angle_alpha 90.000000
_cell_angle_beta 90.000000
_cell_angle_gamma 90.000000
_cell_volume 1927.655858
_symmetry_space_group_name_H-M "P B A M"
_symmetry_group_IT_number 55
_symmetry_cell_setting 'orthorhombic'
loop_
_space_group_symop_operation_xyz
x,y,z
-x,-y,z
1/2+x,1/2-y,-z
1/2-x,1/2+y,-z
-x,-y,-z
x,y,-z
1/2-x,1/2+y,z
1/2+x,1/2-y,z
loop_
_atom_site_type_symbol
_atom_site_label
_atom_site_fract_x
_atom_site_fract_y
_atom_site_fract_z
Si Si1 0.944759 0.995991 0.675414
Si Si2 0.296937 0.691176 0.173239
Si Si3 0.796779 0.167693 0.320676
Si Si4 0.613395 0.798574 0.177022
Si Si5 0.600665 0.178597 0.170808
O O1 0.933919 0.033944 0.500000
O O2 0.920340 0.143226 0.774251
O O3 0.925265 0.806653 0.714503
O O4 0.000000 0.000000 0.712165
O O5 0.254436 0.780668 0.260941
O O6 0.311848 0.515044 0.253207
O O7 0.342414 0.813453 0.182848
O O8 0.281493 0.655596 0.000000
O O9 0.794394 0.157541 0.500000
O O10 0.837221 0.300480 0.269100
O O11 0.587136 0.980632 0.209658
O O12 0.625387 0.777992 0.000000
O O13 0.584474 0.226643 0.000000
#
# Coordination Sequence:
#
# PCOD8227586 Si02
#       5
#     8   8   8   8   8
#     4  11  25  44  67  96 131 171 216 272 336 396
#     4  11  22  39  62  90 128 174 220 264 320 387
#     4  12  24  38  60  94 132 171 217 268 325 385
#     4  11  23  42  67  96 130 170 219 270 326 390
#     4  10  23  42  67  95 126 170 219 268 321 385
#
# _framework density 20.750591
#
# number of rings (size 3 to 8) (size 9 to 14) (size 15 to 20)
#    0.000    1.000    2.000    4.800    0.000    6.400 
#    0.000    4.000    0.000    0.000    0.000    0.000 
#    0.000    0.000    0.000    0.000    0.000    0.000 
#
# Total GULP energy -496224.784918 kJ/mol
# GULP energy per Si atom -12405.619623 kJ/mol
# Density = 2.070336 g / cm^3
# Si number density = 20.750591 Si / 1000 Ang^3
#
#
#
# Elastic Constant Matrix: (Units=GPa)
#
#
# Indices 1 2 3 4 5 6 
#
# 1 75.0855 23.3965 38.4711 0.0000 0.0000 0.0000
# 2 23.3965 116.0849 40.9799 0.0000 0.0000 0.0000
# 3 38.4711 40.9799 136.2341 0.0000 0.0000 0.0000
# 4 0.0000 0.0000 0.0000 14.5344 0.0000 0.0000
# 5 0.0000 0.0000 0.0000 0.0000 31.5962 0.0000
# 6 0.0000 0.0000 0.0000 0.0000 0.0000 24.1329
#
#
#
# Elastic Compliance Matrix: (Units=1/GPa)
#
#
# Indices 1 2 3 4 5 6 
#
# 1 0.015905 -0.001812 -0.003946 0.000000 0.000000 0.000000
# 2 -0.001812 0.009844 -0.002449 0.000000 0.000000 0.000000
# 3 -0.003946 -0.002449 0.009191 0.000000 0.000000 0.000000
# 4 0.000000 0.000000 0.000000 0.068802 0.000000 0.000000
# 5 0.000000 0.000000 0.000000 0.000000 0.031649 0.000000
# 6 0.000000 0.000000 0.000000 0.000000 0.000000 0.041437
#
#
# Mechanical properties :
#
#
# Convention : Reuss Voigt Hill
#
# Bulk Modulus (GPa) = 53.98253 59.23329 56.60791
# Shear Modulus (GPa) = 25.07268 29.02317 27.04793
#
# Velocity S-wave (km/s) = 3.47981 3.74393 3.61429
# Velocity P-wave (km/s) = 6.49745 6.87726 6.69005
#
# Compressibility (1/GPa) = 0.01852451
#
# Stress axis : x y z
#
# Youngs Moduli (GPa) = 62.87414 101.58093 108.79671
#
# Poissons Ratio (x) = 0.18412 0.42933
# Poissons Ratio (y) = 0.11396 0.26649
# Poissons Ratio (z) = 0.24811 0.24881
#
# Static dielectric constant tensor:
#      x y z
#    x 3.679750 0.000000 0.000000 
#    y 0.000000 3.889920 0.000000 
#    z 0.000000 0.000000 3.822050 
# 
# 
# High freq. dielectric constant tensor:
#      x y z
#    x 1.808650 0.000000 0.000000 
#    y 0.000000 1.823720 0.000000 
#    z 0.000000 0.000000 1.820910 
# 
# From -- ./inp_files/9998.got.cif
#   From: 2010.03.12/outbox.cif.g09.slc.cpg/sg55_5_cif.got.tgz:9998.got - 2010.04.16 15:19:21.
