data_PCOD8227390
_publ_section_title
;
Structure prediction by ZEFSAII (Michael W. Deem and Ramdas Pophale) SiO2 
 PCOD8227390
Probable space group: P B A M
;
_chemical_formula_sum "Si O2"
_cell_formula_units_Z 40
_cell_length_a 12.118368
_cell_length_b 8.460548
_cell_length_c 17.519731
_cell_angle_alpha 90.000000
_cell_angle_beta 90.000000
_cell_angle_gamma 90.000000
_cell_volume 1796.263578
_symmetry_space_group_name_H-M "P B A M"
_symmetry_group_IT_number 55
_symmetry_cell_setting 'orthorhombic'
loop_
_space_group_symop_operation_xyz
x,y,z
-x,-y,z
1/2+x,1/2-y,-z
1/2-x,1/2+y,-z
-x,-y,-z
x,y,-z
1/2-x,1/2+y,z
1/2+x,1/2-y,z
loop_
_atom_site_type_symbol
_atom_site_label
_atom_site_fract_x
_atom_site_fract_y
_atom_site_fract_z
Si Si1 0.213675 0.327947 0.321167
Si Si2 0.347774 0.096495 0.780631
Si Si3 0.625949 0.453548 0.586670
Si Si4 0.810726 0.970030 0.914001
Si Si5 0.010575 0.833789 0.849802
O O1 0.135772 0.460605 0.282415
O O2 0.271422 0.234572 0.252800
O O3 0.138009 0.213994 0.371269
O O4 0.304315 0.408724 0.374338
O O5 0.292479 0.029068 0.857206
O O6 0.467562 0.175426 0.800702
O O7 0.500000 0.500000 0.589993
O O8 0.667363 0.434723 0.500000
O O9 0.895665 0.821723 0.897014
O O10 0.881869 0.133523 0.904091
O O11 0.766140 0.957470 0.000000
O O12 0.000000 0.000000 0.799206
#
# Coordination Sequence:
#
# PCOD8227390 Si02
#       5
#     8   8   8   8   8
#     4  10  22  38  64  98 130 165 207 259 316 388
#     4  11  19  38  60  90 126 165 209 258 323 378
#     4  10  22  43  71  98 131 170 207 255 318 383
#     4   9  19  34  57  84 117 165 219 267 317 370
#     4   8  18  36  58  80 115 160 212 260 320 370
#
# _framework density 22.268447999999999
#
# number of rings (size 3 to 8) (size 9 to 14) (size 15 to 20)
#    1.200    1.000    2.000    1.800    0.000    5.600 
#    0.000    9.000    0.000   12.000    0.000    0.000 
#    0.000    0.000    0.000    0.000    0.000    0.000 
#
# Total GULP energy -495577.015358 kJ/mol
# GULP energy per Si atom -12389.425384 kJ/mol
# Density = 2.221776 g / cm^3
# Si number density = 22.268448 Si / 1000 Ang^3
#
#
#
# Elastic Constant Matrix: (Units=GPa)
#
#
# Indices 1 2 3 4 5 6 
#
# 1 38.1909 9.7822 28.1040 0.0000 0.0000 0.0000
# 2 9.7822 96.7806 41.6126 0.0000 0.0000 0.0000
# 3 28.1040 41.6126 128.9707 0.0000 0.0000 0.0000
# 4 0.0000 0.0000 0.0000 60.4361 0.0000 0.0000
# 5 0.0000 0.0000 0.0000 0.0000 66.5789 0.0000
# 6 0.0000 0.0000 0.0000 0.0000 0.0000 31.2165
#
#
#
# Elastic Compliance Matrix: (Units=1/GPa)
#
#
# Indices 1 2 3 4 5 6 
#
# 1 0.031191 -0.000267 -0.006711 0.000000 0.000000 0.000000
# 2 -0.000267 0.011999 -0.003813 0.000000 0.000000 0.000000
# 3 -0.006711 -0.003813 0.010446 0.000000 0.000000 0.000000
# 4 0.000000 0.000000 0.000000 0.016546 0.000000 0.000000
# 5 0.000000 0.000000 0.000000 0.000000 0.015020 0.000000
# 6 0.000000 0.000000 0.000000 0.000000 0.000000 0.032034
#
#
# Mechanical properties :
#
#
# Convention : Reuss Voigt Hill
#
# Bulk Modulus (GPa) = 31.19722 46.99330 39.09526
# Shear Modulus (GPa) = 33.44385 43.94252 38.69318
#
# Velocity S-wave (km/s) = 3.87957 4.44701 4.17295
# Velocity P-wave (km/s) = 5.84022 6.89324 6.38846
#
# Compressibility (1/GPa) = 0.03205414
#
# Stress axis : x y z
#
# Youngs Moduli (GPa) = 32.06059 83.33827 95.72696
#
# Poissons Ratio (x) = 0.02228 0.64238
# Poissons Ratio (y) = 0.00857 0.36504
# Poissons Ratio (z) = 0.21514 0.31780
#
# Static dielectric constant tensor:
#      x y z
#    x 3.750010 0.000000 0.000000 
#    y 0.000000 4.190330 0.000000 
#    z 0.000000 0.000000 3.919560 
# 
# 
# High freq. dielectric constant tensor:
#      x y z
#    x 1.865820 0.000000 0.000000 
#    y 0.000000 1.875140 0.000000 
#    z 0.000000 0.000000 1.862780 
# 
# From -- ./inp_files/21179.got.cif
#   From: 2010.03.12/outbox.cif.g09.slc.cpg/sg55_11_cif.got.tgz:21179.got - 2010.04.16 15:19:21.
