data_PCOD8227950
_publ_section_title
;
Structure prediction by ZEFSAII (Michael W. Deem and Ramdas Pophale) SiO2 
 PCOD8227950
Probable space group: P C C N
;
_chemical_formula_sum "Si O2"
_cell_formula_units_Z 52
_cell_length_a 20.307585
_cell_length_b 8.381986
_cell_length_c 14.692791
_cell_angle_alpha 90.000000
_cell_angle_beta 90.000000
_cell_angle_gamma 90.000000
_cell_volume 2500.975929
_symmetry_space_group_name_H-M "P C C N"
_symmetry_group_IT_number 56
_symmetry_cell_setting 'orthorhombic'
loop_
_space_group_symop_operation_xyz
x,y,z
1/2-x,1/2-y,z
1/2+x,-y,1/2-z
-x,1/2+y,1/2-z
-x,-y,-z
1/2+x,1/2+y,-z
1/2-x,y,1/2+z
x,1/2-y,1/2+z
loop_
_atom_site_type_symbol
_atom_site_label
_atom_site_fract_x
_atom_site_fract_y
_atom_site_fract_z
Si Si1 0.053233 0.741050 0.724105
Si Si2 0.750000 0.250000 0.855716
Si Si3 0.892905 0.744086 0.962652
Si Si4 0.648693 0.508847 0.311234
Si Si5 0.040605 0.829350 0.916136
Si Si6 0.626873 0.408546 0.923510
Si Si7 0.918405 0.831713 0.152629
O O1 0.083145 0.902698 0.681981
O O2 0.070412 0.730863 0.831220
O O3 0.088872 0.593198 0.673924
O O4 0.974710 0.755828 0.711178
O O5 0.786384 0.394466 0.799325
O O6 0.696584 0.324021 0.921684
O O7 0.852221 0.613140 0.904574
O O8 0.967864 0.763270 0.931002
O O9 0.856537 0.911976 0.949462
O O10 0.891332 0.714252 0.072548
O O11 0.641512 0.618816 0.220353
O O12 0.043711 0.018643 0.894727
O O13 0.083882 0.803918 0.005818
#
# Coordination Sequence:
#
# PCOD8227950 Si02
#       7
#     8   4   8   8   8   8   8
#     4  10  18  33  56  90 129 157 196 254 325 378
#     4  10  24  46  58  80 124 176 220 244 312 376
#     4  11  19  34  62  93 122 156 209 266 327 370
#     4  10  23  37  60  91 127 171 209 258 309 389
#     4  10  18  32  58  93 124 157 195 257 329 371
#     4  10  20  39  60  82 121 169 205 257 306 382
#     4  10  18  34  57  93 128 152 201 258 324 380
#
# _framework density 20.791882000000001
#
# number of rings (size 3 to 8) (size 9 to 14) (size 15 to 20)
#    0.000    1.846    4.615    0.923    0.000    1.231 
#    0.000   12.308    0.000    5.538    0.000    0.000 
#    0.000    0.000    0.000    0.000    0.000    0.000 
#
# Total GULP energy -644296.353004 kJ/mol
# GULP energy per Si atom -12390.314481 kJ/mol
# Density = 2.074456 g / cm^3
# Si number density = 20.791882 Si / 1000 Ang^3
#
#
#
# Elastic Constant Matrix: (Units=GPa)
#
#
# Indices 1 2 3 4 5 6 
#
# 1 95.6961 29.0343 49.2769 0.0000 0.0000 0.0000
# 2 29.0343 45.6063 39.6397 0.0000 0.0000 0.0000
# 3 49.2769 39.6397 116.8956 0.0000 0.0000 0.0000
# 4 0.0000 0.0000 0.0000 31.1585 0.0000 0.0000
# 5 0.0000 0.0000 0.0000 0.0000 19.4325 0.0000
# 6 0.0000 0.0000 0.0000 0.0000 0.0000 36.4561
#
#
#
# Elastic Compliance Matrix: (Units=1/GPa)
#
#
# Indices 1 2 3 4 5 6 
#
# 1 0.014245 -0.005458 -0.004154 0.000000 0.000000 0.000000
# 2 -0.005458 0.033182 -0.008951 0.000000 0.000000 0.000000
# 3 -0.004154 -0.008951 0.013341 0.000000 0.000000 0.000000
# 4 0.000000 0.000000 0.000000 0.032094 0.000000 0.000000
# 5 0.000000 0.000000 0.000000 0.000000 0.051460 0.000000
# 6 0.000000 0.000000 0.000000 0.000000 0.000000 0.027430
#
#
# Mechanical properties :
#
#
# Convention : Reuss Voigt Hill
#
# Bulk Modulus (GPa) = 42.29936 54.90000 48.59968
# Shear Modulus (GPa) = 23.06712 26.75922 24.91317
#
# Velocity S-wave (km/s) = 3.33442 3.59137 3.46528
# Velocity P-wave (km/s) = 5.93404 6.60751 6.27981
#
# Compressibility (1/GPa) = 0.02364102
#
# Stress axis : x y z
#
# Youngs Moduli (GPa) = 70.20125 30.13714 74.95635
#
# Poissons Ratio (x) = 0.16449 0.31137
# Poissons Ratio (y) = 0.38317 0.67095
# Poissons Ratio (z) = 0.29161 0.26976
#
# Static dielectric constant tensor:
#      x y z
#    x 3.530630 0.000000 0.000000 
#    y 0.000000 3.747770 0.000000 
#    z 0.000000 0.000000 4.150380 
# 
# 
# High freq. dielectric constant tensor:
#      x y z
#    x 1.782590 0.000000 0.000000 
#    y 0.000000 1.795800 0.000000 
#    z 0.000000 0.000000 1.821710 
# 
# From -- ./inp_files/13046.got.cif
#   From: 2010.03.12/outbox.cif.g09.slc.cpg/sg56_7_cif.got.tgz:13046.got - 2010.04.16 15:33:40.
