data_PCOD8227041
_publ_section_title
;
Structure prediction by ZEFSAII (Michael W. Deem and Ramdas Pophale) SiO2 
 PCOD8227041
Probable space group: P B A M
;
_chemical_formula_sum "Si O2"
_cell_formula_units_Z 64
_cell_length_a 15.279507
_cell_length_b 23.442851
_cell_length_c 8.551730
_cell_angle_alpha 90.000000
_cell_angle_beta 90.000000
_cell_angle_gamma 90.000000
_cell_volume 3063.188689
_symmetry_space_group_name_H-M "P B A M"
_symmetry_group_IT_number 55
_symmetry_cell_setting 'orthorhombic'
loop_
_space_group_symop_operation_xyz
x,y,z
-x,-y,z
1/2+x,1/2-y,-z
1/2-x,1/2+y,-z
-x,-y,-z
x,y,-z
1/2-x,1/2+y,z
1/2+x,1/2-y,z
loop_
_atom_site_type_symbol
_atom_site_label
_atom_site_fract_x
_atom_site_fract_y
_atom_site_fract_z
Si Si1 0.745489 0.441950 0.681351
Si Si2 0.094533 0.870172 0.319251
Si Si3 0.097200 0.362854 0.321868
Si Si4 0.098647 0.639683 0.320694
Si Si5 0.852074 0.243891 0.819655
Si Si6 0.911852 0.875404 0.182831
Si Si7 0.850276 0.751069 0.816849
Si Si8 0.245664 0.436549 0.819919
O O1 0.724831 0.432275 0.500000
O O2 0.832370 0.408038 0.733396
O O3 0.663150 0.421087 0.781360
O O4 0.762165 0.508126 0.712444
O O5 0.113391 0.882076 0.500000
O O6 0.097685 0.802798 0.283406
O O7 0.166473 0.902230 0.216725
O O8 0.998935 0.893762 0.274918
O O9 0.129100 0.370417 0.500000
O O10 0.095813 0.295977 0.278201
O O11 0.161973 0.396670 0.208985
O O12 0.998589 0.386269 0.300175
O O13 0.114979 0.657955 0.500000
O O14 0.107880 0.694396 0.211283
O O15 0.750826 0.243782 0.773559
O O16 0.866641 0.228194 0.000000
O O17 0.880782 0.813174 0.240019
O O18 0.932250 0.875694 0.000000
O O19 0.867410 0.743000 0.000000
O O20 0.246753 0.454882 0.000000
#
# Coordination Sequence:
#
# PCOD8227041 Si02
#       8
#     8   8   8   8   8   8   8   8
#     4  11  24  44  67  92 125 165 210 261 311 369
#     4  12  25  42  65  95 127 165 209 256 313 375
#     4  11  23  40  64  94 127 166 208 256 310 370
#     4  10  23  41  64  95 130 166 207 254 311 371
#     4  11  21  37  63  95 131 167 205 252 310 372
#     4  11  23  42  66  96 130 166 207 256 311 371
#     4  10  21  37  61  93 130 168 204 249 308 370
#     4  12  26  45  66  90 122 163 212 264 314 369
#
# _framework density 20.893260000000001
#
# number of rings (size 3 to 8) (size 9 to 14) (size 15 to 20)
#    0.000    1.000    2.500    4.500    0.000    6.000 
#    0.000    5.000    0.000    0.000    0.000    0.000 
#    0.000    0.000    0.000    0.000    0.000    0.000 
#
# Total GULP energy -794118.372768 kJ/mol
# GULP energy per Si atom -12408.099575 kJ/mol
# Density = 2.084571 g / cm^3
# Si number density = 20.893260 Si / 1000 Ang^3
#
#
#
# Elastic Constant Matrix: (Units=GPa)
#
#
# Indices 1 2 3 4 5 6 
#
# 1 111.9630 26.1285 34.2763 0.0000 0.0000 0.0000
# 2 26.1285 94.8243 8.3713 0.0000 0.0000 0.0000
# 3 34.2763 8.3713 64.1360 0.0000 0.0000 0.0000
# 4 0.0000 0.0000 0.0000 34.1391 0.0000 0.0000
# 5 0.0000 0.0000 0.0000 0.0000 28.6989 0.0000
# 6 0.0000 0.0000 0.0000 0.0000 0.0000 6.0209
#
#
#
# Elastic Compliance Matrix: (Units=1/GPa)
#
#
# Indices 1 2 3 4 5 6 
#
# 1 0.011281 -0.002606 -0.005689 0.000000 0.000000 0.000000
# 2 -0.002606 0.011271 -0.000078 0.000000 0.000000 0.000000
# 3 -0.005689 -0.000078 0.018642 0.000000 0.000000 0.000000
# 4 0.000000 0.000000 0.000000 0.029292 0.000000 0.000000
# 5 0.000000 0.000000 0.000000 0.000000 0.034845 0.000000
# 6 0.000000 0.000000 0.000000 0.000000 0.000000 0.166087
#
#
# Mechanical properties :
#
#
# Convention : Reuss Voigt Hill
#
# Bulk Modulus (GPa) = 40.90357 45.38614 43.14485
# Shear Modulus (GPa) = 16.87399 27.24826 22.06112
#
# Velocity S-wave (km/s) = 2.84496 3.61524 3.25298
# Velocity P-wave (km/s) = 5.51468 6.26072 5.89950
#
# Compressibility (1/GPa) = 0.02444775
#
# Stress axis : x y z
#
# Youngs Moduli (GPa) = 88.64186 88.72416 53.64110
#
# Poissons Ratio (x) = 0.23124 0.30516
# Poissons Ratio (y) = 0.23103 0.00420
# Poissons Ratio (z) = 0.50428 0.00694
#
# Static dielectric constant tensor:
#      x y z
#    x 3.895590 0.000000 0.000000 
#    y 0.000000 3.648010 0.000000 
#    z 0.000000 0.000000 3.689460 
# 
# 
# High freq. dielectric constant tensor:
#      x y z
#    x 1.832780 0.000000 0.000000 
#    y 0.000000 1.810370 0.000000 
#    z 0.000000 0.000000 1.820150 
# 
# From -- ./inp_files/6718.got.cif
#   From: 2010.03.12/outbox.cif.g09.slc.cpg/sg55_4_cif.got.tgz:6718.got - 2010.04.16 15:19:21.
