data_PCOD8227531
_publ_section_title
;
Structure prediction by ZEFSAII (Michael W. Deem and Ramdas Pophale) SiO2 
 PCOD8227531
Probable space group: P B A M
;
_chemical_formula_sum "Si O2"
_cell_formula_units_Z 64
_cell_length_a 30.537990
_cell_length_b 11.846871
_cell_length_c 8.587815
_cell_angle_alpha 90.000000
_cell_angle_beta 90.000000
_cell_angle_gamma 90.000000
_cell_volume 3106.896517
_symmetry_space_group_name_H-M "P B A M"
_symmetry_group_IT_number 55
_symmetry_cell_setting 'orthorhombic'
loop_
_space_group_symop_operation_xyz
x,y,z
-x,-y,z
1/2+x,1/2-y,-z
1/2-x,1/2+y,-z
-x,-y,-z
x,y,-z
1/2-x,1/2+y,z
1/2+x,1/2-y,z
loop_
_atom_site_type_symbol
_atom_site_label
_atom_site_fract_x
_atom_site_fract_y
_atom_site_fract_z
Si Si1 0.168621 0.485310 0.322865
Si Si2 0.952065 0.744311 0.817931
Si Si3 0.077811 0.503641 0.182470
Si Si4 0.125894 0.853344 0.684507
Si Si5 0.041708 0.718264 0.316737
Si Si6 0.302342 0.758449 0.179283
Si Si7 0.124887 0.110113 0.317565
Si Si8 0.710151 0.780410 0.320595
O O1 0.168064 0.440717 0.500000
O O2 0.121358 0.534447 0.278264
O O3 0.180596 0.384449 0.208086
O O4 0.203356 0.585721 0.304281
O O5 0.938450 0.619075 0.765013
O O6 0.913809 0.829990 0.775193
O O7 0.996197 0.779194 0.727008
O O8 0.961425 0.750364 0.000000
O O9 0.042128 0.597385 0.229363
O O10 0.087490 0.507125 0.000000
O O11 0.126253 0.847581 0.500000
O O12 0.081528 0.795223 0.746909
O O13 0.168432 0.787121 0.747848
O O14 0.127598 0.981937 0.742860
O O15 0.045075 0.699245 0.500000
O O16 0.328847 0.669378 0.283355
O O17 0.251420 0.754124 0.218662
O O18 0.310286 0.728575 0.000000
O O19 0.114732 0.116398 0.500000
O O20 0.718677 0.746819 0.500000
#
# Coordination Sequence:
#
# PCOD8227531 Si02
#       8
#     8   8   8   8   8   8   8   8
#     4  11  22  40  69  95 122 163 212 257 304 365
#     4  11  24  41  60  90 129 165 202 256 316 371
#     4  11  22  38  61  91 131 165 199 255 317 366
#     4   9  21  42  65  91 121 156 208 265 307 352
#     4  11  22  40  65  93 123 161 210 259 307 373
#     4  12  26  42  61  94 133 164 201 255 313 372
#     4  11  23  42  67  90 118 164 214 258 304 365
#     4  10  22  43  67  93 123 162 210 259 304 362
#
# _framework density 20.599333000000001
#
# number of rings (size 3 to 8) (size 9 to 14) (size 15 to 20)
#    0.000    1.250    2.500    3.375    1.750    4.500 
#    0.000    5.625    0.000    0.000    0.000    0.000 
#    0.000    0.000    0.000    0.000    0.000    0.000 
#
# Total GULP energy -794024.694231 kJ/mol
# GULP energy per Si atom -12406.635847 kJ/mol
# Density = 2.055245 g / cm^3
# Si number density = 20.599333 Si / 1000 Ang^3
#
#
#
# Elastic Constant Matrix: (Units=GPa)
#
#
# Indices 1 2 3 4 5 6 
#
# 1 125.3163 37.5347 19.4571 0.0000 0.0000 0.0000
# 2 37.5347 117.6040 25.2860 0.0000 0.0000 0.0000
# 3 19.4571 25.2860 54.8761 0.0000 0.0000 0.0000
# 4 0.0000 0.0000 0.0000 14.7258 0.0000 0.0000
# 5 0.0000 0.0000 0.0000 0.0000 22.0311 0.0000
# 6 0.0000 0.0000 0.0000 0.0000 0.0000 24.4093
#
#
#
# Elastic Compliance Matrix: (Units=1/GPa)
#
#
# Indices 1 2 3 4 5 6 
#
# 1 0.009032 -0.002435 -0.002080 0.000000 0.000000 0.000000
# 2 -0.002435 0.010095 -0.003788 0.000000 0.000000 0.000000
# 3 -0.002080 -0.003788 0.020706 0.000000 0.000000 0.000000
# 4 0.000000 0.000000 0.000000 0.067908 0.000000 0.000000
# 5 0.000000 0.000000 0.000000 0.000000 0.045390 0.000000
# 6 0.000000 0.000000 0.000000 0.000000 0.000000 0.040968
#
#
# Mechanical properties :
#
#
# Convention : Reuss Voigt Hill
#
# Bulk Modulus (GPa) = 43.05612 51.37242 47.21427
# Shear Modulus (GPa) = 22.88866 26.60115 24.74490
#
# Velocity S-wave (km/s) = 3.33699 3.59745 3.46966
# Velocity P-wave (km/s) = 5.98284 6.49989 6.24672
#
# Compressibility (1/GPa) = 0.02322550
#
# Stress axis : x y z
#
# Youngs Moduli (GPa) = 110.71409 99.06006 48.29536
#
# Poissons Ratio (x) = 0.24126 0.10047
# Poissons Ratio (y) = 0.26964 0.18294
# Poissons Ratio (z) = 0.23032 0.37524
#
# Static dielectric constant tensor:
#      x y z
#    x 3.858200 0.000000 0.000000 
#    y 0.000000 3.781980 0.000000 
#    z 0.000000 0.000000 3.520280 
# 
# 
# High freq. dielectric constant tensor:
#      x y z
#    x 1.817260 0.000000 0.000000 
#    y 0.000000 1.807340 0.000000 
#    z 0.000000 0.000000 1.795930 
# 
# From -- ./inp_files/4525.got.cif
#   From: 2010.03.12/outbox.cif.g09.slc.cpg/sg55_3_cif.got.tgz:4525.got - 2010.04.16 15:19:21.
