data_PCOD8227518
_publ_section_title
;
Structure prediction by ZEFSAII (Michael W. Deem and Ramdas Pophale) SiO2 
 PCOD8227518
Probable space group: P B A M
;
_chemical_formula_sum "Si O2"
_cell_formula_units_Z 56
_cell_length_a 13.646651
_cell_length_b 8.617355
_cell_length_c 21.178492
_cell_angle_alpha 90.000000
_cell_angle_beta 90.000000
_cell_angle_gamma 90.000000
_cell_volume 2490.549069
_symmetry_space_group_name_H-M "P B A M"
_symmetry_group_IT_number 55
_symmetry_cell_setting 'orthorhombic'
loop_
_space_group_symop_operation_xyz
x,y,z
-x,-y,z
1/2+x,1/2-y,-z
1/2-x,1/2+y,-z
-x,-y,-z
x,y,-z
1/2-x,1/2+y,z
1/2+x,1/2-y,z
loop_
_atom_site_type_symbol
_atom_site_label
_atom_site_fract_x
_atom_site_fract_y
_atom_site_fract_z
Si Si1 0.637778 0.428669 0.273359
Si Si2 0.020220 0.797127 0.340594
Si Si3 0.191824 0.569292 0.636861
Si Si4 0.217000 0.829408 0.929819
Si Si5 0.146003 0.251059 0.572530
Si Si6 0.979896 0.328548 0.928458
Si Si7 0.866074 0.872876 0.869884
O O1 0.567901 0.278366 0.288130
O O2 0.590304 0.564938 0.316284
O O3 0.749255 0.414189 0.296936
O O4 0.637845 0.452081 0.198766
O O5 0.087042 0.648888 0.352217
O O6 0.957048 0.828368 0.405354
O O7 0.166067 0.396579 0.617553
O O8 0.259957 0.639471 0.581314
O O9 0.135714 0.695400 0.926551
O O10 0.298551 0.781034 0.878370
O O11 0.170396 0.997193 0.917981
O O12 0.263557 0.834570 0.000000
O O13 0.136641 0.299698 0.500000
O O14 0.000000 0.500000 0.900428
O O15 0.025712 0.188926 0.886434
O O16 0.021020 0.316799 0.000000
#
# Coordination Sequence:
#
# PCOD8227518 Si02
#       7
#     8   8   8   8   8   8   8
#     4  10  25  43  66  97 136 182 230 278 345 408
#     4  10  23  44  67  93 140 178 221 291 338 389
#     4  11  22  45  68 100 141 181 223 289 342 397
#     4  11  24  41  64  98 133 171 223 288 353 403
#     4  11  24  42  71 107 137 182 232 279 346 419
#     4  10  22  42  65  94 134 173 220 287 355 408
#     4  12  25  40  70  97 132 183 232 278 339 430
#
# _framework density 22.485001
#
# number of rings (size 3 to 8) (size 9 to 14) (size 15 to 20)
#    0.000    1.286    1.429    3.429    6.000    4.000 
#    0.000    5.000    0.000    0.000    0.000    0.000 
#    0.000    0.000    0.000    0.000    0.000    0.000 
#
# Total GULP energy -693924.153460 kJ/mol
# GULP energy per Si atom -12391.502740 kJ/mol
# Density = 2.243382 g / cm^3
# Si number density = 22.485001 Si / 1000 Ang^3
#
#
#
# Elastic Constant Matrix: (Units=GPa)
#
#
# Indices 1 2 3 4 5 6 
#
# 1 98.5630 14.2076 34.5320 0.0000 0.0000 0.0000
# 2 14.2076 69.4639 22.7807 0.0000 0.0000 0.0000
# 3 34.5320 22.7807 115.6131 0.0000 0.0000 0.0000
# 4 0.0000 0.0000 0.0000 23.7909 0.0000 0.0000
# 5 0.0000 0.0000 0.0000 0.0000 24.2442 0.0000
# 6 0.0000 0.0000 0.0000 0.0000 0.0000 43.0509
#
#
#
# Elastic Compliance Matrix: (Units=1/GPa)
#
#
# Indices 1 2 3 4 5 6 
#
# 1 0.011441 -0.001304 -0.003160 0.000000 0.000000 0.000000
# 2 -0.001304 0.015539 -0.002672 0.000000 0.000000 0.000000
# 3 -0.003160 -0.002672 0.010120 0.000000 0.000000 0.000000
# 4 0.000000 0.000000 0.000000 0.042033 0.000000 0.000000
# 5 0.000000 0.000000 0.000000 0.000000 0.041247 0.000000
# 6 0.000000 0.000000 0.000000 0.000000 0.000000 0.023228
#
#
# Mechanical properties :
#
#
# Convention : Reuss Voigt Hill
#
# Bulk Modulus (GPa) = 43.80747 47.40895 45.60821
# Shear Modulus (GPa) = 30.21329 32.35854 31.28591
#
# Velocity S-wave (km/s) = 3.66964 3.79768 3.73421
# Velocity P-wave (km/s) = 6.12211 6.35298 6.23861
#
# Compressibility (1/GPa) = 0.02282716
#
# Stress axis : x y z
#
# Youngs Moduli (GPa) = 87.40529 64.35409 98.81331
#
# Poissons Ratio (x) = 0.08389 0.31229
# Poissons Ratio (y) = 0.11394 0.26408
# Poissons Ratio (z) = 0.27623 0.17199
#
# Static dielectric constant tensor:
#      x y z
#    x 4.476650 0.000000 0.000000 
#    y 0.000000 3.966180 0.000000 
#    z 0.000000 0.000000 3.792540 
# 
# 
# High freq. dielectric constant tensor:
#      x y z
#    x 1.907070 0.000000 0.000000 
#    y 0.000000 1.883420 0.000000 
#    z 0.000000 0.000000 1.862750 
# 
# From -- ./inp_files/22972.got.cif
#   From: 2010.03.12/outbox.cif.g09.slc.cpg/sg55_12_cif.got.tgz:22972.got - 2010.04.16 15:19:21.
