data_PCOD8227635
_publ_section_title
;
Structure prediction by ZEFSAII (Michael W. Deem and Ramdas Pophale) SiO2 
 PCOD8227635
Probable space group: P B A M
;
_chemical_formula_sum "Si O2"
_cell_formula_units_Z 48
_cell_length_a 17.199816
_cell_length_b 8.789363
_cell_length_c 15.364256
_cell_angle_alpha 90.000000
_cell_angle_beta 90.000000
_cell_angle_gamma 90.000000
_cell_volume 2322.697951
_symmetry_space_group_name_H-M "P B A M"
_symmetry_group_IT_number 55
_symmetry_cell_setting 'orthorhombic'
loop_
_space_group_symop_operation_xyz
x,y,z
-x,-y,z
1/2+x,1/2-y,-z
1/2-x,1/2+y,-z
-x,-y,-z
x,y,-z
1/2-x,1/2+y,z
1/2+x,1/2-y,z
loop_
_atom_site_type_symbol
_atom_site_label
_atom_site_fract_x
_atom_site_fract_y
_atom_site_fract_z
Si Si1 0.188711 0.853037 0.179539
Si Si2 0.684900 0.964292 0.099662
Si Si3 0.853756 0.516915 0.595124
Si Si4 0.069161 0.396025 0.771062
Si Si5 0.730617 0.286471 0.654277
Si Si6 0.580128 0.437665 0.723122
O O1 0.226858 0.988670 0.122829
O O2 0.167796 0.712221 0.117565
O O3 0.247636 0.791259 0.253918
O O4 0.108540 0.924921 0.214963
O O5 0.637639 0.074760 0.162256
O O6 0.665263 0.000464 0.000000
O O7 0.894417 0.498369 0.500000
O O8 0.914555 0.550270 0.671607
O O9 0.806432 0.365262 0.616605
O O10 0.792681 0.654819 0.587643
O O11 0.000000 0.500000 0.806216
O O12 0.053628 0.215748 0.773319
O O13 0.655144 0.398761 0.662651
O O14 0.500000 0.500000 0.676450
#
# Coordination Sequence:
#
# PCOD8227635 Si02
#       6
#     8   8   8   8   8   8
#     4  12  19  41  63  92 129 165 216 267 321 377
#     4  12  23  38  65  94 124 169 222 268 315 383
#     4  11  22  37  64  94 122 166 220 265 314 381
#     4  11  23  42  63  90 131 174 211 265 328 386
#     4  11  19  39  63  90 126 165 211 269 317 376
#     4  11  22  37  66  94 125 172 212 260 329 388
#
# _framework density 20.665624000000001
#
# number of rings (size 3 to 8) (size 9 to 14) (size 15 to 20)
#    0.000    0.667    8.333    2.000    0.000    0.667 
#    0.000    0.833    0.000   16.000    0.000    0.000 
#    0.000    0.000    0.000    0.000    0.000    0.000 
#
# Total GULP energy -594739.149736 kJ/mol
# GULP energy per Si atom -12390.398953 kJ/mol
# Density = 2.061859 g / cm^3
# Si number density = 20.665624 Si / 1000 Ang^3
#
#
#
# Elastic Constant Matrix: (Units=GPa)
#
#
# Indices 1 2 3 4 5 6 
#
# 1 69.5865 17.3597 18.7191 0.0000 0.0000 0.0000
# 2 17.3597 97.2501 12.2778 0.0000 0.0000 0.0000
# 3 18.7191 12.2778 117.5221 0.0000 0.0000 0.0000
# 4 0.0000 0.0000 0.0000 17.0106 0.0000 0.0000
# 5 0.0000 0.0000 0.0000 0.0000 -12.4255 0.0000
# 6 0.0000 0.0000 0.0000 0.0000 0.0000 43.1299
#
#
#
# Elastic Compliance Matrix: (Units=1/GPa)
#
#
# Indices 1 2 3 4 5 6 
#
# 1 0.015593 -0.002503 -0.002222 0.000000 0.000000 0.000000
# 2 -0.002503 0.010822 -0.000732 0.000000 0.000000 0.000000
# 3 -0.002222 -0.000732 0.008939 0.000000 0.000000 0.000000
# 4 0.000000 0.000000 0.000000 0.058787 0.000000 0.000000
# 5 0.000000 0.000000 0.000000 0.000000 -0.080480 0.000000
# 6 0.000000 0.000000 0.000000 0.000000 0.000000 0.023186
#
#
# Mechanical properties :
#
#
# Convention : Reuss Voigt Hill
#
# Bulk Modulus (GPa) = 40.91607 42.34131 41.62869
# Shear Modulus (GPa) = 89.43262 25.27647 57.35454
#
# Velocity S-wave (km/s) = 6.58559 3.50110 5.27388
# Velocity P-wave (km/s) = 8.81299 6.07263 7.56788
#
# Compressibility (1/GPa) = 0.02444028
#
# Stress axis : x y z
#
# Youngs Moduli (GPa) = 64.13234 92.40489 111.86362
#
# Poissons Ratio (x) = 0.23127 0.24858
# Poissons Ratio (y) = 0.16051 0.08188
# Poissons Ratio (z) = 0.14251 0.06763
#
# Static dielectric constant tensor:
#      x y z
#    x 3.642370 0.000000 0.000000 
#    y 0.000000 4.005600 0.000000 
#    z 0.000000 0.000000 3.490410 
# 
# 
# High freq. dielectric constant tensor:
#      x y z
#    x 1.798340 0.000000 0.000000 
#    y 0.000000 1.830940 0.000000 
#    z 0.000000 0.000000 1.773720 
# 
# From -- ./inp_files/19341.got.cif
#   From: 2010.03.12/outbox.cif.g09.slc.cpg/sg55_10_cif.got.tgz:19341.got - 2010.04.16 15:19:21.
