data_PCOD8227801
_publ_section_title
;
Structure prediction by ZEFSAII (Michael W. Deem and Ramdas Pophale) SiO2 
 PCOD8227801
Probable space group: P B A M
;
_chemical_formula_sum "Si O2"
_cell_formula_units_Z 32
_cell_length_a 10.152061
_cell_length_b 10.149303
_cell_length_c 12.948841
_cell_angle_alpha 90.000000
_cell_angle_beta 90.000000
_cell_angle_gamma 90.000000
_cell_volume 1334.201225
_symmetry_space_group_name_H-M "P B A M"
_symmetry_group_IT_number 55
_symmetry_cell_setting 'orthorhombic'
loop_
_space_group_symop_operation_xyz
x,y,z
-x,-y,z
1/2+x,1/2-y,-z
1/2-x,1/2+y,-z
-x,-y,-z
x,y,-z
1/2-x,1/2+y,z
1/2+x,1/2-y,z
loop_
_atom_site_type_symbol
_atom_site_label
_atom_site_fract_x
_atom_site_fract_y
_atom_site_fract_z
Si Si1 0.688825 0.357091 0.384004
Si Si2 0.650176 0.498318 0.818632
Si Si3 0.345100 0.219867 0.116355
Si Si4 0.475075 0.152142 0.315907
O O1 0.669141 0.410308 0.500000
O O2 0.658614 0.476640 0.305116
O O3 0.592765 0.234628 0.364127
O O4 0.837389 0.305056 0.368016
O O5 0.500000 0.500000 0.856815
O O6 0.725709 0.382904 0.877577
O O7 0.464675 0.178911 0.807445
O O8 0.286396 0.361376 0.151839
O O9 0.400299 0.224568 0.000000
O O10 0.500000 0.000000 0.338698
#
# Coordination Sequence:
#
# PCOD8227801 Si02
#       4
#     8   8   8   8
#     4  11  26  48  78 109 151 203 247 308 384 440
#     4  11  25  48  70 113 149 192 254 314 365 458
#     4  11  26  47  75 106 149 201 247 310 381 440
#     4  11  27  50  74 115 157 192 258 314 369 463
#
# _framework density 23.984387000000002
#
# number of rings (size 3 to 8) (size 9 to 14) (size 15 to 20)
#    0.000    1.000    2.500    1.500   14.000    5.000 
#    0.000    0.000    0.000    0.000    0.000    0.000 
#    0.000    0.000    0.000    0.000    0.000    0.000 
#
# Total GULP energy -396887.461279 kJ/mol
# GULP energy per Si atom -12402.733165 kJ/mol
# Density = 2.392980 g / cm^3
# Si number density = 23.984387 Si / 1000 Ang^3
#
#
#
# Elastic Constant Matrix: (Units=GPa)
#
#
# Indices 1 2 3 4 5 6 
#
# 1 136.6189 57.4002 25.4893 0.0000 0.0000 0.0000
# 2 57.4002 125.1194 7.7349 0.0000 0.0000 0.0000
# 3 25.4893 7.7349 158.1197 0.0000 0.0000 0.0000
# 4 0.0000 0.0000 0.0000 20.9649 0.0000 0.0000
# 5 0.0000 0.0000 0.0000 0.0000 13.9798 0.0000
# 6 0.0000 0.0000 0.0000 0.0000 0.0000 31.0661
#
#
#
# Elastic Compliance Matrix: (Units=1/GPa)
#
#
# Indices 1 2 3 4 5 6 
#
# 1 0.009326 -0.004198 -0.001298 0.000000 0.000000 0.000000
# 2 -0.004198 0.009906 0.000192 0.000000 0.000000 0.000000
# 3 -0.001298 0.000192 0.006524 0.000000 0.000000 0.000000
# 4 0.000000 0.000000 0.000000 0.047699 0.000000 0.000000
# 5 0.000000 0.000000 0.000000 0.000000 0.071532 0.000000
# 6 0.000000 0.000000 0.000000 0.000000 0.000000 0.032189
#
#
# Mechanical properties :
#
#
# Convention : Reuss Voigt Hill
#
# Bulk Modulus (GPa) = 66.01325 66.78965 66.40145
# Shear Modulus (GPa) = 25.92916 35.15106 30.54011
#
# Velocity S-wave (km/s) = 3.29155 3.83244 3.57225
# Velocity P-wave (km/s) = 6.48297 6.89138 6.69029
#
# Compressibility (1/GPa) = 0.01514847
#
# Stress axis : x y z
#
# Youngs Moduli (GPa) = 107.23203 100.94509 153.27649
#
# Poissons Ratio (x) = 0.42377 0.19895
# Poissons Ratio (y) = 0.45016 -0.02945
# Poissons Ratio (z) = 0.13918 -0.01939
#
# Static dielectric constant tensor:
#      x y z
#    x 4.397100 0.000000 0.000000 
#    y 0.000000 4.410760 0.000000 
#    z 0.000000 0.000000 4.444300 
# 
# 
# High freq. dielectric constant tensor:
#      x y z
#    x 1.952530 0.000000 0.000000 
#    y 0.000000 1.957510 0.000000 
#    z 0.000000 0.000000 1.951460 
# 
# From -- ./inp_files/16911.got.cif
#   From: 2010.03.12/outbox.cif.g09.slc.cpg/sg55_9_cif.got.tgz:16911.got - 2010.04.16 15:19:21.
