data_PCOD8227885
_publ_section_title
;
Structure prediction by ZEFSAII (Michael W. Deem and Ramdas Pophale) SiO2 
 PCOD8227885
Probable space group: P C C N
;
_chemical_formula_sum "Si O2"
_cell_formula_units_Z 64
_cell_length_a 19.043642
_cell_length_b 19.061630
_cell_length_c 8.452280
_cell_angle_alpha 90.000000
_cell_angle_beta 90.000000
_cell_angle_gamma 90.000000
_cell_volume 3068.201794
_symmetry_space_group_name_H-M "P C C N"
_symmetry_group_IT_number 56
_symmetry_cell_setting 'orthorhombic'
loop_
_space_group_symop_operation_xyz
x,y,z
1/2-x,1/2-y,z
1/2+x,-y,1/2-z
-x,1/2+y,1/2-z
-x,-y,-z
1/2+x,1/2+y,-z
1/2-x,y,1/2+z
x,1/2-y,1/2+z
loop_
_atom_site_type_symbol
_atom_site_label
_atom_site_fract_x
_atom_site_fract_y
_atom_site_fract_z
Si Si1 0.180959 0.008891 0.788474
Si Si2 0.503519 0.339836 0.553455
Si Si3 0.277917 0.927546 0.574566
Si Si4 0.816971 0.644773 0.508201
Si Si5 0.400723 0.456375 0.500609
Si Si6 0.353554 0.600141 0.376174
Si Si7 0.931416 0.770900 0.150173
Si Si8 0.685340 0.661169 0.661856
O O1 0.195654 0.079047 0.879985
O O2 0.111778 0.014572 0.679331
O O3 0.248310 0.992650 0.677838
O O4 0.173244 0.949570 0.925777
O O5 0.477011 0.417602 0.493788
O O6 0.586412 0.343425 0.584470
O O7 0.491492 0.278246 0.425610
O O8 0.462216 0.318480 0.711295
O O9 0.208811 0.888263 0.504181
O O10 0.325166 0.883029 0.698180
O O11 0.895577 0.676415 0.523437
O O12 0.754577 0.694196 0.578300
O O13 0.800333 0.623658 0.329068
O O14 0.388519 0.521646 0.381329
O O15 0.346283 0.394370 0.462318
O O16 0.867816 0.723000 0.210159
#
# Coordination Sequence:
#
# PCOD8227885 Si02
#       8
#     8   8   8   8   8   8   8   8
#     4  10  17  30  54  85 127 146 183 234 289 347
#     4  11  23  43  59  83 119 169 202 242 298 356
#     4   9  19  35  59  95 118 147 187 250 313 358
#     4  12  20  32  52  80 115 166 201 242 271 331
#     4  10  20  36  59  92 122 161 193 239 293 367
#     4  10  20  39  67  89 122 145 195 252 315 367
#     4  11  24  39  54  76 116 162 210 246 283 342
#     4  11  23  32  54  81 119 160 210 239 284 334
#
# _framework density 20.859124999999999
#
# number of rings (size 3 to 8) (size 9 to 14) (size 15 to 20)
#    0.000    1.500    2.500    5.250    1.750    1.000 
#    0.000    4.375    0.000    2.250    0.000    0.000 
#    0.000    0.000    0.000    0.000    0.000    0.000 
#
# Total GULP energy -792893.961998 kJ/mol
# GULP energy per Si atom -12388.968156 kJ/mol
# Density = 2.081165 g / cm^3
# Si number density = 20.859125 Si / 1000 Ang^3
#
#
#
# Elastic Constant Matrix: (Units=GPa)
#
#
# Indices 1 2 3 4 5 6 
#
# 1 94.8109 22.1822 32.1631 0.0000 0.0000 0.0000
# 2 22.1822 24.3087 4.5679 0.0000 0.0000 0.0000
# 3 32.1631 4.5679 110.1438 0.0000 0.0000 0.0000
# 4 0.0000 0.0000 0.0000 13.2174 0.0000 0.0000
# 5 0.0000 0.0000 0.0000 0.0000 24.4515 0.0000
# 6 0.0000 0.0000 0.0000 0.0000 0.0000 18.8790
#
#
#
# Elastic Compliance Matrix: (Units=1/GPa)
#
#
# Indices 1 2 3 4 5 6 
#
# 1 0.014837 -0.012825 -0.003801 0.000000 0.000000 0.000000
# 2 -0.012825 0.052546 0.001566 0.000000 0.000000 0.000000
# 3 -0.003801 0.001566 0.010124 0.000000 0.000000 0.000000
# 4 0.000000 0.000000 0.000000 0.075658 0.000000 0.000000
# 5 0.000000 0.000000 0.000000 0.000000 0.040897 0.000000
# 6 0.000000 0.000000 0.000000 0.000000 0.000000 0.052969
#
#
# Mechanical properties :
#
#
# Convention : Reuss Voigt Hill
#
# Bulk Modulus (GPa) = 21.10256 38.56552 29.83404
# Shear Modulus (GPa) = 17.06789 22.66624 19.86707
#
# Velocity S-wave (km/s) = 2.86360 3.29999 3.08951
# Velocity P-wave (km/s) = 4.59046 5.74879 5.20197
#
# Compressibility (1/GPa) = 0.04738762
#
# Stress axis : x y z
#
# Youngs Moduli (GPa) = 67.39804 19.03083 98.77564
#
# Poissons Ratio (x) = 0.24407 0.37542
# Poissons Ratio (y) = 0.86438 -0.15467
# Poissons Ratio (z) = 0.25616 -0.02980
#
# Static dielectric constant tensor:
#      x y z
#    x 3.687020 0.000000 0.000000 
#    y 0.000000 3.381830 0.000000 
#    z 0.000000 0.000000 3.987410 
# 
# 
# High freq. dielectric constant tensor:
#      x y z
#    x 1.794690 0.000000 0.000000 
#    y 0.000000 1.781510 0.000000 
#    z 0.000000 0.000000 1.826240 
# 
# From -- ./inp_files/4214.got.cif
#   From: 2010.03.12/outbox.cif.g09.slc.cpg/sg56_3_cif.got.tgz:4214.got - 2010.04.16 15:33:40.
