data_PCOD8227094
_publ_section_title
;
Structure prediction by ZEFSAII (Michael W. Deem and Ramdas Pophale) SiO2 
 PCOD8227094
Probable space group: P B A M
;
_chemical_formula_sum "Si O2"
_cell_formula_units_Z 48
_cell_length_a 8.807678
_cell_length_b 15.125471
_cell_length_c 17.348477
_cell_angle_alpha 90.000000
_cell_angle_beta 90.000000
_cell_angle_gamma 90.000000
_cell_volume 2311.168932
_symmetry_space_group_name_H-M "P B A M"
_symmetry_group_IT_number 55
_symmetry_cell_setting 'orthorhombic'
loop_
_space_group_symop_operation_xyz
x,y,z
-x,-y,z
1/2+x,1/2-y,-z
1/2-x,1/2+y,-z
-x,-y,-z
x,y,-z
1/2-x,1/2+y,z
1/2+x,1/2-y,z
loop_
_atom_site_type_symbol
_atom_site_label
_atom_site_fract_x
_atom_site_fract_y
_atom_site_fract_z
Si Si1 0.162065 0.652144 0.088973
Si Si2 0.676973 0.005032 0.675747
Si Si3 0.821176 0.008041 0.835772
Si Si4 0.174739 0.662855 0.588223
Si Si5 0.340834 0.808470 0.159516
Si Si6 0.131265 0.301586 0.336078
O O1 0.235863 0.557199 0.105874
O O2 0.283678 0.728510 0.107132
O O3 0.011505 0.664986 0.138953
O O4 0.117067 0.656302 0.000000
O O5 0.779539 0.980154 0.748850
O O6 0.712214 0.104260 0.646338
O O7 0.500000 0.000000 0.700655
O O8 0.719610 0.938535 0.606728
O O9 0.769192 0.107973 0.852802
O O10 0.000000 0.000000 0.848970
O O11 0.121850 0.668792 0.500000
O O12 0.313537 0.727779 0.604272
O O13 0.046747 0.691853 0.648232
O O14 0.340509 0.774925 0.247730
#
# Coordination Sequence:
#
# PCOD8227094 Si02
#       6
#     8   8   8   8   8   8
#     4  12  25  41  64  93 126 159 199 257 316 366
#     4   9  20  39  61  83 113 158 205 247 296 358
#     4  11  23  40  64  91 121 161 209 254 301 365
#     4  11  22  36  58  88 121 154 194 248 306 358
#     4  11  23  42  65  90 122 164 210 253 301 366
#     4  10  21  38  60  84 115 157 201 243 292 358
#
# _framework density 20.768711
#
# number of rings (size 3 to 8) (size 9 to 14) (size 15 to 20)
#    0.000    1.333    0.000    7.500    0.000   10.000 
#    0.000    0.000    0.000    2.500    0.000    0.000 
#    0.000    0.000    0.000    0.000    0.000    0.000 
#
# Total GULP energy -595392.372336 kJ/mol
# GULP energy per Si atom -12404.007757 kJ/mol
# Density = 2.072144 g / cm^3
# Si number density = 20.768711 Si / 1000 Ang^3
#
#
#
# Elastic Constant Matrix: (Units=GPa)
#
#
# Indices 1 2 3 4 5 6 
#
# 1 69.3563 8.6169 13.4226 0.0000 0.0000 0.0000
# 2 8.6169 65.5662 41.7650 0.0000 0.0000 0.0000
# 3 13.4226 41.7650 92.4168 0.0000 0.0000 0.0000
# 4 0.0000 0.0000 0.0000 25.4462 0.0000 0.0000
# 5 0.0000 0.0000 0.0000 0.0000 26.8921 0.0000
# 6 0.0000 0.0000 0.0000 0.0000 0.0000 33.1909
#
#
#
# Elastic Compliance Matrix: (Units=1/GPa)
#
#
# Indices 1 2 3 4 5 6 
#
# 1 0.014866 -0.000812 -0.001792 0.000000 0.000000 0.000000
# 2 -0.000812 0.021461 -0.009581 0.000000 0.000000 0.000000
# 3 -0.001792 -0.009581 0.015411 0.000000 0.000000 0.000000
# 4 0.000000 0.000000 0.000000 0.039299 0.000000 0.000000
# 5 0.000000 0.000000 0.000000 0.000000 0.037186 0.000000
# 6 0.000000 0.000000 0.000000 0.000000 0.000000 0.030129
#
#
# Mechanical properties :
#
#
# Convention : Reuss Voigt Hill
#
# Bulk Modulus (GPa) = 36.53938 39.43871 37.98905
# Shear Modulus (GPa) = 26.06285 28.00817 27.03551
#
# Velocity S-wave (km/s) = 3.54631 3.67628 3.61188
# Velocity P-wave (km/s) = 5.86516 6.08693 5.97708
#
# Compressibility (1/GPa) = 0.02736773
#
# Stress axis : x y z
#
# Youngs Moduli (GPa) = 67.26742 46.59522 64.89024
#
# Poissons Ratio (x) = 0.03784 0.11629
# Poissons Ratio (y) = 0.05463 0.62171
# Poissons Ratio (z) = 0.12055 0.44642
#
# Static dielectric constant tensor:
#      x y z
#    x 3.576890 0.000000 0.000000 
#    y 0.000000 4.084010 0.000000 
#    z 0.000000 0.000000 3.571820 
# 
# 
# High freq. dielectric constant tensor:
#      x y z
#    x 1.806140 0.000000 0.000000 
#    y 0.000000 1.830040 0.000000 
#    z 0.000000 0.000000 1.805280 
# 
# From -- ./inp_files/20766.got.cif
#   From: 2010.03.12/outbox.cif.g09.slc.cpg/sg55_11_cif.got.tgz:20766.got - 2010.04.16 15:19:21.
