data_PCOD8227468
_publ_section_title
;
Structure prediction by ZEFSAII (Michael W. Deem and Ramdas Pophale) SiO2 
 PCOD8227468
Probable space group: P B A M
;
_chemical_formula_sum "Si O2"
_cell_formula_units_Z 64
_cell_length_a 30.373602
_cell_length_b 11.782078
_cell_length_c 8.910657
_cell_angle_alpha 90.000000
_cell_angle_beta 90.000000
_cell_angle_gamma 90.000000
_cell_volume 3188.804675
_symmetry_space_group_name_H-M "P B A M"
_symmetry_group_IT_number 55
_symmetry_cell_setting 'orthorhombic'
loop_
_space_group_symop_operation_xyz
x,y,z
-x,-y,z
1/2+x,1/2-y,-z
1/2-x,1/2+y,-z
-x,-y,-z
x,y,-z
1/2-x,1/2+y,z
1/2+x,1/2-y,z
loop_
_atom_site_type_symbol
_atom_site_label
_atom_site_fract_x
_atom_site_fract_y
_atom_site_fract_z
Si Si1 0.167346 0.505384 0.323152
Si Si2 0.949375 0.725142 0.675023
Si Si3 0.077007 0.504625 0.172576
Si Si4 0.123664 0.874707 0.823789
Si Si5 0.036097 0.740817 0.171007
Si Si6 0.302454 0.775916 0.174476
Si Si7 0.132100 0.115013 0.675915
Si Si8 0.703661 0.785326 0.173244
O O1 0.167760 0.497884 0.500000
O O2 0.119499 0.541659 0.266413
O O3 0.178455 0.382460 0.260995
O O4 0.202067 0.598990 0.268160
O O5 0.949510 0.696489 0.500000
O O6 0.944042 0.610017 0.767075
O O7 0.910575 0.810952 0.717312
O O8 0.995790 0.780935 0.723982
O O9 0.042024 0.605660 0.189202
O O10 0.090978 0.488261 0.000000
O O11 0.080157 0.805433 0.779191
O O12 0.166145 0.802050 0.774830
O O13 0.123260 0.988273 0.728382
O O14 0.125358 0.902907 0.000000
O O15 0.024345 0.771619 0.000000
O O16 0.325413 0.662911 0.237622
O O17 0.250488 0.771864 0.203328
O O18 0.313559 0.787479 0.000000
O O19 0.141877 0.117092 0.500000
O O20 0.697225 0.818721 0.000000
#
# Coordination Sequence:
#
# PCOD8227468 Si02
#       8
#     8   8   8   8   8   8   8   8
#     4  12  24  39  64  97 132 165 201 254 319 371
#     4  11  24  40  60  90 128 165 204 256 314 375
#     4  11  21  39  65  92 125 164 207 256 308 366
#     4  10  22  43  66  90 121 162 212 261 307 368
#     4  10  22  40  64  92 121 158 208 260 307 366
#     4  11  24  42  68  94 123 168 213 257 304 363
#     4  11  25  43  61  89 128 166 206 258 316 371
#     4  10  23  44  67  93 124 163 212 256 303 368
#
# _framework density 20.070218000000001
#
# number of rings (size 3 to 8) (size 9 to 14) (size 15 to 20)
#    0.000    1.250    2.500    3.000    1.750    6.500 
#    0.000    2.500    0.000    0.000    0.000    0.000 
#    0.000    0.000    0.000    0.000    0.000    0.000 
#
# Total GULP energy -794003.698117 kJ/mol
# GULP energy per Si atom -12406.307783 kJ/mol
# Density = 2.002454 g / cm^3
# Si number density = 20.070218 Si / 1000 Ang^3
#
#
#
# Elastic Constant Matrix: (Units=GPa)
#
#
# Indices 1 2 3 4 5 6 
#
# 1 110.8293 34.7784 45.0884 0.0000 0.0000 0.0000
# 2 34.7784 98.5437 46.4778 0.0000 0.0000 0.0000
# 3 45.0884 46.4778 100.4737 0.0000 0.0000 0.0000
# 4 0.0000 0.0000 0.0000 7.3682 0.0000 0.0000
# 5 0.0000 0.0000 0.0000 0.0000 17.8682 0.0000
# 6 0.0000 0.0000 0.0000 0.0000 0.0000 18.2316
#
#
#
# Elastic Compliance Matrix: (Units=1/GPa)
#
#
# Indices 1 2 3 4 5 6 
#
# 1 0.011353 -0.002051 -0.004146 0.000000 0.000000 0.000000
# 2 -0.002051 0.013350 -0.005255 0.000000 0.000000 0.000000
# 3 -0.004146 -0.005255 0.014244 0.000000 0.000000 0.000000
# 4 0.000000 0.000000 0.000000 0.135718 0.000000 0.000000
# 5 0.000000 0.000000 0.000000 0.000000 0.055965 0.000000
# 6 0.000000 0.000000 0.000000 0.000000 0.000000 0.054850
#
#
# Mechanical properties :
#
#
# Convention : Reuss Voigt Hill
#
# Bulk Modulus (GPa) = 62.33231 62.50399 62.41815
# Shear Modulus (GPa) = 15.93707 20.92707 18.43207
#
# Velocity S-wave (km/s) = 2.82097 3.23258 3.03376
# Velocity P-wave (km/s) = 6.46027 6.71886 6.59083
#
# Compressibility (1/GPa) = 0.01604304
#
# Stress axis : x y z
#
# Youngs Moduli (GPa) = 88.08002 74.90455 70.20352
#
# Poissons Ratio (x) = 0.15366 0.29106
# Poissons Ratio (y) = 0.18069 0.36893
# Poissons Ratio (z) = 0.36517 0.39363
#
# Static dielectric constant tensor:
#      x y z
#    x 3.834160 0.000000 0.000000 
#    y 0.000000 3.602330 0.000000 
#    z 0.000000 0.000000 3.643850 
# 
# 
# High freq. dielectric constant tensor:
#      x y z
#    x 1.795690 0.000000 0.000000 
#    y 0.000000 1.784800 0.000000 
#    z 0.000000 0.000000 1.784930 
# 
# From -- ./inp_files/4652.got.cif
#   From: 2010.03.12/outbox.cif.g09.slc.cpg/sg55_3_cif.got.tgz:4652.got - 2010.04.16 15:19:21.
