data_PCOD8227558
_publ_section_title
;
Structure prediction by ZEFSAII (Michael W. Deem and Ramdas Pophale) SiO2 
 PCOD8227558
Probable space group: P B A M
;
_chemical_formula_sum "Si O2"
_cell_formula_units_Z 48
_cell_length_a 8.396788
_cell_length_b 14.569602
_cell_length_c 18.244126
_cell_angle_alpha 90.000000
_cell_angle_beta 90.000000
_cell_angle_gamma 90.000000
_cell_volume 2231.947319
_symmetry_space_group_name_H-M "P B A M"
_symmetry_group_IT_number 55
_symmetry_cell_setting 'orthorhombic'
loop_
_space_group_symop_operation_xyz
x,y,z
-x,-y,z
1/2+x,1/2-y,-z
1/2-x,1/2+y,-z
-x,-y,-z
x,y,-z
1/2-x,1/2+y,z
1/2+x,1/2-y,z
loop_
_atom_site_type_symbol
_atom_site_label
_atom_site_fract_x
_atom_site_fract_y
_atom_site_fract_z
Si Si1 0.964350 0.710145 0.585106
Si Si2 0.682740 0.977917 0.084930
Si Si3 0.169319 0.451919 0.674618
Si Si4 0.319053 0.674736 0.186654
Si Si5 0.688757 0.630207 0.179376
Si Si6 0.220520 0.138610 0.351324
O O1 0.923878 0.713791 0.500000
O O2 0.145615 0.683953 0.597720
O O3 0.847213 0.635373 0.621966
O O4 0.940011 0.810466 0.622613
O O5 0.791739 0.063170 0.110162
O O6 0.500000 0.000000 0.101580
O O7 0.728914 0.886007 0.127358
O O8 0.715367 0.960197 0.000000
O O9 0.249514 0.423445 0.749984
O O10 0.283461 0.528587 0.636267
O O11 0.000000 0.500000 0.690601
O O12 0.505237 0.654092 0.189670
O O13 0.294119 0.780118 0.164613
O O14 0.241404 0.657168 0.266050
#
# Coordination Sequence:
#
# PCOD8227558 Si02
#       6
#     8   8   8   8   8   8
#     4  11  24  42  64  95 134 177 224 283 348 404
#     4  11  26  47  72 104 144 181 224 286 351 411
#     4  10  23  39  68  97 131 178 228 281 340 412
#     4  12  25  41  72 102 136 185 234 284 338 414
#     4  12  24  42  69 103 139 179 233 285 340 409
#     4  11  23  41  65  95 130 177 224 282 335 409
#
# _framework density 21.505883000000001
#
# number of rings (size 3 to 8) (size 9 to 14) (size 15 to 20)
#    0.000    0.833    3.333    3.500    4.667    5.667 
#    0.000    0.000    0.000    2.000    0.000    0.000 
#    0.000    0.000    0.000    0.000    0.000    0.000 
#
# Total GULP energy -595418.440942 kJ/mol
# GULP energy per Si atom -12404.550853 kJ/mol
# Density = 2.145693 g / cm^3
# Si number density = 21.505883 Si / 1000 Ang^3
#
#
#
# Elastic Constant Matrix: (Units=GPa)
#
#
# Indices 1 2 3 4 5 6 
#
# 1 66.9131 43.0321 40.2904 0.0000 0.0000 0.0000
# 2 43.0321 129.8536 41.0466 0.0000 0.0000 0.0000
# 3 40.2904 41.0466 131.7018 0.0000 0.0000 0.0000
# 4 0.0000 0.0000 0.0000 33.8870 0.0000 0.0000
# 5 0.0000 0.0000 0.0000 0.0000 27.2746 0.0000
# 6 0.0000 0.0000 0.0000 0.0000 0.0000 40.1712
#
#
#
# Elastic Compliance Matrix: (Units=1/GPa)
#
#
# Indices 1 2 3 4 5 6 
#
# 1 0.021435 -0.005580 -0.004818 0.000000 0.000000 0.000000
# 2 -0.005580 0.009995 -0.001408 0.000000 0.000000 0.000000
# 3 -0.004818 -0.001408 0.009506 0.000000 0.000000 0.000000
# 4 0.000000 0.000000 0.000000 0.029510 0.000000 0.000000
# 5 0.000000 0.000000 0.000000 0.000000 0.036664 0.000000
# 6 0.000000 0.000000 0.000000 0.000000 0.000000 0.024893
#
#
# Mechanical properties :
#
#
# Convention : Reuss Voigt Hill
#
# Bulk Modulus (GPa) = 57.72749 64.13409 60.93079
# Shear Modulus (GPa) = 30.98085 33.87318 32.42701
#
# Velocity S-wave (km/s) = 3.79961 3.97302 3.88728
# Velocity P-wave (km/s) = 6.79340 7.13673 6.96718
#
# Compressibility (1/GPa) = 0.01732277
#
# Stress axis : x y z
#
# Youngs Moduli (GPa) = 46.65370 100.04720 105.19977
#
# Poissons Ratio (x) = 0.55828 0.50687
# Poissons Ratio (y) = 0.26034 0.14813
# Poissons Ratio (z) = 0.22478 0.14087
#
# Static dielectric constant tensor:
#      x y z
#    x 3.903870 0.000000 0.000000 
#    y 0.000000 4.370810 0.000000 
#    z 0.000000 0.000000 3.742990 
# 
# 
# High freq. dielectric constant tensor:
#      x y z
#    x 1.846190 0.000000 0.000000 
#    y 0.000000 1.864950 0.000000 
#    z 0.000000 0.000000 1.835870 
# 
# From -- ./inp_files/20774.got.cif
#   From: 2010.03.12/outbox.cif.g09.slc.cpg/sg55_11_cif.got.tgz:20774.got - 2010.04.16 15:19:21.
