data_PCOD8227428
_publ_section_title
;
Structure prediction by ZEFSAII (Michael W. Deem and Ramdas Pophale) SiO2 
 PCOD8227428
Probable space group: P B A M
;
_chemical_formula_sum "Si O2"
_cell_formula_units_Z 56
_cell_length_a 8.965921
_cell_length_b 20.384511
_cell_length_c 13.734731
_cell_angle_alpha 90.000000
_cell_angle_beta 90.000000
_cell_angle_gamma 90.000000
_cell_volume 2510.240682
_symmetry_space_group_name_H-M "P B A M"
_symmetry_group_IT_number 55
_symmetry_cell_setting 'orthorhombic'
loop_
_space_group_symop_operation_xyz
x,y,z
-x,-y,z
1/2+x,1/2-y,-z
1/2-x,1/2+y,-z
-x,-y,-z
x,y,-z
1/2-x,1/2+y,z
1/2+x,1/2-y,z
loop_
_atom_site_type_symbol
_atom_site_label
_atom_site_fract_x
_atom_site_fract_y
_atom_site_fract_z
Si Si1 0.403465 0.323692 0.106633
Si Si2 0.939571 0.686117 0.109742
Si Si3 0.937248 0.936456 0.785194
Si Si4 0.427285 0.172257 0.310939
Si Si5 0.142116 0.925419 0.611168
Si Si6 0.731735 0.216720 0.612732
Si Si7 0.648501 0.966641 0.696264
O O1 0.233988 0.313557 0.143650
O O2 0.499273 0.258796 0.104045
O O3 0.502806 0.370413 0.171380
O O4 0.393189 0.354981 0.000000
O O5 0.031790 0.652974 0.197956
O O6 0.959932 0.654528 0.000000
O O7 0.758265 0.942932 0.783661
O O8 0.995890 0.940610 0.673780
O O9 0.000000 0.000000 0.843216
O O10 0.290622 0.223616 0.319319
O O11 0.556706 0.210460 0.367280
O O12 0.390788 0.101559 0.360816
O O13 0.092323 0.928483 0.500000
O O14 0.196034 0.852769 0.640692
O O15 0.273509 0.978557 0.629047
O O16 0.758026 0.234862 0.500000
O O17 0.500000 0.000000 0.740477
#
# Coordination Sequence:
#
# PCOD8227428 Si02
#       7
#     8   8   8   8   8   8   8
#     4  10  22  41  66  99 130 166 215 266 327 402
#     4  10  22  39  66  98 132 171 222 275 332 398
#     4  10  23  41  64  91 125 169 216 265 330 391
#     4  12  24  42  69  94 136 176 219 282 340 388
#     4  10  22  44  67  93 132 173 223 273 328 399
#     4  11  25  42  64  98 134 174 221 277 334 397
#     4  11  25  43  65  95 126 181 226 269 329 402
#
# _framework density 22.308619
#
# number of rings (size 3 to 8) (size 9 to 14) (size 15 to 20)
#    0.000    1.429    1.429    3.000    8.000    4.286 
#    0.000    0.000    0.000    1.714    0.000    0.000 
#    0.000    0.000    0.000    0.000    0.000    0.000 
#
# Total GULP energy -693875.128226 kJ/mol
# GULP energy per Si atom -12390.627290 kJ/mol
# Density = 2.225784 g / cm^3
# Si number density = 22.308619 Si / 1000 Ang^3
#
#
#
# Elastic Constant Matrix: (Units=GPa)
#
#
# Indices 1 2 3 4 5 6 
#
# 1 128.2284 46.2983 17.3936 0.0000 0.0000 0.0000
# 2 46.2983 123.3495 22.5494 0.0000 0.0000 0.0000
# 3 17.3936 22.5494 68.6780 0.0000 0.0000 0.0000
# 4 0.0000 0.0000 0.0000 17.3744 0.0000 0.0000
# 5 0.0000 0.0000 0.0000 0.0000 18.7466 0.0000
# 6 0.0000 0.0000 0.0000 0.0000 0.0000 41.1747
#
#
#
# Elastic Compliance Matrix: (Units=1/GPa)
#
#
# Indices 1 2 3 4 5 6 
#
# 1 0.009123 -0.003193 -0.001262 0.000000 0.000000 0.000000
# 2 -0.003193 0.009743 -0.002390 0.000000 0.000000 0.000000
# 3 -0.001262 -0.002390 0.015665 0.000000 0.000000 0.000000
# 4 0.000000 0.000000 0.000000 0.057556 0.000000 0.000000
# 5 0.000000 0.000000 0.000000 0.000000 0.053343 0.000000
# 6 0.000000 0.000000 0.000000 0.000000 0.000000 0.024287
#
#
# Mechanical properties :
#
#
# Convention : Reuss Voigt Hill
#
# Bulk Modulus (GPa) = 47.98574 54.74872 51.36723
# Shear Modulus (GPa) = 26.26691 31.06011 28.66351
#
# Velocity S-wave (km/s) = 3.43510 3.73539 3.58839
# Velocity P-wave (km/s) = 6.10654 6.57259 6.34385
#
# Compressibility (1/GPa) = 0.02083953
#
# Stress axis : x y z
#
# Youngs Moduli (GPa) = 109.61544 102.64181 63.83638
#
# Poissons Ratio (x) = 0.32778 0.08056
# Poissons Ratio (y) = 0.35005 0.15257
# Poissons Ratio (z) = 0.13833 0.24532
#
# Static dielectric constant tensor:
#      x y z
#    x 4.105090 0.000000 0.000000 
#    y 0.000000 4.218960 0.000000 
#    z 0.000000 0.000000 4.114680 
# 
# 
# High freq. dielectric constant tensor:
#      x y z
#    x 1.890280 0.000000 0.000000 
#    y 0.000000 1.887940 0.000000 
#    z 0.000000 0.000000 1.854750 
# 
# From -- ./inp_files/17633.got.cif
#   From: 2010.03.12/outbox.cif.g09.slc.cpg/sg55_9_cif.got.tgz:17633.got - 2010.04.16 15:19:21.
