data_PCOD8227648
_publ_section_title
;
Structure prediction by ZEFSAII (Michael W. Deem and Ramdas Pophale) SiO2 
 PCOD8227648
Probable space group: P B A M
;
_chemical_formula_sum "Si O2"
_cell_formula_units_Z 64
_cell_length_a 27.085759
_cell_length_b 9.928481
_cell_length_c 14.125489
_cell_angle_alpha 90.000000
_cell_angle_beta 90.000000
_cell_angle_gamma 90.000000
_cell_volume 3798.632768
_symmetry_space_group_name_H-M "P B A M"
_symmetry_group_IT_number 55
_symmetry_cell_setting 'orthorhombic'
loop_
_space_group_symop_operation_xyz
x,y,z
-x,-y,z
1/2+x,1/2-y,-z
1/2-x,1/2+y,-z
-x,-y,-z
x,y,-z
1/2-x,1/2+y,z
1/2+x,1/2-y,z
loop_
_atom_site_type_symbol
_atom_site_label
_atom_site_fract_x
_atom_site_fract_y
_atom_site_fract_z
Si Si1 0.702924 0.412097 0.612846
Si Si2 0.564986 0.631329 0.103381
Si Si3 0.932109 0.239961 0.296026
Si Si4 0.045402 0.288797 0.703384
Si Si5 0.890489 0.489445 0.612182
Si Si6 0.907427 0.965808 0.611482
Si Si7 0.786334 0.610965 0.387706
Si Si8 0.448560 0.668312 0.103779
O O1 0.704220 0.409166 0.500000
O O2 0.648669 0.452146 0.648909
O O3 0.717167 0.263378 0.651583
O O4 0.741625 0.521157 0.653832
O O5 0.587119 0.723413 0.187384
O O6 0.506413 0.642103 0.107575
O O7 0.579196 0.474481 0.119162
O O8 0.584471 0.680149 0.000000
O O9 0.894538 0.335609 0.352614
O O10 0.986585 0.302538 0.299370
O O11 0.933787 0.093546 0.342838
O O12 0.066883 0.426257 0.662831
O O13 0.061930 0.165977 0.637602
O O14 0.065669 0.268889 0.811026
O O15 0.897579 0.496326 0.500000
O O16 0.837768 0.545696 0.644540
O O17 0.908243 0.983671 0.500000
O O18 0.783181 0.611815 0.500000
O O19 0.434012 0.728502 0.000000
#
# Coordination Sequence:
#
# PCOD8227648 Si02
#       8
#     8   8   8   8   8   8   8   8
#     4   9  18  32  50  69  90 120 159 208 257 288
#     4   8  14  28  48  69  93 120 158 211 259 285
#     4  11  22  32  47  72  98 137 176 199 232 286
#     4  11  20  34  49  67 100 137 172 203 237 285
#     4  11  23  36  47  66 103 142 170 200 240 287
#     4  11  21  32  47  70  99 130 170 210 235 277
#     4   9  18  33  51  68  89 121 161 207 255 289
#     4   8  14  27  49  71  90 119 161 211 257 287
#
# _framework density 16.848167
#
# number of rings (size 3 to 8) (size 9 to 14) (size 15 to 20)
#    0.000    2.250    2.500    2.250    1.750    3.000 
#    0.000    0.625    0.000    3.000    0.000    0.000 
#    0.000    6.000    0.000    0.000    0.000    0.000 
#
# Total GULP energy -793360.744046 kJ/mol
# GULP energy per Si atom -12396.261626 kJ/mol
# Density = 1.680982 g / cm^3
# Si number density = 16.848167 Si / 1000 Ang^3
#
#
#
# Elastic Constant Matrix: (Units=GPa)
#
#
# Indices 1 2 3 4 5 6 
#
# 1 40.4084 14.5330 15.7905 0.0000 0.0000 0.0000
# 2 14.5330 55.4534 20.3898 0.0000 0.0000 0.0000
# 3 15.7905 20.3898 82.8962 0.0000 0.0000 0.0000
# 4 0.0000 0.0000 0.0000 23.8016 0.0000 0.0000
# 5 0.0000 0.0000 0.0000 0.0000 1.5841 0.0000
# 6 0.0000 0.0000 0.0000 0.0000 0.0000 24.1513
#
#
#
# Elastic Compliance Matrix: (Units=1/GPa)
#
#
# Indices 1 2 3 4 5 6 
#
# 1 0.028448 -0.006006 -0.003942 0.000000 0.000000 0.000000
# 2 -0.006006 0.021094 -0.004044 0.000000 0.000000 0.000000
# 3 -0.003942 -0.004044 0.013809 0.000000 0.000000 0.000000
# 4 0.000000 0.000000 0.000000 0.042014 0.000000 0.000000
# 5 0.000000 0.000000 0.000000 0.000000 0.631278 0.000000
# 6 0.000000 0.000000 0.000000 0.000000 0.000000 0.041406
#
#
# Mechanical properties :
#
#
# Convention : Reuss Voigt Hill
#
# Bulk Modulus (GPa) = 28.27524 31.13161 29.70343
# Shear Modulus (GPa) = 6.11380 18.44373 12.27877
#
# Velocity S-wave (km/s) = 1.90700 3.31222 2.70254
# Velocity P-wave (km/s) = 4.65485 5.75722 5.23513
#
# Compressibility (1/GPa) = 0.03536663
#
# Stress axis : x y z
#
# Youngs Moduli (GPa) = 35.15220 47.40606 72.41712
#
# Poissons Ratio (x) = 0.28473 0.28544
# Poissons Ratio (y) = 0.21113 0.29289
# Poissons Ratio (z) = 0.13855 0.19173
#
# Static dielectric constant tensor:
#      x y z
#    x 3.012360 0.000000 0.000000 
#    y 0.000000 3.188800 0.000000 
#    z 0.000000 0.000000 3.281140 
# 
# 
# High freq. dielectric constant tensor:
#      x y z
#    x 1.619550 0.000000 0.000000 
#    y 0.000000 1.651010 0.000000 
#    z 0.000000 0.000000 1.627940 
# 
# From -- ./inp_files/17926.got.cif
#   From: 2010.03.12/outbox.cif.g09.slc.cpg/sg55_9_cif.got.tgz:17926.got - 2010.04.16 15:19:21.
