data_PCOD8227498
_publ_section_title
;
Structure prediction by ZEFSAII (Michael W. Deem and Ramdas Pophale) SiO2 
 PCOD8227498
Probable space group: P B A M
;
_chemical_formula_sum "Si O2"
_cell_formula_units_Z 56
_cell_length_a 12.528102
_cell_length_b 13.630418
_cell_length_c 14.872732
_cell_angle_alpha 90.000000
_cell_angle_beta 90.000000
_cell_angle_gamma 90.000000
_cell_volume 2539.716306
_symmetry_space_group_name_H-M "P B A M"
_symmetry_group_IT_number 55
_symmetry_cell_setting 'orthorhombic'
loop_
_space_group_symop_operation_xyz
x,y,z
-x,-y,z
1/2+x,1/2-y,-z
1/2-x,1/2+y,-z
-x,-y,-z
x,y,-z
1/2-x,1/2+y,z
1/2+x,1/2-y,z
loop_
_atom_site_type_symbol
_atom_site_label
_atom_site_fract_x
_atom_site_fract_y
_atom_site_fract_z
Si Si1 0.094441 0.244790 0.739438
Si Si2 0.792771 0.623121 0.600226
Si Si3 0.935900 0.260501 0.101497
Si Si4 0.071595 0.782934 0.599601
Si Si5 0.393971 0.061358 0.643230
Si Si6 0.111892 0.959951 0.895860
Si Si7 0.224955 0.605791 0.186145
O O1 0.127344 0.337559 0.677806
O O2 0.194975 0.178705 0.762843
O O3 0.033718 0.280592 0.829923
O O4 0.013191 0.185226 0.675310
O O5 0.822716 0.663617 0.500000
O O6 0.674628 0.654724 0.626206
O O7 0.799211 0.504456 0.599807
O O8 0.882408 0.155454 0.122156
O O9 0.838702 0.337584 0.107701
O O10 0.982827 0.263480 0.000000
O O11 0.030869 0.811757 0.500000
O O12 0.100051 0.667490 0.598275
O O13 0.369249 0.072487 0.748321
O O14 0.500000 0.000000 0.624964
O O15 0.212353 0.011402 0.849173
O O16 0.118583 0.987784 0.000000
O O17 0.000000 0.000000 0.856044
#
# Coordination Sequence:
#
# PCOD8227498 Si02
#       7
#     8   8   8   8   8   8   8
#     4  12  22  42  65  97 129 175 218 270 332 391
#     4  11  24  42  65  95 135 174 225 276 328 396
#     4  11  24  43  67  99 133 171 222 276 334 399
#     4  11  24  43  65  96 133 173 221 276 334 391
#     4  12  24  40  67  97 129 173 223 271 327 397
#     4  10  22  41  66  94 126 173 224 268 326 399
#     4  12  25  40  68  98 135 175 219 280 332 396
#
# _framework density 22.049707000000001
#
# number of rings (size 3 to 8) (size 9 to 14) (size 15 to 20)
#    0.000    0.714    5.714    1.286    4.000    1.143 
#    0.000    0.000    0.000    3.429    0.000    0.000 
#    0.000    0.000    0.000    0.000    0.000    0.000 
#
# Total GULP energy -694298.459375 kJ/mol
# GULP energy per Si atom -12398.186775 kJ/mol
# Density = 2.199952 g / cm^3
# Si number density = 22.049707 Si / 1000 Ang^3
#
#
#
# Elastic Constant Matrix: (Units=GPa)
#
#
# Indices 1 2 3 4 5 6 
#
# 1 55.0359 1.9765 21.2137 0.0000 0.0000 0.0000
# 2 1.9765 39.5502 -3.4400 0.0000 0.0000 0.0000
# 3 21.2137 -3.4400 119.6604 0.0000 0.0000 0.0000
# 4 0.0000 0.0000 0.0000 20.5920 0.0000 0.0000
# 5 0.0000 0.0000 0.0000 0.0000 24.3702 0.0000
# 6 0.0000 0.0000 0.0000 0.0000 0.0000 32.4390
#
#
#
# Elastic Compliance Matrix: (Units=1/GPa)
#
#
# Indices 1 2 3 4 5 6 
#
# 1 0.019567 -0.001283 -0.003506 0.000000 0.000000 0.000000
# 2 -0.001283 0.025432 0.000959 0.000000 0.000000 0.000000
# 3 -0.003506 0.000959 0.009006 0.000000 0.000000 0.000000
# 4 0.000000 0.000000 0.000000 0.048563 0.000000 0.000000
# 5 0.000000 0.000000 0.000000 0.000000 0.041034 0.000000
# 6 0.000000 0.000000 0.000000 0.000000 0.000000 0.030827
#
#
# Mechanical properties :
#
#
# Convention : Reuss Voigt Hill
#
# Bulk Modulus (GPa) = 21.57730 28.19410 24.88570
# Shear Modulus (GPa) = 25.31170 28.44666 26.87918
#
# Velocity S-wave (km/s) = 3.39180 3.59571 3.49524
# Velocity P-wave (km/s) = 5.01459 5.48208 5.25354
#
# Compressibility (1/GPa) = 0.04634501
#
# Stress axis : x y z
#
# Youngs Moduli (GPa) = 51.10548 39.32087 111.03636
#
# Poissons Ratio (x) = 0.05044 0.38927
# Poissons Ratio (y) = 0.06556 -0.10643
# Poissons Ratio (z) = 0.17917 -0.03769
#
# Static dielectric constant tensor:
#      x y z
#    x 3.938550 0.000000 0.000000 
#    y 0.000000 4.006810 0.000000 
#    z 0.000000 0.000000 4.057520 
# 
# 
# High freq. dielectric constant tensor:
#      x y z
#    x 1.867320 0.000000 0.000000 
#    y 0.000000 1.858690 0.000000 
#    z 0.000000 0.000000 1.876450 
# 
# From -- ./inp_files/18377.got.cif
#   From: 2010.03.12/outbox.cif.g09.slc.cpg/sg55_10_cif.got.tgz:18377.got - 2010.04.16 15:19:21.
