data_PCOD8227517
_publ_section_title
;
Structure prediction by ZEFSAII (Michael W. Deem and Ramdas Pophale) SiO2 
 PCOD8227517
Probable space group: P B A M
;
_chemical_formula_sum "Si O2"
_cell_formula_units_Z 56
_cell_length_a 21.572217
_cell_length_b 14.472884
_cell_length_c 8.568733
_cell_angle_alpha 90.000000
_cell_angle_beta 90.000000
_cell_angle_gamma 90.000000
_cell_volume 2675.262932
_symmetry_space_group_name_H-M "P B A M"
_symmetry_group_IT_number 55
_symmetry_cell_setting 'orthorhombic'
loop_
_space_group_symop_operation_xyz
x,y,z
-x,-y,z
1/2+x,1/2-y,-z
1/2-x,1/2+y,-z
-x,-y,-z
x,y,-z
1/2-x,1/2+y,z
1/2+x,1/2-y,z
loop_
_atom_site_type_symbol
_atom_site_label
_atom_site_fract_x
_atom_site_fract_y
_atom_site_fract_z
Si Si1 0.960438 0.588576 0.682720
Si Si2 0.218683 0.799981 0.320786
Si Si3 0.320103 0.949776 0.319626
Si Si4 0.101074 0.893365 0.818479
Si Si5 0.747502 0.386692 0.179308
Si Si6 0.384369 0.585056 0.680625
Si Si7 0.979786 0.781984 0.818088
O O1 0.966873 0.609377 0.500000
O O2 0.889727 0.572061 0.731783
O O3 0.987757 0.674825 0.777086
O O4 0.000000 0.500000 0.732795
O O5 0.215234 0.768748 0.500000
O O6 0.280438 0.858225 0.287671
O O7 0.159784 0.862447 0.281723
O O8 0.218890 0.710094 0.212588
O O9 0.316158 0.980170 0.500000
O O10 0.296348 0.032938 0.213369
O O11 0.042007 0.834282 0.766129
O O12 0.088366 0.000707 0.781949
O O13 0.115829 0.880206 0.000000
O O14 0.687795 0.397936 0.287757
O O15 0.726762 0.391784 0.000000
O O16 0.392877 0.561457 0.500000
O O17 0.421774 0.677295 0.723350
O O18 0.966962 0.795461 0.000000
#
# Coordination Sequence:
#
# PCOD8227517 Si02
#       7
#     8   8   8   8   8   8   8
#     4  10  23  43  67  96 130 172 219 268 321 385
#     4  11  23  40  65  94 130 173 219 269 320 382
#     4  10  22  42  65  94 128 167 216 266 316 379
#     4  11  24  42  64  96 134 169 213 267 325 389
#     4  12  25  40  65  96 131 170 211 263 326 388
#     4  12  24  42  67  97 130 170 219 268 323 389
#     4  11  25  43  65  94 131 173 215 268 328 387
#
# _framework density 20.932521999999999
#
# number of rings (size 3 to 8) (size 9 to 14) (size 15 to 20)
#    0.000    1.000    1.429    5.143    2.000    6.571 
#    0.000    0.000    0.000    0.000    0.000    0.000 
#    0.000    0.000    0.000    0.000    0.000    0.000 
#
# Total GULP energy -694961.871619 kJ/mol
# GULP energy per Si atom -12410.033422 kJ/mol
# Density = 2.088488 g / cm^3
# Si number density = 20.932522 Si / 1000 Ang^3
#
#
#
# Elastic Constant Matrix: (Units=GPa)
#
#
# Indices 1 2 3 4 5 6 
#
# 1 94.1173 33.7699 23.9553 0.0000 0.0000 0.0000
# 2 33.7699 111.4631 30.8386 0.0000 0.0000 0.0000
# 3 23.9553 30.8386 68.0242 0.0000 0.0000 0.0000
# 4 0.0000 0.0000 0.0000 32.9266 0.0000 0.0000
# 5 0.0000 0.0000 0.0000 0.0000 28.5273 0.0000
# 6 0.0000 0.0000 0.0000 0.0000 0.0000 31.1733
#
#
#
# Elastic Compliance Matrix: (Units=1/GPa)
#
#
# Indices 1 2 3 4 5 6 
#
# 1 0.012454 -0.002927 -0.003059 0.000000 0.000000 0.000000
# 2 -0.002927 0.010946 -0.003932 0.000000 0.000000 0.000000
# 3 -0.003059 -0.003932 0.017560 0.000000 0.000000 0.000000
# 4 0.000000 0.000000 0.000000 0.030371 0.000000 0.000000
# 5 0.000000 0.000000 0.000000 0.000000 0.035054 0.000000
# 6 0.000000 0.000000 0.000000 0.000000 0.000000 0.032079
#
#
# Mechanical properties :
#
#
# Convention : Reuss Voigt Hill
#
# Bulk Modulus (GPa) = 47.33625 50.08135 48.70880
# Shear Modulus (GPa) = 30.24070 30.86149 30.55110
#
# Velocity S-wave (km/s) = 3.80501 3.84387 3.82449
# Velocity P-wave (km/s) = 6.47819 6.60890 6.54387
#
# Compressibility (1/GPa) = 0.02112546
#
# Stress axis : x y z
#
# Youngs Moduli (GPa) = 80.29707 91.35671 56.94670
#
# Poissons Ratio (x) = 0.26738 0.17419
# Poissons Ratio (y) = 0.23501 0.22390
# Poissons Ratio (z) = 0.24562 0.35919
#
# Static dielectric constant tensor:
#      x y z
#    x 3.781110 0.000000 0.000000 
#    y 0.000000 3.821800 0.000000 
#    z 0.000000 0.000000 3.662660 
# 
# 
# High freq. dielectric constant tensor:
#      x y z
#    x 1.826090 0.000000 0.000000 
#    y 0.000000 1.832090 0.000000 
#    z 0.000000 0.000000 1.820130 
# 
# From -- ./inp_files/8757.got.cif
#   From: 2010.03.12/outbox.cif.g09.slc.cpg/sg55_5_cif.got.tgz:8757.got - 2010.04.16 15:19:21.
