data_PCOD8227944
_publ_section_title
;
Structure prediction by ZEFSAII (Michael W. Deem and Ramdas Pophale) SiO2 
 PCOD8227944
Probable space group: P C C N
;
_chemical_formula_sum "Si O2"
_cell_formula_units_Z 56
_cell_length_a 10.772445
_cell_length_b 18.096287
_cell_length_c 13.278875
_cell_angle_alpha 90.000000
_cell_angle_beta 90.000000
_cell_angle_gamma 90.000000
_cell_volume 2588.600576
_symmetry_space_group_name_H-M "P C C N"
_symmetry_group_IT_number 56
_symmetry_cell_setting 'orthorhombic'
loop_
_space_group_symop_operation_xyz
x,y,z
1/2-x,1/2-y,z
1/2+x,-y,1/2-z
-x,1/2+y,1/2-z
-x,-y,-z
1/2+x,1/2+y,-z
1/2-x,y,1/2+z
x,1/2-y,1/2+z
loop_
_atom_site_type_symbol
_atom_site_label
_atom_site_fract_x
_atom_site_fract_y
_atom_site_fract_z
Si Si1 0.133720 0.964920 0.719224
Si Si2 0.399386 0.380362 0.222773
Si Si3 0.928807 0.148147 0.928858
Si Si4 0.702164 0.157017 0.226748
Si Si5 0.565285 0.268879 0.131656
Si Si6 0.674056 0.592000 0.141982
Si Si7 0.306853 0.006179 0.556449
O O1 0.255427 0.928965 0.777208
O O2 0.015206 0.912185 0.714378
O O3 0.102094 0.039298 0.779168
O O4 0.176017 0.980685 0.604645
O O5 0.434472 0.300675 0.173119
O O6 0.286721 0.367759 0.299997
O O7 0.372325 0.436491 0.132161
O O8 0.840608 0.175052 0.840100
O O9 0.072934 0.151522 0.894602
O O10 0.896876 0.064269 0.964806
O O11 0.910320 0.206853 0.017900
O O12 0.589058 0.179889 0.148300
O O13 0.828124 0.200857 0.205116
O O14 0.725754 0.545758 0.047765
#
# Coordination Sequence:
#
# PCOD8227944 Si02
#       7
#     8   8   8   8   8   8   8
#     4   9  19  34  54  85 120 152 195 260 301 357
#     4  10  19  34  55  83 124 156 197 252 302 358
#     4  11  20  36  62  86 118 162 205 244 313 370
#     4   9  21  36  58  87 114 154 206 254 297 347
#     4  10  20  38  62  84 120 160 205 254 298 362
#     4  11  20  32  59  88 120 160 193 245 318 372
#     4  10  18  32  55  87 115 153 201 245 310 365
#
# _framework density 21.633309000000001
#
# number of rings (size 3 to 8) (size 9 to 14) (size 15 to 20)
#    0.000    2.000    2.857    2.143    0.000    2.857 
#    0.000    2.143   12.571    1.714    0.000    0.000 
#    0.000    0.000    0.000    0.000    0.000    0.000 
#
# Total GULP energy -693850.170168 kJ/mol
# GULP energy per Si atom -12390.181610 kJ/mol
# Density = 2.158407 g / cm^3
# Si number density = 21.633309 Si / 1000 Ang^3
#
#
#
# Elastic Constant Matrix: (Units=GPa)
#
#
# Indices 1 2 3 4 5 6 
#
# 1 83.5448 10.7619 43.7967 0.0000 0.0000 0.0000
# 2 10.7619 32.5054 18.7241 0.0000 0.0000 0.0000
# 3 43.7967 18.7241 115.9542 0.0000 0.0000 0.0000
# 4 0.0000 0.0000 0.0000 25.6256 0.0000 0.0000
# 5 0.0000 0.0000 0.0000 0.0000 31.1250 0.0000
# 6 0.0000 0.0000 0.0000 0.0000 0.0000 29.0060
#
#
#
# Elastic Compliance Matrix: (Units=1/GPa)
#
#
# Indices 1 2 3 4 5 6 
#
# 1 0.015028 -0.001881 -0.005373 0.000000 0.000000 0.000000
# 2 -0.001881 0.034155 -0.004805 0.000000 0.000000 0.000000
# 3 -0.005373 -0.004805 0.011429 0.000000 0.000000 0.000000
# 4 0.000000 0.000000 0.000000 0.039024 0.000000 0.000000
# 5 0.000000 0.000000 0.000000 0.000000 0.032129 0.000000
# 6 0.000000 0.000000 0.000000 0.000000 0.000000 0.034476
#
#
# Mechanical properties :
#
#
# Convention : Reuss Voigt Hill
#
# Bulk Modulus (GPa) = 27.40048 42.06331 34.73189
# Shear Modulus (GPa) = 24.68871 27.73274 26.21073
#
# Velocity S-wave (km/s) = 3.38188 3.58431 3.48457
# Velocity P-wave (km/s) = 5.28610 6.05109 5.68149
#
# Compressibility (1/GPa) = 0.03649571
#
# Stress axis : x y z
#
# Youngs Moduli (GPa) = 66.54071 29.27866 87.49481
#
# Poissons Ratio (x) = 0.05507 0.47008
# Poissons Ratio (y) = 0.12515 0.42040
# Poissons Ratio (z) = 0.35750 0.14068
#
# Static dielectric constant tensor:
#      x y z
#    x 3.864160 0.000000 0.000000 
#    y 0.000000 4.408090 0.000000 
#    z 0.000000 0.000000 3.853950 
# 
# 
# High freq. dielectric constant tensor:
#      x y z
#    x 1.837660 0.000000 0.000000 
#    y 0.000000 1.826060 0.000000 
#    z 0.000000 0.000000 1.846920 
# 
# From -- ./inp_files/7273.got.cif
#   From: 2010.03.12/outbox.cif.g09.slc.cpg/sg56_4_cif.got.tgz:7273.got - 2010.04.16 15:33:40.
