data_PCOD8227881
_publ_section_title
;
Structure prediction by ZEFSAII (Michael W. Deem and Ramdas Pophale) SiO2 
 PCOD8227881
Probable space group: P C C N
;
_chemical_formula_sum "Si O2"
_cell_formula_units_Z 56
_cell_length_a 14.714366
_cell_length_b 27.250482
_cell_length_c 8.849257
_cell_angle_alpha 90.000000
_cell_angle_beta 90.000000
_cell_angle_gamma 90.000000
_cell_volume 3548.318134
_symmetry_space_group_name_H-M "P C C N"
_symmetry_group_IT_number 56
_symmetry_cell_setting 'orthorhombic'
loop_
_space_group_symop_operation_xyz
x,y,z
1/2-x,1/2-y,z
1/2+x,-y,1/2-z
-x,1/2+y,1/2-z
-x,-y,-z
1/2+x,1/2+y,-z
1/2-x,y,1/2+z
x,1/2-y,1/2+z
loop_
_atom_site_type_symbol
_atom_site_label
_atom_site_fract_x
_atom_site_fract_y
_atom_site_fract_z
Si Si1 0.148086 0.762690 0.510994
Si Si2 0.933528 0.996695 0.360263
Si Si3 0.806168 0.053513 0.543878
Si Si4 0.109497 0.818446 0.228211
Si Si5 0.043091 0.580507 0.718341
Si Si6 0.391622 0.568187 0.885205
Si Si7 0.191815 0.856454 0.683778
O O1 0.250000 0.750000 0.458128
O O2 0.093307 0.781482 0.366615
O O3 0.101359 0.713625 0.575909
O O4 0.147916 0.804885 0.637916
O O5 0.948959 0.943930 0.279213
O O6 0.834720 0.008507 0.432121
O O7 0.953820 0.038444 0.233802
O O8 0.000000 0.000000 0.500000
O O9 0.872350 0.057828 0.688488
O O10 0.705380 0.040521 0.598768
O O11 0.808232 0.105123 0.453951
O O12 0.033194 0.860691 0.235882
O O13 0.205561 0.847134 0.239666
O O14 0.055314 0.569536 0.541760
O O15 0.368490 0.622846 0.822805
#
# Coordination Sequence:
#
# PCOD8227881 Si02
#       7
#     8   8   8   8   8   8   8
#     4  10  20  28  37  59  88 122 163 207 221 245
#     4   9  21  33  44  66  91 118 151 192 240 280
#     4  10  17  31  48  64  85 121 161 191 228 272
#     4  11  20  28  42  59  90 123 165 196 229 256
#     4  11  19  30  44  62  91 120 157 196 235 268
#     4  11  18  29  50  67  85 121 163 191 224 280
#     4  10  17  29  42  62  88 121 162 201 221 250
#
# _framework density 15.782124
#
# number of rings (size 3 to 8) (size 9 to 14) (size 15 to 20)
#    0.000    1.714    4.286    2.571    4.000    0.000 
#    0.000    0.000    0.000    0.000    0.000    0.000 
#    0.000    0.000    0.000    3.857    2.286    0.000 
#
# Total GULP energy -693957.334578 kJ/mol
# GULP energy per Si atom -12392.095260 kJ/mol
# Density = 1.574620 g / cm^3
# Si number density = 15.782124 Si / 1000 Ang^3
#
#
#
# Elastic Constant Matrix: (Units=GPa)
#
#
# Indices 1 2 3 4 5 6 
#
# 1 22.1922 27.3997 15.1956 0.0000 0.0000 0.0000
# 2 27.3997 99.2888 39.5858 0.0000 0.0000 0.0000
# 3 15.1956 39.5858 98.6700 0.0000 0.0000 0.0000
# 4 0.0000 0.0000 0.0000 30.4779 0.0000 0.0000
# 5 0.0000 0.0000 0.0000 0.0000 19.1166 0.0000
# 6 0.0000 0.0000 0.0000 0.0000 0.0000 28.0866
#
#
#
# Elastic Compliance Matrix: (Units=1/GPa)
#
#
# Indices 1 2 3 4 5 6 
#
# 1 0.069392 -0.017724 -0.003576 0.000000 0.000000 0.000000
# 2 -0.017724 0.016516 -0.003897 0.000000 0.000000 0.000000
# 3 -0.003576 -0.003897 0.012249 0.000000 0.000000 0.000000
# 4 0.000000 0.000000 0.000000 0.032811 0.000000 0.000000
# 5 0.000000 0.000000 0.000000 0.000000 0.052311 0.000000
# 6 0.000000 0.000000 0.000000 0.000000 0.000000 0.035604
#
#
# Mechanical properties :
#
#
# Convention : Reuss Voigt Hill
#
# Bulk Modulus (GPa) = 20.93610 42.72371 31.82990
# Shear Modulus (GPa) = 17.53174 24.73422 21.13298
#
# Velocity S-wave (km/s) = 3.33657 3.96312 3.66327
# Velocity P-wave (km/s) = 5.30454 6.93336 6.17291
#
# Compressibility (1/GPa) = 0.04776439
#
# Stress axis : x y z
#
# Youngs Moduli (GPa) = 14.41084 60.54647 81.64036
#
# Poissons Ratio (x) = 1.07311 0.29195
# Poissons Ratio (y) = 0.25541 0.31813
# Poissons Ratio (z) = 0.05153 0.23593
#
# Static dielectric constant tensor:
#      x y z
#    x 2.680620 0.000000 0.000000 
#    y 0.000000 3.274550 0.000000 
#    z 0.000000 0.000000 3.302860 
# 
# 
# High freq. dielectric constant tensor:
#      x y z
#    x 1.524810 0.000000 0.000000 
#    y 0.000000 1.604360 0.000000 
#    z 0.000000 0.000000 1.639560 
# 
# From -- ./inp_files/3762.got.cif
#   From: 2010.03.12/outbox.cif.g09.slc.cpg/sg56_2_cif.got.tgz:3762.got - 2010.04.16 15:33:40.
