data_PCOD8227032
_publ_section_title
;
Structure prediction by ZEFSAII (Michael W. Deem and Ramdas Pophale) SiO2 
 PCOD8227032
Probable space group: P B A M
;
_chemical_formula_sum "Si O2"
_cell_formula_units_Z 64
_cell_length_a 16.375625
_cell_length_b 17.331096
_cell_length_c 11.243030
_cell_angle_alpha 90.000000
_cell_angle_beta 90.000000
_cell_angle_gamma 90.000000
_cell_volume 3190.856562
_symmetry_space_group_name_H-M "P B A M"
_symmetry_group_IT_number 55
_symmetry_cell_setting 'orthorhombic'
loop_
_space_group_symop_operation_xyz
x,y,z
-x,-y,z
1/2+x,1/2-y,-z
1/2-x,1/2+y,-z
-x,-y,-z
x,y,-z
1/2-x,1/2+y,z
1/2+x,1/2-y,z
loop_
_atom_site_type_symbol
_atom_site_label
_atom_site_fract_x
_atom_site_fract_y
_atom_site_fract_z
Si Si1 0.760866 0.571567 0.636880
Si Si2 0.734469 0.273615 0.866685
Si Si3 0.217030 0.595108 0.702641
Si Si4 0.386678 0.634933 0.625193
Si Si5 0.938838 0.314399 0.364280
Si Si6 0.479545 0.588800 0.864985
Si Si7 0.611286 0.201106 0.696700
Si Si8 0.131358 0.829620 0.761085
O O1 0.749786 0.546586 0.500000
O O2 0.785722 0.497639 0.717246
O O3 0.830954 0.635646 0.643616
O O4 0.675142 0.602972 0.686546
O O5 0.762981 0.358012 0.822814
O O6 0.650722 0.239625 0.813393
O O7 0.805717 0.211870 0.848565
O O8 0.711848 0.285977 0.000000
O O9 0.290352 0.617034 0.614256
O O10 0.128965 0.620267 0.654289
O O11 0.424942 0.600140 0.500000
O O12 0.419633 0.604103 0.752515
O O13 0.399013 0.726519 0.608702
O O14 0.967159 0.316514 0.500000
O O15 0.903414 0.230328 0.334625
O O16 0.019479 0.332417 0.283331
O O17 0.500000 0.500000 0.861211
O O18 0.561286 0.637325 0.844851
O O19 0.445715 0.608965 0.000000
#
# Coordination Sequence:
#
# PCOD8227032 Si02
#       8
#     8   8   8   8   8   8   8   8
#     4  11  21  37  59  89 128 162 195 248 308 366
#     4   9  20  41  63  83 113 158 210 258 301 351
#     4  10  23  37  57  89 120 160 204 245 303 367
#     4  11  21  38  59  85 120 159 203 248 298 358
#     4  11  20  37  60  88 122 157 200 252 300 357
#     4  11  24  39  58  88 122 155 193 245 309 369
#     4  10  22  36  58  91 120 157 204 246 301 365
#     4  10  21  37  60  88 114 155 205 245 295 367
#
# _framework density 20.057310000000001
#
# number of rings (size 3 to 8) (size 9 to 14) (size 15 to 20)
#    0.000    1.625    1.250    4.500    0.000    3.250 
#    0.000    5.000    0.000    0.000    0.000    5.250 
#    0.000    0.000    0.000    0.000    0.000    0.000 
#
# Total GULP energy -792866.942681 kJ/mol
# GULP energy per Si atom -12388.545979 kJ/mol
# Density = 2.001166 g / cm^3
# Si number density = 20.057310 Si / 1000 Ang^3
#
#
#
# Elastic Constant Matrix: (Units=GPa)
#
#
# Indices 1 2 3 4 5 6 
#
# 1 91.0948 -5.2305 23.0002 0.0000 0.0000 0.0000
# 2 -5.2305 57.4323 6.0820 0.0000 0.0000 0.0000
# 3 23.0002 6.0820 133.6356 0.0000 0.0000 0.0000
# 4 0.0000 0.0000 0.0000 14.3529 0.0000 0.0000
# 5 0.0000 0.0000 0.0000 0.0000 13.2338 0.0000
# 6 0.0000 0.0000 0.0000 0.0000 0.0000 27.3879
#
#
#
# Elastic Compliance Matrix: (Units=1/GPa)
#
#
# Indices 1 2 3 4 5 6 
#
# 1 0.011568 0.001270 -0.002049 0.000000 0.000000 0.000000
# 2 0.001270 0.017636 -0.001021 0.000000 0.000000 0.000000
# 3 -0.002049 -0.001021 0.007882 0.000000 0.000000 0.000000
# 4 0.000000 0.000000 0.000000 0.069672 0.000000 0.000000
# 5 0.000000 0.000000 0.000000 0.000000 0.075564 0.000000
# 6 0.000000 0.000000 0.000000 0.000000 0.000000 0.036513
#
#
# Mechanical properties :
#
#
# Convention : Reuss Voigt Hill
#
# Bulk Modulus (GPa) = 29.86286 36.65180 33.25733
# Shear Modulus (GPa) = 21.40447 28.21563 24.81005
#
# Velocity S-wave (km/s) = 3.27029 3.75474 3.52086
# Velocity P-wave (km/s) = 5.40193 6.09185 5.75723
#
# Compressibility (1/GPa) = 0.03348641
#
# Stress axis : x y z
#
# Youngs Moduli (GPa) = 86.44676 56.70325 126.86922
#
# Poissons Ratio (x) = -0.07204 0.25993
# Poissons Ratio (y) = -0.10983 0.12957
# Poissons Ratio (z) = 0.17711 0.05791
#
# Static dielectric constant tensor:
#      x y z
#    x 3.962390 0.000000 0.000000 
#    y 0.000000 3.097160 0.000000 
#    z 0.000000 0.000000 3.563070 
# 
# 
# High freq. dielectric constant tensor:
#      x y z
#    x 1.791300 0.000000 0.000000 
#    y 0.000000 1.780770 0.000000 
#    z 0.000000 0.000000 1.771400 
# 
# From -- ./inp_files/14389.got.cif
#   From: 2010.03.12/outbox.cif.g09.slc.cpg/sg55_8_cif.got.tgz:14389.got - 2010.04.16 15:19:21.
