data_PCOD8227040
_publ_section_title
;
Structure prediction by ZEFSAII (Michael W. Deem and Ramdas Pophale) SiO2 
 PCOD8227040
Probable space group: P B A M
;
_chemical_formula_sum "Si O2"
_cell_formula_units_Z 64
_cell_length_a 14.993599
_cell_length_b 8.255764
_cell_length_c 23.425160
_cell_angle_alpha 90.000000
_cell_angle_beta 90.000000
_cell_angle_gamma 90.000000
_cell_volume 2899.650983
_symmetry_space_group_name_H-M "P B A M"
_symmetry_group_IT_number 55
_symmetry_cell_setting 'orthorhombic'
loop_
_space_group_symop_operation_xyz
x,y,z
-x,-y,z
1/2+x,1/2-y,-z
1/2-x,1/2+y,-z
-x,-y,-z
x,y,-z
1/2-x,1/2+y,z
1/2+x,1/2-y,z
loop_
_atom_site_type_symbol
_atom_site_label
_atom_site_fract_x
_atom_site_fract_y
_atom_site_fract_z
Si Si1 0.016725 0.690211 0.063688
Si Si2 0.854211 0.182350 0.609004
Si Si3 0.317390 0.666985 0.565519
Si Si4 0.362369 0.780874 0.858394
Si Si5 0.311686 0.330817 0.266476
Si Si6 0.667227 0.839494 0.850191
Si Si7 0.968255 0.681629 0.369878
Si Si8 0.623450 0.304313 0.261703
O O1 0.100756 0.738615 0.103165
O O2 0.000000 0.500000 0.062316
O O3 0.925792 0.766206 0.088878
O O4 0.033335 0.758417 0.000000
O O5 0.785732 0.281216 0.569384
O O6 0.845328 0.245236 0.674151
O O7 0.956519 0.222517 0.593521
O O8 0.836599 0.991941 0.602663
O O9 0.341875 0.634721 0.500000
O O10 0.378049 0.810322 0.592266
O O11 0.268566 0.693222 0.868882
O O12 0.414648 0.717197 0.802077
O O13 0.346798 0.970218 0.849279
O O14 0.352362 0.235377 0.212374
O O15 0.338780 0.516486 0.266313
O O16 0.204540 0.323089 0.267635
O O17 0.952434 0.766989 0.308345
O O18 0.000000 0.500000 0.360153
#
# Coordination Sequence:
#
# PCOD8227040 Si02
#       8
#     8   8   8   8   8   8   8   8
#     4   9  20  39  61  89 129 176 224 267 319 392
#     4  12  25  45  70 102 132 175 221 274 338 392
#     4  12  27  50  74  98 134 177 223 274 331 400
#     4  10  21  37  61  92 127 170 218 264 331 388
#     4  11  21  39  67  91 135 167 213 270 333 394
#     4  10  21  37  63  95 125 171 216 274 326 389
#     4  12  28  42  69 103 134 172 222 273 334 400
#     4  11  23  40  64  99 132 174 214 273 333 399
#
# _framework density 22.071622000000001
#
# number of rings (size 3 to 8) (size 9 to 14) (size 15 to 20)
#    0.000    1.125    2.500    4.500    5.250    2.750 
#    0.000    1.875    0.000    5.250    0.000    0.000 
#    0.000    0.000    0.000    0.000    0.000    0.000 
#
# Total GULP energy -793614.858566 kJ/mol
# GULP energy per Si atom -12400.232165 kJ/mol
# Density = 2.202139 g / cm^3
# Si number density = 22.071622 Si / 1000 Ang^3
#
#
#
# Elastic Constant Matrix: (Units=GPa)
#
#
# Indices 1 2 3 4 5 6 
#
# 1 109.6935 19.8486 46.1316 0.0000 0.0000 0.0000
# 2 19.8486 70.4990 4.7766 0.0000 0.0000 0.0000
# 3 46.1316 4.7766 146.4598 0.0000 0.0000 0.0000
# 4 0.0000 0.0000 0.0000 24.8136 0.0000 0.0000
# 5 0.0000 0.0000 0.0000 0.0000 28.7679 0.0000
# 6 0.0000 0.0000 0.0000 0.0000 0.0000 12.2234
#
#
#
# Elastic Compliance Matrix: (Units=1/GPa)
#
#
# Indices 1 2 3 4 5 6 
#
# 1 0.011064 -0.002885 -0.003391 0.000000 0.000000 0.000000
# 2 -0.002885 0.014968 0.000421 0.000000 0.000000 0.000000
# 3 -0.003391 0.000421 0.007882 0.000000 0.000000 0.000000
# 4 0.000000 0.000000 0.000000 0.040300 0.000000 0.000000
# 5 0.000000 0.000000 0.000000 0.000000 0.034761 0.000000
# 6 0.000000 0.000000 0.000000 0.000000 0.000000 0.081810
#
#
# Mechanical properties :
#
#
# Convention : Reuss Voigt Hill
#
# Bulk Modulus (GPa) = 45.03750 52.01843 48.52796
# Shear Modulus (GPa) = 23.82092 30.22068 27.02080
#
# Velocity S-wave (km/s) = 3.28877 3.70430 3.50270
# Velocity P-wave (km/s) = 5.90515 6.47417 6.19620
#
# Compressibility (1/GPa) = 0.02220372
#
# Stress axis : x y z
#
# Youngs Moduli (GPa) = 90.37928 66.80712 126.86852
#
# Poissons Ratio (x) = 0.19276 0.43021
# Poissons Ratio (y) = 0.26078 -0.05337
# Poissons Ratio (z) = 0.30647 -0.02810
#
# Static dielectric constant tensor:
#      x y z
#    x 4.336490 0.000000 0.000000 
#    y 0.000000 3.764920 0.000000 
#    z 0.000000 0.000000 4.199700 
# 
# 
# High freq. dielectric constant tensor:
#      x y z
#    x 1.872870 0.000000 0.000000 
#    y 0.000000 1.860590 0.000000 
#    z 0.000000 0.000000 1.867720 
# 
# From -- ./inp_files/23609.got.cif
#   From: 2010.03.12/outbox.cif.g09.slc.cpg/sg55_12_cif.got.tgz:23609.got - 2010.04.16 15:19:21.
