data_PCOD8227563
_publ_section_title
;
Structure prediction by ZEFSAII (Michael W. Deem and Ramdas Pophale) SiO2 
 PCOD8227563
Probable space group: P B A M
;
_chemical_formula_sum "Si O2"
_cell_formula_units_Z 64
_cell_length_a 8.956397
_cell_length_b 15.129726
_cell_length_c 22.025303
_cell_angle_alpha 90.000000
_cell_angle_beta 90.000000
_cell_angle_gamma 90.000000
_cell_volume 2984.601071
_symmetry_space_group_name_H-M "P B A M"
_symmetry_group_IT_number 55
_symmetry_cell_setting 'orthorhombic'
loop_
_space_group_symop_operation_xyz
x,y,z
-x,-y,z
1/2+x,1/2-y,-z
1/2-x,1/2+y,-z
-x,-y,-z
x,y,-z
1/2-x,1/2+y,z
1/2+x,1/2-y,z
loop_
_atom_site_type_symbol
_atom_site_label
_atom_site_fract_x
_atom_site_fract_y
_atom_site_fract_z
Si Si1 0.029414 0.757282 0.339276
Si Si2 0.613044 0.176602 0.068995
Si Si3 0.221053 0.188949 0.739186
Si Si4 0.821960 0.009451 0.740137
Si Si5 0.672469 0.012025 0.859948
Si Si6 0.693412 0.814776 0.872908
Si Si7 0.589013 0.586543 0.430282
Si Si8 0.624805 0.075794 0.365395
O O1 0.950459 0.792391 0.277546
O O2 0.956032 0.669305 0.366020
O O3 0.194407 0.736931 0.315927
O O4 0.031224 0.830100 0.391812
O O5 0.687158 0.081955 0.085317
O O6 0.728116 0.256651 0.075559
O O7 0.482212 0.195793 0.116734
O O8 0.555551 0.171800 0.000000
O O9 0.258030 0.085421 0.736037
O O10 0.263271 0.222718 0.806349
O O11 0.774741 0.049646 0.805228
O O12 0.745689 0.071075 0.689701
O O13 0.000000 0.000000 0.732547
O O14 0.500000 0.000000 0.838778
O O15 0.738963 0.917585 0.881520
O O16 0.500000 0.500000 0.407269
O O17 0.550949 0.606560 0.500000
O O18 0.767479 0.569409 0.424126
O O19 0.500000 0.000000 0.364917
#
# Coordination Sequence:
#
# PCOD8227563 Si02
#       8
#     8   8   8   8   8   8   8   8
#     4  12  24  42  67 102 134 174 217 270 330 394
#     4  11  23  40  63  88 125 175 221 269 326 389
#     4  11  23  40  65  99 132 172 213 269 338 396
#     4  11  23  39  65  98 139 170 211 270 340 403
#     4   9  22  40  63  91 123 170 218 267 326 395
#     4  10  23  40  61  94 128 162 217 270 327 389
#     4  11  27  50  71  95 134 182 229 274 321 381
#     4  12  24  41  72 103 137 173 218 271 330 395
#
# _framework density 21.443403
#
# number of rings (size 3 to 8) (size 9 to 14) (size 15 to 20)
#    0.000    1.125    2.500    3.375    5.250    5.500 
#    0.000    0.000    0.000    1.875    0.000    0.000 
#    0.000    0.000    0.000    0.000    0.000    0.000 
#
# Total GULP energy -793623.731376 kJ/mol
# GULP energy per Si atom -12400.370803 kJ/mol
# Density = 2.139460 g / cm^3
# Si number density = 21.443403 Si / 1000 Ang^3
#
#
#
# Elastic Constant Matrix: (Units=GPa)
#
#
# Indices 1 2 3 4 5 6 
#
# 1 93.8259 44.6349 40.0725 0.0000 0.0000 0.0000
# 2 44.6349 122.0400 57.0912 0.0000 0.0000 0.0000
# 3 40.0725 57.0912 108.4686 0.0000 0.0000 0.0000
# 4 0.0000 0.0000 0.0000 28.5721 0.0000 0.0000
# 5 0.0000 0.0000 0.0000 0.0000 31.5793 0.0000
# 6 0.0000 0.0000 0.0000 0.0000 0.0000 30.9070
#
#
#
# Elastic Compliance Matrix: (Units=1/GPa)
#
#
# Indices 1 2 3 4 5 6 
#
# 1 0.013699 -0.003506 -0.003216 0.000000 0.000000 0.000000
# 2 -0.003506 0.011768 -0.004899 0.000000 0.000000 0.000000
# 3 -0.003216 -0.004899 0.012986 0.000000 0.000000 0.000000
# 4 0.000000 0.000000 0.000000 0.034999 0.000000 0.000000
# 5 0.000000 0.000000 0.000000 0.000000 0.031666 0.000000
# 6 0.000000 0.000000 0.000000 0.000000 0.000000 0.032355
#
#
# Mechanical properties :
#
#
# Convention : Reuss Voigt Hill
#
# Bulk Modulus (GPa) = 65.73718 67.54796 66.64257
# Shear Modulus (GPa) = 30.15953 30.38074 30.27013
#
# Velocity S-wave (km/s) = 3.75436 3.76811 3.76124
# Velocity P-wave (km/s) = 7.03679 7.10637 7.07166
#
# Compressibility (1/GPa) = 0.01521209
#
# Stress axis : x y z
#
# Youngs Moduli (GPa) = 72.99615 84.97637 77.00836
#
# Poissons Ratio (x) = 0.29793 0.24763
# Poissons Ratio (y) = 0.25593 0.37724
# Poissons Ratio (z) = 0.23473 0.41627
#
# Static dielectric constant tensor:
#      x y z
#    x 3.872720 0.000000 0.000000 
#    y 0.000000 4.021390 0.000000 
#    z 0.000000 0.000000 3.655460 
# 
# 
# High freq. dielectric constant tensor:
#      x y z
#    x 1.841960 0.000000 0.000000 
#    y 0.000000 1.857290 0.000000 
#    z 0.000000 0.000000 1.824870 
# 
# From -- ./inp_files/23480.got.cif
#   From: 2010.03.12/outbox.cif.g09.slc.cpg/sg55_12_cif.got.tgz:23480.got - 2010.04.16 15:19:21.
