data_PCOD8227005
_publ_section_title
;
Structure prediction by ZEFSAII (Michael W. Deem and Ramdas Pophale) SiO2 
 PCOD8227005
Probable space group: P B A M
;
_chemical_formula_sum "Si O2"
_cell_formula_units_Z 48
_cell_length_a 28.410718
_cell_length_b 9.879732
_cell_length_c 8.579360
_cell_angle_alpha 90.000000
_cell_angle_beta 90.000000
_cell_angle_gamma 90.000000
_cell_volume 2408.142959
_symmetry_space_group_name_H-M "P B A M"
_symmetry_group_IT_number 55
_symmetry_cell_setting 'orthorhombic'
loop_
_space_group_symop_operation_xyz
x,y,z
-x,-y,z
1/2+x,1/2-y,-z
1/2-x,1/2+y,-z
-x,-y,-z
x,y,-z
1/2-x,1/2+y,z
1/2+x,1/2-y,z
loop_
_atom_site_type_symbol
_atom_site_label
_atom_site_fract_x
_atom_site_fract_y
_atom_site_fract_z
Si Si1 0.960061 0.832647 0.817571
Si Si2 0.624979 0.825279 0.817144
Si Si3 0.059083 0.887631 0.317071
Si Si4 0.729461 0.903021 0.819913
Si Si5 0.208827 0.321339 0.679983
Si Si6 0.102767 0.394143 0.317401
O O1 0.935906 0.692685 0.772079
O O2 0.014741 0.823776 0.772537
O O3 0.934727 0.954869 0.725825
O O4 0.955231 0.859815 0.000000
O O5 0.605860 0.690277 0.735572
O O6 0.680239 0.831132 0.777688
O O7 0.598189 0.953785 0.745061
O O8 0.615233 0.820088 0.000000
O O9 0.050886 0.873102 0.500000
O O10 0.771732 0.802638 0.780250
O O11 0.735728 0.040289 0.722324
O O12 0.731390 0.943580 0.000000
O O13 0.217363 0.289379 0.500000
O O14 0.154056 0.334920 0.721989
O O15 0.092274 0.392280 0.500000
#
# Coordination Sequence:
#
# PCOD8227005 Si02
#       6
#     8   8   8   8   8   8
#     4  11  22  38  59  83 112 146 183 227 274 326
#     4  10  21  38  58  83 112 145 184 228 275 326
#     4  11  22  38  59  83 112 146 183 227 274 326
#     4  10  21  37  58  82 112 146 184 228 275 326
#     4  10  21  37  58  82 112 146 184 228 275 326
#     4  10  21  38  58  83 112 145 184 228 275 326
#
# _framework density 19.932371
#
# number of rings (size 3 to 8) (size 9 to 14) (size 15 to 20)
#    0.000    1.667    0.000    6.000    0.000    6.000 
#    0.000    3.333    0.000    0.000    0.000    0.000 
#    0.000    0.000    0.000    0.000    0.000    0.000 
#
# Total GULP energy -595523.476340 kJ/mol
# GULP energy per Si atom -12406.739090 kJ/mol
# Density = 1.988700 g / cm^3
# Si number density = 19.932371 Si / 1000 Ang^3
#
#
#
# Elastic Constant Matrix: (Units=GPa)
#
#
# Indices 1 2 3 4 5 6 
#
# 1 11.2092 4.4842 5.9360 0.0000 0.0000 0.0000
# 2 4.4842 32.9405 11.7510 0.0000 0.0000 0.0000
# 3 5.9360 11.7510 76.1177 0.0000 0.0000 0.0000
# 4 0.0000 0.0000 0.0000 39.0247 0.0000 0.0000
# 5 0.0000 0.0000 0.0000 0.0000 31.8730 0.0000
# 6 0.0000 0.0000 0.0000 0.0000 0.0000 38.4654
#
#
#
# Elastic Compliance Matrix: (Units=1/GPa)
#
#
# Indices 1 2 3 4 5 6 
#
# 1 0.096737 -0.011088 -0.005832 0.000000 0.000000 0.000000
# 2 -0.011088 0.033398 -0.004291 0.000000 0.000000 0.000000
# 3 -0.005832 -0.004291 0.014255 0.000000 0.000000 0.000000
# 4 0.000000 0.000000 0.000000 0.025625 0.000000 0.000000
# 5 0.000000 0.000000 0.000000 0.000000 0.031374 0.000000
# 6 0.000000 0.000000 0.000000 0.000000 0.000000 0.025997
#
#
# Mechanical properties :
#
#
# Convention : Reuss Voigt Hill
#
# Bulk Modulus (GPa) = 9.80719 18.29001 14.04860
# Shear Modulus (GPa) = 16.45827 28.41237 22.43532
#
# Velocity S-wave (km/s) = 2.87663 3.77959 3.35859
# Velocity P-wave (km/s) = 3.99553 5.31442 4.70145
#
# Compressibility (1/GPa) = 0.10196604
#
# Stress axis : x y z
#
# Youngs Moduli (GPa) = 10.33733 29.94189 70.15159
#
# Poissons Ratio (x) = 0.33201 0.40914
# Poissons Ratio (y) = 0.11462 0.30104
# Poissons Ratio (z) = 0.06029 0.12849
#
# Static dielectric constant tensor:
#      x y z
#    x 3.518110 0.000000 0.000000 
#    y 0.000000 3.621420 0.000000 
#    z 0.000000 0.000000 3.698220 
# 
# 
# High freq. dielectric constant tensor:
#      x y z
#    x 1.768370 0.000000 0.000000 
#    y 0.000000 1.780780 0.000000 
#    z 0.000000 0.000000 1.794610 
# 
# From -- ./inp_files/10537.got.cif
#   From: 2010.03.12/outbox.cif.g09.slc.cpg/sg55_6_cif.got.tgz:10537.got - 2010.04.16 15:19:21.
