data_PCOD8227875
_publ_section_title
;
Structure prediction by ZEFSAII (Michael W. Deem and Ramdas Pophale) SiO2 
 PCOD8227875
Probable space group: P C C N
;
_chemical_formula_sum "Si O2"
_cell_formula_units_Z 48
_cell_length_a 9.094221
_cell_length_b 21.047242
_cell_length_c 11.445904
_cell_angle_alpha 90.000000
_cell_angle_beta 90.000000
_cell_angle_gamma 90.000000
_cell_volume 2190.840685
_symmetry_space_group_name_H-M "P C C N"
_symmetry_group_IT_number 56
_symmetry_cell_setting 'orthorhombic'
loop_
_space_group_symop_operation_xyz
x,y,z
1/2-x,1/2-y,z
1/2+x,-y,1/2-z
-x,1/2+y,1/2-z
-x,-y,-z
1/2+x,1/2+y,-z
1/2-x,y,1/2+z
x,1/2-y,1/2+z
loop_
_atom_site_type_symbol
_atom_site_label
_atom_site_fract_x
_atom_site_fract_y
_atom_site_fract_z
Si Si1 0.610884 0.556187 0.972487
Si Si2 0.006610 0.866978 0.155088
Si Si3 0.915446 0.269026 0.893626
Si Si4 0.575380 0.125023 0.711979
Si Si5 0.618378 0.139563 0.097284
Si Si6 0.705674 0.447017 0.405844
O O1 0.554227 0.605574 0.875220
O O2 0.757968 0.521462 0.926109
O O3 0.500000 0.500000 0.000000
O O4 0.630409 0.595286 0.094566
O O5 0.988609 0.794500 0.112895
O O6 0.004658 0.870577 0.295750
O O7 0.155326 0.898687 0.103246
O O8 0.750000 0.250000 0.859789
O O9 0.976902 0.319497 0.799257
O O10 0.927975 0.298410 0.023379
O O11 0.716609 0.150569 0.642679
O O12 0.614852 0.061072 0.786089
O O13 0.611612 0.076492 0.017242
#
# Coordination Sequence:
#
# PCOD8227875 Si02
#       6
#     8   8   8   8   8   8
#     4  10  18  32  47  69 100 135 173 200 239 299
#     4  10  19  25  43  67  98 139 156 195 235 299
#     4  11  18  24  40  67 100 137 157 185 248 311
#     4  10  18  28  45  68  98 133 160 202 244 292
#     4  10  17  27  40  65 100 130 164 183 238 300
#     4   9  18  30  47  64  95 141 164 203 238 293
#
# _framework density 21.909397999999999
#
# number of rings (size 3 to 8) (size 9 to 14) (size 15 to 20)
#    0.000    2.000    8.333    0.000    4.667    0.000 
#    0.000    0.000    0.000   40.000    0.000    0.000 
#    0.000   10.667    0.000    0.000    0.000    0.000 
#
# Total GULP energy -594858.445407 kJ/mol
# GULP energy per Si atom -12392.884279 kJ/mol
# Density = 2.185953 g / cm^3
# Si number density = 21.909398 Si / 1000 Ang^3
#
#
#
# Elastic Constant Matrix: (Units=GPa)
#
#
# Indices 1 2 3 4 5 6 
#
# 1 7.8855 15.3209 13.5966 0.0000 0.0000 0.0000
# 2 15.3209 116.3033 60.2568 0.0000 0.0000 0.0000
# 3 13.5966 60.2568 157.6507 0.0000 0.0000 0.0000
# 4 0.0000 0.0000 0.0000 37.4681 0.0000 0.0000
# 5 0.0000 0.0000 0.0000 0.0000 6.1961 0.0000
# 6 0.0000 0.0000 0.0000 0.0000 0.0000 20.8989
#
#
#
# Elastic Compliance Matrix: (Units=1/GPa)
#
#
# Indices 1 2 3 4 5 6 
#
# 1 0.178127 -0.019334 -0.007973 0.000000 0.000000 0.000000
# 2 -0.019334 0.012820 -0.003233 0.000000 0.000000 0.000000
# 3 -0.007973 -0.003233 0.008266 0.000000 0.000000 0.000000
# 4 0.000000 0.000000 0.000000 0.026689 0.000000 0.000000
# 5 0.000000 0.000000 0.000000 0.000000 0.161391 0.000000
# 6 0.000000 0.000000 0.000000 0.000000 0.000000 0.047849
#
#
# Mechanical properties :
#
#
# Convention : Reuss Voigt Hill
#
# Bulk Modulus (GPa) = 7.23934 51.13201 29.18568
# Shear Modulus (GPa) = 9.22055 25.75697 17.48876
#
# Velocity S-wave (km/s) = 2.05369 3.43244 2.82836
# Velocity P-wave (km/s) = 2.98913 6.25280 4.90063
#
# Compressibility (1/GPa) = 0.13813407
#
# Stress axis : x y z
#
# Youngs Moduli (GPa) = 5.61398 78.00352 120.97380
#
# Poissons Ratio (x) = 1.50815 0.96447
# Poissons Ratio (y) = 0.10854 0.39105
# Poissons Ratio (z) = 0.04476 0.25215
#
# Static dielectric constant tensor:
#      x y z
#    x 3.341720 0.000000 0.000000 
#    y 0.000000 4.598900 0.000000 
#    z 0.000000 0.000000 4.401440 
# 
# 
# High freq. dielectric constant tensor:
#      x y z
#    x 1.765280 0.000000 0.000000 
#    y 0.000000 1.865480 0.000000 
#    z 0.000000 0.000000 1.885880 
# 
# From -- ./inp_files/7157.got.cif
#   From: 2010.03.12/outbox.cif.g09.slc.cpg/sg56_4_cif.got.tgz:7157.got - 2010.04.16 15:33:40.
