data_PCOD8227308
_publ_section_title
;
Structure prediction by ZEFSAII (Michael W. Deem and Ramdas Pophale) SiO2 
 PCOD8227308
Probable space group: P B A M
;
_chemical_formula_sum "Si O2"
_cell_formula_units_Z 56
_cell_length_a 21.565324
_cell_length_b 14.441532
_cell_length_c 8.926101
_cell_angle_alpha 90.000000
_cell_angle_beta 90.000000
_cell_angle_gamma 90.000000
_cell_volume 2779.912017
_symmetry_space_group_name_H-M "P B A M"
_symmetry_group_IT_number 55
_symmetry_cell_setting 'orthorhombic'
loop_
_space_group_symop_operation_xyz
x,y,z
-x,-y,z
1/2+x,1/2-y,-z
1/2-x,1/2+y,-z
-x,-y,-z
x,y,-z
1/2-x,1/2+y,z
1/2+x,1/2-y,z
loop_
_atom_site_type_symbol
_atom_site_label
_atom_site_fract_x
_atom_site_fract_y
_atom_site_fract_z
Si Si1 0.175811 0.434787 0.175484
Si Si2 0.751080 0.881809 0.174506
Si Si3 0.098593 0.888038 0.325140
Si Si4 0.608849 0.421507 0.825568
Si Si5 0.045863 0.415131 0.672788
Si Si6 0.769561 0.196032 0.325405
Si Si7 0.006314 0.228174 0.824256
O O1 0.214750 0.525481 0.215587
O O2 0.109943 0.443876 0.252426
O O3 0.211579 0.345348 0.236198
O O4 0.166006 0.421100 0.000000
O O5 0.822182 0.894176 0.223739
O O6 0.720063 0.800692 0.270762
O O7 0.745601 0.857264 0.000000
O O8 0.083727 0.882080 0.500000
O O9 0.169484 0.863120 0.288690
O O10 0.056049 0.815369 0.239716
O O11 0.084629 0.990981 0.267516
O O12 0.565137 0.335653 0.785921
O O13 0.605968 0.448375 0.000000
O O14 0.057424 0.391769 0.500000
O O15 0.015682 0.327146 0.750927
O O16 0.000000 0.500000 0.694891
O O17 0.754127 0.195031 0.500000
O O18 0.998245 0.241514 0.000000
#
# Coordination Sequence:
#
# PCOD8227308 Si02
#       7
#     8   8   8   8   8   8   8
#     4  11  23  42  68  96 126 165 212 262 316 377
#     4  10  22  39  64  94 125 163 208 262 318 375
#     4  11  24  40  61  93 130 168 210 259 319 381
#     4  10  21  41  64  93 126 162 208 259 314 375
#     4  11  26  46  67  93 129 169 212 264 319 379
#     4  11  24  40  62  93 129 170 213 261 320 382
#     4  11  24  41  66  94 125 168 216 264 314 375
#
# _framework density 20.144523
#
# number of rings (size 3 to 8) (size 9 to 14) (size 15 to 20)
#    0.000    1.286    1.429    3.429    2.000    8.571 
#    0.000    0.000    0.000    0.000    0.000    0.000 
#    0.000    0.000    0.000    0.000    0.000    0.000 
#
# Total GULP energy -694869.791840 kJ/mol
# GULP energy per Si atom -12408.389140 kJ/mol
# Density = 2.009867 g / cm^3
# Si number density = 20.144523 Si / 1000 Ang^3
#
#
#
# Elastic Constant Matrix: (Units=GPa)
#
#
# Indices 1 2 3 4 5 6 
#
# 1 103.0681 24.9513 54.8223 0.0000 0.0000 0.0000
# 2 24.9513 117.9641 65.0453 0.0000 0.0000 0.0000
# 3 54.8223 65.0453 108.4608 0.0000 0.0000 0.0000
# 4 0.0000 0.0000 0.0000 4.9182 0.0000 0.0000
# 5 0.0000 0.0000 0.0000 0.0000 37.0916 0.0000
# 6 0.0000 0.0000 0.0000 0.0000 0.0000 51.9223
#
#
#
# Elastic Compliance Matrix: (Units=1/GPa)
#
#
# Indices 1 2 3 4 5 6 
#
# 1 0.013412 0.001346 -0.007586 0.000000 0.000000 0.000000
# 2 0.001346 0.012801 -0.008357 0.000000 0.000000 0.000000
# 3 -0.007586 -0.008357 0.018066 0.000000 0.000000 0.000000
# 4 0.000000 0.000000 0.000000 0.203327 0.000000 0.000000
# 5 0.000000 0.000000 0.000000 0.000000 0.026960 0.000000
# 6 0.000000 0.000000 0.000000 0.000000 0.000000 0.019260
#
#
# Mechanical properties :
#
#
# Convention : Reuss Voigt Hill
#
# Bulk Modulus (GPa) = 66.29484 68.79231 67.54358
# Shear Modulus (GPa) = 15.24170 31.09802 23.16986
#
# Velocity S-wave (km/s) = 2.75365 3.93332 3.39511
# Velocity P-wave (km/s) = 6.56439 7.40618 6.99795
#
# Compressibility (1/GPa) = 0.01508413
#
# Stress axis : x y z
#
# Youngs Moduli (GPa) = 74.56207 78.12192 55.35125
#
# Poissons Ratio (x) = -0.10518 0.41992
# Poissons Ratio (y) = -0.10039 0.46258
# Poissons Ratio (z) = 0.56566 0.65288
#
# Static dielectric constant tensor:
#      x y z
#    x 4.045480 0.000000 0.000000 
#    y 0.000000 3.456970 0.000000 
#    z 0.000000 0.000000 3.874110 
# 
# 
# High freq. dielectric constant tensor:
#      x y z
#    x 1.797560 0.000000 0.000000 
#    y 0.000000 1.799340 0.000000 
#    z 0.000000 0.000000 1.794110 
# 
# From -- ./inp_files/8714.got.cif
#   From: 2010.03.12/outbox.cif.g09.slc.cpg/sg55_5_cif.got.tgz:8714.got - 2010.04.16 15:19:21.
