data_PCOD8227976
_publ_section_title
;
Structure prediction by ZEFSAII (Michael W. Deem and Ramdas Pophale) SiO2 
 PCOD8227976
Probable space group: P C C N
;
_chemical_formula_sum "Si O2"
_cell_formula_units_Z 40
_cell_length_a 6.366066
_cell_length_b 17.565788
_cell_length_c 14.655088
_cell_angle_alpha 90.000000
_cell_angle_beta 90.000000
_cell_angle_gamma 90.000000
_cell_volume 1638.804714
_symmetry_space_group_name_H-M "P C C N"
_symmetry_group_IT_number 56
_symmetry_cell_setting 'orthorhombic'
loop_
_space_group_symop_operation_xyz
x,y,z
1/2-x,1/2-y,z
1/2+x,-y,1/2-z
-x,1/2+y,1/2-z
-x,-y,-z
1/2+x,1/2+y,-z
1/2-x,y,1/2+z
x,1/2-y,1/2+z
loop_
_atom_site_type_symbol
_atom_site_label
_atom_site_fract_x
_atom_site_fract_y
_atom_site_fract_z
Si Si1 0.750000 0.750000 0.387001
Si Si2 0.463815 0.377126 0.898483
Si Si3 0.750000 0.250000 0.384807
Si Si4 0.110324 0.395812 0.029293
Si Si5 0.141890 0.960934 0.633993
Si Si6 0.586747 0.656654 0.727080
O O1 0.599854 0.694722 0.447527
O O2 0.888996 0.690366 0.328303
O O3 0.606269 0.308867 0.941739
O O4 0.611994 0.441285 0.852065
O O5 0.312874 0.338539 0.822244
O O6 0.331044 0.414469 0.979422
O O7 0.596973 0.298002 0.321148
O O8 0.104811 0.448494 0.120513
O O9 0.924411 0.416692 0.960049
O O10 0.996697 0.931637 0.719025
#
# Coordination Sequence:
#
# PCOD8227976 Si02
#       6
#     4   8   4   8   8   8
#     4  12  24  40  56  98 136 160 208 284 310 374
#     4  10  19  36  68  85 118 162 214 258 315 388
#     4  10  18  34  64  86 114 172 208 244 316 398
#     4  10  23  40  63  96 127 155 224 272 315 374
#     4   9  21  43  66  88 119 177 211 259 326 394
#     4  10  21  40  60  86 127 165 210 250 324 392
#
# _framework density 24.408033
#
# number of rings (size 3 to 8) (size 9 to 14) (size 15 to 20)
#    0.000    2.000    2.000    0.600    8.400    0.000 
#    7.200    0.000    0.000    0.000    0.000    0.000 
#    0.000    0.000    0.000    0.000    0.000    0.000 
#
# Total GULP energy -495535.664950 kJ/mol
# GULP energy per Si atom -12388.391624 kJ/mol
# Density = 2.435248 g / cm^3
# Si number density = 24.408033 Si / 1000 Ang^3
#
#
#
# Elastic Constant Matrix: (Units=GPa)
#
#
# Indices 1 2 3 4 5 6 
#
# 1 105.3241 18.6353 -2.9807 0.0000 0.0000 0.0000
# 2 18.6353 122.6279 13.2099 0.0000 0.0000 0.0000
# 3 -2.9807 13.2099 35.4297 0.0000 0.0000 0.0000
# 4 0.0000 0.0000 0.0000 38.1586 0.0000 0.0000
# 5 0.0000 0.0000 0.0000 0.0000 4.9710 0.0000
# 6 0.0000 0.0000 0.0000 0.0000 0.0000 31.3698
#
#
#
# Elastic Compliance Matrix: (Units=1/GPa)
#
#
# Indices 1 2 3 4 5 6 
#
# 1 0.009827 -0.001649 0.001441 0.000000 0.000000 0.000000
# 2 -0.001649 0.008773 -0.003410 0.000000 0.000000 0.000000
# 3 0.001441 -0.003410 0.029617 0.000000 0.000000 0.000000
# 4 0.000000 0.000000 0.000000 0.026206 0.000000 0.000000
# 5 0.000000 0.000000 0.000000 0.000000 0.201167 0.000000
# 6 0.000000 0.000000 0.000000 0.000000 0.000000 0.031878
#
#
# Mechanical properties :
#
#
# Convention : Reuss Voigt Hill
#
# Bulk Modulus (GPa) = 24.40005 35.67897 30.03951
# Shear Modulus (GPa) = 15.22704 30.53435 22.88070
#
# Velocity S-wave (km/s) = 2.50042 3.54078 3.06506
# Velocity P-wave (km/s) = 4.28422 5.60050 4.98599
#
# Compressibility (1/GPa) = 0.04098353
#
# Stress axis : x y z
#
# Youngs Moduli (GPa) = 101.76051 113.99151 33.76386
#
# Poissons Ratio (x) = 0.18793 -0.04867
# Poissons Ratio (y) = 0.16777 0.11512
# Poissons Ratio (z) = -0.14668 0.38866
#
# Static dielectric constant tensor:
#      x y z
#    x 4.619460 0.000000 0.000000 
#    y 0.000000 5.231720 0.000000 
#    z 0.000000 0.000000 3.932990 
# 
# 
# High freq. dielectric constant tensor:
#      x y z
#    x 1.975120 0.000000 0.000000 
#    y 0.000000 1.985840 0.000000 
#    z 0.000000 0.000000 1.921880 
# 
# From -- ./inp_files/13933.got.cif
#   From: 2010.03.12/outbox.cif.g09.slc.cpg/sg56_7_cif.got.tgz:13933.got - 2010.04.16 15:33:40.
