data_PCOD8227234
_publ_section_title
;
Structure prediction by ZEFSAII (Michael W. Deem and Ramdas Pophale) SiO2 
 PCOD8227234
Probable space group: P B A M
;
_chemical_formula_sum "Si O2"
_cell_formula_units_Z 56
_cell_length_a 18.488095
_cell_length_b 16.987615
_cell_length_c 8.844394
_cell_angle_alpha 90.000000
_cell_angle_beta 90.000000
_cell_angle_gamma 90.000000
_cell_volume 2777.746795
_symmetry_space_group_name_H-M "P B A M"
_symmetry_group_IT_number 55
_symmetry_cell_setting 'orthorhombic'
loop_
_space_group_symop_operation_xyz
x,y,z
-x,-y,z
1/2+x,1/2-y,-z
1/2-x,1/2+y,-z
-x,-y,-z
x,y,-z
1/2-x,1/2+y,z
1/2+x,1/2-y,z
loop_
_atom_site_type_symbol
_atom_site_label
_atom_site_fract_x
_atom_site_fract_y
_atom_site_fract_z
Si Si1 0.080228 0.521086 0.174953
Si Si2 0.377174 0.180408 0.677352
Si Si3 0.149560 0.951245 0.677508
Si Si4 0.051421 0.821375 0.178264
Si Si5 0.291689 0.907825 0.173013
Si Si6 0.102216 0.109700 0.176728
Si Si7 0.729630 0.271614 0.175247
O O1 0.111804 0.590984 0.274399
O O2 0.129752 0.444701 0.202617
O O3 0.000000 0.500000 0.230262
O O4 0.080368 0.547105 0.000000
O O5 0.386189 0.188821 0.500000
O O6 0.437933 0.234003 0.756888
O O7 0.297563 0.208359 0.722419
O O8 0.141030 0.942126 0.500000
O O9 0.113872 0.876586 0.757032
O O10 0.233745 0.952777 0.722825
O O11 0.110369 0.030350 0.729421
O O12 0.972972 0.851669 0.227327
O O13 0.060015 0.818331 0.000000
O O14 0.297554 0.815954 0.212663
O O15 0.267406 0.920809 0.000000
O O16 0.165422 0.169742 0.218999
O O17 0.102133 0.088510 0.000000
O O18 0.751563 0.280587 0.000000
#
# Coordination Sequence:
#
# PCOD8227234 Si02
#       7
#     8   8   8   8   8   8   8
#     4  10  23  42  68  96 125 165 215 264 312 368
#     4  12  25  41  62  92 129 167 206 251 314 376
#     4  12  24  39  61  91 128 165 201 246 307 372
#     4  11  23  41  66  92 122 161 206 257 306 363
#     4  10  21  39  65  92 121 162 211 259 305 361
#     4  10  23  40  64  93 121 156 205 254 305 363
#     4  10  21  40  66  93 121 161 210 259 304 361
#
# _framework density 20.160226000000002
#
# number of rings (size 3 to 8) (size 9 to 14) (size 15 to 20)
#    0.000    1.286    1.429    4.286    2.000    7.714 
#    0.000    0.000    0.000    0.000    0.000    0.000 
#    0.000    0.000    0.000    0.000    0.000    0.000 
#
# Total GULP energy -694816.805030 kJ/mol
# GULP energy per Si atom -12407.442947 kJ/mol
# Density = 2.011434 g / cm^3
# Si number density = 20.160226 Si / 1000 Ang^3
#
#
#
# Elastic Constant Matrix: (Units=GPa)
#
#
# Indices 1 2 3 4 5 6 
#
# 1 67.0993 28.5958 23.9345 0.0000 0.0000 0.0000
# 2 28.5958 109.7489 36.1538 0.0000 0.0000 0.0000
# 3 23.9345 36.1538 82.9858 0.0000 0.0000 0.0000
# 4 0.0000 0.0000 0.0000 7.3978 0.0000 0.0000
# 5 0.0000 0.0000 0.0000 0.0000 4.3785 0.0000
# 6 0.0000 0.0000 0.0000 0.0000 0.0000 34.4399
#
#
#
# Elastic Compliance Matrix: (Units=1/GPa)
#
#
# Indices 1 2 3 4 5 6 
#
# 1 0.017642 -0.003410 -0.003603 0.000000 0.000000 0.000000
# 2 -0.003410 0.011298 -0.003938 0.000000 0.000000 0.000000
# 3 -0.003603 -0.003938 0.014805 0.000000 0.000000 0.000000
# 4 0.000000 0.000000 0.000000 0.135176 0.000000 0.000000
# 5 0.000000 0.000000 0.000000 0.000000 0.228391 0.000000
# 6 0.000000 0.000000 0.000000 0.000000 0.000000 0.029036
#
#
# Mechanical properties :
#
#
# Convention : Reuss Voigt Hill
#
# Bulk Modulus (GPa) = 45.78241 48.57803 47.18022
# Shear Modulus (GPa) = 10.74046 20.65322 15.69684
#
# Velocity S-wave (km/s) = 2.31065 3.20418 2.79338
# Velocity P-wave (km/s) = 5.46602 6.15120 5.81871
#
# Compressibility (1/GPa) = 0.02184245
#
# Stress axis : x y z
#
# Youngs Moduli (GPa) = 56.68452 88.51442 67.54404
#
# Poissons Ratio (x) = 0.30182 0.24333
# Poissons Ratio (y) = 0.19328 0.26602
# Poissons Ratio (z) = 0.20421 0.34861
#
# Static dielectric constant tensor:
#      x y z
#    x 3.765950 0.000000 0.000000 
#    y 0.000000 3.787600 0.000000 
#    z 0.000000 0.000000 3.540560 
# 
# 
# High freq. dielectric constant tensor:
#      x y z
#    x 1.796850 0.000000 0.000000 
#    y 0.000000 1.801090 0.000000 
#    z 0.000000 0.000000 1.776630 
# 
# From -- ./inp_files/8763.got.cif
#   From: 2010.03.12/outbox.cif.g09.slc.cpg/sg55_5_cif.got.tgz:8763.got - 2010.04.16 15:19:21.
