data_PCOD8227802
_publ_section_title
;
Structure prediction by ZEFSAII (Michael W. Deem and Ramdas Pophale) SiO2 
 PCOD8227802
Probable space group: P B A M
;
_chemical_formula_sum "Si O2"
_cell_formula_units_Z 48
_cell_length_a 8.602423
_cell_length_b 15.395253
_cell_length_c 16.532808
_cell_angle_alpha 90.000000
_cell_angle_beta 90.000000
_cell_angle_gamma 90.000000
_cell_volume 2189.546871
_symmetry_space_group_name_H-M "P B A M"
_symmetry_group_IT_number 55
_symmetry_cell_setting 'orthorhombic'
loop_
_space_group_symop_operation_xyz
x,y,z
-x,-y,z
1/2+x,1/2-y,-z
1/2-x,1/2+y,-z
-x,-y,-z
x,y,-z
1/2-x,1/2+y,z
1/2+x,1/2-y,z
loop_
_atom_site_type_symbol
_atom_site_label
_atom_site_fract_x
_atom_site_fract_y
_atom_site_fract_z
Si Si1 0.181240 0.497919 0.405202
Si Si2 0.020865 0.345639 0.000000
Si Si3 0.128222 0.939599 0.846826
Si Si4 0.287145 0.656850 0.695381
Si Si5 0.611053 0.657240 0.000000
Si Si6 0.880237 0.433914 0.843060
Si Si7 0.157769 0.845212 0.306671
O O1 0.208937 0.492433 0.500000
O O2 0.249583 0.588484 0.374238
O O3 0.274344 0.416110 0.368460
O O4 0.000000 0.500000 0.382646
O O5 0.954719 0.251222 0.000000
O O6 0.964644 0.387783 0.083033
O O7 0.204393 0.342384 0.000000
O O8 0.210688 0.874787 0.783159
O O9 0.253339 0.004547 0.884896
O O10 0.045798 0.889168 0.919947
O O11 0.000000 0.000000 0.801003
O O12 0.201418 0.630939 0.779328
O O13 0.472203 0.660560 0.699987
O O14 0.227245 0.752013 0.669999
O O15 0.000000 0.500000 0.797311
#
# Coordination Sequence:
#
# PCOD8227802 Si02
#       7
#     8   4   8   8   4   8   8
#     4  11  25  48  76 106 141 182 226 280 345 413
#     4  12  28  43  60  97 131 184 235 296 355 413
#     4  12  24  44  68  98 132 181 235 289 356 418
#     4  12  26  44  72 105 141 184 231 286 346 415
#     4  12  28  42  62  93 137 179 239 294 353 415
#     4  12  24  44  71  93 135 182 238 293 357 418
#     4  12  26  45  71 107 141 183 233 282 346 414
#
# _framework density 21.922345
#
# number of rings (size 3 to 8) (size 9 to 14) (size 15 to 20)
#    0.000    0.167    5.000    4.000    4.667    4.667 
#    0.000    0.000    0.000    0.000    0.000    0.000 
#    0.000    0.000    0.000    0.000    0.000    0.000 
#
# Total GULP energy -595010.398747 kJ/mol
# GULP energy per Si atom -12396.049974 kJ/mol
# Density = 2.187245 g / cm^3
# Si number density = 21.922345 Si / 1000 Ang^3
#
#
#
# Elastic Constant Matrix: (Units=GPa)
#
#
# Indices 1 2 3 4 5 6 
#
# 1 110.3528 51.0781 26.1114 0.0000 0.0000 0.0000
# 2 51.0781 179.6871 54.8105 0.0000 0.0000 0.0000
# 3 26.1114 54.8105 121.0862 0.0000 0.0000 0.0000
# 4 0.0000 0.0000 0.0000 13.9541 0.0000 0.0000
# 5 0.0000 0.0000 0.0000 0.0000 30.0472 0.0000
# 6 0.0000 0.0000 0.0000 0.0000 0.0000 45.6291
#
#
#
# Elastic Compliance Matrix: (Units=1/GPa)
#
#
# Indices 1 2 3 4 5 6 
#
# 1 0.010552 -0.002675 -0.001065 0.000000 0.000000 0.000000
# 2 -0.002675 0.007135 -0.002653 0.000000 0.000000 0.000000
# 3 -0.001065 -0.002653 0.009689 0.000000 0.000000 0.000000
# 4 0.000000 0.000000 0.000000 0.071663 0.000000 0.000000
# 5 0.000000 0.000000 0.000000 0.000000 0.033281 0.000000
# 6 0.000000 0.000000 0.000000 0.000000 0.000000 0.021916
#
#
# Mechanical properties :
#
#
# Convention : Reuss Voigt Hill
#
# Bulk Modulus (GPa) = 68.53490 75.01400 71.77445
# Shear Modulus (GPa) = 29.08943 36.53451 32.81197
#
# Velocity S-wave (km/s) = 3.64666 4.08676 3.87296
# Velocity P-wave (km/s) = 7.00437 7.52071 7.26713
#
# Compressibility (1/GPa) = 0.01459111
#
# Stress axis : x y z
#
# Youngs Moduli (GPa) = 94.77071 140.15937 103.20994
#
# Poissons Ratio (x) = 0.37488 0.10989
# Poissons Ratio (y) = 0.25348 0.27380
# Poissons Ratio (z) = 0.10090 0.37182
#
# Static dielectric constant tensor:
#      x y z
#    x 4.377170 0.000000 0.000000 
#    y 0.000000 4.243190 0.000000 
#    z 0.000000 0.000000 3.648190 
# 
# 
# High freq. dielectric constant tensor:
#      x y z
#    x 1.883990 0.000000 0.000000 
#    y 0.000000 1.879610 0.000000 
#    z 0.000000 0.000000 1.852780 
# 
# From -- ./inp_files/20839.got.cif
#   From: 2010.03.12/outbox.cif.g09.slc.cpg/sg55_11_cif.got.tgz:20839.got - 2010.04.16 15:19:21.
