data_PCOD8227386
_publ_section_title
;
Structure prediction by ZEFSAII (Michael W. Deem and Ramdas Pophale) SiO2 
 PCOD8227386
Probable space group: P B A M
;
_chemical_formula_sum "Si O2"
_cell_formula_units_Z 32
_cell_length_a 17.012785
_cell_length_b 11.973817
_cell_length_c 8.006869
_cell_angle_alpha 90.000000
_cell_angle_beta 90.000000
_cell_angle_gamma 90.000000
_cell_volume 1631.063064
_symmetry_space_group_name_H-M "P B A M"
_symmetry_group_IT_number 55
_symmetry_cell_setting 'orthorhombic'
loop_
_space_group_symop_operation_xyz
x,y,z
-x,-y,z
1/2+x,1/2-y,-z
1/2-x,1/2+y,-z
-x,-y,-z
x,y,-z
1/2-x,1/2+y,z
1/2+x,1/2-y,z
loop_
_atom_site_type_symbol
_atom_site_label
_atom_site_fract_x
_atom_site_fract_y
_atom_site_fract_z
Si Si1 0.901955 0.114986 0.500000
Si Si2 0.812104 0.286443 0.681818
Si Si3 0.586589 0.366289 0.500000
Si Si4 0.849369 0.734633 0.187594
Si Si5 0.911620 0.492231 0.806466
O O1 0.868645 0.177732 0.665795
O O2 0.994328 0.120589 0.500000
O O3 0.872160 0.987503 0.500000
O O4 0.771483 0.308647 0.500000
O O5 0.743732 0.261220 0.813737
O O6 0.864706 0.392463 0.722982
O O7 0.607386 0.305477 0.672124
O O8 0.863934 0.605191 0.229222
O O9 0.880888 0.762634 0.000000
O O10 0.000000 0.500000 0.730785
O O11 0.917868 0.463854 0.000000
#
# Coordination Sequence:
#
# PCOD8227386 Si02
#       5
#     4   8   4   8   8
#     4   9  23  39  63  91 121 169 205 253 309 373
#     4  10  22  38  60  89 125 160 206 251 313 362
#     4  11  21  43  65  87 127 161 211 253 305 377
#     4  11  24  39  64  94 125 165 206 258 316 371
#     4  10  22  40  63  94 125 160 211 261 312 375
#
# _framework density 19.619107
#
# number of rings (size 3 to 8) (size 9 to 14) (size 15 to 20)
#    0.750    1.000    1.250    2.250    5.250    0.500 
#    0.000    5.000    0.000    0.000    0.000    0.000 
#    0.000    0.000    0.000    0.000    0.000    0.000 
#
# Total GULP energy -396635.643068 kJ/mol
# GULP energy per Si atom -12394.863846 kJ/mol
# Density = 1.957445 g / cm^3
# Si number density = 19.619107 Si / 1000 Ang^3
#
#
#
# Elastic Constant Matrix: (Units=GPa)
#
#
# Indices 1 2 3 4 5 6 
#
# 1 67.7710 14.7036 19.7158 0.0000 0.0000 0.0000
# 2 14.7036 110.1333 55.9647 0.0000 0.0000 0.0000
# 3 19.7158 55.9647 97.2566 0.0000 0.0000 0.0000
# 4 0.0000 0.0000 0.0000 32.1055 0.0000 0.0000
# 5 0.0000 0.0000 0.0000 0.0000 11.0686 0.0000
# 6 0.0000 0.0000 0.0000 0.0000 0.0000 40.4275
#
#
#
# Elastic Compliance Matrix: (Units=1/GPa)
#
#
# Indices 1 2 3 4 5 6 
#
# 1 0.015716 -0.000677 -0.002796 0.000000 0.000000 0.000000
# 2 -0.000677 0.012861 -0.007264 0.000000 0.000000 0.000000
# 3 -0.002796 -0.007264 0.015029 0.000000 0.000000 0.000000
# 4 0.000000 0.000000 0.000000 0.031147 0.000000 0.000000
# 5 0.000000 0.000000 0.000000 0.000000 0.090346 0.000000
# 6 0.000000 0.000000 0.000000 0.000000 0.000000 0.024736
#
#
# Mechanical properties :
#
#
# Convention : Reuss Voigt Hill
#
# Bulk Modulus (GPa) = 45.18374 50.65878 47.92126
# Shear Modulus (GPa) = 22.86384 29.03876 25.95130
#
# Velocity S-wave (km/s) = 3.41748 3.85141 3.64092
# Velocity P-wave (km/s) = 6.21713 6.75685 6.49260
#
# Compressibility (1/GPa) = 0.02213186
#
# Stress axis : x y z
#
# Youngs Moduli (GPa) = 63.62946 77.75249 66.53985
#
# Poissons Ratio (x) = 0.05266 0.18606
# Poissons Ratio (y) = 0.04310 0.48331
# Poissons Ratio (z) = 0.17792 0.56476
#
# Static dielectric constant tensor:
#      x y z
#    x 3.706820 0.000000 0.000000 
#    y 0.000000 3.751060 0.000000 
#    z 0.000000 0.000000 3.481800 
# 
# 
# High freq. dielectric constant tensor:
#      x y z
#    x 1.772110 0.000000 0.000000 
#    y 0.000000 1.771200 0.000000 
#    z 0.000000 0.000000 1.756510 
# 
# From -- ./inp_files/7148.got.cif
#   From: 2010.03.12/outbox.cif.g09.slc.cpg/sg55_4_cif.got.tgz:7148.got - 2010.04.16 15:19:21.
