data_PCOD8227373
_publ_section_title
;
Structure prediction by ZEFSAII (Michael W. Deem and Ramdas Pophale) SiO2 
 PCOD8227373
Probable space group: P B A M
;
_chemical_formula_sum "Si O2"
_cell_formula_units_Z 48
_cell_length_a 16.688950
_cell_length_b 5.181595
_cell_length_c 26.595665
_cell_angle_alpha 90.000000
_cell_angle_beta 90.000000
_cell_angle_gamma 90.000000
_cell_volume 2299.870234
_symmetry_space_group_name_H-M "P B A M"
_symmetry_group_IT_number 55
_symmetry_cell_setting 'orthorhombic'
loop_
_space_group_symop_operation_xyz
x,y,z
-x,-y,z
1/2+x,1/2-y,-z
1/2-x,1/2+y,-z
-x,-y,-z
x,y,-z
1/2-x,1/2+y,z
1/2+x,1/2-y,z
loop_
_atom_site_type_symbol
_atom_site_label
_atom_site_fract_x
_atom_site_fract_y
_atom_site_fract_z
Si Si1 0.198552 0.007012 0.136338
Si Si2 0.304005 0.156421 0.713058
Si Si3 0.917485 0.844938 0.943314
Si Si4 0.200065 0.731927 0.396637
Si Si5 0.197851 0.600413 0.500000
Si Si6 0.924230 0.139585 0.209814
Si Si7 0.000000 0.500000 0.128399
O O1 0.265129 0.223699 0.142348
O O2 0.156117 0.002218 0.081679
O O3 0.137805 0.057689 0.183285
O O4 0.238845 0.382571 0.721754
O O5 0.342560 0.176090 0.656807
O O6 0.379380 0.178209 0.750325
O O7 0.928833 0.596156 0.908089
O O8 0.894226 0.764556 0.000000
O O9 0.000000 0.000000 0.942864
O O10 0.275663 0.532740 0.398488
O O11 0.149074 0.661740 0.447691
O O12 0.227243 0.304538 0.500000
O O13 0.960152 0.286309 0.162406
O O14 0.000000 0.000000 0.236919
#
# Coordination Sequence:
#
# PCOD8227373 Si02
#       7
#     8   8   8   8   4   8   4
#     4  12  25  43  65  92 124 150 188 238 293 349
#     4  10  22  38  57  86 121 154 193 245 304 345
#     4  11  24  44  68  92 119 157 193 234 287 353
#     4   8  14  26  44  71 109 146 185 234 286 344
#     4   8  12  20  40  68 101 145 186 226 282 338
#     4  12  25  40  63  87 116 159 203 242 290 353
#     4  12  21  44  66  90 118 153 208 242 280 346
#
# _framework density 20.870742
#
# number of rings (size 3 to 8) (size 9 to 14) (size 15 to 20)
#    0.000    1.500    3.333    2.250    2.333    0.667 
#    0.000    0.000    0.000    0.000    0.000    0.583 
#    0.000    0.667    0.000    0.833    0.000    0.167 
#
# Total GULP energy -594655.753861 kJ/mol
# GULP energy per Si atom -12388.661539 kJ/mol
# Density = 2.082324 g / cm^3
# Si number density = 20.870742 Si / 1000 Ang^3
#
#
#
# Elastic Constant Matrix: (Units=GPa)
#
#
# Indices 1 2 3 4 5 6 
#
# 1 58.7294 5.4906 21.9688 0.0000 0.0000 0.0000
# 2 5.4906 74.3648 -1.8698 0.0000 0.0000 0.0000
# 3 21.9688 -1.8698 123.1278 0.0000 0.0000 0.0000
# 4 0.0000 0.0000 0.0000 17.0497 0.0000 0.0000
# 5 0.0000 0.0000 0.0000 0.0000 9.4650 0.0000
# 6 0.0000 0.0000 0.0000 0.0000 0.0000 14.2817
#
#
#
# Elastic Compliance Matrix: (Units=1/GPa)
#
#
# Indices 1 2 3 4 5 6 
#
# 1 0.018398 -0.001441 -0.003305 0.000000 0.000000 0.000000
# 2 -0.001441 0.013565 0.000463 0.000000 0.000000 0.000000
# 3 -0.003305 0.000463 0.008718 0.000000 0.000000 0.000000
# 4 0.000000 0.000000 0.000000 0.058652 0.000000 0.000000
# 5 0.000000 0.000000 0.000000 0.000000 0.105653 0.000000
# 6 0.000000 0.000000 0.000000 0.000000 0.000000 0.070020
#
#
# Mechanical properties :
#
#
# Convention : Reuss Voigt Hill
#
# Bulk Modulus (GPa) = 31.13707 34.15568 32.64638
# Shear Modulus (GPa) = 16.99079 23.53478 20.26278
#
# Velocity S-wave (km/s) = 2.85633 3.36168 3.11926
# Velocity P-wave (km/s) = 5.08228 5.60970 5.35249
#
# Compressibility (1/GPa) = 0.03211606
#
# Stress axis : x y z
#
# Youngs Moduli (GPa) = 54.35335 73.71751 114.70156
#
# Poissons Ratio (x) = 0.10626 0.37903
# Poissons Ratio (y) = 0.07835 -0.05313
# Poissons Ratio (z) = 0.17961 -0.03415
#
# Static dielectric constant tensor:
#      x y z
#    x 3.858330 0.000000 0.000000 
#    y 0.000000 3.806020 0.000000 
#    z 0.000000 0.000000 4.539000 
# 
# 
# High freq. dielectric constant tensor:
#      x y z
#    x 1.755970 0.000000 0.000000 
#    y 0.000000 1.828140 0.000000 
#    z 0.000000 0.000000 1.841630 
# 
# From -- ./inp_files/23818.got.cif
#   From: 2010.03.12/outbox.cif.g09.slc.cpg/sg55_12_cif.got.tgz:23818.got - 2010.04.16 15:19:21.
