data_PCOD8227146
_publ_section_title
;
Structure prediction by ZEFSAII (Michael W. Deem and Ramdas Pophale) SiO2 
 PCOD8227146
Probable space group: P B A M
;
_chemical_formula_sum "Si O2"
_cell_formula_units_Z 48
_cell_length_a 16.304040
_cell_length_b 9.553173
_cell_length_c 15.086174
_cell_angle_alpha 90.000000
_cell_angle_beta 90.000000
_cell_angle_gamma 90.000000
_cell_volume 2349.751779
_symmetry_space_group_name_H-M "P B A M"
_symmetry_group_IT_number 55
_symmetry_cell_setting 'orthorhombic'
loop_
_space_group_symop_operation_xyz
x,y,z
-x,-y,z
1/2+x,1/2-y,-z
1/2-x,1/2+y,-z
-x,-y,-z
x,y,-z
1/2-x,1/2+y,z
1/2+x,1/2-y,z
loop_
_atom_site_type_symbol
_atom_site_label
_atom_site_fract_x
_atom_site_fract_y
_atom_site_fract_z
Si Si1 0.704487 0.223816 0.000000
Si Si2 0.187033 0.240445 0.192185
Si Si3 0.349194 0.059496 0.193386
Si Si4 0.061605 0.113194 0.328866
Si Si5 0.844240 0.424199 0.000000
Si Si6 0.819507 0.294484 0.500000
Si Si7 0.949398 0.370702 0.358333
Si Si8 0.340906 0.525720 0.500000
O O1 0.658220 0.275914 0.910770
O O2 0.796542 0.279303 0.000000
O O3 0.717768 0.056728 0.000000
O O4 0.277299 0.174494 0.204097
O O5 0.187572 0.405742 0.216736
O O6 0.124708 0.157323 0.253487
O O7 0.391485 0.065453 0.094423
O O8 0.423553 0.097387 0.257667
O O9 0.105626 0.043395 0.412331
O O10 0.010234 0.242017 0.365340
O O11 0.000000 0.000000 0.286161
O O12 0.867418 0.343773 0.413193
O O13 0.730591 0.361412 0.500000
O O14 0.803731 0.129270 0.500000
O O15 0.000000 0.500000 0.398515
#
# Coordination Sequence:
#
# PCOD8227146 Si02
#       8
#     4   8   8   8   4   4   8   4
#     4   8  16  34  58  86 120 159 205 253 299 349
#     4  10  21  38  63  91 123 163 209 255 300 359
#     4  10  21  38  62  93 123 163 211 251 301 359
#     4  12  25  44  65  88 127 164 199 250 310 366
#     4   8  16  34  58  85 122 161 203 254 295 349
#     4  12  28  46  68  93 121 159 205 253 301 366
#     4  12  25  43  64  93 127 160 202 250 308 366
#     4  12  28  47  68  93 119 160 207 249 305 366
#
# _framework density 20.427689999999998
#
# number of rings (size 3 to 8) (size 9 to 14) (size 15 to 20)
#    0.000    1.333    3.333    2.000    4.667    2.667 
#    0.000    1.667    0.000    0.000    0.000    0.000 
#    0.000    0.000    0.000    0.000    0.000    0.000 
#
# Total GULP energy -594996.360039 kJ/mol
# GULP energy per Si atom -12395.757501 kJ/mol
# Density = 2.038120 g / cm^3
# Si number density = 20.427690 Si / 1000 Ang^3
#
#
#
# Elastic Constant Matrix: (Units=GPa)
#
#
# Indices 1 2 3 4 5 6 
#
# 1 65.5044 25.9223 24.1420 0.0000 0.0000 0.0000
# 2 25.9223 116.3310 20.6996 0.0000 0.0000 0.0000
# 3 24.1420 20.6996 105.7755 0.0000 0.0000 0.0000
# 4 0.0000 0.0000 0.0000 28.8460 0.0000 0.0000
# 5 0.0000 0.0000 0.0000 0.0000 1.6796 0.0000
# 6 0.0000 0.0000 0.0000 0.0000 0.0000 34.4130
#
#
#
# Elastic Compliance Matrix: (Units=1/GPa)
#
#
# Indices 1 2 3 4 5 6 
#
# 1 0.017860 -0.003372 -0.003416 0.000000 0.000000 0.000000
# 2 -0.003372 0.009543 -0.001098 0.000000 0.000000 0.000000
# 3 -0.003416 -0.001098 0.010449 0.000000 0.000000 0.000000
# 4 0.000000 0.000000 0.000000 0.034667 0.000000 0.000000
# 5 0.000000 0.000000 0.000000 0.000000 0.595382 0.000000
# 6 0.000000 0.000000 0.000000 0.000000 0.000000 0.029059
#
#
# Mechanical properties :
#
#
# Convention : Reuss Voigt Hill
#
# Bulk Modulus (GPa) = 45.29218 47.68207 46.48712
# Shear Modulus (GPa) = 6.94357 27.44418 17.19387
#
# Velocity S-wave (km/s) = 1.84566 3.66933 2.90434
# Velocity P-wave (km/s) = 5.17321 6.42997 5.83552
#
# Compressibility (1/GPa) = 0.02207887
#
# Stress axis : x y z
#
# Youngs Moduli (GPa) = 55.99222 104.79030 95.70668
#
# Poissons Ratio (x) = 0.35333 0.32697
# Poissons Ratio (y) = 0.18879 0.10508
# Poissons Ratio (z) = 0.19129 0.11505
#
# Static dielectric constant tensor:
#      x y z
#    x 2.953190 0.000000 0.000000 
#    y 0.000000 3.955020 0.000000 
#    z 0.000000 0.000000 4.170300 
# 
# 
# High freq. dielectric constant tensor:
#      x y z
#    x 1.771200 0.000000 0.000000 
#    y 0.000000 1.817150 0.000000 
#    z 0.000000 0.000000 1.816950 
# 
# From -- ./inp_files/17422.got.cif
#   From: 2010.03.12/outbox.cif.g09.slc.cpg/sg55_9_cif.got.tgz:17422.got - 2010.04.16 15:19:21.
