data_PCOD8227556
_publ_section_title
;
Structure prediction by ZEFSAII (Michael W. Deem and Ramdas Pophale) SiO2 
 PCOD8227556
Probable space group: P B A M
;
_chemical_formula_sum "Si O2"
_cell_formula_units_Z 32
_cell_length_a 9.675789
_cell_length_b 21.078835
_cell_length_c 8.092544
_cell_angle_alpha 90.000000
_cell_angle_beta 90.000000
_cell_angle_gamma 90.000000
_cell_volume 1650.509631
_symmetry_space_group_name_H-M "P B A M"
_symmetry_group_IT_number 55
_symmetry_cell_setting 'orthorhombic'
loop_
_space_group_symop_operation_xyz
x,y,z
-x,-y,z
1/2+x,1/2-y,-z
1/2-x,1/2+y,-z
-x,-y,-z
x,y,-z
1/2-x,1/2+y,z
1/2+x,1/2-y,z
loop_
_atom_site_type_symbol
_atom_site_label
_atom_site_fract_x
_atom_site_fract_y
_atom_site_fract_z
Si Si1 0.709311 0.459877 0.500000
Si Si2 0.902524 0.440260 0.190661
Si Si3 0.016031 0.304555 0.816415
Si Si4 0.195727 0.791762 0.677712
Si Si5 0.090409 0.903702 0.500000
O O1 0.783820 0.441651 0.328644
O O2 0.686321 0.534849 0.500000
O O3 0.569137 0.420735 0.500000
O O4 0.000000 0.500000 0.218521
O O5 0.992506 0.377893 0.228406
O O6 0.844599 0.439750 0.000000
O O7 0.179473 0.289852 0.806719
O O8 0.923521 0.259211 0.705999
O O9 0.967295 0.289662 0.000000
O O10 0.263564 0.775008 0.500000
O O11 0.125161 0.861853 0.664474
#
# Coordination Sequence:
#
# PCOD8227556 Si02
#       5
#     4   8   8   8   4
#     4  11  21  41  67  90 122 168 210 257 314 386
#     4  10  23  39  63  95 126 162 213 266 312 375
#     4  11  23  39  61  92 125 163 207 257 319 370
#     4  10  23  39  61  87 123 163 205 257 304 377
#     4   9  24  39  61  92 120 161 212 252 320 375
#
# _framework density 19.38795
#
# number of rings (size 3 to 8) (size 9 to 14) (size 15 to 20)
#    0.750    1.000    0.000    3.375    7.000    0.000 
#    0.000    5.000    0.000    0.000    0.000    0.000 
#    0.000    0.000    0.000    0.000    0.000    0.000 
#
# Total GULP energy -396564.235059 kJ/mol
# GULP energy per Si atom -12392.632346 kJ/mol
# Density = 1.934382 g / cm^3
# Si number density = 19.387950 Si / 1000 Ang^3
#
#
#
# Elastic Constant Matrix: (Units=GPa)
#
#
# Indices 1 2 3 4 5 6 
#
# 1 109.0289 54.2483 37.6966 0.0000 0.0000 0.0000
# 2 54.2483 123.4610 28.9475 0.0000 0.0000 0.0000
# 3 37.6966 28.9475 84.1278 0.0000 0.0000 0.0000
# 4 0.0000 0.0000 0.0000 29.4833 0.0000 0.0000
# 5 0.0000 0.0000 0.0000 0.0000 33.8404 0.0000
# 6 0.0000 0.0000 0.0000 0.0000 0.0000 33.2624
#
#
#
# Elastic Compliance Matrix: (Units=1/GPa)
#
#
# Indices 1 2 3 4 5 6 
#
# 1 0.012966 -0.004715 -0.004187 0.000000 0.000000 0.000000
# 2 -0.004715 0.010525 -0.001509 0.000000 0.000000 0.000000
# 3 -0.004187 -0.001509 0.014282 0.000000 0.000000 0.000000
# 4 0.000000 0.000000 0.000000 0.033918 0.000000 0.000000
# 5 0.000000 0.000000 0.000000 0.000000 0.029551 0.000000
# 6 0.000000 0.000000 0.000000 0.000000 0.000000 0.030064
#
#
# Mechanical properties :
#
#
# Convention : Reuss Voigt Hill
#
# Bulk Modulus (GPa) = 58.99559 62.04472 60.52015
# Shear Modulus (GPa) = 31.69004 32.36557 32.02780
#
# Velocity S-wave (km/s) = 4.04731 4.09022 4.06882
# Velocity P-wave (km/s) = 7.23436 7.37412 7.30458
#
# Compressibility (1/GPa) = 0.01695042
#
# Stress axis : x y z
#
# Youngs Moduli (GPa) = 77.12606 95.00847 70.01760
#
# Poissons Ratio (x) = 0.44800 0.29319
# Poissons Ratio (y) = 0.36367 0.10564
# Poissons Ratio (z) = 0.32295 0.14335
#
# Static dielectric constant tensor:
#      x y z
#    x 3.275700 0.000000 0.000000 
#    y 0.000000 3.659830 0.000000 
#    z 0.000000 0.000000 3.523130 
# 
# 
# High freq. dielectric constant tensor:
#      x y z
#    x 1.748400 0.000000 0.000000 
#    y 0.000000 1.770460 0.000000 
#    z 0.000000 0.000000 1.754320 
# 
# From -- ./inp_files/2254.got.cif
#   From: 2010.03.12/outbox.cif.g09.slc.cpg/sg55_2_cif.got.tgz:2254.got - 2010.04.16 15:19:21.
