data_PCOD8227481
_publ_section_title
;
Structure prediction by ZEFSAII (Michael W. Deem and Ramdas Pophale) SiO2 
 PCOD8227481
Probable space group: P B A M
;
_chemical_formula_sum "Si O2"
_cell_formula_units_Z 56
_cell_length_a 14.989126
_cell_length_b 12.172513
_cell_length_c 13.991516
_cell_angle_alpha 90.000000
_cell_angle_beta 90.000000
_cell_angle_gamma 90.000000
_cell_volume 2552.826684
_symmetry_space_group_name_H-M "P B A M"
_symmetry_group_IT_number 55
_symmetry_cell_setting 'orthorhombic'
loop_
_space_group_symop_operation_xyz
x,y,z
-x,-y,z
1/2+x,1/2-y,-z
1/2-x,1/2+y,-z
-x,-y,-z
x,y,-z
1/2-x,1/2+y,z
1/2+x,1/2-y,z
loop_
_atom_site_type_symbol
_atom_site_label
_atom_site_fract_x
_atom_site_fract_y
_atom_site_fract_z
Si Si1 0.439113 0.601932 0.891491
Si Si2 0.973253 0.348661 0.387619
Si Si3 0.496443 0.843781 0.111402
Si Si4 0.886620 0.480976 0.225860
Si Si5 0.311950 0.552350 0.269029
Si Si6 0.164499 0.262311 0.392864
Si Si7 0.645791 0.638739 0.607232
O O1 0.500000 0.500000 0.863686
O O2 0.491470 0.714229 0.870736
O O3 0.350968 0.595545 0.829521
O O4 0.406773 0.595729 0.000000
O O5 0.967607 0.379355 0.500000
O O6 0.934893 0.451266 0.327288
O O7 0.911324 0.244228 0.362394
O O8 0.074919 0.321575 0.353265
O O9 0.593612 0.882575 0.149516
O O10 0.425024 0.907672 0.177972
O O11 0.482490 0.873430 0.000000
O O12 0.783313 0.498637 0.243595
O O13 0.304370 0.654978 0.338070
O O14 0.374174 0.460178 0.319295
O O15 0.142835 0.224066 0.500000
O O16 0.247634 0.344283 0.389081
O O17 0.617909 0.603662 0.500000
#
# Coordination Sequence:
#
# PCOD8227481 Si02
#       7
#     8   8   8   8   8   8   8
#     4  10  25  48  70  94 127 168 216 273 333 395
#     4  10  22  41  65  93 133 179 221 266 320 386
#     4  10  24  47  69  93 129 166 211 272 335 400
#     4  11  23  38  69  98 133 165 219 262 333 390
#     4  12  25  36  68  96 129 169 219 271 326 388
#     4  10  22  41  63  92 132 177 221 267 322 380
#     4  10  23  41  60  94 136 175 218 265 318 384
#
# _framework density 21.936467
#
# number of rings (size 3 to 8) (size 9 to 14) (size 15 to 20)
#    0.000    1.571    1.429    2.143   10.000    1.714 
#    0.000    3.571    0.000    0.000    0.000    0.000 
#    0.000    0.000    0.000    0.000    0.000    0.000 
#
# Total GULP energy -694276.311613 kJ/mol
# GULP energy per Si atom -12397.791279 kJ/mol
# Density = 2.188654 g / cm^3
# Si number density = 21.936467 Si / 1000 Ang^3
#
#
#
# Elastic Constant Matrix: (Units=GPa)
#
#
# Indices 1 2 3 4 5 6 
#
# 1 51.4313 -5.6668 8.0467 0.0000 0.0000 0.0000
# 2 -5.6668 101.6768 33.7436 0.0000 0.0000 0.0000
# 3 8.0467 33.7436 111.6699 0.0000 0.0000 0.0000
# 4 0.0000 0.0000 0.0000 37.7945 0.0000 0.0000
# 5 0.0000 0.0000 0.0000 0.0000 13.0929 0.0000
# 6 0.0000 0.0000 0.0000 0.0000 0.0000 17.3785
#
#
#
# Elastic Compliance Matrix: (Units=1/GPa)
#
#
# Indices 1 2 3 4 5 6 
#
# 1 0.019946 0.001766 -0.001971 0.000000 0.000000 0.000000
# 2 0.001766 0.011088 -0.003478 0.000000 0.000000 0.000000
# 3 -0.001971 -0.003478 0.010148 0.000000 0.000000 0.000000
# 4 0.000000 0.000000 0.000000 0.026459 0.000000 0.000000
# 5 0.000000 0.000000 0.000000 0.000000 0.076377 0.000000
# 6 0.000000 0.000000 0.000000 0.000000 0.000000 0.057542
#
#
# Mechanical properties :
#
#
# Convention : Reuss Voigt Hill
#
# Bulk Modulus (GPa) = 29.57152 37.44721 33.50937
# Shear Modulus (GPa) = 22.70684 28.89680 25.80182
#
# Velocity S-wave (km/s) = 3.22082 3.63339 3.43331
# Velocity P-wave (km/s) = 5.22889 5.89151 5.57006
#
# Compressibility (1/GPa) = 0.03381632
#
# Stress axis : x y z
#
# Youngs Moduli (GPa) = 50.13454 90.19073 98.54335
#
# Poissons Ratio (x) = -0.15925 0.19421
# Poissons Ratio (y) = -0.08852 0.34269
# Poissons Ratio (z) = 0.09881 0.31365
#
# Static dielectric constant tensor:
#      x y z
#    x 3.850690 0.000000 0.000000 
#    y 0.000000 4.084690 0.000000 
#    z 0.000000 0.000000 4.189090 
# 
# 
# High freq. dielectric constant tensor:
#      x y z
#    x 1.848070 0.000000 0.000000 
#    y 0.000000 1.872700 0.000000 
#    z 0.000000 0.000000 1.877970 
# 
# From -- ./inp_files/18934.got.cif
#   From: 2010.03.12/outbox.cif.g09.slc.cpg/sg55_10_cif.got.tgz:18934.got - 2010.04.16 15:19:21.
