data_PCOD8227865
_publ_section_title
;
Structure prediction by ZEFSAII (Michael W. Deem and Ramdas Pophale) SiO2 
 PCOD8227865
Probable space group: P C C N
;
_chemical_formula_sum "Si O2"
_cell_formula_units_Z 28
_cell_length_a 9.876962
_cell_length_b 8.939736
_cell_length_c 12.101273
_cell_angle_alpha 90.000000
_cell_angle_beta 90.000000
_cell_angle_gamma 90.000000
_cell_volume 1068.511339
_symmetry_space_group_name_H-M "P C C N"
_symmetry_group_IT_number 56
_symmetry_cell_setting 'orthorhombic'
loop_
_space_group_symop_operation_xyz
x,y,z
1/2-x,1/2-y,z
1/2+x,-y,1/2-z
-x,1/2+y,1/2-z
-x,-y,-z
1/2+x,1/2+y,-z
1/2-x,y,1/2+z
x,1/2-y,1/2+z
loop_
_atom_site_type_symbol
_atom_site_label
_atom_site_fract_x
_atom_site_fract_y
_atom_site_fract_z
Si Si1 0.568157 0.044424 0.309460
Si Si2 0.250000 0.750000 0.834852
Si Si3 0.023910 0.170865 0.386192
Si Si4 0.229101 0.521854 0.005757
O O1 0.634064 0.179870 0.239701
O O2 0.455662 0.148242 0.371949
O O3 0.672518 0.969970 0.395836
O O4 0.510711 0.917038 0.230895
O O5 0.310381 0.614459 0.911085
O O6 0.886041 0.137891 0.451864
O O7 0.155288 0.122543 0.455163
#
# Coordination Sequence:
#
# PCOD8227865 Si02
#       4
#     8   4   8   8
#     4  11  20  38  66  95 130 166 221 264 323 386
#     4  10  16  32  68  84 120 170 204 260 310 372
#     4  10  21  36  68  93 125 174 219 259 334 380
#     4  10  19  37  64  93 128 166 221 264 316 392
#
# _framework density 26.204682999999999
#
# number of rings (size 3 to 8) (size 9 to 14) (size 15 to 20)
#    0.000    1.714    5.714    0.000    0.000    0.000 
#    0.000    2.857    6.286    0.000    0.000    0.000 
#    0.000    0.000    0.000    0.000    0.000    0.000 
#
# Total GULP energy -347138.651063 kJ/mol
# GULP energy per Si atom -12397.808967 kJ/mol
# Density = 2.614504 g / cm^3
# Si number density = 26.204683 Si / 1000 Ang^3
#
#
#
# Elastic Constant Matrix: (Units=GPa)
#
#
# Indices 1 2 3 4 5 6 
#
# 1 32.6629 22.8922 26.3662 0.0000 0.0000 0.0000
# 2 22.8922 105.5818 31.1424 0.0000 0.0000 0.0000
# 3 26.3662 31.1424 122.0871 0.0000 0.0000 0.0000
# 4 0.0000 0.0000 0.0000 26.9519 0.0000 0.0000
# 5 0.0000 0.0000 0.0000 0.0000 17.5865 0.0000
# 6 0.0000 0.0000 0.0000 0.0000 0.0000 32.8980
#
#
#
# Elastic Compliance Matrix: (Units=1/GPa)
#
#
# Indices 1 2 3 4 5 6 
#
# 1 0.041166 -0.006816 -0.007152 0.000000 0.000000 0.000000
# 2 -0.006816 0.011371 -0.001428 0.000000 0.000000 0.000000
# 3 -0.007152 -0.001428 0.010100 0.000000 0.000000 0.000000
# 4 0.000000 0.000000 0.000000 0.037103 0.000000 0.000000
# 5 0.000000 0.000000 0.000000 0.000000 0.056862 0.000000
# 6 0.000000 0.000000 0.000000 0.000000 0.000000 0.030397
#
#
# Mechanical properties :
#
#
# Convention : Reuss Voigt Hill
#
# Bulk Modulus (GPa) = 31.40324 46.79261 39.09792
# Shear Modulus (GPa) = 21.89093 27.48266 24.68679
#
# Velocity S-wave (km/s) = 2.89343 3.24198 3.07265
# Velocity P-wave (km/s) = 4.81378 5.64883 5.24794
#
# Compressibility (1/GPa) = 0.03184385
#
# Stress axis : x y z
#
# Youngs Moduli (GPa) = 24.29193 87.94664 99.01267
#
# Poissons Ratio (x) = 0.59946 0.70810
# Poissons Ratio (y) = 0.16558 0.14143
# Poissons Ratio (z) = 0.17373 0.12562
#
# Static dielectric constant tensor:
#      x y z
#    x 4.232900 0.000000 0.000000 
#    y 0.000000 4.586790 0.000000 
#    z 0.000000 0.000000 5.257170 
# 
# 
# High freq. dielectric constant tensor:
#      x y z
#    x 2.024440 0.000000 0.000000 
#    y 0.000000 2.049110 0.000000 
#    z 0.000000 0.000000 2.071970 
# 
# From -- ./inp_files/5893.got.cif
#   From: 2010.03.12/outbox.cif.g09.slc.cpg/sg56_3_cif.got.tgz:5893.got - 2010.04.16 15:33:40.
