data_PCOD8227639
_publ_section_title
;
Structure prediction by ZEFSAII (Michael W. Deem and Ramdas Pophale) SiO2 
 PCOD8227639
Probable space group: P B A M
;
_chemical_formula_sum "Si O2"
_cell_formula_units_Z 64
_cell_length_a 18.922718
_cell_length_b 15.041829
_cell_length_c 13.500583
_cell_angle_alpha 90.000000
_cell_angle_beta 90.000000
_cell_angle_gamma 90.000000
_cell_volume 3842.701834
_symmetry_space_group_name_H-M "P B A M"
_symmetry_group_IT_number 55
_symmetry_cell_setting 'orthorhombic'
loop_
_space_group_symop_operation_xyz
x,y,z
-x,-y,z
1/2+x,1/2-y,-z
1/2-x,1/2+y,-z
-x,-y,-z
x,y,-z
1/2-x,1/2+y,z
1/2+x,1/2-y,z
loop_
_atom_site_type_symbol
_atom_site_label
_atom_site_fract_x
_atom_site_fract_y
_atom_site_fract_z
Si Si1 0.891449 0.552095 0.388970
Si Si2 0.421535 0.730105 0.883951
Si Si3 0.425562 0.531388 0.116730
Si Si4 0.074213 0.533686 0.114010
Si Si5 0.826471 0.128621 0.117692
Si Si6 0.927157 0.278302 0.805096
Si Si7 0.043116 0.636236 0.388885
Si Si8 0.830507 0.615412 0.804870
O O1 0.860521 0.561957 0.500000
O O2 0.908437 0.449450 0.365462
O O3 0.834080 0.587909 0.310667
O O4 0.961716 0.610032 0.377602
O O5 0.406146 0.630017 0.846168
O O6 0.503026 0.753148 0.865597
O O7 0.370296 0.791788 0.820508
O O8 0.405192 0.742644 0.000000
O O9 0.500000 0.500000 0.164586
O O10 0.363953 0.463698 0.146740
O O11 0.435585 0.535365 0.000000
O O12 0.099340 0.624307 0.163916
O O13 0.133596 0.459527 0.127525
O O14 0.000000 0.500000 0.162283
O O15 0.061607 0.553572 0.000000
O O16 0.866379 0.208898 0.170721
O O17 0.749191 0.125834 0.162073
O O18 0.825447 0.144202 0.000000
O O19 0.940303 0.283231 0.686657
O O20 0.058355 0.670630 0.500000
#
# Coordination Sequence:
#
# PCOD8227639 Si02
#       8
#     8   8   8   8   8   8   8   8
#     4   9  17  33  56  81 109 141 177 222 275 333
#     4  11  20  32  54  78 107 144 189 226 261 326
#     4   9  18  35  55  72  96 145 198 227 248 297
#     4  11  20  30  50  79 112 142 172 212 273 343
#     4  11  24  38  52  77 115 150 188 230 267 319
#     4  12  20  33  55  83 108 143 183 226 273 324
#     4   9  17  32  56  85 108 133 178 230 272 326
#     4  12  22  35  51  82 115 144 174 220 288 332
#
# _framework density 16.654948000000001
#
# number of rings (size 3 to 8) (size 9 to 14) (size 15 to 20)
#    0.000    1.500    5.000    3.000    0.000    1.000 
#    0.000    3.125    0.000    0.000    0.000    3.500 
#    0.000    0.000    0.000    0.000    0.000    0.000 
#
# Total GULP energy -793625.524490 kJ/mol
# GULP energy per Si atom -12400.398820 kJ/mol
# Density = 1.661704 g / cm^3
# Si number density = 16.654948 Si / 1000 Ang^3
#
#
#
# Elastic Constant Matrix: (Units=GPa)
#
#
# Indices 1 2 3 4 5 6 
#
# 1 92.9191 38.1959 20.6156 0.0000 0.0000 0.0000
# 2 38.1959 107.0036 30.2223 0.0000 0.0000 0.0000
# 3 20.6156 30.2223 87.4211 0.0000 0.0000 0.0000
# 4 0.0000 0.0000 0.0000 18.5088 0.0000 0.0000
# 5 0.0000 0.0000 0.0000 0.0000 20.8139 0.0000
# 6 0.0000 0.0000 0.0000 0.0000 0.0000 24.3008
#
#
#
# Elastic Compliance Matrix: (Units=1/GPa)
#
#
# Indices 1 2 3 4 5 6 
#
# 1 0.012811 -0.004122 -0.001596 0.000000 0.000000 0.000000
# 2 -0.004122 0.011683 -0.003067 0.000000 0.000000 0.000000
# 3 -0.001596 -0.003067 0.012875 0.000000 0.000000 0.000000
# 4 0.000000 0.000000 0.000000 0.054028 0.000000 0.000000
# 5 0.000000 0.000000 0.000000 0.000000 0.048045 0.000000
# 6 0.000000 0.000000 0.000000 0.000000 0.000000 0.041151
#
#
# Mechanical properties :
#
#
# Convention : Reuss Voigt Hill
#
# Bulk Modulus (GPa) = 50.50671 51.71236 51.10954
# Shear Modulus (GPa) = 24.41847 25.94536 25.18192
#
# Velocity S-wave (km/s) = 3.83317 3.95120 3.89263
# Velocity P-wave (km/s) = 7.06980 7.20643 7.13844
#
# Compressibility (1/GPa) = 0.01979935
#
# Stress axis : x y z
#
# Youngs Moduli (GPa) = 78.06047 85.59366 77.66698
#
# Poissons Ratio (x) = 0.35282 0.12395
# Poissons Ratio (y) = 0.32177 0.23820
# Poissons Ratio (z) = 0.12458 0.26251
#
# Static dielectric constant tensor:
#      x y z
#    x 3.142940 0.000000 0.000000 
#    y 0.000000 3.232080 0.000000 
#    z 0.000000 0.000000 3.178660 
# 
# 
# High freq. dielectric constant tensor:
#      x y z
#    x 1.619330 0.000000 0.000000 
#    y 0.000000 1.642310 0.000000 
#    z 0.000000 0.000000 1.631180 
# 
# From -- ./inp_files/19118.got.cif
#   From: 2010.03.12/outbox.cif.g09.slc.cpg/sg55_10_cif.got.tgz:19118.got - 2010.04.16 15:19:21.
