data_PCOD8227342
_publ_section_title
;
Structure prediction by ZEFSAII (Michael W. Deem and Ramdas Pophale) SiO2 
 PCOD8227342
Probable space group: P B A M
;
_chemical_formula_sum "Si O2"
_cell_formula_units_Z 48
_cell_length_a 7.842970
_cell_length_b 38.281927
_cell_length_c 7.627260
_cell_angle_alpha 90.000000
_cell_angle_beta 90.000000
_cell_angle_gamma 90.000000
_cell_volume 2290.039090
_symmetry_space_group_name_H-M "P B A M"
_symmetry_group_IT_number 55
_symmetry_cell_setting 'orthorhombic'
loop_
_space_group_symop_operation_xyz
x,y,z
-x,-y,z
1/2+x,1/2-y,-z
1/2-x,1/2+y,-z
-x,-y,-z
x,y,-z
1/2-x,1/2+y,z
1/2+x,1/2-y,z
loop_
_atom_site_type_symbol
_atom_site_label
_atom_site_fract_x
_atom_site_fract_y
_atom_site_fract_z
Si Si1 0.499999 0.039427 0.790513
Si Si2 0.797488 0.660728 0.802763
Si Si3 0.311317 0.584951 0.792028
Si Si4 0.299853 0.210044 0.500000
Si Si5 0.297482 0.160728 0.802763
Si Si6 0.688687 0.584951 0.792028
Si Si7 0.200139 0.289956 0.500000
O O1 0.331183 0.058685 0.715541
O O2 0.668814 0.058685 0.715542
O O3 0.500000 0.000000 0.718884
O O4 0.499998 0.040082 0.000000
O O5 0.724233 0.624341 0.729189
O O6 0.728432 0.691292 0.675209
O O7 0.000003 0.657868 0.801642
O O8 0.731568 0.668730 0.000000
O O9 0.275773 0.624341 0.729189
O O10 0.500002 0.573386 0.727176
O O11 0.300306 0.584138 0.000000
O O12 0.228425 0.191292 0.675209
O O13 0.249996 0.250000 0.500000
O O14 0.499996 0.206070 0.500000
O O15 0.231562 0.168730 0.000000
O O16 0.699696 0.584138 0.000000
#
# Coordination Sequence:
#
# PCOD8227342 Si02
#       7
#     8   8   8   4   8   8   4
#     4   9  16  26  42  69 109 147 178 227 281 318
#     4   9  17  33  54  73 101 141 180 222 269 319
#     4   9  16  27  46  72 100 137 186 226 264 323
#     4  10  22  36  52  78 108 137 174 219 271 331
#     4   9  17  33  54  73 101 141 180 222 269 319
#     4   9  16  27  46  72 100 137 186 226 264 323
#     4  10  22  36  52  78 108 137 174 219 271 331
#
# _framework density 20.960339999999999
#
# number of rings (size 3 to 8) (size 9 to 14) (size 15 to 20)
#    0.000    2.833    1.667    0.000    0.000    2.667 
#    0.000    3.333    0.000    0.000    0.000    2.333 
#    0.000    2.667    0.000    0.333    0.000    0.000 
#
# Total GULP energy -594982.655352 kJ/mol
# GULP energy per Si atom -12395.471987 kJ/mol
# Density = 2.091263 g / cm^3
# Si number density = 20.960340 Si / 1000 Ang^3
#
#
#
# Elastic Constant Matrix: (Units=GPa)
#
#
# Indices 1 2 3 4 5 6 
#
# 1 106.1962 76.0685 22.5500 0.0000 0.0000 0.0000
# 2 76.0685 199.3252 57.1068 0.0000 0.0000 0.0000
# 3 22.5500 57.1068 76.0483 0.0000 0.0000 0.0000
# 4 0.0000 0.0000 0.0000 1.8643 0.0000 0.0000
# 5 0.0000 0.0000 0.0000 0.0000 1.8902 0.0000
# 6 0.0000 0.0000 0.0000 0.0000 0.0000 29.0906
#
#
#
# Elastic Compliance Matrix: (Units=1/GPa)
#
#
# Indices 1 2 3 4 5 6 
#
# 1 0.012961 -0.004899 -0.000164 0.000000 0.000000 0.000000
# 2 -0.004899 0.008244 -0.004738 0.000000 0.000000 0.000000
# 3 -0.000164 -0.004738 0.016756 0.000000 0.000000 0.000000
# 4 0.000000 0.000000 0.000000 0.536390 0.000000 0.000000
# 5 0.000000 0.000000 0.000000 0.000000 0.529058 0.000000
# 6 0.000000 0.000000 0.000000 0.000000 0.000000 0.034375
#
#
# Mechanical properties :
#
#
# Convention : Reuss Voigt Hill
#
# Bulk Modulus (GPa) = 54.47177 77.00225 65.73701
# Shear Modulus (GPa) = 4.29736 21.62531 12.96133
#
# Velocity S-wave (km/s) = 1.43342 3.21553 2.48941
# Velocity P-wave (km/s) = 5.36507 7.11358 6.30028
#
# Compressibility (1/GPa) = 0.01835813
#
# Stress axis : x y z
#
# Youngs Moduli (GPa) = 77.15661 121.30021 59.67981
#
# Poissons Ratio (x) = 0.59426 0.00980
# Poissons Ratio (y) = 0.37800 0.28276
# Poissons Ratio (z) = 0.01267 0.57471
#
# Static dielectric constant tensor:
#      x y z
#    x 3.891830 0.000000 0.000000 
#    y 0.000000 3.560150 0.000000 
#    z 0.000000 0.000000 3.634210 
# 
# 
# High freq. dielectric constant tensor:
#      x y z
#    x 1.818700 0.000000 0.000000 
#    y 0.000000 1.810280 0.000000 
#    z 0.000000 0.000000 1.794520 
# 
# From -- ./inp_files/2921.got.cif
#   From: 2010.03.12/outbox.cif.g09.slc.cpg/sg55_2_cif.got.tgz:2921.got - 2010.04.16 15:19:21.
