data_PCOD8227078
_publ_section_title
;
Structure prediction by ZEFSAII (Michael W. Deem and Ramdas Pophale) SiO2 
 PCOD8227078
Probable space group: P B A M
;
_chemical_formula_sum "Si O2"
_cell_formula_units_Z 48
_cell_length_a 17.772520
_cell_length_b 15.185990
_cell_length_c 8.862378
_cell_angle_alpha 90.000000
_cell_angle_beta 90.000000
_cell_angle_gamma 90.000000
_cell_volume 2391.896542
_symmetry_space_group_name_H-M "P B A M"
_symmetry_group_IT_number 55
_symmetry_cell_setting 'orthorhombic'
loop_
_space_group_symop_operation_xyz
x,y,z
-x,-y,z
1/2+x,1/2-y,-z
1/2-x,1/2+y,-z
-x,-y,-z
x,y,-z
1/2-x,1/2+y,z
1/2+x,1/2-y,z
loop_
_atom_site_type_symbol
_atom_site_label
_atom_site_fract_x
_atom_site_fract_y
_atom_site_fract_z
Si Si1 0.036296 0.405388 0.827738
Si Si2 0.795837 0.271138 0.175160
Si Si3 0.708297 0.096291 0.825382
Si Si4 0.783892 0.933748 0.678482
Si Si5 0.953279 0.917558 0.320808
Si Si6 0.453194 0.250343 0.322553
O O1 0.122167 0.410090 0.773564
O O2 0.000000 0.500000 0.810348
O O3 0.991050 0.341637 0.718337
O O4 0.031045 0.371291 0.000000
O O5 0.734537 0.195758 0.205367
O O6 0.771166 0.360943 0.253832
O O7 0.874179 0.237627 0.240835
O O8 0.806415 0.291673 0.000000
O O9 0.757225 0.030451 0.725375
O O10 0.717996 0.069929 0.000000
O O11 0.781390 0.925488 0.500000
O O12 0.868231 0.919641 0.741901
O O13 0.951603 0.922934 0.500000
O O14 0.992499 0.828205 0.265221
O O15 0.000000 0.000000 0.254578
O O16 0.439337 0.255477 0.500000
#
# Coordination Sequence:
#
# PCOD8227078 Si02
#       6
#     8   8   8   8   8   8
#     4  10  21  38  59  82 113 152 188 230 289 346
#     4  11  23  39  58  82 118 158 195 237 287 346
#     4  10  22  39  59  85 118 157 196 236 286 345
#     4  11  22  37  61  89 117 152 194 241 291 342
#     4   9  19  36  57  84 118 151 183 228 286 340
#     4  11  22  37  60  87 114 147 192 241 287 340
#
# _framework density 20.067757
#
# number of rings (size 3 to 8) (size 9 to 14) (size 15 to 20)
#    0.000    1.667    0.000    4.500    0.000    5.000 
#    0.000    2.500    0.000    6.000    0.000    0.000 
#    0.000    0.000    0.000    0.000    0.000    0.000 
#
# Total GULP energy -595504.928663 kJ/mol
# GULP energy per Si atom -12406.352680 kJ/mol
# Density = 2.002208 g / cm^3
# Si number density = 20.067757 Si / 1000 Ang^3
#
#
#
# Elastic Constant Matrix: (Units=GPa)
#
#
# Indices 1 2 3 4 5 6 
#
# 1 121.6349 20.3253 28.2037 0.0000 0.0000 0.0000
# 2 20.3253 80.2369 27.9617 0.0000 0.0000 0.0000
# 3 28.2037 27.9617 67.2256 0.0000 0.0000 0.0000
# 4 0.0000 0.0000 0.0000 7.7944 0.0000 0.0000
# 5 0.0000 0.0000 0.0000 0.0000 27.7073 0.0000
# 6 0.0000 0.0000 0.0000 0.0000 0.0000 39.2589
#
#
#
# Elastic Compliance Matrix: (Units=1/GPa)
#
#
# Indices 1 2 3 4 5 6 
#
# 1 0.009197 -0.001152 -0.003379 0.000000 0.000000 0.000000
# 2 -0.001152 0.014720 -0.005639 0.000000 0.000000 0.000000
# 3 -0.003379 -0.005639 0.018639 0.000000 0.000000 0.000000
# 4 0.000000 0.000000 0.000000 0.128297 0.000000 0.000000
# 5 0.000000 0.000000 0.000000 0.000000 0.036092 0.000000
# 6 0.000000 0.000000 0.000000 0.000000 0.000000 0.025472
#
#
# Mechanical properties :
#
#
# Convention : Reuss Voigt Hill
#
# Bulk Modulus (GPa) = 45.01567 46.89764 45.95666
# Shear Modulus (GPa) = 19.21871 27.79258 23.50565
#
# Velocity S-wave (km/s) = 3.09802 3.72551 3.42616
# Velocity P-wave (km/s) = 5.93948 6.47505 6.21304
#
# Compressibility (1/GPa) = 0.02221449
#
# Stress axis : x y z
#
# Youngs Moduli (GPa) = 108.72576 67.93384 53.65173
#
# Poissons Ratio (x) = 0.07827 0.18131
# Poissons Ratio (y) = 0.12527 0.30256
# Poissons Ratio (z) = 0.36743 0.38310
#
# Static dielectric constant tensor:
#      x y z
#    x 3.860120 0.000000 0.000000 
#    y 0.000000 3.647780 0.000000 
#    z 0.000000 0.000000 3.492050 
# 
# 
# High freq. dielectric constant tensor:
#      x y z
#    x 1.802310 0.000000 0.000000 
#    y 0.000000 1.795630 0.000000 
#    z 0.000000 0.000000 1.768260 
# 
# From -- ./inp_files/5688.got.cif
#   From: 2010.03.12/outbox.cif.g09.slc.cpg/sg55_3_cif.got.tgz:5688.got - 2010.04.16 15:19:21.
