data_PCOD8227203
_publ_section_title
;
Structure prediction by ZEFSAII (Michael W. Deem and Ramdas Pophale) SiO2 
 PCOD8227203
Probable space group: P B A M
;
_chemical_formula_sum "Si O2"
_cell_formula_units_Z 64
_cell_length_a 24.015445
_cell_length_b 15.245914
_cell_length_c 8.516034
_cell_angle_alpha 90.000000
_cell_angle_beta 90.000000
_cell_angle_gamma 90.000000
_cell_volume 3118.038625
_symmetry_space_group_name_H-M "P B A M"
_symmetry_group_IT_number 55
_symmetry_cell_setting 'orthorhombic'
loop_
_space_group_symop_operation_xyz
x,y,z
-x,-y,z
1/2+x,1/2-y,-z
1/2-x,1/2+y,-z
-x,-y,-z
x,y,-z
1/2-x,1/2+y,z
1/2+x,1/2-y,z
loop_
_atom_site_type_symbol
_atom_site_label
_atom_site_fract_x
_atom_site_fract_y
_atom_site_fract_z
Si Si1 0.799073 0.744367 0.684334
Si Si2 0.573053 0.249855 0.685645
Si Si3 0.629215 0.850633 0.318319
Si Si4 0.720724 0.584518 0.319637
Si Si5 0.120715 0.830208 0.818571
Si Si6 0.001229 0.900791 0.814732
Si Si7 0.762170 0.410582 0.819342
Si Si8 0.007380 0.597840 0.313339
O O1 0.795051 0.765295 0.500000
O O2 0.863202 0.740060 0.740901
O O3 0.770009 0.652050 0.726424
O O4 0.768104 0.819960 0.779368
O O5 0.568712 0.249401 0.500000
O O6 0.548324 0.342113 0.744739
O O7 0.538328 0.166449 0.753960
O O8 0.637566 0.875576 0.500000
O O9 0.640563 0.748199 0.293280
O O10 0.672070 0.904974 0.213516
O O11 0.567594 0.870576 0.256652
O O12 0.703678 0.596717 0.500000
O O13 0.666419 0.595019 0.210206
O O14 0.739951 0.486021 0.292863
O O15 0.060238 0.861318 0.763386
O O16 0.120158 0.801531 0.000000
O O17 0.993484 0.902262 0.000000
O O18 0.000000 0.000000 0.747929
O O19 0.752044 0.434585 0.000000
O O20 0.003149 0.595760 0.500000
O O21 0.000000 0.500000 0.244300
#
# Coordination Sequence:
#
# PCOD8227203 Si02
#       8
#     8   8   8   8   8   8   8   8
#     4  10  23  42  64  91 124 161 206 257 306 366
#     4  10  21  39  62  91 121 154 202 252 299 357
#     4  11  21  38  65  91 120 159 208 257 308 364
#     4  11  24  42  66  92 123 162 208 256 310 367
#     4  11  22  39  63  90 123 160 206 257 309 365
#     4  10  23  41  60  86 123 165 203 244 303 368
#     4  12  26  42  63  90 126 164 206 255 311 372
#     4   9  19  35  61  92 121 156 198 247 303 358
#
# _framework density 20.525725000000001
#
# number of rings (size 3 to 8) (size 9 to 14) (size 15 to 20)
#    0.000    1.500    2.500    2.250    3.500    1.750 
#    0.000    0.000    0.000    1.875    0.000    0.000 
#    0.000    0.000    0.000    0.000    0.000    0.000 
#
# Total GULP energy -793797.726822 kJ/mol
# GULP energy per Si atom -12403.089482 kJ/mol
# Density = 2.047901 g / cm^3
# Si number density = 20.525725 Si / 1000 Ang^3
#
#
#
# Elastic Constant Matrix: (Units=GPa)
#
#
# Indices 1 2 3 4 5 6 
#
# 1 105.7071 2.9847 28.3822 0.0000 0.0000 0.0000
# 2 2.9847 82.7959 15.8037 0.0000 0.0000 0.0000
# 3 28.3822 15.8037 41.2361 0.0000 0.0000 0.0000
# 4 0.0000 0.0000 0.0000 21.0068 0.0000 0.0000
# 5 0.0000 0.0000 0.0000 0.0000 20.2970 0.0000
# 6 0.0000 0.0000 0.0000 0.0000 0.0000 31.5074
#
#
#
# Elastic Compliance Matrix: (Units=1/GPa)
#
#
# Indices 1 2 3 4 5 6 
#
# 1 0.011715 0.001205 -0.008525 0.000000 0.000000 0.000000
# 2 0.001205 0.013155 -0.005871 0.000000 0.000000 0.000000
# 3 -0.008525 -0.005871 0.032368 0.000000 0.000000 0.000000
# 4 0.000000 0.000000 0.000000 0.047604 0.000000 0.000000
# 5 0.000000 0.000000 0.000000 0.000000 0.049268 0.000000
# 6 0.000000 0.000000 0.000000 0.000000 0.000000 0.031739
#
#
# Mechanical properties :
#
#
# Convention : Reuss Voigt Hill
#
# Bulk Modulus (GPa) = 32.40845 36.00892 34.20869
# Shear Modulus (GPa) = 22.47022 26.73347 24.60185
#
# Velocity S-wave (km/s) = 3.31227 3.61285 3.46582
# Velocity P-wave (km/s) = 5.51830 5.91481 5.71999
#
# Compressibility (1/GPa) = 0.03085615
#
# Stress axis : x y z
#
# Youngs Moduli (GPa) = 85.36030 76.01627 30.89442
#
# Poissons Ratio (x) = -0.09159 0.26338
# Poissons Ratio (y) = -0.10285 0.18138
# Poissons Ratio (z) = 0.72770 0.44629
#
# Static dielectric constant tensor:
#      x y z
#    x 3.961470 0.000000 0.000000 
#    y 0.000000 3.797280 0.000000 
#    z 0.000000 0.000000 3.401740 
# 
# 
# High freq. dielectric constant tensor:
#      x y z
#    x 1.816870 0.000000 0.000000 
#    y 0.000000 1.808640 0.000000 
#    z 0.000000 0.000000 1.781640 
# 
# From -- ./inp_files/9689.got.cif
#   From: 2010.03.12/outbox.cif.g09.slc.cpg/sg55_5_cif.got.tgz:9689.got - 2010.04.16 15:19:21.
