data_PCOD8227840
_publ_section_title
;
Structure prediction by ZEFSAII (Michael W. Deem and Ramdas Pophale) SiO2 
 PCOD8227840
Probable space group: P B A M
;
_chemical_formula_sum "Si O2"
_cell_formula_units_Z 56
_cell_length_a 15.000000
_cell_length_b 21.000000
_cell_length_c 9.000000
_cell_angle_alpha 90.000000
_cell_angle_beta 90.000000
_cell_angle_gamma 90.000000
_cell_volume 2835.000000
_symmetry_space_group_name_H-M "P B A M"
_symmetry_group_IT_number 55
_symmetry_cell_setting 'orthorhombic'
loop_
_space_group_symop_operation_xyz
x,y,z
-x,-y,z
1/2+x,1/2-y,-z
1/2-x,1/2+y,-z
-x,-y,-z
x,y,-z
1/2-x,1/2+y,z
1/2+x,1/2-y,z
loop_
_atom_site_type_symbol
_atom_site_label
_atom_site_fract_x
_atom_site_fract_y
_atom_site_fract_z
Si Si1 0.852672 0.875477 0.332195
Si Si2 0.287512 0.369701 0.173013
Si Si3 0.432106 0.186522 0.327166
Si Si4 0.758596 0.496621 0.325040
Si Si5 0.567303 0.942806 0.174343
Si Si6 0.753326 0.271615 0.825954
Si Si7 0.458567 0.326333 0.666912
O O1 0.819001 0.860054 0.500000
O O2 0.822069 0.947298 0.287821
O O3 0.825986 0.818895 0.219159
O O4 0.959163 0.874470 0.325356
O O5 0.252913 0.432466 0.258107
O O6 0.232550 0.303757 0.208538
O O7 0.388763 0.354171 0.216172
O O8 0.281700 0.386320 0.000000
O O9 0.432309 0.167712 0.500000
O O10 0.469921 0.124942 0.237509
O O11 0.333220 0.202234 0.273530
O O12 0.487015 0.252389 0.297177
O O13 0.771096 0.505755 0.500000
O O14 0.842687 0.460818 0.257004
O O15 0.500000 0.000000 0.207394
O O16 0.584992 0.934764 0.000000
O O17 0.775766 0.279107 0.000000
O O18 0.417044 0.327286 0.500000
#
# Coordination Sequence:
#
# PCOD8227840 Si02
#       7
#     8   8   8   8   8   8   8
#     4  10  21  37  59  88 118 152 199 248 296 352
#     4  10  22  39  58  85 121 158 199 245 298 354
#     4  10  19  35  59  84 111 147 192 239 290 350
#     4  11  23  39  61  87 117 158 201 244 297 355
#     4  11  24  40  59  85 120 157 193 243 301 355
#     4  10  20  35  58  83 111 152 195 242 297 353
#     4   9  20  38  59  85 117 153 195 246 297 346
#
# _framework density 19.753086
#
# number of rings (size 3 to 8) (size 9 to 14) (size 15 to 20)
#    0.000    1.857    1.429    2.143    0.000    6.286 
#    0.000    5.714    0.000    0.000    0.000    0.000 
#    0.000    0.000    0.000    0.000    0.000    0.000 
#
# Total GULP energy -694031.879872 kJ/mol
# GULP energy per Si atom -12393.426426 kJ/mol
# Density = 1.970813 g / cm^3
# Si number density = 19.753086 Si / 1000 Ang^3
#
#
#
# Elastic Constant Matrix: (Units=GPa)
#
#
# Indices 1 2 3 4 5 6 
#
# 1 27.3534 15.1007 15.5623 0.0000 0.0000 0.0000
# 2 15.1007 143.0106 47.5238 0.0000 0.0000 0.0000
# 3 15.5623 47.5238 101.7868 0.0000 0.0000 0.0000
# 4 0.0000 0.0000 0.0000 42.7211 0.0000 0.0000
# 5 0.0000 0.0000 0.0000 0.0000 24.9477 0.0000
# 6 0.0000 0.0000 0.0000 0.0000 0.0000 34.2480
#
#
#
# Elastic Compliance Matrix: (Units=1/GPa)
#
#
# Indices 1 2 3 4 5 6 
#
# 1 0.040873 -0.002650 -0.005012 0.000000 0.000000 0.000000
# 2 -0.002650 0.008449 -0.003539 0.000000 0.000000 0.000000
# 3 -0.005012 -0.003539 0.012243 0.000000 0.000000 0.000000
# 4 0.000000 0.000000 0.000000 0.023408 0.000000 0.000000
# 5 0.000000 0.000000 0.000000 0.000000 0.040084 0.000000
# 6 0.000000 0.000000 0.000000 0.000000 0.000000 0.029199
#
#
# Mechanical properties :
#
#
# Convention : Reuss Voigt Hill
#
# Bulk Modulus (GPa) = 25.53505 47.61383 36.57444
# Shear Modulus (GPa) = 26.35576 33.31428 29.83502
#
# Velocity S-wave (km/s) = 3.65672 4.11120 3.89060
# Velocity P-wave (km/s) = 5.54833 6.83321 6.22402
#
# Compressibility (1/GPa) = 0.03916186
#
# Stress axis : x y z
#
# Youngs Moduli (GPa) = 24.46604 118.36407 81.67792
#
# Poissons Ratio (x) = 0.31371 0.40934
# Poissons Ratio (y) = 0.06484 0.28909
# Poissons Ratio (z) = 0.12262 0.41893
#
# Static dielectric constant tensor:
#      x y z
#    x 3.277370 0.000000 0.000000 
#    y 0.000000 4.210600 0.000000 
#    z 0.000000 0.000000 3.755900 
# 
# 
# High freq. dielectric constant tensor:
#      x y z
#    x 1.740640 0.000000 0.000000 
#    y 0.000000 1.805570 0.000000 
#    z 0.000000 0.000000 1.784500 
# 
# From -- ./inp_files/6141.got.cif
#   From: 2010.03.12/outbox.ucp.g09.slc.cvg/sg55_4_cif.got.tgz:6141.got - 2010.05.04 19:23:19.
