data_PCOD8227469
_publ_section_title
;
Structure prediction by ZEFSAII (Michael W. Deem and Ramdas Pophale) SiO2 
 PCOD8227469
Probable space group: P B A M
;
_chemical_formula_sum "Si O2"
_cell_formula_units_Z 64
_cell_length_a 23.593334
_cell_length_b 15.217767
_cell_length_c 8.812933
_cell_angle_alpha 90.000000
_cell_angle_beta 90.000000
_cell_angle_gamma 90.000000
_cell_volume 3164.176601
_symmetry_space_group_name_H-M "P B A M"
_symmetry_group_IT_number 55
_symmetry_cell_setting 'orthorhombic'
loop_
_space_group_symop_operation_xyz
x,y,z
-x,-y,z
1/2+x,1/2-y,-z
1/2-x,1/2+y,-z
-x,-y,-z
x,y,-z
1/2-x,1/2+y,z
1/2+x,1/2-y,z
loop_
_atom_site_type_symbol
_atom_site_label
_atom_site_fract_x
_atom_site_fract_y
_atom_site_fract_z
Si Si1 0.891108 0.916595 0.678078
Si Si2 0.696718 0.758553 0.175548
Si Si3 0.124501 0.594707 0.678194
Si Si4 0.603364 0.082862 0.822073
Si Si5 0.998801 0.339112 0.321193
Si Si6 0.877259 0.093743 0.821656
Si Si7 0.328869 0.743172 0.174914
Si Si8 0.498921 0.653198 0.820723
O O1 0.899485 0.918808 0.500000
O O2 0.853145 0.833643 0.721533
O O3 0.952817 0.914485 0.756510
O O4 0.860009 0.004984 0.734573
O O5 0.673616 0.838181 0.275894
O O6 0.667220 0.668137 0.226372
O O7 0.762672 0.747481 0.207067
O O8 0.683099 0.778586 0.000000
O O9 0.126577 0.577212 0.500000
O O10 0.135740 0.503851 0.765420
O O11 0.063971 0.633557 0.729542
O O12 0.543286 0.087799 0.734827
O O13 0.642503 0.165273 0.779035
O O14 0.591850 0.077008 0.000000
O O15 0.003347 0.327082 0.500000
O O16 0.016318 0.249024 0.240963
O O17 0.939094 0.124783 0.766082
O O18 0.875884 0.075070 0.000000
O O19 0.341399 0.719838 0.000000
O O20 0.494207 0.654940 0.000000
#
# Coordination Sequence:
#
# PCOD8227469 Si02
#       8
#     8   8   8   8   8   8   8   8
#     4  12  25  39  61  92 127 164 201 245 305 372
#     4  10  22  43  67  89 116 158 210 257 303 359
#     4  11  24  40  61  92 130 162 196 249 311 368
#     4  11  23  39  63  92 122 163 211 252 298 361
#     4  11  22  37  60  91 127 163 196 246 311 367
#     4  10  22  40  64  92 123 159 203 253 304 360
#     4  10  23  43  65  88 118 158 208 261 304 352
#     4  11  21  37  63  92 123 159 201 251 302 361
#
# _framework density 20.226430000000001
#
# number of rings (size 3 to 8) (size 9 to 14) (size 15 to 20)
#    0.000    1.250    2.500    3.375    0.000    8.000 
#    0.000    2.500    0.000    0.000    0.000    0.000 
#    0.000    0.000    0.000    0.000    0.000    0.000 
#
# Total GULP energy -794100.524444 kJ/mol
# GULP energy per Si atom -12407.820694 kJ/mol
# Density = 2.018039 g / cm^3
# Si number density = 20.226430 Si / 1000 Ang^3
#
#
#
# Elastic Constant Matrix: (Units=GPa)
#
#
# Indices 1 2 3 4 5 6 
#
# 1 102.7982 34.9296 34.8297 0.0000 0.0000 0.0000
# 2 34.9296 120.4348 45.4282 0.0000 0.0000 0.0000
# 3 34.8297 45.4282 80.0766 0.0000 0.0000 0.0000
# 4 0.0000 0.0000 0.0000 17.2979 0.0000 0.0000
# 5 0.0000 0.0000 0.0000 0.0000 21.6103 0.0000
# 6 0.0000 0.0000 0.0000 0.0000 0.0000 12.8570
#
#
#
# Elastic Compliance Matrix: (Units=1/GPa)
#
#
# Indices 1 2 3 4 5 6 
#
# 1 0.011735 -0.001881 -0.004037 0.000000 0.000000 0.000000
# 2 -0.001881 0.010865 -0.005346 0.000000 0.000000 0.000000
# 3 -0.004037 -0.005346 0.017277 0.000000 0.000000 0.000000
# 4 0.000000 0.000000 0.000000 0.057810 0.000000 0.000000
# 5 0.000000 0.000000 0.000000 0.000000 0.046274 0.000000
# 6 0.000000 0.000000 0.000000 0.000000 0.000000 0.077779
#
#
# Mechanical properties :
#
#
# Convention : Reuss Voigt Hill
#
# Bulk Modulus (GPa) = 57.63930 59.29828 58.46879
# Shear Modulus (GPa) = 19.99593 22.89449 21.44521
#
# Velocity S-wave (km/s) = 3.14762 3.36804 3.25969
# Velocity P-wave (km/s) = 6.46289 6.67126 6.56790
#
# Compressibility (1/GPa) = 0.01734927
#
# Stress axis : x y z
#
# Youngs Moduli (GPa) = 85.21764 92.03723 57.88091
#
# Poissons Ratio (x) = 0.17308 0.23368
# Poissons Ratio (y) = 0.16026 0.30943
# Poissons Ratio (z) = 0.34404 0.49203
#
# Static dielectric constant tensor:
#      x y z
#    x 3.659370 0.000000 0.000000 
#    y 0.000000 3.756220 0.000000 
#    z 0.000000 0.000000 3.565660 
# 
# 
# High freq. dielectric constant tensor:
#      x y z
#    x 1.787420 0.000000 0.000000 
#    y 0.000000 1.803100 0.000000 
#    z 0.000000 0.000000 1.788250 
# 
# From -- ./inp_files/9650.got.cif
#   From: 2010.03.12/outbox.cif.g09.slc.cpg/sg55_5_cif.got.tgz:9650.got - 2010.04.16 15:19:21.
