data_PCOD8227723
_publ_section_title
;
Structure prediction by ZEFSAII (Michael W. Deem and Ramdas Pophale) SiO2 
 PCOD8227723
Probable space group: P B A M
;
_chemical_formula_sum "Si O2"
_cell_formula_units_Z 48
_cell_length_a 19.437821
_cell_length_b 9.272702
_cell_length_c 13.273561
_cell_angle_alpha 90.000000
_cell_angle_beta 90.000000
_cell_angle_gamma 90.000000
_cell_volume 2392.441523
_symmetry_space_group_name_H-M "P B A M"
_symmetry_group_IT_number 55
_symmetry_cell_setting 'orthorhombic'
loop_
_space_group_symop_operation_xyz
x,y,z
-x,-y,z
1/2+x,1/2-y,-z
1/2-x,1/2+y,-z
-x,-y,-z
x,y,-z
1/2-x,1/2+y,z
1/2+x,1/2-y,z
loop_
_atom_site_type_symbol
_atom_site_label
_atom_site_fract_x
_atom_site_fract_y
_atom_site_fract_z
Si Si1 0.960475 0.147581 0.107144
Si Si2 0.805031 0.056032 0.114995
Si Si3 0.989565 0.171922 0.678039
Si Si4 0.767933 0.782048 0.759553
Si Si5 0.140467 0.667120 0.386277
Si Si6 0.380814 0.842866 0.387379
O O1 0.880574 0.119851 0.126128
O O2 0.990259 0.228455 0.205167
O O3 0.970029 0.233691 0.000000
O O4 0.000000 0.000000 0.094704
O O5 0.750869 0.176561 0.149035
O O6 0.799000 0.923934 0.191052
O O7 0.788611 0.010634 0.000000
O O8 0.916184 0.208791 0.629281
O O9 0.048370 0.255957 0.619667
O O10 0.000000 0.000000 0.671260
O O11 0.702545 0.814890 0.690785
O O12 0.826479 0.712894 0.692122
O O13 0.169319 0.680410 0.500000
O O14 0.105073 0.511852 0.368075
O O15 0.351460 0.819410 0.500000
#
# Coordination Sequence:
#
# PCOD8227723 Si02
#       6
#     8   8   8   8   8   8
#     4   9  18  35  60  90 122 158 199 251 311 369
#     4  11  23  40  66  93 125 166 208 259 321 382
#     4  11  22  40  65  95 125 164 212 264 312 378
#     4  12  22  43  62  94 126 166 210 267 316 379
#     4  11  24  42  62  88 129 173 211 259 322 377
#     4  11  25  42  63  90 128 171 213 261 322 380
#
# _framework density 20.063186999999999
#
# number of rings (size 3 to 8) (size 9 to 14) (size 15 to 20)
#    0.000    1.167    3.333    4.000    0.000    2.667 
#    0.000    0.833    0.000    1.000    0.000    0.000 
#    0.000    0.000    0.000    0.000    0.000    0.000 
#
# Total GULP energy -595097.286703 kJ/mol
# GULP energy per Si atom -12397.860140 kJ/mol
# Density = 2.001752 g / cm^3
# Si number density = 20.063187 Si / 1000 Ang^3
#
#
#
# Elastic Constant Matrix: (Units=GPa)
#
#
# Indices 1 2 3 4 5 6 
#
# 1 51.0792 2.6564 28.2347 0.0000 0.0000 0.0000
# 2 2.6564 69.9019 31.7968 0.0000 0.0000 0.0000
# 3 28.2347 31.7968 118.6052 0.0000 0.0000 0.0000
# 4 0.0000 0.0000 0.0000 24.8293 0.0000 0.0000
# 5 0.0000 0.0000 0.0000 0.0000 125.9263 0.0000
# 6 0.0000 0.0000 0.0000 0.0000 0.0000 14.7019
#
#
#
# Elastic Compliance Matrix: (Units=1/GPa)
#
#
# Indices 1 2 3 4 5 6 
#
# 1 0.022746 0.001821 -0.005903 0.000000 0.000000 0.000000
# 2 0.001821 0.016438 -0.004840 0.000000 0.000000 0.000000
# 3 -0.005903 -0.004840 0.011134 0.000000 0.000000 0.000000
# 4 0.000000 0.000000 0.000000 0.040275 0.000000 0.000000
# 5 0.000000 0.000000 0.000000 0.000000 0.007941 0.000000
# 6 0.000000 0.000000 0.000000 0.000000 0.000000 0.068019
#
#
# Mechanical properties :
#
#
# Convention : Reuss Voigt Hill
#
# Bulk Modulus (GPa) = 30.79471 40.55136 35.67303
# Shear Modulus (GPa) = 25.61183 44.88473 35.24828
#
# Velocity S-wave (km/s) = 3.57677 4.73500 4.19604
# Velocity P-wave (km/s) = 5.69560 7.08162 6.42609
#
# Compressibility (1/GPa) = 0.03247311
#
# Stress axis : x y z
#
# Youngs Moduli (GPa) = 43.96452 60.83333 89.81341
#
# Poissons Ratio (x) = -0.11076 0.53015
# Poissons Ratio (y) = -0.08005 0.43473
# Poissons Ratio (z) = 0.25952 0.29446
#
# Static dielectric constant tensor:
#      x y z
#    x 3.609700 0.000000 0.000000 
#    y 0.000000 3.543010 0.000000 
#    z 0.000000 0.000000 4.281500 
# 
# 
# High freq. dielectric constant tensor:
#      x y z
#    x 1.786390 0.000000 0.000000 
#    y 0.000000 1.764260 0.000000 
#    z 0.000000 0.000000 1.810940 
# 
# From -- ./inp_files/17325.got.cif
#   From: 2010.03.12/outbox.cif.g09.slc.cpg/sg55_9_cif.got.tgz:17325.got - 2010.04.16 15:19:21.
