data_PCOD8227717
_publ_section_title
;
Structure prediction by ZEFSAII (Michael W. Deem and Ramdas Pophale) SiO2 
 PCOD8227717
Probable space group: P B A M
;
_chemical_formula_sum "Si O2"
_cell_formula_units_Z 48
_cell_length_a 13.307149
_cell_length_b 8.380045
_cell_length_c 18.375879
_cell_angle_alpha 90.000000
_cell_angle_beta 90.000000
_cell_angle_gamma 90.000000
_cell_volume 2049.177095
_symmetry_space_group_name_H-M "P B A M"
_symmetry_group_IT_number 55
_symmetry_cell_setting 'orthorhombic'
loop_
_space_group_symop_operation_xyz
x,y,z
-x,-y,z
1/2+x,1/2-y,-z
1/2-x,1/2+y,-z
-x,-y,-z
x,y,-z
1/2-x,1/2+y,z
1/2+x,1/2-y,z
loop_
_atom_site_type_symbol
_atom_site_label
_atom_site_fract_x
_atom_site_fract_y
_atom_site_fract_z
Si Si1 0.941031 0.337429 0.886685
Si Si2 0.475727 0.248039 0.500000
Si Si3 0.120422 0.671512 0.273539
Si Si4 0.093713 0.218750 0.000000
Si Si5 0.708127 0.951310 0.000000
Si Si6 0.667080 0.023208 0.500000
Si Si7 0.784186 0.628519 0.344226
Si Si8 0.465708 0.663347 0.649933
O O1 0.899740 0.278107 0.809700
O O2 0.838581 0.363031 0.930611
O O3 0.000000 0.500000 0.874762
O O4 0.020017 0.220191 0.929005
O O5 0.565162 0.120651 0.500000
O O6 0.487569 0.357664 0.569946
O O7 0.366025 0.162564 0.500000
O O8 0.169422 0.499857 0.287715
O O9 0.179442 0.819305 0.310414
O O10 0.012668 0.678315 0.312798
O O11 0.172467 0.365460 0.000000
O O12 0.168915 0.064710 0.000000
O O13 0.729815 0.057658 0.573972
O O14 0.847689 0.795198 0.348296
O O15 0.500000 0.500000 0.690972
#
# Coordination Sequence:
#
# PCOD8227717 Si02
#       8
#     8   4   8   4   4   4   8   8
#     4   9  20  39  63  92 130 176 217 256 322 394
#     4   9  17  35  63  84 115 163 212 263 333 387
#     4  12  24  40  62  91 129 170 214 272 332 392
#     4   9  19  41  68 100 128 167 215 261 317 383
#     4   9  19  37  66  94 126 169 215 265 312 379
#     4   9  18  37  61  88 117 164 216 272 326 395
#     4  11  24  40  61  91 124 169 222 272 334 391
#     4  11  22  39  61  90 123 165 215 270 328 397
#
# _framework density 23.424035
#
# number of rings (size 3 to 8) (size 9 to 14) (size 15 to 20)
#    0.000    1.833    1.667    3.750    0.000    5.333 
#    0.000    5.000    0.000    2.000    0.000    0.000 
#    0.000    0.000    0.000    0.000    0.000    0.000 
#
# Total GULP energy -594743.129007 kJ/mol
# GULP energy per Si atom -12390.481854 kJ/mol
# Density = 2.337072 g / cm^3
# Si number density = 23.424035 Si / 1000 Ang^3
#
#
#
# Elastic Constant Matrix: (Units=GPa)
#
#
# Indices 1 2 3 4 5 6 
#
# 1 87.4853 22.9238 53.1121 0.0000 0.0000 0.0000
# 2 22.9238 53.2899 15.0984 0.0000 0.0000 0.0000
# 3 53.1121 15.0984 168.0947 0.0000 0.0000 0.0000
# 4 0.0000 0.0000 0.0000 8.0940 0.0000 0.0000
# 5 0.0000 0.0000 0.0000 0.0000 42.1176 0.0000
# 6 0.0000 0.0000 0.0000 0.0000 0.0000 41.1295
#
#
#
# Elastic Compliance Matrix: (Units=1/GPa)
#
#
# Indices 1 2 3 4 5 6 
#
# 1 0.015538 -0.005431 -0.004422 0.000000 0.000000 0.000000
# 2 -0.005431 0.021154 -0.000184 0.000000 0.000000 0.000000
# 3 -0.004422 -0.000184 0.007363 0.000000 0.000000 0.000000
# 4 0.000000 0.000000 0.000000 0.123548 0.000000 0.000000
# 5 0.000000 0.000000 0.000000 0.000000 0.023743 0.000000
# 6 0.000000 0.000000 0.000000 0.000000 0.000000 0.024313
#
#
# Mechanical properties :
#
#
# Convention : Reuss Voigt Hill
#
# Bulk Modulus (GPa) = 41.70018 54.57097 48.13558
# Shear Modulus (GPa) = 20.51479 32.78393 26.64936
#
# Velocity S-wave (km/s) = 2.96260 3.74516 3.37663
# Velocity P-wave (km/s) = 5.43541 6.48454 5.98301
#
# Compressibility (1/GPa) = 0.02398071
#
# Stress axis : x y z
#
# Youngs Moduli (GPa) = 64.35831 47.27292 135.82095
#
# Poissons Ratio (x) = 0.25675 0.60055
# Poissons Ratio (y) = 0.34955 0.02499
# Poissons Ratio (z) = 0.28457 0.00870
#
# Static dielectric constant tensor:
#      x y z
#    x 4.172420 0.000000 0.000000 
#    y 0.000000 3.862210 0.000000 
#    z 0.000000 0.000000 4.434530 
# 
# 
# High freq. dielectric constant tensor:
#      x y z
#    x 1.933530 0.000000 0.000000 
#    y 0.000000 1.917080 0.000000 
#    z 0.000000 0.000000 1.912300 
# 
# From -- ./inp_files/21553.got.cif
#   From: 2010.03.12/outbox.cif.g09.slc.cpg/sg55_11_cif.got.tgz:21553.got - 2010.04.16 15:19:21.
