data_PCOD8227362
_publ_section_title
;
Structure prediction by ZEFSAII (Michael W. Deem and Ramdas Pophale) SiO2 
 PCOD8227362
Probable space group: P B A M
;
_chemical_formula_sum "Si O2"
_cell_formula_units_Z 40
_cell_length_a 13.944367
_cell_length_b 9.413356
_cell_length_c 13.930754
_cell_angle_alpha 90.000000
_cell_angle_beta 90.000000
_cell_angle_gamma 90.000000
_cell_volume 1828.596613
_symmetry_space_group_name_H-M "P B A M"
_symmetry_group_IT_number 55
_symmetry_cell_setting 'orthorhombic'
loop_
_space_group_symop_operation_xyz
x,y,z
-x,-y,z
1/2+x,1/2-y,-z
1/2-x,1/2+y,-z
-x,-y,-z
x,y,-z
1/2-x,1/2+y,z
1/2+x,1/2-y,z
loop_
_atom_site_type_symbol
_atom_site_label
_atom_site_fract_x
_atom_site_fract_y
_atom_site_fract_z
Si Si1 0.639486 0.740464 0.612527
Si Si2 0.771190 0.523710 0.296966
Si Si3 0.534013 0.147798 0.702412
Si Si4 0.498504 0.271932 0.106203
Si Si5 0.160376 0.997211 0.892455
O O1 0.650972 0.757018 0.500000
O O2 0.681072 0.588010 0.645658
O O3 0.526039 0.734556 0.642405
O O4 0.693715 0.873262 0.662084
O O5 0.851148 0.649658 0.307579
O O6 0.745653 0.500181 0.184927
O O7 0.502548 0.150612 0.814060
O O8 0.500000 0.000000 0.657829
O O9 0.585549 0.378221 0.129218
O O10 0.396259 0.349179 0.114250
O O11 0.510544 0.206076 0.000000
O O12 0.204170 0.014086 0.000000
#
# Coordination Sequence:
#
# PCOD8227362 Si02
#       5
#     8   8   8   8   8
#     4  11  24  42  62  87 117 156 205 257 307 359
#     4  11  22  40  64  88 121 159 201 247 304 366
#     4  10  22  37  58  86 120 158 194 246 303 360
#     4   9  17  34  58  85 119 156 193 236 289 350
#     4   9  18  34  61  89 117 154 195 240 291 353
#
# _framework density 21.874697999999999
#
# number of rings (size 3 to 8) (size 9 to 14) (size 15 to 20)
#    0.000    2.000    2.000    3.000    0.000    5.600 
#    0.000    4.000    0.000    3.600    0.000    0.000 
#    0.000    0.000    0.000    0.000    0.000    0.000 
#
# Total GULP energy -495715.909865 kJ/mol
# GULP energy per Si atom -12392.897747 kJ/mol
# Density = 2.182491 g / cm^3
# Si number density = 21.874698 Si / 1000 Ang^3
#
#
#
# Elastic Constant Matrix: (Units=GPa)
#
#
# Indices 1 2 3 4 5 6 
#
# 1 80.1397 2.7447 37.6800 0.0000 0.0000 0.0000
# 2 2.7447 26.2172 8.7560 0.0000 0.0000 0.0000
# 3 37.6800 8.7560 139.6537 0.0000 0.0000 0.0000
# 4 0.0000 0.0000 0.0000 25.8129 0.0000 0.0000
# 5 0.0000 0.0000 0.0000 0.0000 22.8472 0.0000
# 6 0.0000 0.0000 0.0000 0.0000 0.0000 20.6402
#
#
#
# Elastic Compliance Matrix: (Units=1/GPa)
#
#
# Indices 1 2 3 4 5 6 
#
# 1 0.014292 -0.000213 -0.003843 0.000000 0.000000 0.000000
# 2 -0.000213 0.038962 -0.002385 0.000000 0.000000 0.000000
# 3 -0.003843 -0.002385 0.008347 0.000000 0.000000 0.000000
# 4 0.000000 0.000000 0.000000 0.038740 0.000000 0.000000
# 5 0.000000 0.000000 0.000000 0.000000 0.043769 0.000000
# 6 0.000000 0.000000 0.000000 0.000000 0.000000 0.048449
#
#
# Mechanical properties :
#
#
# Convention : Reuss Voigt Hill
#
# Bulk Modulus (GPa) = 20.52592 38.26355 29.39474
# Shear Modulus (GPa) = 22.55488 26.98205 24.76847
#
# Velocity S-wave (km/s) = 3.21455 3.51591 3.36860
# Velocity P-wave (km/s) = 4.81472 5.83200 5.34761
#
# Compressibility (1/GPa) = 0.04871889
#
# Stress axis : x y z
#
# Youngs Moduli (GPa) = 69.96756 25.66617 119.80389
#
# Poissons Ratio (x) = 0.00546 0.46039
# Poissons Ratio (y) = 0.01489 0.28578
# Poissons Ratio (z) = 0.26888 0.06122
#
# Static dielectric constant tensor:
#      x y z
#    x 4.155890 0.000000 0.000000 
#    y 0.000000 3.622390 0.000000 
#    z 0.000000 0.000000 3.924940 
# 
# 
# High freq. dielectric constant tensor:
#      x y z
#    x 1.858580 0.000000 0.000000 
#    y 0.000000 1.837590 0.000000 
#    z 0.000000 0.000000 1.860910 
# 
# From -- ./inp_files/13004.got.cif
#   From: 2010.03.12/outbox.cif.g09.slc.cpg/sg55_7_cif.got.tgz:13004.got - 2010.04.16 15:19:21.
