data_PCOD8227242
_publ_section_title
;
Structure prediction by ZEFSAII (Michael W. Deem and Ramdas Pophale) SiO2 
 PCOD8227242
Probable space group: P B A M
;
_chemical_formula_sum "Si O2"
_cell_formula_units_Z 56
_cell_length_a 14.198520
_cell_length_b 14.525845
_cell_length_c 13.810195
_cell_angle_alpha 90.000000
_cell_angle_beta 90.000000
_cell_angle_gamma 90.000000
_cell_volume 2848.290583
_symmetry_space_group_name_H-M "P B A M"
_symmetry_group_IT_number 55
_symmetry_cell_setting 'orthorhombic'
loop_
_space_group_symop_operation_xyz
x,y,z
-x,-y,z
1/2+x,1/2-y,-z
1/2-x,1/2+y,-z
-x,-y,-z
x,y,-z
1/2-x,1/2+y,z
1/2+x,1/2-y,z
loop_
_atom_site_type_symbol
_atom_site_label
_atom_site_fract_x
_atom_site_fract_y
_atom_site_fract_z
Si Si1 0.246562 0.492603 0.889835
Si Si2 0.759713 0.444520 0.611131
Si Si3 0.291259 0.377377 0.714619
Si Si4 0.940273 0.912605 0.110891
Si Si5 0.479490 0.270115 0.257185
Si Si6 0.414921 0.070082 0.767321
Si Si7 0.650669 0.256492 0.611563
O O1 0.268123 0.401885 0.826245
O O2 0.329881 0.566876 0.877747
O O3 0.150958 0.542014 0.857112
O O4 0.237180 0.458806 0.000000
O O5 0.785137 0.461775 0.500000
O O6 0.699332 0.529178 0.652963
O O7 0.857699 0.433171 0.667126
O O8 0.695702 0.355860 0.626250
O O9 0.387621 0.322687 0.705892
O O10 0.205752 0.318070 0.674152
O O11 0.964879 0.824119 0.174013
O O12 0.967705 0.891269 0.000000
O O13 0.000000 0.000000 0.148645
O O14 0.452743 0.171908 0.212289
O O15 0.543701 0.258314 0.351858
O O16 0.500000 0.000000 0.758301
O O17 0.651654 0.225933 0.500000
#
# Coordination Sequence:
#
# PCOD8227242 Si02
#       7
#     8   8   8   8   8   8   8
#     4  10  22  43  67  92 129 167 207 264 320 373
#     4  10  22  41  63  88 126 165 208 265 323 373
#     4  11  22  40  66  91 126 168 211 263 316 375
#     4  10  21  39  65  97 127 160 207 264 322 382
#     4  12  23  38  68  93 125 170 214 259 319 383
#     4  11  24  42  63  91 129 171 211 255 312 373
#     4  11  25  42  61  93 129 165 215 267 317 379
#
# _framework density 19.660914999999999
#
# number of rings (size 3 to 8) (size 9 to 14) (size 15 to 20)
#    0.000    1.286    2.857    3.857    0.000    2.857 
#    0.000    3.571    0.000    0.000    0.000    0.000 
#    0.000    0.000    0.000    0.000    0.000    0.000 
#
# Total GULP energy -694730.297320 kJ/mol
# GULP energy per Si atom -12405.898166 kJ/mol
# Density = 1.961617 g / cm^3
# Si number density = 19.660915 Si / 1000 Ang^3
#
#
#
# Elastic Constant Matrix: (Units=GPa)
#
#
# Indices 1 2 3 4 5 6 
#
# 1 129.1920 45.7990 55.8179 0.0000 0.0000 0.0000
# 2 45.7990 110.8593 53.8446 0.0000 0.0000 0.0000
# 3 55.8179 53.8446 139.7921 0.0000 0.0000 0.0000
# 4 0.0000 0.0000 0.0000 21.3968 0.0000 0.0000
# 5 0.0000 0.0000 0.0000 0.0000 19.9220 0.0000
# 6 0.0000 0.0000 0.0000 0.0000 0.0000 34.6011
#
#
#
# Elastic Compliance Matrix: (Units=1/GPa)
#
#
# Indices 1 2 3 4 5 6 
#
# 1 0.009965 -0.002687 -0.002944 0.000000 0.000000 0.000000
# 2 -0.002687 0.011821 -0.003480 0.000000 0.000000 0.000000
# 3 -0.002944 -0.003480 0.009670 0.000000 0.000000 0.000000
# 4 0.000000 0.000000 0.000000 0.046736 0.000000 0.000000
# 5 0.000000 0.000000 0.000000 0.000000 0.050196 0.000000
# 6 0.000000 0.000000 0.000000 0.000000 0.000000 0.028901
#
#
# Mechanical properties :
#
#
# Convention : Reuss Voigt Hill
#
# Bulk Modulus (GPa) = 75.56865 76.75181 76.16023
# Shear Modulus (GPa) = 27.78997 30.14277 28.96637
#
# Velocity S-wave (km/s) = 3.76368 3.91977 3.84252
# Velocity P-wave (km/s) = 7.57671 7.72066 7.64902
#
# Compressibility (1/GPa) = 0.01323300
#
# Stress axis : x y z
#
# Youngs Moduli (GPa) = 100.35240 84.59639 103.41787
#
# Poissons Ratio (x) = 0.22730 0.30446
# Poissons Ratio (y) = 0.26963 0.35992
# Poissons Ratio (z) = 0.29544 0.29442
#
# Static dielectric constant tensor:
#      x y z
#    x 3.699490 0.000000 0.000000 
#    y 0.000000 3.704580 0.000000 
#    z 0.000000 0.000000 3.713020 
# 
# 
# High freq. dielectric constant tensor:
#      x y z
#    x 1.775880 0.000000 0.000000 
#    y 0.000000 1.771860 0.000000 
#    z 0.000000 0.000000 1.769010 
# 
# From -- ./inp_files/18391.got.cif
#   From: 2010.03.12/outbox.cif.g09.slc.cpg/sg55_10_cif.got.tgz:18391.got - 2010.04.16 15:19:21.
