data_PCOD8227459
_publ_section_title
;
Structure prediction by ZEFSAII (Michael W. Deem and Ramdas Pophale) SiO2 
 PCOD8227459
Probable space group: P B A M
;
_chemical_formula_sum "Si O2"
_cell_formula_units_Z 64
_cell_length_a 30.379794
_cell_length_b 11.901338
_cell_length_c 8.769404
_cell_angle_alpha 90.000000
_cell_angle_beta 90.000000
_cell_angle_gamma 90.000000
_cell_volume 3170.667436
_symmetry_space_group_name_H-M "P B A M"
_symmetry_group_IT_number 55
_symmetry_cell_setting 'orthorhombic'
loop_
_space_group_symop_operation_xyz
x,y,z
-x,-y,z
1/2+x,1/2-y,-z
1/2-x,1/2+y,-z
-x,-y,-z
x,y,-z
1/2-x,1/2+y,z
1/2+x,1/2-y,z
loop_
_atom_site_type_symbol
_atom_site_label
_atom_site_fract_x
_atom_site_fract_y
_atom_site_fract_z
Si Si1 0.369866 0.086491 0.821206
Si Si2 0.693272 0.499447 0.323567
Si Si3 0.327231 0.734152 0.177427
Si Si4 0.549651 0.502414 0.321048
Si Si5 0.707356 0.054280 0.322581
Si Si6 0.584137 0.257861 0.322770
Si Si7 0.954841 0.557801 0.822243
Si Si8 0.122337 0.844858 0.179334
O O1 0.375165 0.215430 0.769954
O O2 0.328663 0.034779 0.732073
O O3 0.414636 0.023322 0.776402
O O4 0.359820 0.075785 0.000000
O O5 0.682006 0.515982 0.500000
O O6 0.677635 0.377554 0.274430
O O7 0.744846 0.504074 0.289267
O O8 0.666696 0.594619 0.234372
O O9 0.293207 0.829328 0.229346
O O10 0.375416 0.781981 0.216645
O O11 0.321312 0.708248 0.000000
O O12 0.500000 0.500000 0.255516
O O13 0.548694 0.525006 0.500000
O O14 0.571409 0.383976 0.279901
O O15 0.578025 0.601129 0.246655
O O16 0.699982 0.080222 0.500000
O O17 0.596111 0.246349 0.500000
O O18 0.545635 0.172055 0.276778
O O19 0.000000 0.500000 0.775171
O O20 0.953942 0.588386 0.000000
O O21 0.119256 0.856973 0.000000
#
# Coordination Sequence:
#
# PCOD8227459 Si02
#       8
#     8   8   8   8   8   8   8   8
#     4  10  23  42  61  90 129 166 207 256 307 372
#     4  11  25  44  65  92 126 165 211 258 310 374
#     4  12  24  41  67  94 125 163 207 261 317 371
#     4  10  23  42  63  90 126 168 210 259 315 371
#     4  11  25  43  66  94 125 165 209 257 313 372
#     4  11  22  39  64  92 124 162 210 263 312 373
#     4  10  22  40  63  90 125 168 210 258 315 370
#     4  11  24  41  63  93 127 166 209 257 315 372
#
# _framework density 20.185023999999999
#
# number of rings (size 3 to 8) (size 9 to 14) (size 15 to 20)
#    0.000    1.250    2.500    2.625    3.500    4.000 
#    0.000    0.000    0.000    0.000    0.000    0.000 
#    0.000    0.000    0.000    0.000    0.000    0.000 
#
# Total GULP energy -793920.389942 kJ/mol
# GULP energy per Si atom -12405.006093 kJ/mol
# Density = 2.013908 g / cm^3
# Si number density = 20.185024 Si / 1000 Ang^3
#
#
#
# Elastic Constant Matrix: (Units=GPa)
#
#
# Indices 1 2 3 4 5 6 
#
# 1 111.3767 26.0788 32.4563 0.0000 0.0000 0.0000
# 2 26.0788 104.5071 30.4917 0.0000 0.0000 0.0000
# 3 32.4563 30.4917 39.7297 0.0000 0.0000 0.0000
# 4 0.0000 0.0000 0.0000 29.8282 0.0000 0.0000
# 5 0.0000 0.0000 0.0000 0.0000 31.2799 0.0000
# 6 0.0000 0.0000 0.0000 0.0000 0.0000 25.3722
#
#
#
# Elastic Compliance Matrix: (Units=1/GPa)
#
#
# Indices 1 2 3 4 5 6 
#
# 1 0.011786 -0.000170 -0.009498 0.000000 0.000000 0.000000
# 2 -0.000170 0.012332 -0.009326 0.000000 0.000000 0.000000
# 3 -0.009498 -0.009326 0.040087 0.000000 0.000000 0.000000
# 4 0.000000 0.000000 0.000000 0.033525 0.000000 0.000000
# 5 0.000000 0.000000 0.000000 0.000000 0.031969 0.000000
# 6 0.000000 0.000000 0.000000 0.000000 0.000000 0.039413
#
#
# Mechanical properties :
#
#
# Convention : Reuss Voigt Hill
#
# Bulk Modulus (GPa) = 38.14263 48.18524 43.16393
# Shear Modulus (GPa) = 23.16536 28.40183 25.78360
#
# Velocity S-wave (km/s) = 3.39137 3.75517 3.57790
# Velocity P-wave (km/s) = 5.85429 6.53646 6.20476
#
# Compressibility (1/GPa) = 0.02621739
#
# Stress axis : x y z
#
# Youngs Moduli (GPa) = 84.84535 81.08925 24.94595
#
# Poissons Ratio (x) = 0.01378 0.23694
# Poissons Ratio (y) = 0.01442 0.23264
# Poissons Ratio (z) = 0.80586 0.75622
#
# Static dielectric constant tensor:
#      x y z
#    x 3.923580 0.000000 0.000000 
#    y 0.000000 3.755970 0.000000 
#    z 0.000000 0.000000 3.609090 
# 
# 
# High freq. dielectric constant tensor:
#      x y z
#    x 1.797190 0.000000 0.000000 
#    y 0.000000 1.801480 0.000000 
#    z 0.000000 0.000000 1.788730 
# 
# From -- ./inp_files/10762.got.cif
#   From: 2010.03.12/outbox.cif.g09.slc.cpg/sg55_6_cif.got.tgz:10762.got - 2010.04.16 15:19:21.
