data_PCOD8227751
_publ_section_title
;
Structure prediction by ZEFSAII (Michael W. Deem and Ramdas Pophale) SiO2 
 PCOD8227751
Probable space group: P B A M
;
_chemical_formula_sum "Si O2"
_cell_formula_units_Z 56
_cell_length_a 19.967907
_cell_length_b 8.819576
_cell_length_c 15.737825
_cell_angle_alpha 90.000000
_cell_angle_beta 90.000000
_cell_angle_gamma 90.000000
_cell_volume 2771.564335
_symmetry_space_group_name_H-M "P B A M"
_symmetry_group_IT_number 55
_symmetry_cell_setting 'orthorhombic'
loop_
_space_group_symop_operation_xyz
x,y,z
-x,-y,z
1/2+x,1/2-y,-z
1/2-x,1/2+y,-z
-x,-y,-z
x,y,-z
1/2-x,1/2+y,z
1/2+x,1/2-y,z
loop_
_atom_site_type_symbol
_atom_site_label
_atom_site_fract_x
_atom_site_fract_y
_atom_site_fract_z
Si Si1 0.247419 0.724479 0.711190
Si Si2 0.872188 0.180142 0.170150
Si Si3 0.799276 0.536416 0.596430
Si Si4 0.494988 0.817833 0.763327
Si Si5 0.367893 0.673228 0.163904
Si Si6 0.550501 0.136754 0.410390
Si Si7 0.665593 0.818343 0.000000
Si Si8 0.193926 0.325596 0.000000
O O1 0.197024 0.797945 0.779174
O O2 0.215846 0.572900 0.675053
O O3 0.319177 0.698033 0.755738
O O4 0.257285 0.816796 0.623867
O O5 0.934055 0.237720 0.225660
O O6 0.879900 0.004036 0.147763
O O7 0.875980 0.280460 0.084619
O O8 0.777963 0.488131 0.500000
O O9 0.877315 0.564816 0.601937
O O10 0.439593 0.754708 0.827444
O O11 0.470118 0.762324 0.669945
O O12 0.500000 0.000000 0.771264
O O13 0.336443 0.749548 0.082283
O O14 0.548405 0.230328 0.500000
O O15 0.500000 0.000000 0.417066
O O16 0.727660 0.704424 0.000000
O O17 0.684938 0.994104 0.000000
#
# Coordination Sequence:
#
# PCOD8227751 Si02
#       8
#     8   8   8   8   8   8   4   4
#     4  12  23  40  65  96 132 176 221 273 334 397
#     4  12  26  43  69  97 138 174 221 279 337 407
#     4  11  23  40  64  95 133 174 223 280 332 393
#     4  11  23  42  69  97 132 177 227 276 338 400
#     4  12  25  44  67  98 137 177 224 273 340 402
#     4   9  18  35  61  92 126 169 222 273 328 395
#     4  12  26  43  68 105 132 173 225 279 343 399
#     4  12  26  43  70  99 136 171 225 277 335 407
#
# _framework density 20.205196000000001
#
# number of rings (size 3 to 8) (size 9 to 14) (size 15 to 20)
#    0.000    0.714    4.286    4.714    2.000    0.571 
#    0.000    3.571    0.000    0.857    0.000    0.000 
#    0.000    0.000    0.000    0.000    0.000    0.000 
#
# Total GULP energy -694194.370877 kJ/mol
# GULP energy per Si atom -12396.328051 kJ/mol
# Density = 2.015921 g / cm^3
# Si number density = 20.205196 Si / 1000 Ang^3
#
#
#
# Elastic Constant Matrix: (Units=GPa)
#
#
# Indices 1 2 3 4 5 6 
#
# 1 94.9082 23.7370 21.9377 0.0000 0.0000 0.0000
# 2 23.7370 110.3724 34.6468 0.0000 0.0000 0.0000
# 3 21.9377 34.6468 108.6982 0.0000 0.0000 0.0000
# 4 0.0000 0.0000 0.0000 32.2141 0.0000 0.0000
# 5 0.0000 0.0000 0.0000 0.0000 38.1244 0.0000
# 6 0.0000 0.0000 0.0000 0.0000 0.0000 23.1764
#
#
#
# Elastic Compliance Matrix: (Units=1/GPa)
#
#
# Indices 1 2 3 4 5 6 
#
# 1 0.011408 -0.001923 -0.001689 0.000000 0.000000 0.000000
# 2 -0.001923 0.010392 -0.002924 0.000000 0.000000 0.000000
# 3 -0.001689 -0.002924 0.010473 0.000000 0.000000 0.000000
# 4 0.000000 0.000000 0.000000 0.031042 0.000000 0.000000
# 5 0.000000 0.000000 0.000000 0.000000 0.026230 0.000000
# 6 0.000000 0.000000 0.000000 0.000000 0.000000 0.043147
#
#
# Mechanical properties :
#
#
# Convention : Reuss Voigt Hill
#
# Bulk Modulus (GPa) = 52.08566 52.73578 52.41072
# Shear Modulus (GPa) = 32.85903 34.28013 33.56958
#
# Velocity S-wave (km/s) = 4.03707 4.12345 4.08049
# Velocity P-wave (km/s) = 6.89673 6.98765 6.94234
#
# Compressibility (1/GPa) = 0.01919914
#
# Stress axis : x y z
#
# Youngs Moduli (GPa) = 87.65799 96.23014 95.48543
#
# Poissons Ratio (x) = 0.18506 0.16131
# Poissons Ratio (y) = 0.16858 0.27922
# Poissons Ratio (z) = 0.14809 0.28139
#
# Static dielectric constant tensor:
#      x y z
#    x 3.715030 0.000000 0.000000 
#    y 0.000000 3.599730 0.000000 
#    z 0.000000 0.000000 4.252910 
# 
# 
# High freq. dielectric constant tensor:
#      x y z
#    x 1.798750 0.000000 0.000000 
#    y 0.000000 1.777060 0.000000 
#    z 0.000000 0.000000 1.809620 
# 
# From -- ./inp_files/19776.got.cif
#   From: 2010.03.12/outbox.cif.g09.slc.cpg/sg55_10_cif.got.tgz:19776.got - 2010.04.16 15:19:21.
