data_PCOD8227239
_publ_section_title
;
Structure prediction by ZEFSAII (Michael W. Deem and Ramdas Pophale) SiO2 
 PCOD8227239
Probable space group: P B A M
;
_chemical_formula_sum "Si O2"
_cell_formula_units_Z 48
_cell_length_a 21.402564
_cell_length_b 12.094803
_cell_length_c 8.968497
_cell_angle_alpha 90.000000
_cell_angle_beta 90.000000
_cell_angle_gamma 90.000000
_cell_volume 2321.583297
_symmetry_space_group_name_H-M "P B A M"
_symmetry_group_IT_number 55
_symmetry_cell_setting 'orthorhombic'
loop_
_space_group_symop_operation_xyz
x,y,z
-x,-y,z
1/2+x,1/2-y,-z
1/2-x,1/2+y,-z
-x,-y,-z
x,y,-z
1/2-x,1/2+y,z
1/2+x,1/2-y,z
loop_
_atom_site_type_symbol
_atom_site_label
_atom_site_fract_x
_atom_site_fract_y
_atom_site_fract_z
Si Si1 0.097576 0.244728 0.169982
Si Si2 0.174887 0.638030 0.675734
Si Si3 0.071965 0.495865 0.828103
Si Si4 0.488131 0.373610 0.672936
Si Si5 0.203206 0.076594 0.828279
Si Si6 0.861266 0.150306 0.825676
O O1 0.102411 0.375460 0.195111
O O2 0.048407 0.197045 0.286235
O O3 0.164624 0.189015 0.202540
O O4 0.076676 0.217417 0.000000
O O5 0.172991 0.644349 0.500000
O O6 0.111173 0.581790 0.731355
O O7 0.235338 0.569853 0.727623
O O8 0.182246 0.760725 0.743268
O O9 0.000000 0.500000 0.773792
O O10 0.075720 0.532831 0.000000
O O11 0.500000 0.500000 0.713518
O O12 0.471899 0.357080 0.500000
O O13 0.431528 0.329759 0.771737
O O14 0.160328 0.972728 0.783085
O O15 0.224100 0.068663 0.000000
O O16 0.857003 0.172702 0.000000
#
# Coordination Sequence:
#
# PCOD8227239 Si02
#       6
#     8   8   8   8   8   8
#     4  10  21  39  65  94 126 168 219 264 311 375
#     4  12  27  43  64  94 131 168 207 261 327 388
#     4  10  22  42  68  97 128 166 215 266 315 378
#     4  11  22  36  59  95 135 167 201 255 320 378
#     4  10  23  42  64  92 123 167 220 265 309 370
#     4  11  23  42  68  91 122 166 217 265 305 368
#
# _framework density 20.675543000000001
#
# number of rings (size 3 to 8) (size 9 to 14) (size 15 to 20)
#    0.000    1.333    1.667    3.500    2.333    5.000 
#    0.000    0.000    0.000    0.000    0.000    0.000 
#    0.000    0.000    0.000    0.000    0.000    0.000 
#
# Total GULP energy -595520.808396 kJ/mol
# GULP energy per Si atom -12406.683508 kJ/mol
# Density = 2.062848 g / cm^3
# Si number density = 20.675543 Si / 1000 Ang^3
#
#
#
# Elastic Constant Matrix: (Units=GPa)
#
#
# Indices 1 2 3 4 5 6 
#
# 1 107.6966 32.0929 49.1733 0.0000 0.0000 0.0000
# 2 32.0929 98.7076 45.0236 0.0000 0.0000 0.0000
# 3 49.1733 45.0236 102.2688 0.0000 0.0000 0.0000
# 4 0.0000 0.0000 0.0000 28.2418 0.0000 0.0000
# 5 0.0000 0.0000 0.0000 0.0000 24.5655 0.0000
# 6 0.0000 0.0000 0.0000 0.0000 0.0000 28.9944
#
#
#
# Elastic Compliance Matrix: (Units=1/GPa)
#
#
# Indices 1 2 3 4 5 6 
#
# 1 0.012096 -0.001602 -0.005111 0.000000 0.000000 0.000000
# 2 -0.001602 0.012889 -0.004904 0.000000 0.000000 0.000000
# 3 -0.005111 -0.004904 0.014395 0.000000 0.000000 0.000000
# 4 0.000000 0.000000 0.000000 0.035409 0.000000 0.000000
# 5 0.000000 0.000000 0.000000 0.000000 0.040708 0.000000
# 6 0.000000 0.000000 0.000000 0.000000 0.000000 0.034489
#
#
# Mechanical properties :
#
#
# Convention : Reuss Voigt Hill
#
# Bulk Modulus (GPa) = 61.93463 62.36140 62.14801
# Shear Modulus (GPa) = 27.99543 28.51920 28.25732
#
# Velocity S-wave (km/s) = 3.68371 3.71801 3.70090
# Velocity P-wave (km/s) = 6.93639 6.97559 6.95602
#
# Compressibility (1/GPa) = 0.01614606
#
# Stress axis : x y z
#
# Youngs Moduli (GPa) = 82.67002 77.58829 69.47000
#
# Poissons Ratio (x) = 0.12426 0.35507
# Poissons Ratio (y) = 0.13240 0.34069
# Poissons Ratio (z) = 0.42254 0.38050
#
# Static dielectric constant tensor:
#      x y z
#    x 3.727890 0.000000 0.000000 
#    y 0.000000 3.899670 0.000000 
#    z 0.000000 0.000000 3.603820 
# 
# 
# High freq. dielectric constant tensor:
#      x y z
#    x 1.810960 0.000000 0.000000 
#    y 0.000000 1.820250 0.000000 
#    z 0.000000 0.000000 1.801010 
# 
# From -- ./inp_files/9443.got.cif
#   From: 2010.03.12/outbox.cif.g09.slc.cpg/sg55_5_cif.got.tgz:9443.got - 2010.04.16 15:19:21.
