data_PCOD8227357
_publ_section_title
;
Structure prediction by ZEFSAII (Michael W. Deem and Ramdas Pophale) SiO2 
 PCOD8227357
Probable space group: P B A M
;
_chemical_formula_sum "Si O2"
_cell_formula_units_Z 36
_cell_length_a 5.413808
_cell_length_b 21.942903
_cell_length_c 14.091302
_cell_angle_alpha 90.000000
_cell_angle_beta 90.000000
_cell_angle_gamma 90.000000
_cell_volume 1673.971484
_symmetry_space_group_name_H-M "P B A M"
_symmetry_group_IT_number 55
_symmetry_cell_setting 'orthorhombic'
loop_
_space_group_symop_operation_xyz
x,y,z
-x,-y,z
1/2+x,1/2-y,-z
1/2-x,1/2+y,-z
-x,-y,-z
x,y,-z
1/2-x,1/2+y,z
1/2+x,1/2-y,z
loop_
_atom_site_type_symbol
_atom_site_label
_atom_site_fract_x
_atom_site_fract_y
_atom_site_fract_z
Si Si1 0.536429 0.286622 0.889704
Si Si2 0.740704 0.383185 0.238276
Si Si3 0.180110 0.714127 0.389529
Si Si4 0.123714 0.434722 0.896251
Si Si5 0.000000 0.000000 0.781770
O O1 0.286889 0.250164 0.864440
O O2 0.532046 0.345903 0.821242
O O3 0.537078 0.306197 0.000000
O O4 0.822523 0.349060 0.333205
O O5 0.673524 0.452777 0.275999
O O6 0.970972 0.387647 0.166805
O O7 0.179345 0.697690 0.500000
O O8 0.430896 0.749822 0.361844
O O9 0.382635 0.448174 0.847970
O O10 0.000000 0.500000 0.906458
O O11 0.160076 0.404360 0.000000
#
# Coordination Sequence:
#
# PCOD8227357 Si02
#       5
#     8   8   8   8   4
#     4  10  22  37  55  84 118 156 202 254 313 368
#     4  11  22  37  61  87 122 164 209 263 312 378
#     4  10  23  43  70  99 124 157 206 264 329 390
#     4   9  19  35  53  81 119 162 208 249 294 354
#     4  10  23  36  57  88 124 172 219 252 305 366
#
# _framework density 21.505742000000001
#
# number of rings (size 3 to 8) (size 9 to 14) (size 15 to 20)
#    0.000    2.000    0.000    2.333    6.222    2.667 
#    0.000    0.556    0.000    6.000    0.000    0.000 
#    0.000    0.000    0.000    0.000    0.000    0.000 
#
# Total GULP energy -446050.300642 kJ/mol
# GULP energy per Si atom -12390.286129 kJ/mol
# Density = 2.145679 g / cm^3
# Si number density = 21.505742 Si / 1000 Ang^3
#
#
#
# Elastic Constant Matrix: (Units=GPa)
#
#
# Indices 1 2 3 4 5 6 
#
# 1 116.2241 53.9829 25.3154 0.0000 0.0000 0.0000
# 2 53.9829 132.3026 64.3502 0.0000 0.0000 0.0000
# 3 25.3154 64.3502 77.3778 0.0000 0.0000 0.0000
# 4 0.0000 0.0000 0.0000 35.6370 0.0000 0.0000
# 5 0.0000 0.0000 0.0000 0.0000 15.0842 0.0000
# 6 0.0000 0.0000 0.0000 0.0000 0.0000 40.8096
#
#
#
# Elastic Compliance Matrix: (Units=1/GPa)
#
#
# Indices 1 2 3 4 5 6 
#
# 1 0.010618 -0.004438 0.000217 0.000000 0.000000 0.000000
# 2 -0.004438 0.014547 -0.010646 0.000000 0.000000 0.000000
# 3 0.000217 -0.010646 0.021706 0.000000 0.000000 0.000000
# 4 0.000000 0.000000 0.000000 0.028061 0.000000 0.000000
# 5 0.000000 0.000000 0.000000 0.000000 0.066295 0.000000
# 6 0.000000 0.000000 0.000000 0.000000 0.000000 0.024504
#
#
# Mechanical properties :
#
#
# Convention : Reuss Voigt Hill
#
# Bulk Modulus (GPa) = 58.35192 68.13347 63.24269
# Shear Modulus (GPa) = 24.85357 30.45656 27.65506
#
# Velocity S-wave (km/s) = 3.40320 3.76733 3.58989
# Velocity P-wave (km/s) = 6.52951 7.11857 6.83039
#
# Compressibility (1/GPa) = 0.01713740
#
# Stress axis : x y z
#
# Youngs Moduli (GPa) = 94.17841 68.74082 46.06933
#
# Poissons Ratio (x) = 0.30507 -0.00999
# Poissons Ratio (y) = 0.41796 0.49046
# Poissons Ratio (z) = -0.02042 0.73183
#
# Static dielectric constant tensor:
#      x y z
#    x 4.535490 0.000000 0.000000 
#    y 0.000000 6.495850 0.000000 
#    z 0.000000 0.000000 3.716370 
# 
# 
# High freq. dielectric constant tensor:
#      x y z
#    x 1.857310 0.000000 0.000000 
#    y 0.000000 1.855670 0.000000 
#    z 0.000000 0.000000 1.812570 
# 
# From -- ./inp_files/16498.got.cif
#   From: 2010.03.12/outbox.cif.g09.slc.cpg/sg55_9_cif.got.tgz:16498.got - 2010.04.16 15:19:21.
