data_PCOD8227681
_publ_section_title
;
Structure prediction by ZEFSAII (Michael W. Deem and Ramdas Pophale) SiO2 
 PCOD8227681
Probable space group: P B A M
;
_chemical_formula_sum "Si O2"
_cell_formula_units_Z 64
_cell_length_a 19.628214
_cell_length_b 10.046410
_cell_length_c 16.779928
_cell_angle_alpha 90.000000
_cell_angle_beta 90.000000
_cell_angle_gamma 90.000000
_cell_volume 3308.885775
_symmetry_space_group_name_H-M "P B A M"
_symmetry_group_IT_number 55
_symmetry_cell_setting 'orthorhombic'
loop_
_space_group_symop_operation_xyz
x,y,z
-x,-y,z
1/2+x,1/2-y,-z
1/2-x,1/2+y,-z
-x,-y,-z
x,y,-z
1/2-x,1/2+y,z
1/2+x,1/2-y,z
loop_
_atom_site_type_symbol
_atom_site_label
_atom_site_fract_x
_atom_site_fract_y
_atom_site_fract_z
Si Si1 0.944680 0.887119 0.085636
Si Si2 0.208834 0.050315 0.907860
Si Si3 0.757754 0.699766 0.187629
Si Si4 0.841816 0.468448 0.409786
Si Si5 0.632119 0.221087 0.318258
Si Si6 0.504173 0.341020 0.754360
Si Si7 0.138643 0.789064 0.311227
Si Si8 0.683556 0.465252 0.590903
O O1 0.872244 0.954246 0.107731
O O2 0.970245 0.793134 0.157566
O O3 0.937761 0.809979 0.000000
O O4 0.000000 0.000000 0.074258
O O5 0.239385 0.192243 0.882533
O O6 0.244921 0.942141 0.852334
O O7 0.226715 0.024329 0.000000
O O8 0.829321 0.699843 0.234484
O O9 0.698385 0.735429 0.248830
O O10 0.867860 0.474443 0.500000
O O11 0.881115 0.579002 0.358828
O O12 0.858370 0.322299 0.378604
O O13 0.762324 0.503850 0.404043
O O14 0.558594 0.288071 0.308670
O O15 0.675550 0.315786 0.376579
O O16 0.500000 0.500000 0.751415
O O17 0.431723 0.276528 0.736392
O O18 0.142242 0.932449 0.353826
O O19 0.657001 0.472398 0.500000
#
# Coordination Sequence:
#
# PCOD8227681 Si02
#       8
#     8   8   8   8   8   8   8   8
#     4   9  18  35  59  89 119 154 199 247 304 359
#     4  11  23  38  60  92 126 159 197 253 307 354
#     4  12  21  38  61  92 122 156 204 246 299 362
#     4  11  23  40  61  90 126 163 204 251 307 371
#     4  12  22  39  63  92 120 164 207 251 307 363
#     4  11  22  39  62  90 121 156 205 259 303 360
#     4  12  23  39  64  93 120 159 206 255 304 362
#     4  11  21  39  64  93 121 156 205 255 306 360
#
# _framework density 19.34186
#
# number of rings (size 3 to 8) (size 9 to 14) (size 15 to 20)
#    0.000    0.875    5.000    4.125    0.000    2.500 
#    0.000    4.375    0.000    0.000    0.000    1.750 
#    0.000    0.000    0.000    0.000    0.000    0.000 
#
# Total GULP energy -793734.199168 kJ/mol
# GULP energy per Si atom -12402.096862 kJ/mol
# Density = 1.929784 g / cm^3
# Si number density = 19.341860 Si / 1000 Ang^3
#
#
#
# Elastic Constant Matrix: (Units=GPa)
#
#
# Indices 1 2 3 4 5 6 
#
# 1 77.9628 17.2162 28.7215 0.0000 0.0000 0.0000
# 2 17.2162 79.0550 29.2528 0.0000 0.0000 0.0000
# 3 28.7215 29.2528 106.4107 0.0000 0.0000 0.0000
# 4 0.0000 0.0000 0.0000 37.9110 0.0000 0.0000
# 5 0.0000 0.0000 0.0000 0.0000 24.1887 0.0000
# 6 0.0000 0.0000 0.0000 0.0000 0.0000 22.2504
#
#
#
# Elastic Compliance Matrix: (Units=1/GPa)
#
#
# Indices 1 2 3 4 5 6 
#
# 1 0.014495 -0.001903 -0.003389 0.000000 0.000000 0.000000
# 2 -0.001903 0.014332 -0.003426 0.000000 0.000000 0.000000
# 3 -0.003389 -0.003426 0.011254 0.000000 0.000000 0.000000
# 4 0.000000 0.000000 0.000000 0.026378 0.000000 0.000000
# 5 0.000000 0.000000 0.000000 0.000000 0.041342 0.000000
# 6 0.000000 0.000000 0.000000 0.000000 0.000000 0.044943
#
#
# Mechanical properties :
#
#
# Convention : Reuss Voigt Hill
#
# Bulk Modulus (GPa) = 44.16041 45.97884 45.06963
# Shear Modulus (GPa) = 28.13283 29.41923 28.77603
#
# Velocity S-wave (km/s) = 3.81793 3.90425 3.86133
# Velocity P-wave (km/s) = 6.50512 6.64436 6.57511
#
# Compressibility (1/GPa) = 0.02264472
#
# Stress axis : x y z
#
# Youngs Moduli (GPa) = 68.98721 69.77590 88.85479
#
# Poissons Ratio (x) = 0.13275 0.30117
# Poissons Ratio (y) = 0.13125 0.30444
# Poissons Ratio (z) = 0.23383 0.23907
#
# Static dielectric constant tensor:
#      x y z
#    x 3.491360 0.000000 0.000000 
#    y 0.000000 3.316150 0.000000 
#    z 0.000000 0.000000 3.969070 
# 
# 
# High freq. dielectric constant tensor:
#      x y z
#    x 1.746830 0.000000 0.000000 
#    y 0.000000 1.735440 0.000000 
#    z 0.000000 0.000000 1.771370 
# 
# From -- ./inp_files/21962.got.cif
#   From: 2010.03.12/outbox.cif.g09.slc.cpg/sg55_11_cif.got.tgz:21962.got - 2010.04.16 15:19:21.
