data_PCOD8227962
_publ_section_title
;
Structure prediction by ZEFSAII (Michael W. Deem and Ramdas Pophale) SiO2 
 PCOD8227962
Probable space group: P C C N
;
_chemical_formula_sum "Si O2"
_cell_formula_units_Z 64
_cell_length_a 27.160009
_cell_length_b 13.352393
_cell_length_c 8.858433
_cell_angle_alpha 90.000000
_cell_angle_beta 90.000000
_cell_angle_gamma 90.000000
_cell_volume 3212.520596
_symmetry_space_group_name_H-M "P C C N"
_symmetry_group_IT_number 56
_symmetry_cell_setting 'orthorhombic'
loop_
_space_group_symop_operation_xyz
x,y,z
1/2-x,1/2-y,z
1/2+x,-y,1/2-z
-x,1/2+y,1/2-z
-x,-y,-z
1/2+x,1/2+y,-z
1/2-x,y,1/2+z
x,1/2-y,1/2+z
loop_
_atom_site_type_symbol
_atom_site_label
_atom_site_fract_x
_atom_site_fract_y
_atom_site_fract_z
Si Si1 0.408718 0.957504 0.791912
Si Si2 0.146673 0.433462 0.028673
Si Si3 0.513731 0.195951 0.140064
Si Si4 0.683329 0.820851 0.230890
Si Si5 0.361011 0.445702 0.025334
Si Si6 0.066984 0.430173 0.264927
Si Si7 0.500264 0.390908 0.306840
Si Si8 0.713883 0.591343 0.223449
O O1 0.373973 0.964073 0.642590
O O2 0.449783 0.046616 0.789915
O O3 0.433078 0.848107 0.808888
O O4 0.373380 0.970860 0.937195
O O5 0.110126 0.394040 0.156383
O O6 0.197472 0.460137 0.118161
O O7 0.150901 0.338841 0.917082
O O8 0.475735 0.150909 0.260817
O O9 0.509354 0.314557 0.167467
O O10 0.501166 0.164692 0.968760
O O11 0.651867 0.845965 0.379911
O O12 0.699054 0.707668 0.234394
O O13 0.727258 0.904762 0.213450
O O14 0.411505 0.432419 0.933171
O O15 0.313670 0.465529 0.915625
O O16 0.046815 0.535964 0.204298
#
# Coordination Sequence:
#
# PCOD8227962 Si02
#       8
#     8   8   8   8   8   8   8   8
#     4  10  21  40  52  75 117 142 186 233 263 315
#     4  10  18  34  53  66 106 153 170 219 273 312
#     4  11  23  37  58  79 108 150 182 224 283 321
#     4  10  20  33  50  77 112 144 181 225 270 324
#     4  10  22  32  53  78 102 153 186 219 265 314
#     4  10  21  40  52  75 117 142 186 233 263 315
#     4  11  23  37  58  79 108 150 182 224 283 321
#     4  10  20  33  50  77 112 144 181 225 270 324
#
# _framework density 19.922052000000001
#
# number of rings (size 3 to 8) (size 9 to 14) (size 15 to 20)
#    0.000    1.750    2.500    2.250    3.500    9.000 
#    0.000    0.000    0.000    0.000    0.000    0.000 
#    0.000   70.000    0.000    0.000    0.000    0.000 
#
# Total GULP energy -793019.358395 kJ/mol
# GULP energy per Si atom -12390.927475 kJ/mol
# Density = 1.987671 g / cm^3
# Si number density = 19.922052 Si / 1000 Ang^3
#
#
#
# Elastic Constant Matrix: (Units=GPa)
#
#
# Indices 1 2 3 4 5 6 
#
# 1 60.4841 19.0779 18.3407 0.0000 0.0000 0.0000
# 2 19.0779 52.1354 7.5540 0.0000 0.0000 0.0000
# 3 18.3407 7.5540 103.1093 0.0000 0.0000 0.0000
# 4 0.0000 0.0000 0.0000 21.5685 0.0000 0.0000
# 5 0.0000 0.0000 0.0000 0.0000 26.8950 0.0000
# 6 0.0000 0.0000 0.0000 0.0000 0.0000 23.3157
#
#
#
# Elastic Compliance Matrix: (Units=1/GPa)
#
#
# Indices 1 2 3 4 5 6 
#
# 1 0.019560 -0.006725 -0.002987 0.000000 0.000000 0.000000
# 2 -0.006725 0.021699 -0.000393 0.000000 0.000000 0.000000
# 3 -0.002987 -0.000393 0.010259 0.000000 0.000000 0.000000
# 4 0.000000 0.000000 0.000000 0.046364 0.000000 0.000000
# 5 0.000000 0.000000 0.000000 0.000000 0.037182 0.000000
# 6 0.000000 0.000000 0.000000 0.000000 0.000000 0.042890
#
#
# Mechanical properties :
#
#
# Convention : Reuss Voigt Hill
#
# Bulk Modulus (GPa) = 31.94141 33.96378 32.95259
# Shear Modulus (GPa) = 23.96954 25.73958 24.85456
#
# Velocity S-wave (km/s) = 3.47243 3.59836 3.53596
# Velocity P-wave (km/s) = 5.66966 5.86085 5.76605
#
# Compressibility (1/GPa) = 0.03130732
#
# Stress axis : x y z
#
# Youngs Moduli (GPa) = 51.12456 46.08580 97.47992
#
# Poissons Ratio (x) = 0.30992 0.29113
# Poissons Ratio (y) = 0.34381 0.03836
# Poissons Ratio (z) = 0.15269 0.01813
#
# Static dielectric constant tensor:
#      x y z
#    x 4.019260 0.000000 0.000000 
#    y 0.000000 3.255690 0.000000 
#    z 0.000000 0.000000 3.900960 
# 
# 
# High freq. dielectric constant tensor:
#      x y z
#    x 1.780070 0.000000 0.000000 
#    y 0.000000 1.712780 0.000000 
#    z 0.000000 0.000000 1.802660 
# 
# From -- ./inp_files/5221.got.cif
#   From: 2010.03.12/outbox.cif.g09.slc.cpg/sg56_3_cif.got.tgz:5221.got - 2010.04.16 15:33:40.
