data_PCOD8227156
_publ_section_title
;
Structure prediction by ZEFSAII (Michael W. Deem and Ramdas Pophale) SiO2 
 PCOD8227156
Probable space group: P B A M
;
_chemical_formula_sum "Si O2"
_cell_formula_units_Z 40
_cell_length_a 12.315378
_cell_length_b 18.288135
_cell_length_c 9.197740
_cell_angle_alpha 90.000000
_cell_angle_beta 90.000000
_cell_angle_gamma 90.000000
_cell_volume 2071.563709
_symmetry_space_group_name_H-M "P B A M"
_symmetry_group_IT_number 55
_symmetry_cell_setting 'orthorhombic'
loop_
_space_group_symop_operation_xyz
x,y,z
-x,-y,z
1/2+x,1/2-y,-z
1/2-x,1/2+y,-z
-x,-y,-z
x,y,-z
1/2-x,1/2+y,z
1/2+x,1/2-y,z
loop_
_atom_site_type_symbol
_atom_site_label
_atom_site_fract_x
_atom_site_fract_y
_atom_site_fract_z
Si Si1 0.617967 0.697661 0.828152
Si Si2 0.552873 0.424586 0.170983
Si Si3 0.304716 0.882175 0.670261
Si Si4 0.049185 0.659118 0.332929
Si Si5 0.235757 0.546723 0.667963
O O1 0.524435 0.641333 0.780309
O O2 0.731450 0.674742 0.757415
O O3 0.586147 0.777023 0.772938
O O4 0.633308 0.699191 0.000000
O O5 0.500000 0.500000 0.226465
O O6 0.668952 0.412843 0.245169
O O7 0.571552 0.426161 0.000000
O O8 0.281220 0.873601 0.500000
O O9 0.428342 0.864387 0.708061
O O10 0.278985 0.964074 0.724335
O O11 0.057606 0.685487 0.500000
O O12 0.123903 0.588876 0.304791
O O13 0.268392 0.547520 0.500000
#
# Coordination Sequence:
#
# PCOD8227156 Si02
#       5
#     8   8   8   8   8
#     4  11  24  40  59  86 121 159 200 244 294 349
#     4  10  21  39  59  83 118 158 196 242 291 341
#     4  10  21  40  64  88 118 154 196 245 296 353
#     4  10  23  41  61  88 122 156 194 244 301 354
#     4  10  21  38  64  92 116 150 197 246 297 352
#
# _framework density 19.309086000000001
#
# number of rings (size 3 to 8) (size 9 to 14) (size 15 to 20)
#    0.000    1.800    2.000    1.200    2.800    6.000 
#    0.000    0.000    0.000    3.600    0.000    0.000 
#    0.000    0.000    0.000    0.000    0.000    0.000 
#
# Total GULP energy -496244.819481 kJ/mol
# GULP energy per Si atom -12406.120487 kJ/mol
# Density = 1.926514 g / cm^3
# Si number density = 19.309086 Si / 1000 Ang^3
#
#
#
# Elastic Constant Matrix: (Units=GPa)
#
#
# Indices 1 2 3 4 5 6 
#
# 1 140.9185 26.2487 47.3697 0.0000 0.0000 0.0000
# 2 26.2487 73.0435 26.0423 0.0000 0.0000 0.0000
# 3 47.3697 26.0423 48.8040 0.0000 0.0000 0.0000
# 4 0.0000 0.0000 0.0000 28.8631 0.0000 0.0000
# 5 0.0000 0.0000 0.0000 0.0000 11.5802 0.0000
# 6 0.0000 0.0000 0.0000 0.0000 0.0000 23.8905
#
#
#
# Elastic Compliance Matrix: (Units=1/GPa)
#
#
# Indices 1 2 3 4 5 6 
#
# 1 0.010535 -0.000173 -0.010133 0.000000 0.000000 0.000000
# 2 -0.000173 0.016910 -0.008855 0.000000 0.000000 0.000000
# 3 -0.010133 -0.008855 0.035050 0.000000 0.000000 0.000000
# 4 0.000000 0.000000 0.000000 0.034646 0.000000 0.000000
# 5 0.000000 0.000000 0.000000 0.000000 0.086354 0.000000
# 6 0.000000 0.000000 0.000000 0.000000 0.000000 0.041858
#
#
# Mechanical properties :
#
#
# Convention : Reuss Voigt Hill
#
# Bulk Modulus (GPa) = 41.36899 51.34305 46.35602
# Shear Modulus (GPa) = 18.40045 23.74045 21.07045
#
# Velocity S-wave (km/s) = 3.09033 3.51022 3.30694
# Velocity P-wave (km/s) = 5.84847 6.56328 6.21616
#
# Compressibility (1/GPa) = 0.02417270
#
# Stress axis : x y z
#
# Youngs Moduli (GPa) = 94.92507 59.13719 28.53053
#
# Poissons Ratio (x) = 0.01024 0.28909
# Poissons Ratio (y) = 0.01643 0.25264
# Poissons Ratio (z) = 0.96184 0.52367
#
# Static dielectric constant tensor:
#      x y z
#    x 3.604090 0.000000 0.000000 
#    y 0.000000 3.588180 0.000000 
#    z 0.000000 0.000000 3.401990 
# 
# 
# High freq. dielectric constant tensor:
#      x y z
#    x 1.765500 0.000000 0.000000 
#    y 0.000000 1.757840 0.000000 
#    z 0.000000 0.000000 1.742760 
# 
# From -- ./inp_files/3586.got.cif
#   From: 2010.03.12/outbox.cif.g09.slc.cpg/sg55_2_cif.got.tgz:3586.got - 2010.04.16 15:19:21.
