data_PCOD8227286
_publ_section_title
;
Structure prediction by ZEFSAII (Michael W. Deem and Ramdas Pophale) SiO2 
 PCOD8227286
Probable space group: P B A M
;
_chemical_formula_sum "Si O2"
_cell_formula_units_Z 48
_cell_length_a 7.699170
_cell_length_b 15.545578
_cell_length_c 18.806192
_cell_angle_alpha 90.000000
_cell_angle_beta 90.000000
_cell_angle_gamma 90.000000
_cell_volume 2250.876406
_symmetry_space_group_name_H-M "P B A M"
_symmetry_group_IT_number 55
_symmetry_cell_setting 'orthorhombic'
loop_
_space_group_symop_operation_xyz
x,y,z
-x,-y,z
1/2+x,1/2-y,-z
1/2-x,1/2+y,-z
-x,-y,-z
x,y,-z
1/2-x,1/2+y,z
1/2+x,1/2-y,z
loop_
_atom_site_type_symbol
_atom_site_label
_atom_site_fract_x
_atom_site_fract_y
_atom_site_fract_z
Si Si1 0.328155 0.871660 0.671735
Si Si2 0.644175 0.138078 0.833353
Si Si3 0.215787 0.683831 0.665297
Si Si4 0.744372 0.328621 0.827283
Si Si5 0.055058 0.906685 0.923356
Si Si6 0.805660 0.972787 0.578162
O O1 0.311000 0.896035 0.754615
O O2 0.217249 0.786711 0.650359
O O3 0.520698 0.843996 0.655394
O O4 0.289458 0.957468 0.627741
O O5 0.736405 0.229140 0.846101
O O6 0.436829 0.136466 0.848169
O O7 0.751483 0.082063 0.889667
O O8 0.290854 0.661637 0.743243
O O9 0.317632 0.623639 0.610133
O O10 0.587616 0.371886 0.868631
O O11 0.060984 0.855681 0.000000
O O12 0.000000 0.000000 0.944266
O O13 0.715781 0.970689 0.500000
O O14 0.000000 0.000000 0.568545
#
# Coordination Sequence:
#
# PCOD8227286 Si02
#       6
#     8   8   8   8   8   8
#     4  10  22  39  64  93 122 162 210 260 310 366
#     4  10  21  40  65  94 121 161 216 260 307 372
#     4  10  22  39  64  93 122 162 210 260 310 366
#     4  10  21  40  65  94 121 161 216 260 307 372
#     4  11  26  42  60  92 129 169 204 255 328 374
#     4  11  25  41  61  93 127 166 207 250 316 378
#
# _framework density 21.325025
#
# number of rings (size 3 to 8) (size 9 to 14) (size 15 to 20)
#    0.000    1.667    1.667    1.500    7.000    4.000 
#    0.000    1.667    0.000    0.000    0.000    0.000 
#    0.000    0.000    0.000    0.000    0.000    0.000 
#
# Total GULP energy -594750.459815 kJ/mol
# GULP energy per Si atom -12390.634579 kJ/mol
# Density = 2.127649 g / cm^3
# Si number density = 21.325025 Si / 1000 Ang^3
#
#
#
# Elastic Constant Matrix: (Units=GPa)
#
#
# Indices 1 2 3 4 5 6 
#
# 1 71.5114 4.0422 43.8741 0.0000 0.0000 0.0000
# 2 4.0422 43.0400 25.5522 0.0000 0.0000 0.0000
# 3 43.8741 25.5522 106.8611 0.0000 0.0000 0.0000
# 4 0.0000 0.0000 0.0000 25.5856 0.0000 0.0000
# 5 0.0000 0.0000 0.0000 0.0000 92.8768 0.0000
# 6 0.0000 0.0000 0.0000 0.0000 0.0000 35.9831
#
#
#
# Elastic Compliance Matrix: (Units=1/GPa)
#
#
# Indices 1 2 3 4 5 6 
#
# 1 0.019094 0.003334 -0.008637 0.000000 0.000000 0.000000
# 2 0.003334 0.027660 -0.007983 0.000000 0.000000 0.000000
# 3 -0.008637 -0.007983 0.014813 0.000000 0.000000 0.000000
# 4 0.000000 0.000000 0.000000 0.039084 0.000000 0.000000
# 5 0.000000 0.000000 0.000000 0.000000 0.010767 0.000000
# 6 0.000000 0.000000 0.000000 0.000000 0.000000 0.027791
#
#
# Mechanical properties :
#
#
# Convention : Reuss Voigt Hill
#
# Bulk Modulus (GPa) = 28.57441 40.92773 34.75107
# Shear Modulus (GPa) = 28.17756 40.75204 34.46480
#
# Velocity S-wave (km/s) = 3.63896 4.37624 4.02452
# Velocity P-wave (km/s) = 5.57536 6.69098 6.15849
#
# Compressibility (1/GPa) = 0.03499635
#
# Stress axis : x y z
#
# Youngs Moduli (GPa) = 52.37192 36.15276 67.50915
#
# Poissons Ratio (x) = -0.12054 0.58306
# Poissons Ratio (y) = -0.17462 0.53892
# Poissons Ratio (z) = 0.45233 0.28861
#
# Static dielectric constant tensor:
#      x y z
#    x 4.037440 0.000000 0.000000 
#    y 0.000000 -10.729440 0.000000 
#    z 0.000000 0.000000 4.406990 
# 
# 
# High freq. dielectric constant tensor:
#      x y z
#    x 1.847430 0.000000 0.000000 
#    y 0.000000 1.831830 0.000000 
#    z 0.000000 0.000000 1.833880 
# 
# From -- ./inp_files/20755.got.cif
#   From: 2010.03.12/outbox.cif.g09.slc.cpg/sg55_11_cif.got.tgz:20755.got - 2010.04.16 15:19:21.
