data_PCOD8227236
_publ_section_title
;
Structure prediction by ZEFSAII (Michael W. Deem and Ramdas Pophale) SiO2 
 PCOD8227236
Probable space group: P B A M
;
_chemical_formula_sum "Si O2"
_cell_formula_units_Z 56
_cell_length_a 14.421244
_cell_length_b 21.424260
_cell_length_c 8.854254
_cell_angle_alpha 90.000000
_cell_angle_beta 90.000000
_cell_angle_gamma 90.000000
_cell_volume 2735.649992
_symmetry_space_group_name_H-M "P B A M"
_symmetry_group_IT_number 55
_symmetry_cell_setting 'orthorhombic'
loop_
_space_group_symop_operation_xyz
x,y,z
-x,-y,z
1/2+x,1/2-y,-z
1/2-x,1/2+y,-z
-x,-y,-z
x,y,-z
1/2-x,1/2+y,z
1/2+x,1/2-y,z
loop_
_atom_site_type_symbol
_atom_site_label
_atom_site_fract_x
_atom_site_fract_y
_atom_site_fract_z
Si Si1 0.606867 0.898820 0.174740
Si Si2 0.883501 0.758028 0.177145
Si Si3 0.604564 0.114033 0.826621
Si Si4 0.695046 0.780778 0.677980
Si Si5 0.074616 0.819541 0.176356
Si Si6 0.592764 0.536044 0.175800
Si Si7 0.281671 0.989740 0.677126
O O1 0.498304 0.912991 0.196518
O O2 0.630511 0.835532 0.260553
O O3 0.663129 0.956547 0.238147
O O4 0.631460 0.889168 0.000000
O O5 0.892398 0.685879 0.222412
O O6 0.799459 0.790404 0.264704
O O7 0.975956 0.793167 0.230375
O O8 0.866939 0.766715 0.000000
O O9 0.675909 0.077065 0.721661
O O10 0.636509 0.106048 0.000000
O O11 0.693677 0.782716 0.500000
O O12 0.657120 0.714418 0.735238
O O13 0.078975 0.891909 0.216630
O O14 0.089738 0.806486 0.000000
O O15 0.500000 0.500000 0.221404
O O16 0.674902 0.506979 0.274360
O O17 0.616433 0.526693 0.000000
O O18 0.290322 0.000641 0.500000
#
# Coordination Sequence:
#
# PCOD8227236 Si02
#       7
#     8   8   8   8   8   8   8
#     4  11  23  43  68  92 122 165 219 265 309 370
#     4  10  21  39  65  93 122 164 216 263 307 369
#     4  10  21  41  67  94 122 163 217 264 310 371
#     4  12  25  39  60  96 134 167 205 258 330 385
#     4  10  21  42  67  93 123 165 219 265 308 366
#     4  10  23  43  68  95 123 167 224 270 308 366
#     4  12  26  41  61  94 133 169 204 256 328 384
#
# _framework density 20.470452999999999
#
# number of rings (size 3 to 8) (size 9 to 14) (size 15 to 20)
#    0.000    1.286    1.429    4.286    2.000    8.286 
#    0.000    0.000    0.000    0.000    0.000    0.000 
#    0.000    0.000    0.000    0.000    0.000    0.000 
#
# Total GULP energy -694834.484658 kJ/mol
# GULP energy per Si atom -12407.758655 kJ/mol
# Density = 2.042386 g / cm^3
# Si number density = 20.470453 Si / 1000 Ang^3
#
#
#
# Elastic Constant Matrix: (Units=GPa)
#
#
# Indices 1 2 3 4 5 6 
#
# 1 97.4984 6.5536 28.3751 0.0000 0.0000 0.0000
# 2 6.5536 52.2845 6.1305 0.0000 0.0000 0.0000
# 3 28.3751 6.1305 58.8983 0.0000 0.0000 0.0000
# 4 0.0000 0.0000 0.0000 14.9945 0.0000 0.0000
# 5 0.0000 0.0000 0.0000 0.0000 1.1337 0.0000
# 6 0.0000 0.0000 0.0000 0.0000 0.0000 32.0522
#
#
#
# Elastic Compliance Matrix: (Units=1/GPa)
#
#
# Indices 1 2 3 4 5 6 
#
# 1 0.011965 -0.000834 -0.005677 0.000000 0.000000 0.000000
# 2 -0.000834 0.019421 -0.001620 0.000000 0.000000 0.000000
# 3 -0.005677 -0.001620 0.019882 0.000000 0.000000 0.000000
# 4 0.000000 0.000000 0.000000 0.066691 0.000000 0.000000
# 5 0.000000 0.000000 0.000000 0.000000 0.882054 0.000000
# 6 0.000000 0.000000 0.000000 0.000000 0.000000 0.031199
#
#
# Mechanical properties :
#
#
# Convention : Reuss Voigt Hill
#
# Bulk Modulus (GPa) = 28.56695 32.31107 30.43901
# Shear Modulus (GPa) = 4.72080 20.81088 12.76584
#
# Velocity S-wave (km/s) = 1.52025 3.19192 2.49995
# Velocity P-wave (km/s) = 4.13123 5.42245 4.82027
#
# Compressibility (1/GPa) = 0.03500548
#
# Stress axis : x y z
#
# Youngs Moduli (GPa) = 83.57731 51.49181 50.29623
#
# Poissons Ratio (x) = 0.04295 0.28556
# Poissons Ratio (y) = 0.06971 0.08146
# Poissons Ratio (z) = 0.47451 0.08340
#
# Static dielectric constant tensor:
#      x y z
#    x 3.886730 0.000000 0.000000 
#    y 0.000000 3.792350 0.000000 
#    z 0.000000 0.000000 3.567560 
# 
# 
# High freq. dielectric constant tensor:
#      x y z
#    x 1.816260 0.000000 0.000000 
#    y 0.000000 1.809550 0.000000 
#    z 0.000000 0.000000 1.787110 
# 
# From -- ./inp_files/6008.got.cif
#   From: 2010.03.12/outbox.cif.g09.slc.cpg/sg55_4_cif.got.tgz:6008.got - 2010.04.16 15:19:21.
