data_PCOD8227449
_publ_section_title
;
Structure prediction by ZEFSAII (Michael W. Deem and Ramdas Pophale) SiO2 
 PCOD8227449
Probable space group: P B A M
;
_chemical_formula_sum "Si O2"
_cell_formula_units_Z 56
_cell_length_a 19.414594
_cell_length_b 15.967602
_cell_length_c 8.836209
_cell_angle_alpha 90.000000
_cell_angle_beta 90.000000
_cell_angle_gamma 90.000000
_cell_volume 2739.264641
_symmetry_space_group_name_H-M "P B A M"
_symmetry_group_IT_number 55
_symmetry_cell_setting 'orthorhombic'
loop_
_space_group_symop_operation_xyz
x,y,z
-x,-y,z
1/2+x,1/2-y,-z
1/2-x,1/2+y,-z
-x,-y,-z
x,y,-z
1/2-x,1/2+y,z
1/2+x,1/2-y,z
loop_
_atom_site_type_symbol
_atom_site_label
_atom_site_fract_x
_atom_site_fract_y
_atom_site_fract_z
Si Si1 0.731693 0.322633 0.678487
Si Si2 0.665026 0.474910 0.824885
Si Si3 0.099035 0.277489 0.329276
Si Si4 0.875712 0.290339 0.822949
Si Si5 0.608122 0.623028 0.328459
Si Si6 0.543430 0.399372 0.333293
Si Si7 0.498314 0.904878 0.821304
O O1 0.725640 0.334731 0.500000
O O2 0.721393 0.412504 0.757266
O O3 0.673582 0.255452 0.732688
O O4 0.806676 0.293401 0.725030
O O5 0.668494 0.563697 0.736738
O O6 0.588888 0.436864 0.801236
O O7 0.680093 0.490180 0.000000
O O8 0.107869 0.309495 0.500000
O O9 0.044459 0.201690 0.318805
O O10 0.069542 0.356230 0.236367
O O11 0.905456 0.199501 0.784479
O O12 0.930842 0.359879 0.769477
O O13 0.859256 0.298998 0.000000
O O14 0.626248 0.651279 0.500000
O O15 0.536019 0.570556 0.325292
O O16 0.574971 0.422780 0.500000
O O17 0.500000 0.000000 0.758139
O O18 0.492934 0.904724 0.000000
#
# Coordination Sequence:
#
# PCOD8227449 Si02
#       7
#     8   8   8   8   8   8   8
#     4  10  22  42  63  85 119 162 205 251 311 373
#     4  11  22  35  55  86 120 153 196 244 295 357
#     4   9  18  36  61  88 114 150 201 248 293 358
#     4  11  23  40  62  89 121 158 204 255 314 370
#     4  11  21  36  58  84 118 156 195 239 296 361
#     4   9  18  33  55  83 117 153 189 233 289 351
#     4  10  22  40  62  90 123 159 199 252 314 368
#
# _framework density 20.443442999999998
#
# number of rings (size 3 to 8) (size 9 to 14) (size 15 to 20)
#    0.000    1.857    1.429    3.857    0.000    6.571 
#    2.571    0.000    0.000    0.000    0.000    0.000 
#    0.000    0.000    0.000    0.000    0.000    0.000 
#
# Total GULP energy -694278.747754 kJ/mol
# GULP energy per Si atom -12397.834781 kJ/mol
# Density = 2.039691 g / cm^3
# Si number density = 20.443443 Si / 1000 Ang^3
#
#
#
# Elastic Constant Matrix: (Units=GPa)
#
#
# Indices 1 2 3 4 5 6 
#
# 1 88.9180 21.6203 24.4115 0.0000 0.0000 0.0000
# 2 21.6203 84.6864 23.0228 0.0000 0.0000 0.0000
# 3 24.4115 23.0228 66.0910 0.0000 0.0000 0.0000
# 4 0.0000 0.0000 0.0000 32.9936 0.0000 0.0000
# 5 0.0000 0.0000 0.0000 0.0000 28.3063 0.0000
# 6 0.0000 0.0000 0.0000 0.0000 0.0000 17.2679
#
#
#
# Elastic Compliance Matrix: (Units=1/GPa)
#
#
# Indices 1 2 3 4 5 6 
#
# 1 0.012877 -0.002203 -0.003989 0.000000 0.000000 0.000000
# 2 -0.002203 0.013420 -0.003861 0.000000 0.000000 0.000000
# 3 -0.003989 -0.003861 0.017949 0.000000 0.000000 0.000000
# 4 0.000000 0.000000 0.000000 0.030309 0.000000 0.000000
# 5 0.000000 0.000000 0.000000 0.000000 0.035328 0.000000
# 6 0.000000 0.000000 0.000000 0.000000 0.000000 0.057911
#
#
# Mechanical properties :
#
#
# Convention : Reuss Voigt Hill
#
# Bulk Modulus (GPa) = 41.42477 41.97828 41.70152
# Shear Modulus (GPa) = 25.51705 27.08961 26.30333
#
# Velocity S-wave (km/s) = 3.53679 3.64414 3.59087
# Velocity P-wave (km/s) = 6.08158 6.18747 6.13475
#
# Compressibility (1/GPa) = 0.02414015
#
# Stress axis : x y z
#
# Youngs Moduli (GPa) = 77.65724 74.51320 55.71317
#
# Poissons Ratio (x) = 0.16416 0.22223
# Poissons Ratio (y) = 0.17109 0.21512
# Poissons Ratio (z) = 0.30976 0.28772
#
# Static dielectric constant tensor:
#      x y z
#    x 3.519090 0.000000 0.000000 
#    y 0.000000 3.811080 0.000000 
#    z 0.000000 0.000000 3.533660 
# 
# 
# High freq. dielectric constant tensor:
#      x y z
#    x 1.782610 0.000000 0.000000 
#    y 0.000000 1.802740 0.000000 
#    z 0.000000 0.000000 1.792390 
# 
# From -- ./inp_files/8793.got.cif
#   From: 2010.03.12/outbox.cif.g09.slc.cpg/sg55_5_cif.got.tgz:8793.got - 2010.04.16 15:19:21.
