data_PCOD8227479
_publ_section_title
;
Structure prediction by ZEFSAII (Michael W. Deem and Ramdas Pophale) SiO2 
 PCOD8227479
Probable space group: P B A M
;
_chemical_formula_sum "Si O2"
_cell_formula_units_Z 56
_cell_length_a 9.049412
_cell_length_b 13.465176
_cell_length_c 21.404858
_cell_angle_alpha 90.000000
_cell_angle_beta 90.000000
_cell_angle_gamma 90.000000
_cell_volume 2608.223158
_symmetry_space_group_name_H-M "P B A M"
_symmetry_group_IT_number 55
_symmetry_cell_setting 'orthorhombic'
loop_
_space_group_symop_operation_xyz
x,y,z
-x,-y,z
1/2+x,1/2-y,-z
1/2-x,1/2+y,-z
-x,-y,-z
x,y,-z
1/2-x,1/2+y,z
1/2+x,1/2-y,z
loop_
_atom_site_type_symbol
_atom_site_label
_atom_site_fract_x
_atom_site_fract_y
_atom_site_fract_z
Si Si1 0.334382 0.655150 0.572153
Si Si2 0.581767 0.896609 0.070099
Si Si3 0.231625 0.860854 0.769946
Si Si4 0.845347 0.186649 0.368749
Si Si5 0.853556 0.951166 0.150411
Si Si6 0.015624 0.255811 0.175498
Si Si7 0.152094 0.466215 0.570119
O O1 0.332826 0.693925 0.500000
O O2 0.495934 0.665666 0.601851
O O3 0.204994 0.701209 0.616303
O O4 0.290740 0.540220 0.573683
O O5 0.741551 0.924831 0.095999
O O6 0.491961 0.813087 0.109111
O O7 0.500000 0.000000 0.070970
O O8 0.597000 0.854312 0.000000
O O9 0.158315 0.850378 0.702271
O O10 0.405965 0.831689 0.774876
O O11 0.152635 0.773287 0.809608
O O12 0.209403 0.972474 0.796814
O O13 0.706131 0.134657 0.400585
O O14 0.894241 0.846484 0.180953
O O15 0.000000 0.000000 0.119801
O O16 0.107157 0.440288 0.500000
O O17 0.000000 0.500000 0.604486
#
# Coordination Sequence:
#
# PCOD8227479 Si02
#       7
#     8   8   8   8   8   8   8
#     4  11  23  40  64  92 129 169 219 283 342 400
#     4  11  23  42  70 101 131 172 226 273 329 401
#     4  11  24  41  65  94 132 179 226 279 333 410
#     4  12  24  40  63  97 125 173 223 275 337 414
#     4  10  23  43  66  96 136 177 220 276 338 392
#     4  11  22  43  65  94 134 181 216 275 341 387
#     4  10  22  41  62  88 126 168 214 273 340 401
#
# _framework density 21.470555000000001
#
# number of rings (size 3 to 8) (size 9 to 14) (size 15 to 20)
#    0.000    1.143    2.857    3.429    0.000    7.714 
#    2.571    2.143    0.000    0.000    0.000    0.000 
#    0.000    0.000    0.000    0.000    0.000    0.000 
#
# Total GULP energy -693852.024981 kJ/mol
# GULP energy per Si atom -12390.214732 kJ/mol
# Density = 2.142169 g / cm^3
# Si number density = 21.470555 Si / 1000 Ang^3
#
#
#
# Elastic Constant Matrix: (Units=GPa)
#
#
# Indices 1 2 3 4 5 6 
#
# 1 83.1697 16.5742 15.0012 0.0000 0.0000 0.0000
# 2 16.5742 86.3807 32.8797 0.0000 0.0000 0.0000
# 3 15.0012 32.8797 104.0114 0.0000 0.0000 0.0000
# 4 0.0000 0.0000 0.0000 27.6955 0.0000 0.0000
# 5 0.0000 0.0000 0.0000 0.0000 13.9507 0.0000
# 6 0.0000 0.0000 0.0000 0.0000 0.0000 40.5631
#
#
#
# Elastic Compliance Matrix: (Units=1/GPa)
#
#
# Indices 1 2 3 4 5 6 
#
# 1 0.012632 -0.001967 -0.001200 0.000000 0.000000 0.000000
# 2 -0.001967 0.013466 -0.003973 0.000000 0.000000 0.000000
# 3 -0.001200 -0.003973 0.011043 0.000000 0.000000 0.000000
# 4 0.000000 0.000000 0.000000 0.036107 0.000000 0.000000
# 5 0.000000 0.000000 0.000000 0.000000 0.071681 0.000000
# 6 0.000000 0.000000 0.000000 0.000000 0.000000 0.024653
#
#
# Mechanical properties :
#
#
# Convention : Reuss Voigt Hill
#
# Bulk Modulus (GPa) = 43.74208 44.71910 44.23059
# Shear Modulus (GPa) = 26.11188 30.38232 28.24710
#
# Velocity S-wave (km/s) = 3.49115 3.76582 3.63108
# Velocity P-wave (km/s) = 6.05542 6.30729 6.18264
#
# Compressibility (1/GPa) = 0.02286128
#
# Stress axis : x y z
#
# Youngs Moduli (GPa) = 79.16377 74.25868 90.55155
#
# Poissons Ratio (x) = 0.14606 0.10867
# Poissons Ratio (y) = 0.15571 0.35979
# Poissons Ratio (z) = 0.09500 0.29505
#
# Static dielectric constant tensor:
#      x y z
#    x 5.535510 0.000000 0.000000 
#    y 0.000000 4.071510 0.000000 
#    z 0.000000 0.000000 3.838230 
# 
# 
# High freq. dielectric constant tensor:
#      x y z
#    x 1.861570 0.000000 0.000000 
#    y 0.000000 1.856670 0.000000 
#    z 0.000000 0.000000 1.817070 
# 
# From -- ./inp_files/22623.got.cif
#   From: 2010.03.12/outbox.cif.g09.slc.cpg/sg55_12_cif.got.tgz:22623.got - 2010.04.16 15:19:21.
