data_PCOD8227971
_publ_section_title
;
Structure prediction by ZEFSAII (Michael W. Deem and Ramdas Pophale) SiO2 
 PCOD8227971
Probable space group: P C C N
;
_chemical_formula_sum "Si O2"
_cell_formula_units_Z 36
_cell_length_a 7.353267
_cell_length_b 15.156135
_cell_length_c 17.581020
_cell_angle_alpha 90.000000
_cell_angle_beta 90.000000
_cell_angle_gamma 90.000000
_cell_volume 1959.353823
_symmetry_space_group_name_H-M "P C C N"
_symmetry_group_IT_number 56
_symmetry_cell_setting 'orthorhombic'
loop_
_space_group_symop_operation_xyz
x,y,z
1/2-x,1/2-y,z
1/2+x,-y,1/2-z
-x,1/2+y,1/2-z
-x,-y,-z
1/2+x,1/2+y,-z
1/2-x,y,1/2+z
x,1/2-y,1/2+z
loop_
_atom_site_type_symbol
_atom_site_label
_atom_site_fract_x
_atom_site_fract_y
_atom_site_fract_z
Si Si1 0.100562 0.314302 0.324188
Si Si2 0.721258 0.557888 0.302834
Si Si3 0.183436 0.929012 0.326078
Si Si4 0.980435 0.989984 0.088842
Si Si5 0.250000 0.750000 0.756643
O O1 0.250000 0.250000 0.364341
O O2 0.212727 0.357085 0.252976
O O3 0.019549 0.388441 0.381552
O O4 0.929602 0.256215 0.296084
O O5 0.527202 0.554301 0.344010
O O6 0.754792 0.471398 0.253383
O O7 0.876038 0.554440 0.367716
O O8 0.247919 0.829548 0.316166
O O9 0.280991 0.971954 0.397416
O O10 0.000000 0.000000 0.000000
#
# Coordination Sequence:
#
# PCOD8227971 Si02
#       5
#     8   8   8   8   4
#     4  10  21  34  61  87 109 151 199 244 281 338
#     4  10  18  36  58  85 107 150 191 235 282 344
#     4  10  19  34  61  83 108 146 194 237 282 337
#     4  11  23  38  55  84 123 155 186 235 292 349
#     4  10  18  34  60  90 106 140 204 250 274 330
#
# _framework density 18.373405000000002
#
# number of rings (size 3 to 8) (size 9 to 14) (size 15 to 20)
#    0.000    1.778    6.667    1.333    3.111    0.889 
#    0.000    6.667    0.000    0.000    0.000    0.000 
#    0.000    0.000    0.000    0.000    0.000    0.000 
#
# Total GULP energy -445975.814537 kJ/mol
# GULP energy per Si atom -12388.217070 kJ/mol
# Density = 1.833159 g / cm^3
# Si number density = 18.373405 Si / 1000 Ang^3
#
#
#
# Elastic Constant Matrix: (Units=GPa)
#
#
# Indices 1 2 3 4 5 6 
#
# 1 96.9339 35.2118 32.8105 0.0000 0.0000 0.0000
# 2 35.2118 51.5231 8.2504 0.0000 0.0000 0.0000
# 3 32.8105 8.2504 99.8432 0.0000 0.0000 0.0000
# 4 0.0000 0.0000 0.0000 7.1439 0.0000 0.0000
# 5 0.0000 0.0000 0.0000 0.0000 23.6999 0.0000
# 6 0.0000 0.0000 0.0000 0.0000 0.0000 57.0988
#
#
#
# Elastic Compliance Matrix: (Units=1/GPa)
#
#
# Indices 1 2 3 4 5 6 
#
# 1 0.015296 -0.009778 -0.004219 0.000000 0.000000 0.000000
# 2 -0.009778 0.025920 0.001071 0.000000 0.000000 0.000000
# 3 -0.004219 0.001071 0.011313 0.000000 0.000000 0.000000
# 4 0.000000 0.000000 0.000000 0.139980 0.000000 0.000000
# 5 0.000000 0.000000 0.000000 0.000000 0.042194 0.000000
# 6 0.000000 0.000000 0.000000 0.000000 0.000000 0.017514
#
#
# Mechanical properties :
#
#
# Convention : Reuss Voigt Hill
#
# Bulk Modulus (GPa) = 37.48297 44.53840 41.01069
# Shear Modulus (GPa) = 17.42394 29.05701 23.24048
#
# Velocity S-wave (km/s) = 3.08283 3.98109 3.56040
# Velocity P-wave (km/s) = 5.75471 6.73984 6.26666
#
# Compressibility (1/GPa) = 0.02667878
#
# Stress axis : x y z
#
# Youngs Moduli (GPa) = 65.37563 38.58059 88.39003
#
# Poissons Ratio (x) = 0.37725 0.37289
# Poissons Ratio (y) = 0.63925 -0.09471
# Poissons Ratio (z) = 0.27580 -0.04134
#
# Static dielectric constant tensor:
#      x y z
#    x 4.127480 0.000000 0.000000 
#    y 0.000000 3.386540 0.000000 
#    z 0.000000 0.000000 2.788250 
# 
# 
# High freq. dielectric constant tensor:
#      x y z
#    x 1.733760 0.000000 0.000000 
#    y 0.000000 1.717620 0.000000 
#    z 0.000000 0.000000 1.663710 
# 
# From -- ./inp_files/10306.got.cif
#   From: 2010.03.12/outbox.cif.g09.slc.cpg/sg56_6_cif.got.tgz:10306.got - 2010.04.16 15:33:40.
