data_PCOD8227549
_publ_section_title
;
Structure prediction by ZEFSAII (Michael W. Deem and Ramdas Pophale) SiO2 
 PCOD8227549
Probable space group: P B A M
;
_chemical_formula_sum "Si O2"
_cell_formula_units_Z 48
_cell_length_a 8.807725
_cell_length_b 20.310240
_cell_length_c 13.830015
_cell_angle_alpha 90.000000
_cell_angle_beta 90.000000
_cell_angle_gamma 90.000000
_cell_volume 2474.010012
_symmetry_space_group_name_H-M "P B A M"
_symmetry_group_IT_number 55
_symmetry_cell_setting 'orthorhombic'
loop_
_space_group_symop_operation_xyz
x,y,z
-x,-y,z
1/2+x,1/2-y,-z
1/2-x,1/2+y,-z
-x,-y,-z
x,y,-z
1/2-x,1/2+y,z
1/2+x,1/2-y,z
loop_
_atom_site_type_symbol
_atom_site_label
_atom_site_fract_x
_atom_site_fract_y
_atom_site_fract_z
Si Si1 0.443135 0.839231 0.757416
Si Si2 0.347056 0.533814 0.735772
Si Si3 0.367122 0.947847 0.391141
Si Si4 0.183240 0.760852 0.309900
Si Si5 0.084362 0.160760 0.608844
Si Si6 0.597503 0.935228 0.107498
O O1 0.434506 0.883386 0.660454
O O2 0.577757 0.787198 0.750159
O O3 0.282773 0.801761 0.768389
O O4 0.480565 0.881185 0.851830
O O5 0.500000 0.500000 0.775754
O O6 0.272589 0.478792 0.667125
O O7 0.378804 0.600539 0.678546
O O8 0.243928 0.554036 0.826122
O O9 0.314917 0.929445 0.500000
O O10 0.500000 0.000000 0.393890
O O11 0.295838 0.720035 0.378888
O O12 0.085085 0.812093 0.372789
O O13 0.094849 0.134212 0.500000
O O14 0.500000 0.000000 0.103530
O O15 0.651427 0.914561 0.000000
#
# Coordination Sequence:
#
# PCOD8227549 Si02
#       6
#     8   8   8   8   8   8
#     4  11  20  42  60  87 120 158 201 251 298 354
#     4  12  23  38  61  93 129 156 198 259 315 361
#     4  11  21  36  61  89 123 167 208 245 299 367
#     4  10  23  36  61  84 122 165 208 241 289 350
#     4  11  22  37  57  89 128 168 206 243 289 357
#     4  11  23  44  70  90 111 151 204 256 317 374
#
# _framework density 19.401700999999999
#
# number of rings (size 3 to 8) (size 9 to 14) (size 15 to 20)
#    0.000    1.000    5.000    2.000    0.000    8.333 
#    0.000    0.833    0.000    0.000    0.000    0.000 
#    0.000    0.000    0.000    0.000    0.000    0.000 
#
# Total GULP energy -595267.864387 kJ/mol
# GULP energy per Si atom -12401.413841 kJ/mol
# Density = 1.935754 g / cm^3
# Si number density = 19.401701 Si / 1000 Ang^3
#
#
#
# Elastic Constant Matrix: (Units=GPa)
#
#
# Indices 1 2 3 4 5 6 
#
# 1 125.2065 47.5895 61.2251 0.0000 0.0000 0.0000
# 2 47.5895 105.8609 62.5068 0.0000 0.0000 0.0000
# 3 61.2251 62.5068 148.2740 0.0000 0.0000 0.0000
# 4 0.0000 0.0000 0.0000 48.0129 0.0000 0.0000
# 5 0.0000 0.0000 0.0000 0.0000 16.8859 0.0000
# 6 0.0000 0.0000 0.0000 0.0000 0.0000 34.9970
#
#
#
# Elastic Compliance Matrix: (Units=1/GPa)
#
#
# Indices 1 2 3 4 5 6 
#
# 1 0.010643 -0.002915 -0.003166 0.000000 0.000000 0.000000
# 2 -0.002915 0.013376 -0.004435 0.000000 0.000000 0.000000
# 3 -0.003166 -0.004435 0.009921 0.000000 0.000000 0.000000
# 4 0.000000 0.000000 0.000000 0.020828 0.000000 0.000000
# 5 0.000000 0.000000 0.000000 0.000000 0.059221 0.000000
# 6 0.000000 0.000000 0.000000 0.000000 0.000000 0.028574
#
#
# Mechanical properties :
#
#
# Convention : Reuss Voigt Hill
#
# Bulk Modulus (GPa) = 77.47252 80.22049 78.84650
# Shear Modulus (GPa) = 29.78030 33.84716 31.81373
#
# Velocity S-wave (km/s) = 3.92207 4.18131 4.05376
# Velocity P-wave (km/s) = 7.77995 8.04661 7.91441
#
# Compressibility (1/GPa) = 0.01290780
#
# Stress axis : x y z
#
# Youngs Moduli (GPa) = 93.95981 74.76346 100.79620
#
# Poissons Ratio (x) = 0.21795 0.31909
# Poissons Ratio (y) = 0.27392 0.44702
# Poissons Ratio (z) = 0.29745 0.33157
#
# Static dielectric constant tensor:
#      x y z
#    x 3.894580 0.000000 0.000000 
#    y 0.000000 3.871950 0.000000 
#    z 0.000000 0.000000 3.794780 
# 
# 
# High freq. dielectric constant tensor:
#      x y z
#    x 1.771370 0.000000 0.000000 
#    y 0.000000 1.773530 0.000000 
#    z 0.000000 0.000000 1.723240 
# 
# From -- ./inp_files/17375.got.cif
#   From: 2010.03.12/outbox.cif.g09.slc.cpg/sg55_9_cif.got.tgz:17375.got - 2010.04.16 15:19:21.
