data_PCOD8227711
_publ_section_title
;
Structure prediction by ZEFSAII (Michael W. Deem and Ramdas Pophale) SiO2 
 PCOD8227711
Probable space group: P B A M
;
_chemical_formula_sum "Si O2"
_cell_formula_units_Z 40
_cell_length_a 9.124229
_cell_length_b 25.998865
_cell_length_c 8.345263
_cell_angle_alpha 90.000000
_cell_angle_beta 90.000000
_cell_angle_gamma 90.000000
_cell_volume 1979.659934
_symmetry_space_group_name_H-M "P B A M"
_symmetry_group_IT_number 55
_symmetry_cell_setting 'orthorhombic'
loop_
_space_group_symop_operation_xyz
x,y,z
-x,-y,z
1/2+x,1/2-y,-z
1/2-x,1/2+y,-z
-x,-y,-z
x,y,-z
1/2-x,1/2+y,z
1/2+x,1/2-y,z
loop_
_atom_site_type_symbol
_atom_site_label
_atom_site_fract_x
_atom_site_fract_y
_atom_site_fract_z
Si Si1 0.330787 0.791517 0.814044
Si Si2 0.195824 0.105515 0.191817
Si Si3 0.351871 0.201191 0.316116
Si Si4 0.827159 0.005352 0.825118
Si Si5 0.365590 0.385252 0.191460
O O1 0.243527 0.738543 0.794970
O O2 0.477624 0.789083 0.712230
O O3 0.231587 0.838091 0.745827
O O4 0.369442 0.799473 0.000000
O O5 0.314795 0.142629 0.270575
O O6 0.229920 0.047332 0.258845
O O7 0.033221 0.123153 0.247744
O O8 0.208395 0.106552 0.000000
O O9 0.314508 0.212324 0.500000
O O10 0.799361 0.060516 0.737285
O O11 0.752425 0.007900 0.000000
O O12 0.000000 0.000000 0.846892
O O13 0.363288 0.388532 0.000000
#
# Coordination Sequence:
#
# PCOD8227711 Si02
#       5
#     8   8   8   8   8
#     4  11  22  38  59  80 104 139 185 227 268 324
#     4   9  16  31  57  84 109 140 179 220 264 319
#     4  12  25  39  54  77 111 144 177 222 277 326
#     4   7  11  23  48  82 111 133 167 219 270 310
#     4   8  15  29  54  85 109 132 172 227 273 310
#
# _framework density 20.205492
#
# number of rings (size 3 to 8) (size 9 to 14) (size 15 to 20)
#    0.000    2.600    0.000    6.000    0.000    1.600 
#    0.000    2.000    0.000   13.800    0.000    0.000 
#    0.000    0.000    0.000    0.000    0.000    0.000 
#
# Total GULP energy -495657.450847 kJ/mol
# GULP energy per Si atom -12391.436271 kJ/mol
# Density = 2.015950 g / cm^3
# Si number density = 20.205492 Si / 1000 Ang^3
#
#
#
# Elastic Constant Matrix: (Units=GPa)
#
#
# Indices 1 2 3 4 5 6 
#
# 1 63.0896 18.0305 9.3835 0.0000 0.0000 0.0000
# 2 18.0305 109.7604 14.3827 0.0000 0.0000 0.0000
# 3 9.3835 14.3827 37.0492 0.0000 0.0000 0.0000
# 4 0.0000 0.0000 0.0000 2.7455 0.0000 0.0000
# 5 0.0000 0.0000 0.0000 0.0000 17.8535 0.0000
# 6 0.0000 0.0000 0.0000 0.0000 0.0000 35.1314
#
#
#
# Elastic Compliance Matrix: (Units=1/GPa)
#
#
# Indices 1 2 3 4 5 6 
#
# 1 0.017028 -0.002352 -0.003400 0.000000 0.000000 0.000000
# 2 -0.002352 0.009924 -0.003257 0.000000 0.000000 0.000000
# 3 -0.003400 -0.003257 0.029117 0.000000 0.000000 0.000000
# 4 0.000000 0.000000 0.000000 0.364234 0.000000 0.000000
# 5 0.000000 0.000000 0.000000 0.000000 0.056011 0.000000
# 6 0.000000 0.000000 0.000000 0.000000 0.000000 0.028465
#
#
# Mechanical properties :
#
#
# Convention : Reuss Voigt Hill
#
# Bulk Modulus (GPa) = 26.27995 32.61027 29.44511
# Shear Modulus (GPa) = 9.33742 22.35292 15.84517
#
# Velocity S-wave (km/s) = 2.15204 3.32969 2.80340
# Velocity P-wave (km/s) = 4.38288 5.56388 5.00831
#
# Compressibility (1/GPa) = 0.03805182
#
# Stress axis : x y z
#
# Youngs Moduli (GPa) = 58.72591 100.76735 34.34473
#
# Poissons Ratio (x) = 0.23698 0.11677
# Poissons Ratio (y) = 0.13811 0.11186
# Poissons Ratio (z) = 0.19966 0.32818
#
# Static dielectric constant tensor:
#      x y z
#    x 3.400330 0.000000 0.000000 
#    y 0.000000 4.304030 0.000000 
#    z 0.000000 0.000000 3.091520 
# 
# 
# High freq. dielectric constant tensor:
#      x y z
#    x 1.759020 0.000000 0.000000 
#    y 0.000000 1.817450 0.000000 
#    z 0.000000 0.000000 1.737420 
# 
# From -- ./inp_files/2316.got.cif
#   From: 2010.03.12/outbox.cif.g09.slc.cpg/sg55_2_cif.got.tgz:2316.got - 2010.04.16 15:19:21.
