data_PCOD8227512
_publ_section_title
;
Structure prediction by ZEFSAII (Michael W. Deem and Ramdas Pophale) SiO2 
 PCOD8227512
Probable space group: P B A M
;
_chemical_formula_sum "Si O2"
_cell_formula_units_Z 64
_cell_length_a 10.967506
_cell_length_b 32.121637
_cell_length_c 8.432823
_cell_angle_alpha 90.000000
_cell_angle_beta 90.000000
_cell_angle_gamma 90.000000
_cell_volume 2970.835025
_symmetry_space_group_name_H-M "P B A M"
_symmetry_group_IT_number 55
_symmetry_cell_setting 'orthorhombic'
loop_
_space_group_symop_operation_xyz
x,y,z
-x,-y,z
1/2+x,1/2-y,-z
1/2-x,1/2+y,-z
-x,-y,-z
x,y,-z
1/2-x,1/2+y,z
1/2+x,1/2-y,z
loop_
_atom_site_type_symbol
_atom_site_label
_atom_site_fract_x
_atom_site_fract_y
_atom_site_fract_z
Si Si1 0.382176 0.028472 0.315273
Si Si2 0.103784 0.326977 0.317619
Si Si3 0.917722 0.255376 0.687054
Si Si4 0.137837 0.828207 0.184074
Si Si5 0.951814 0.884883 0.311487
Si Si6 0.573364 0.883171 0.819965
Si Si7 0.619073 0.474290 0.186818
Si Si8 0.242658 0.177129 0.681287
O O1 0.375019 0.039421 0.500000
O O2 0.409151 0.068544 0.210870
O O3 0.248125 0.010151 0.264144
O O4 0.500000 0.000000 0.279766
O O5 0.087269 0.338865 0.500000
O O6 0.241765 0.317085 0.279139
O O7 0.030023 0.285417 0.273281
O O8 0.064218 0.367200 0.212201
O O9 0.909783 0.246106 0.500000
O O10 0.944072 0.212802 0.781551
O O11 0.792862 0.278875 0.749491
O O12 0.086456 0.871696 0.256257
O O13 0.160699 0.834928 0.000000
O O14 0.941715 0.890968 0.500000
O O15 0.903481 0.926170 0.227836
O O16 0.874981 0.845145 0.242242
O O17 0.650760 0.856866 0.694511
O O18 0.612903 0.873759 0.000000
O O19 0.500000 0.500000 0.249968
O O20 0.631685 0.480258 0.000000
O O21 0.210862 0.185097 0.500000
#
# Coordination Sequence:
#
# PCOD8227512 Si02
#       8
#     8   8   8   8   8   8   8   8
#     4  11  24  42  66  97 131 171 222 271 321 398
#     4  10  22  42  64  85 118 163 213 259 310 381
#     4   9  20  39  62  88 119 162 211 259 314 376
#     4  12  26  40  58  91 132 166 210 268 328 385
#     4  11  23  41  67  94 125 170 221 263 315 390
#     4  11  21  36  63  93 124 157 196 254 319 374
#     4  11  25  45  69 100 138 175 218 281 351 410
#     4   9  19  37  63  90 118 159 209 255 300 370
#
# _framework density 21.542766
#
# number of rings (size 3 to 8) (size 9 to 14) (size 15 to 20)
#    0.000    1.500    1.250    4.500    1.750    6.000 
#    0.000    2.500    0.000    0.000    0.000    0.000 
#    0.000    0.000    0.000    0.000    0.000    0.000 
#
# Total GULP energy -793091.375417 kJ/mol
# GULP energy per Si atom -12392.052741 kJ/mol
# Density = 2.149373 g / cm^3
# Si number density = 21.542766 Si / 1000 Ang^3
#
#
#
# Elastic Constant Matrix: (Units=GPa)
#
#
# Indices 1 2 3 4 5 6 
#
# 1 115.4750 37.5803 26.2754 0.0000 0.0000 0.0000
# 2 37.5803 68.6138 11.5900 0.0000 0.0000 0.0000
# 3 26.2754 11.5900 55.7019 0.0000 0.0000 0.0000
# 4 0.0000 0.0000 0.0000 30.3881 0.0000 0.0000
# 5 0.0000 0.0000 0.0000 0.0000 26.0261 0.0000
# 6 0.0000 0.0000 0.0000 0.0000 0.0000 32.5783
#
#
#
# Elastic Compliance Matrix: (Units=1/GPa)
#
#
# Indices 1 2 3 4 5 6 
#
# 1 0.011428 -0.005544 -0.004237 0.000000 0.000000 0.000000
# 2 -0.005544 0.017794 -0.001088 0.000000 0.000000 0.000000
# 3 -0.004237 -0.001088 0.020178 0.000000 0.000000 0.000000
# 4 0.000000 0.000000 0.000000 0.032908 0.000000 0.000000
# 5 0.000000 0.000000 0.000000 0.000000 0.038423 0.000000
# 6 0.000000 0.000000 0.000000 0.000000 0.000000 0.030695
#
#
# Mechanical properties :
#
#
# Convention : Reuss Voigt Hill
#
# Bulk Modulus (GPa) = 36.14886 43.40912 39.77899
# Shear Modulus (GPa) = 27.41466 28.75482 28.08474
#
# Velocity S-wave (km/s) = 3.57118 3.65743 3.61456
# Velocity P-wave (km/s) = 5.81557 6.16682 5.99377
#
# Compressibility (1/GPa) = 0.02766339
#
# Stress axis : x y z
#
# Youngs Moduli (GPa) = 87.50319 56.19796 49.55931
#
# Poissons Ratio (x) = 0.31153 0.21000
# Poissons Ratio (y) = 0.48508 0.05390
# Poissons Ratio (z) = 0.37078 0.06112
#
# Static dielectric constant tensor:
#      x y z
#    x 4.280570 0.000000 0.000000 
#    y 0.000000 3.857970 0.000000 
#    z 0.000000 0.000000 3.680900 
# 
# 
# High freq. dielectric constant tensor:
#      x y z
#    x 1.855360 0.000000 0.000000 
#    y 0.000000 1.838870 0.000000 
#    z 0.000000 0.000000 1.835160 
# 
# From -- ./inp_files/4582.got.cif
#   From: 2010.03.12/outbox.cif.g09.slc.cpg/sg55_3_cif.got.tgz:4582.got - 2010.04.16 15:19:21.
