data_PCOD8227689
_publ_section_title
;
Structure prediction by ZEFSAII (Michael W. Deem and Ramdas Pophale) SiO2 
 PCOD8227689
Probable space group: P B A M
;
_chemical_formula_sum "Si O2"
_cell_formula_units_Z 48
_cell_length_a 18.163995
_cell_length_b 9.260523
_cell_length_c 13.235378
_cell_angle_alpha 90.000000
_cell_angle_beta 90.000000
_cell_angle_gamma 90.000000
_cell_volume 2226.297700
_symmetry_space_group_name_H-M "P B A M"
_symmetry_group_IT_number 55
_symmetry_cell_setting 'orthorhombic'
loop_
_space_group_symop_operation_xyz
x,y,z
-x,-y,z
1/2+x,1/2-y,-z
1/2-x,1/2+y,-z
-x,-y,-z
x,y,-z
1/2-x,1/2+y,z
1/2+x,1/2-y,z
loop_
_atom_site_type_symbol
_atom_site_label
_atom_site_fract_x
_atom_site_fract_y
_atom_site_fract_z
Si Si1 0.822907 0.003830 0.216926
Si Si2 0.123665 0.997889 0.000000
Si Si3 0.996116 0.231921 0.000000
Si Si4 0.795907 0.569224 0.500000
Si Si5 0.046679 0.872482 0.667249
Si Si6 0.812315 0.687821 0.714784
Si Si7 0.964934 0.644380 0.791647
Si Si8 0.150423 0.759481 0.500000
O O1 0.904400 0.057565 0.244460
O O2 0.764059 0.122737 0.248157
O O3 0.823246 0.980479 0.096436
O O4 0.802741 0.859923 0.278920
O O5 0.060904 0.116942 0.000000
O O6 0.084593 0.841181 0.000000
O O7 0.003606 0.333467 0.096804
O O8 0.831704 0.640315 0.599894
O O9 0.808758 0.395697 0.500000
O O10 0.708970 0.609058 0.500000
O O11 0.098065 0.776928 0.595975
O O12 0.985464 0.773615 0.717796
O O13 0.000000 0.000000 0.611460
O O14 0.876415 0.633410 0.789779
O O15 0.000000 0.500000 0.746877
#
# Coordination Sequence:
#
# PCOD8227689 Si02
#       8
#     8   4   4   4   8   8   8   4
#     4  12  26  45  72 105 140 191 236 299 353 436
#     4  11  22  43  75 103 140 189 244 288 365 434
#     4  11  21  43  73 103 139 194 232 294 371 430
#     4  12  26  47  71 104 145 197 232 303 368 430
#     4  12  24  47  71 104 140 190 242 295 356 433
#     4  12  27  46  72 101 146 188 242 293 365 428
#     4  12  26  44  72 108 143 184 244 305 357 425
#     4  12  27  43  75 105 145 188 248 292 371 434
#
# _framework density 21.560459000000002
#
# number of rings (size 3 to 8) (size 9 to 14) (size 15 to 20)
#    0.000    0.167    6.667    2.500    2.333    2.000 
#    0.000    1.667    0.000    0.000    0.000    0.000 
#    0.000    0.000    0.000    0.000    0.000    0.000 
#
# Total GULP energy -595399.863348 kJ/mol
# GULP energy per Si atom -12404.163820 kJ/mol
# Density = 2.151139 g / cm^3
# Si number density = 21.560459 Si / 1000 Ang^3
#
#
#
# Elastic Constant Matrix: (Units=GPa)
#
#
# Indices 1 2 3 4 5 6 
#
# 1 94.3109 42.2419 17.0719 0.0000 0.0000 0.0000
# 2 42.2419 108.4124 37.4153 0.0000 0.0000 0.0000
# 3 17.0719 37.4153 119.9199 0.0000 0.0000 0.0000
# 4 0.0000 0.0000 0.0000 28.6330 0.0000 0.0000
# 5 0.0000 0.0000 0.0000 0.0000 23.2036 0.0000
# 6 0.0000 0.0000 0.0000 0.0000 0.0000 36.8330
#
#
#
# Elastic Compliance Matrix: (Units=1/GPa)
#
#
# Indices 1 2 3 4 5 6 
#
# 1 0.012855 -0.004905 -0.000300 0.000000 0.000000 0.000000
# 2 -0.004905 0.012209 -0.003111 0.000000 0.000000 0.000000
# 3 -0.000300 -0.003111 0.009352 0.000000 0.000000 0.000000
# 4 0.000000 0.000000 0.000000 0.034925 0.000000 0.000000
# 5 0.000000 0.000000 0.000000 0.000000 0.043097 0.000000
# 6 0.000000 0.000000 0.000000 0.000000 0.000000 0.027150
#
#
# Mechanical properties :
#
#
# Convention : Reuss Voigt Hill
#
# Bulk Modulus (GPa) = 56.22959 57.34459 56.78709
# Shear Modulus (GPa) = 30.83638 32.79487 31.81562
#
# Velocity S-wave (km/s) = 3.78594 3.90431 3.84558
# Velocity P-wave (km/s) = 6.72664 6.85418 6.79071
#
# Compressibility (1/GPa) = 0.01778423
#
# Stress axis : x y z
#
# Youngs Moduli (GPa) = 77.79363 81.90702 106.92724
#
# Poissons Ratio (x) = 0.40178 0.03203
# Poissons Ratio (y) = 0.38160 0.33264
# Poissons Ratio (z) = 0.02330 0.25481
#
# Static dielectric constant tensor:
#      x y z
#    x 3.789390 0.000000 0.000000 
#    y 0.000000 3.925190 0.000000 
#    z 0.000000 0.000000 4.071610 
# 
# 
# High freq. dielectric constant tensor:
#      x y z
#    x 1.848850 0.000000 0.000000 
#    y 0.000000 1.854770 0.000000 
#    z 0.000000 0.000000 1.849270 
# 
# From -- ./inp_files/19401.got.cif
#   From: 2010.03.12/outbox.cif.g09.slc.cpg/sg55_10_cif.got.tgz:19401.got - 2010.04.16 15:19:21.
