data_PCOD8227190
_publ_section_title
;
Structure prediction by ZEFSAII (Michael W. Deem and Ramdas Pophale) SiO2 
 PCOD8227190
Probable space group: P B A M
;
_chemical_formula_sum "Si O2"
_cell_formula_units_Z 56
_cell_length_a 21.536174
_cell_length_b 14.641739
_cell_length_c 8.667322
_cell_angle_alpha 90.000000
_cell_angle_beta 90.000000
_cell_angle_gamma 90.000000
_cell_volume 2733.040980
_symmetry_space_group_name_H-M "P B A M"
_symmetry_group_IT_number 55
_symmetry_cell_setting 'orthorhombic'
loop_
_space_group_symop_operation_xyz
x,y,z
-x,-y,z
1/2+x,1/2-y,-z
1/2-x,1/2+y,-z
-x,-y,-z
x,y,-z
1/2-x,1/2+y,z
1/2+x,1/2-y,z
loop_
_atom_site_type_symbol
_atom_site_label
_atom_site_fract_x
_atom_site_fract_y
_atom_site_fract_z
Si Si1 0.122283 0.798830 0.179774
Si Si2 0.642074 0.989274 0.823296
Si Si3 0.528574 0.860569 0.825870
Si Si4 0.281463 0.169492 0.320035
Si Si5 0.569896 0.509796 0.816863
Si Si6 0.851497 0.835320 0.819706
Si Si7 0.096580 0.338208 0.322680
O O1 0.064112 0.733199 0.209526
O O2 0.182638 0.761201 0.268310
O O3 0.103039 0.898118 0.244660
O O4 0.139832 0.801737 0.000000
O O5 0.574300 0.945543 0.804011
O O6 0.694314 0.919935 0.766837
O O7 0.644722 0.082051 0.724607
O O8 0.656534 0.013086 0.000000
O O9 0.473375 0.872730 0.704766
O O10 0.501821 0.859966 0.000000
O O11 0.291464 0.155538 0.500000
O O12 0.209591 0.179532 0.281069
O O13 0.500000 0.500000 0.748570
O O14 0.611879 0.425084 0.763164
O O15 0.565189 0.514567 0.000000
O O16 0.895155 0.749246 0.786388
O O17 0.835026 0.841301 0.000000
O O18 0.107478 0.312558 0.500000
#
# Coordination Sequence:
#
# PCOD8227190 Si02
#       7
#     8   8   8   8   8   8   8
#     4   9  18  36  62  88 115 151 196 239 285 348
#     4  10  21  39  62  85 112 151 196 235 280 345
#     4   9  18  34  58  86 116 150 188 230 278 344
#     4  11  23  40  59  84 119 152 191 242 295 347
#     4   9  18  35  62  92 116 145 192 246 293 341
#     4  11  23  40  61  83 113 154 199 244 290 349
#     4  12  24  36  54  84 119 151 186 235 295 346
#
# _framework density 20.489996000000001
#
# number of rings (size 3 to 8) (size 9 to 14) (size 15 to 20)
#    0.000    1.857    0.000    5.571    0.000    8.000 
#    0.000    5.714    0.000    3.000    0.000    0.000 
#    0.000    0.000    0.000    0.000    0.000    0.000 
#
# Total GULP energy -694616.960922 kJ/mol
# GULP energy per Si atom -12403.874302 kJ/mol
# Density = 2.044336 g / cm^3
# Si number density = 20.489996 Si / 1000 Ang^3
#
#
#
# Elastic Constant Matrix: (Units=GPa)
#
#
# Indices 1 2 3 4 5 6 
#
# 1 87.5103 29.5703 26.2386 0.0000 0.0000 0.0000
# 2 29.5703 138.0335 25.1770 0.0000 0.0000 0.0000
# 3 26.2386 25.1770 67.5865 0.0000 0.0000 0.0000
# 4 0.0000 0.0000 0.0000 19.4704 0.0000 0.0000
# 5 0.0000 0.0000 0.0000 0.0000 16.7385 0.0000
# 6 0.0000 0.0000 0.0000 0.0000 0.0000 19.4384
#
#
#
# Elastic Compliance Matrix: (Units=1/GPa)
#
#
# Indices 1 2 3 4 5 6 
#
# 1 0.013463 -0.002072 -0.004455 0.000000 0.000000 0.000000
# 2 -0.002072 0.008091 -0.002210 0.000000 0.000000 0.000000
# 3 -0.004455 -0.002210 0.017349 0.000000 0.000000 0.000000
# 4 0.000000 0.000000 0.000000 0.051360 0.000000 0.000000
# 5 0.000000 0.000000 0.000000 0.000000 0.059743 0.000000
# 6 0.000000 0.000000 0.000000 0.000000 0.000000 0.051445
#
#
# Mechanical properties :
#
#
# Convention : Reuss Voigt Hill
#
# Bulk Modulus (GPa) = 46.66327 50.56690 48.61508
# Shear Modulus (GPa) = 22.11738 25.27242 23.69490
#
# Velocity S-wave (km/s) = 3.28902 3.51579 3.40430
# Velocity P-wave (km/s) = 6.10301 6.41977 6.26339
#
# Compressibility (1/GPa) = 0.02143013
#
# Stress axis : x y z
#
# Youngs Moduli (GPa) = 74.27792 123.58666 57.64151
#
# Poissons Ratio (x) = 0.25601 0.25679
# Poissons Ratio (y) = 0.15387 0.12739
# Poissons Ratio (z) = 0.33090 0.27312
#
# Static dielectric constant tensor:
#      x y z
#    x 3.583590 0.000000 0.000000 
#    y 0.000000 3.925320 0.000000 
#    z 0.000000 0.000000 3.432260 
# 
# 
# High freq. dielectric constant tensor:
#      x y z
#    x 1.797400 0.000000 0.000000 
#    y 0.000000 1.812720 0.000000 
#    z 0.000000 0.000000 1.780190 
# 
# From -- ./inp_files/8769.got.cif
#   From: 2010.03.12/outbox.cif.g09.slc.cpg/sg55_5_cif.got.tgz:8769.got - 2010.04.16 15:19:21.
