data_PCOD8227134
_publ_section_title
;
Structure prediction by ZEFSAII (Michael W. Deem and Ramdas Pophale) SiO2 
 PCOD8227134
Probable space group: P B A M
;
_chemical_formula_sum "Si O2"
_cell_formula_units_Z 48
_cell_length_a 10.047853
_cell_length_b 26.283461
_cell_length_c 8.931950
_cell_angle_alpha 90.000000
_cell_angle_beta 90.000000
_cell_angle_gamma 90.000000
_cell_volume 2358.859688
_symmetry_space_group_name_H-M "P B A M"
_symmetry_group_IT_number 55
_symmetry_cell_setting 'orthorhombic'
loop_
_space_group_symop_operation_xyz
x,y,z
-x,-y,z
1/2+x,1/2-y,-z
1/2-x,1/2+y,-z
-x,-y,-z
x,y,-z
1/2-x,1/2+y,z
1/2+x,1/2-y,z
loop_
_atom_site_type_symbol
_atom_site_label
_atom_site_fract_x
_atom_site_fract_y
_atom_site_fract_z
Si Si1 0.148381 0.140575 0.326935
Si Si2 0.158457 0.360502 0.324924
Si Si3 0.875498 0.534737 0.174648
Si Si4 0.596249 0.690531 0.176193
Si Si5 0.095216 0.704404 0.671612
Si Si6 0.143784 0.024109 0.328217
O O1 0.106651 0.145712 0.500000
O O2 0.297226 0.160458 0.298419
O O3 0.140853 0.082372 0.273797
O O4 0.049589 0.174703 0.229916
O O5 0.185164 0.365929 0.500000
O O6 0.103672 0.413446 0.264168
O O7 0.296519 0.347365 0.246407
O O8 0.050067 0.317223 0.289881
O O9 0.741293 0.506856 0.222420
O O10 0.000000 0.500000 0.216484
O O11 0.868336 0.547195 0.000000
O O12 0.626803 0.748127 0.223392
O O13 0.605524 0.685995 0.000000
O O14 0.101853 0.723047 0.500000
O O15 0.192668 0.020615 0.500000
O O16 0.000000 0.000000 0.308505
#
# Coordination Sequence:
#
# PCOD8227134 Si02
#       6
#     8   8   8   8   8   8
#     4  10  21  39  62  88 118 154 199 246 292 348
#     4  11  23  41  65  89 117 157 204 250 292 344
#     4  11  24  40  60  90 126 159 193 240 299 358
#     4  12  25  39  59  89 123 157 194 241 300 360
#     4  10  22  40  62  87 116 155 203 250 294 345
#     4  10  21  38  62  90 118 154 201 247 291 346
#
# _framework density 20.348814000000001
#
# number of rings (size 3 to 8) (size 9 to 14) (size 15 to 20)
#    0.000    1.333    0.000    5.500    0.000   11.000 
#    0.000    0.000    0.000    0.000    0.000    0.000 
#    0.000    0.000    0.000    0.000    0.000    0.000 
#
# Total GULP energy -595596.814990 kJ/mol
# GULP energy per Si atom -12408.266979 kJ/mol
# Density = 2.030250 g / cm^3
# Si number density = 20.348814 Si / 1000 Ang^3
#
#
#
# Elastic Constant Matrix: (Units=GPa)
#
#
# Indices 1 2 3 4 5 6 
#
# 1 77.9881 5.1965 39.6283 0.0000 0.0000 0.0000
# 2 5.1965 92.9811 43.7280 0.0000 0.0000 0.0000
# 3 39.6283 43.7280 103.9445 0.0000 0.0000 0.0000
# 4 0.0000 0.0000 0.0000 37.0817 0.0000 0.0000
# 5 0.0000 0.0000 0.0000 0.0000 78.8933 0.0000
# 6 0.0000 0.0000 0.0000 0.0000 0.0000 32.6361
#
#
#
# Elastic Compliance Matrix: (Units=1/GPa)
#
#
# Indices 1 2 3 4 5 6 
#
# 1 0.016363 0.002517 -0.007297 0.000000 0.000000 0.000000
# 2 0.002517 0.013795 -0.006763 0.000000 0.000000 0.000000
# 3 -0.007297 -0.006763 0.015248 0.000000 0.000000 0.000000
# 4 0.000000 0.000000 0.000000 0.026967 0.000000 0.000000
# 5 0.000000 0.000000 0.000000 0.000000 0.012675 0.000000
# 6 0.000000 0.000000 0.000000 0.000000 0.000000 0.030641
#
#
# Mechanical properties :
#
#
# Convention : Reuss Voigt Hill
#
# Bulk Modulus (GPa) = 44.80415 50.22436 47.51425
# Shear Modulus (GPa) = 34.19640 42.14629 38.17134
#
# Velocity S-wave (km/s) = 4.10385 4.55597 4.33581
# Velocity P-wave (km/s) = 6.67243 7.23955 6.96177
#
# Compressibility (1/GPa) = 0.02231936
#
# Stress axis : x y z
#
# Youngs Moduli (GPa) = 61.11467 72.49144 65.58398
#
# Poissons Ratio (x) = -0.18248 0.47858
# Poissons Ratio (y) = -0.15385 0.44354
# Poissons Ratio (z) = 0.44597 0.49026
#
# Static dielectric constant tensor:
#      x y z
#    x 3.701740 0.000000 0.000000 
#    y 0.000000 3.777640 0.000000 
#    z 0.000000 0.000000 3.649730 
# 
# 
# High freq. dielectric constant tensor:
#      x y z
#    x 1.808070 0.000000 0.000000 
#    y 0.000000 1.810200 0.000000 
#    z 0.000000 0.000000 1.789840 
# 
# From -- ./inp_files/2879.got.cif
#   From: 2010.03.12/outbox.cif.g09.slc.cpg/sg55_2_cif.got.tgz:2879.got - 2010.04.16 15:19:21.
