data_PCOD8227255
_publ_section_title
;
Structure prediction by ZEFSAII (Michael W. Deem and Ramdas Pophale) SiO2 
 PCOD8227255
Probable space group: P B A M
;
_chemical_formula_sum "Si O2"
_cell_formula_units_Z 40
_cell_length_a 15.347479
_cell_length_b 10.323844
_cell_length_c 12.937078
_cell_angle_alpha 90.000000
_cell_angle_beta 90.000000
_cell_angle_gamma 90.000000
_cell_volume 2049.815052
_symmetry_space_group_name_H-M "P B A M"
_symmetry_group_IT_number 55
_symmetry_cell_setting 'orthorhombic'
loop_
_space_group_symop_operation_xyz
x,y,z
-x,-y,z
1/2+x,1/2-y,-z
1/2-x,1/2+y,-z
-x,-y,-z
x,y,-z
1/2-x,1/2+y,z
1/2+x,1/2-y,z
loop_
_atom_site_type_symbol
_atom_site_label
_atom_site_fract_x
_atom_site_fract_y
_atom_site_fract_z
Si Si1 0.177526 0.729278 0.294373
Si Si2 0.739627 0.931947 0.879377
Si Si3 0.358685 0.732678 0.381907
Si Si4 0.401555 0.493398 0.243383
Si Si5 0.904073 0.523830 0.253865
O O1 0.221160 0.703607 0.180564
O O2 0.254393 0.752138 0.376496
O O3 0.122688 0.600434 0.325198
O O4 0.114738 0.852399 0.292193
O O5 0.836257 0.982302 0.851975
O O6 0.666559 0.035986 0.839656
O O7 0.730885 0.907794 0.000000
O O8 0.389076 0.735647 0.500000
O O9 0.386599 0.595846 0.334346
O O10 0.406616 0.847850 0.321934
O O11 0.500000 0.500000 0.200927
O O12 0.000000 0.500000 0.206574
#
# Coordination Sequence:
#
# PCOD8227255 Si02
#       5
#     8   8   8   8   8
#     4   9  20  40  59  89 121 162 200 256 299 366
#     4   9  21  40  64  90 121 163 202 245 308 364
#     4  11  22  40  64  90 122 165 208 251 313 370
#     4  11  22  40  64  91 129 161 203 259 311 365
#     4  10  21  40  63  89 124 159 203 256 300 363
#
# _framework density 19.513957000000001
#
# number of rings (size 3 to 8) (size 9 to 14) (size 15 to 20)
#    1.200    0.800    2.000    1.200    0.000    5.600 
#    0.000    2.000    0.000    0.000    0.000    0.000 
#    0.000    0.000    0.000    0.000    0.000    0.000 
#
# Total GULP energy -495750.156703 kJ/mol
# GULP energy per Si atom -12393.753918 kJ/mol
# Density = 1.946954 g / cm^3
# Si number density = 19.513957 Si / 1000 Ang^3
#
#
#
# Elastic Constant Matrix: (Units=GPa)
#
#
# Indices 1 2 3 4 5 6 
#
# 1 140.3064 9.3843 19.6357 0.0000 0.0000 0.0000
# 2 9.3843 109.6413 18.1571 0.0000 0.0000 0.0000
# 3 19.6357 18.1571 102.1418 0.0000 0.0000 0.0000
# 4 0.0000 0.0000 0.0000 16.8493 0.0000 0.0000
# 5 0.0000 0.0000 0.0000 0.0000 8.2962 0.0000
# 6 0.0000 0.0000 0.0000 0.0000 0.0000 29.6613
#
#
#
# Elastic Compliance Matrix: (Units=1/GPa)
#
#
# Indices 1 2 3 4 5 6 
#
# 1 0.007342 -0.000407 -0.001339 0.000000 0.000000 0.000000
# 2 -0.000407 0.009420 -0.001596 0.000000 0.000000 0.000000
# 3 -0.001339 -0.001596 0.010332 0.000000 0.000000 0.000000
# 4 0.000000 0.000000 0.000000 0.059350 0.000000 0.000000
# 5 0.000000 0.000000 0.000000 0.000000 0.120538 0.000000
# 6 0.000000 0.000000 0.000000 0.000000 0.000000 0.033714
#
#
# Mechanical properties :
#
#
# Convention : Reuss Voigt Hill
#
# Bulk Modulus (GPa) = 48.99790 49.60486 49.30138
# Shear Modulus (GPa) = 19.67098 31.28884 25.47991
#
# Velocity S-wave (km/s) = 3.17842 4.00860 3.61741
# Velocity P-wave (km/s) = 6.21558 6.84840 6.53965
#
# Compressibility (1/GPa) = 0.02040904
#
# Stress axis : x y z
#
# Youngs Moduli (GPa) = 136.20520 106.15923 96.79123
#
# Poissons Ratio (x) = 0.04317 0.12961
# Poissons Ratio (y) = 0.05539 0.15451
# Poissons Ratio (z) = 0.18239 0.16947
#
# Static dielectric constant tensor:
#      x y z
#    x 3.623400 0.000000 0.000000 
#    y 0.000000 3.543100 0.000000 
#    z 0.000000 0.000000 3.049210 
# 
# 
# High freq. dielectric constant tensor:
#      x y z
#    x 1.768560 0.000000 0.000000 
#    y 0.000000 1.768800 0.000000 
#    z 0.000000 0.000000 1.714420 
# 
# From -- ./inp_files/13943.got.cif
#   From: 2010.03.12/outbox.cif.g09.slc.cpg/sg55_7_cif.got.tgz:13943.got - 2010.04.16 15:19:21.
