data_PCOD8227095
_publ_section_title
;
Structure prediction by ZEFSAII (Michael W. Deem and Ramdas Pophale) SiO2 
 PCOD8227095
Probable space group: P B A M
;
_chemical_formula_sum "Si O2"
_cell_formula_units_Z 64
_cell_length_a 23.467330
_cell_length_b 15.317666
_cell_length_c 9.325262
_cell_angle_alpha 90.000000
_cell_angle_beta 90.000000
_cell_angle_gamma 90.000000
_cell_volume 3352.102720
_symmetry_space_group_name_H-M "P B A M"
_symmetry_group_IT_number 55
_symmetry_cell_setting 'orthorhombic'
loop_
_space_group_symop_operation_xyz
x,y,z
-x,-y,z
1/2+x,1/2-y,-z
1/2-x,1/2+y,-z
-x,-y,-z
x,y,-z
1/2-x,1/2+y,z
1/2+x,1/2-y,z
loop_
_atom_site_type_symbol
_atom_site_label
_atom_site_fract_x
_atom_site_fract_y
_atom_site_fract_z
Si Si1 0.069316 0.745561 0.829396
Si Si2 0.550488 0.560934 0.829856
Si Si3 0.663967 0.465210 0.165072
Si Si4 0.016579 0.402680 0.169912
Si Si5 0.697699 0.299919 0.338057
Si Si6 0.130336 0.373945 0.661430
Si Si7 0.789270 0.510058 0.840486
Si Si8 0.806842 0.306486 0.164270
O O1 0.045726 0.839160 0.773050
O O2 0.133823 0.731182 0.774319
O O3 0.029791 0.666884 0.771873
O O4 0.069976 0.742931 0.000000
O O5 0.500000 0.500000 0.765727
O O6 0.611260 0.523035 0.780578
O O7 0.546168 0.561820 0.000000
O O8 0.666858 0.379496 0.260364
O O9 0.721538 0.521346 0.182052
O O10 0.656018 0.435819 0.000000
O O11 0.076273 0.379043 0.237842
O O12 0.000000 0.500000 0.218593
O O13 0.022852 0.396855 0.000000
O O14 0.713951 0.326748 0.500000
O O15 0.651653 0.224303 0.336129
O O16 0.755028 0.268593 0.257663
O O17 0.115029 0.403274 0.500000
O O18 0.180037 0.435628 0.718882
O O19 0.808149 0.410438 0.823063
O O20 0.806441 0.542830 0.000000
O O21 0.796947 0.277279 0.000000
#
# Coordination Sequence:
#
# PCOD8227095 Si02
#       8
#     8   8   8   8   8   8   8   8
#     4   9  18  32  55  85 114 144 179 230 284 327
#     4   9  18  31  51  83 115 139 177 231 279 331
#     4   9  19  35  57  83 109 141 184 228 279 334
#     4  10  21  38  60  85 112 146 187 232 282 333
#     4  10  22  37  53  78 113 148 184 225 272 332
#     4  11  24  37  53  80 113 150 189 225 272 335
#     4   9  18  33  54  82 109 140 182 231 280 334
#     4   9  18  35  59  84 110 140 181 227 280 333
#
# _framework density 19.092493999999999
#
# number of rings (size 3 to 8) (size 9 to 14) (size 15 to 20)
#    0.000    2.500    0.000    2.250    3.500    6.250 
#    0.000    0.625    0.000    1.125    0.000    0.000 
#    0.000    0.000    0.000    0.000    0.000    0.000 
#
# Total GULP energy -793593.223594 kJ/mol
# GULP energy per Si atom -12399.894119 kJ/mol
# Density = 1.904904 g / cm^3
# Si number density = 19.092494 Si / 1000 Ang^3
#
#
#
# Elastic Constant Matrix: (Units=GPa)
#
#
# Indices 1 2 3 4 5 6 
#
# 1 131.9798 69.8051 29.9514 0.0000 0.0000 0.0000
# 2 69.8051 104.9499 29.1236 0.0000 0.0000 0.0000
# 3 29.9514 29.1236 52.8187 0.0000 0.0000 0.0000
# 4 0.0000 0.0000 0.0000 16.7538 0.0000 0.0000
# 5 0.0000 0.0000 0.0000 0.0000 6.7034 0.0000
# 6 0.0000 0.0000 0.0000 0.0000 0.0000 32.4166
#
#
#
# Elastic Compliance Matrix: (Units=1/GPa)
#
#
# Indices 1 2 3 4 5 6 
#
# 1 0.012041 -0.007219 -0.002848 0.000000 0.000000 0.000000
# 2 -0.007219 0.015577 -0.004496 0.000000 0.000000 0.000000
# 3 -0.002848 -0.004496 0.023026 0.000000 0.000000 0.000000
# 4 0.000000 0.000000 0.000000 0.059688 0.000000 0.000000
# 5 0.000000 0.000000 0.000000 0.000000 0.149179 0.000000
# 6 0.000000 0.000000 0.000000 0.000000 0.000000 0.030848
#
#
# Mechanical properties :
#
#
# Convention : Reuss Voigt Hill
#
# Bulk Modulus (GPa) = 46.46719 60.83430 53.65075
# Shear Modulus (GPa) = 15.30653 21.89929 18.60291
#
# Velocity S-wave (km/s) = 2.83451 3.39043 3.12486
# Velocity P-wave (km/s) = 5.92481 6.87450 6.41725
#
# Compressibility (1/GPa) = 0.02152056
#
# Stress axis : x y z
#
# Youngs Moduli (GPa) = 83.04811 64.19608 43.42835
#
# Poissons Ratio (x) = 0.46341 0.12367
# Poissons Ratio (y) = 0.59950 0.19524
# Poissons Ratio (z) = 0.23650 0.28861
#
# Static dielectric constant tensor:
#      x y z
#    x 3.628940 0.000000 0.000000 
#    y 0.000000 3.710310 0.000000 
#    z 0.000000 0.000000 3.271920 
# 
# 
# High freq. dielectric constant tensor:
#      x y z
#    x 1.752140 0.000000 0.000000 
#    y 0.000000 1.745620 0.000000 
#    z 0.000000 0.000000 1.706850 
# 
# From -- ./inp_files/9821.got.cif
#   From: 2010.03.12/outbox.cif.g09.slc.cpg/sg55_5_cif.got.tgz:9821.got - 2010.04.16 15:19:21.
