data_PCOD8227929
_publ_section_title
;
Structure prediction by ZEFSAII (Michael W. Deem and Ramdas Pophale) SiO2 
 PCOD8227929
Probable space group: P C C N
;
_chemical_formula_sum "Si O2"
_cell_formula_units_Z 56
_cell_length_a 27.947451
_cell_length_b 17.237224
_cell_length_c 5.227434
_cell_angle_alpha 90.000000
_cell_angle_beta 90.000000
_cell_angle_gamma 90.000000
_cell_volume 2518.245619
_symmetry_space_group_name_H-M "P C C N"
_symmetry_group_IT_number 56
_symmetry_cell_setting 'orthorhombic'
loop_
_space_group_symop_operation_xyz
x,y,z
1/2-x,1/2-y,z
1/2+x,-y,1/2-z
-x,1/2+y,1/2-z
-x,-y,-z
1/2+x,1/2+y,-z
1/2-x,y,1/2+z
x,1/2-y,1/2+z
loop_
_atom_site_type_symbol
_atom_site_label
_atom_site_fract_x
_atom_site_fract_y
_atom_site_fract_z
Si Si1 0.694281 0.964202 0.388088
Si Si2 0.959213 0.431749 0.808646
Si Si3 0.499059 0.906663 0.690980
Si Si4 0.234037 0.890432 0.598348
Si Si5 0.309375 0.202692 0.487208
Si Si6 0.146853 0.517137 0.104580
Si Si7 0.921357 0.704425 0.527366
O O1 0.716476 0.879087 0.446196
O O2 0.661703 0.960492 0.129896
O O3 0.737593 0.026184 0.359986
O O4 0.658844 0.982773 0.620335
O O5 0.959808 0.387532 0.533608
O O6 0.995831 0.501908 0.749027
O O7 0.979299 0.375135 0.035007
O O8 0.908343 0.462145 0.904281
O O9 0.550021 0.872618 0.604664
O O10 0.244774 0.842958 0.858205
O O11 0.177709 0.903826 0.566375
O O12 0.294240 0.262940 0.711455
O O13 0.365622 0.184620 0.473060
O O14 0.935229 0.731950 0.242690
#
# Coordination Sequence:
#
# PCOD8227929 Si02
#       7
#     8   8   8   8   8   8   8
#     4  10  18  30  48  65  88 116 152 194 232 277
#     4  10  20  31  48  70  95 123 148 196 248 285
#     4  10  20  33  46  69  97 119 156 197 241 289
#     4   8  16  28  44  63  83 110 148 182 215 273
#     4  10  20  31  45  65  85 113 157 204 242 272
#     4  10  18  30  48  66  85 116 153 180 227 289
#     4  10  20  33  49  67  91 127 166 202 237 278
#
# _framework density 22.237701000000001
#
# number of rings (size 3 to 8) (size 9 to 14) (size 15 to 20)
#    0.000    2.286    0.000    3.429    0.000    4.571 
#    0.000    0.000    0.000   23.143    0.000    0.000 
#    0.000    0.000    0.000    0.000    0.000  450.000 
#
# Total GULP energy -693752.930097 kJ/mol
# GULP energy per Si atom -12388.445180 kJ/mol
# Density = 2.218709 g / cm^3
# Si number density = 22.237701 Si / 1000 Ang^3
#
#
#
# Elastic Constant Matrix: (Units=GPa)
#
#
# Indices 1 2 3 4 5 6 
#
# 1 84.8110 4.6399 23.2773 0.0000 0.0000 0.0000
# 2 4.6399 14.2228 -2.7823 0.0000 0.0000 0.0000
# 3 23.2773 -2.7823 168.8184 0.0000 0.0000 0.0000
# 4 0.0000 0.0000 0.0000 18.4983 0.0000 0.0000
# 5 0.0000 0.0000 0.0000 0.0000 239.5231 0.0000
# 6 0.0000 0.0000 0.0000 0.0000 0.0000 20.0003
#
#
#
# Elastic Compliance Matrix: (Units=1/GPa)
#
#
# Indices 1 2 3 4 5 6 
#
# 1 0.012528 -0.004439 -0.001801 0.000000 0.000000 0.000000
# 2 -0.004439 0.072110 0.001801 0.000000 0.000000 0.000000
# 3 -0.001801 0.001801 0.006201 0.000000 0.000000 0.000000
# 4 0.000000 0.000000 0.000000 0.054059 0.000000 0.000000
# 5 0.000000 0.000000 0.000000 0.000000 0.004175 0.000000
# 6 0.000000 0.000000 0.000000 0.000000 0.000000 0.049999
#
#
# Mechanical properties :
#
#
# Convention : Reuss Voigt Hill
#
# Bulk Modulus (GPa) = 12.20095 35.34690 23.77393
# Shear Modulus (GPa) = 21.25205 71.78548 46.51876
#
# Velocity S-wave (km/s) = 3.09476 5.68780 4.57868
# Velocity P-wave (km/s) = 4.27417 7.68533 6.21823
#
# Compressibility (1/GPa) = 0.08196080
#
# Stress axis : x y z
#
# Youngs Moduli (GPa) = 79.82138 13.86773 161.25218
#
# Poissons Ratio (x) = 0.06156 0.29034
# Poissons Ratio (y) = 0.35434 -0.29034
# Poissons Ratio (z) = 0.14372 -0.02497
#
# Static dielectric constant tensor:
#      x y z
#    x 3.744870 0.000000 0.000000 
#    y 0.000000 3.266660 0.000000 
#    z 0.000000 0.000000 5.207760 
# 
# 
# High freq. dielectric constant tensor:
#      x y z
#    x 1.864960 0.000000 0.000000 
#    y 0.000000 1.799670 0.000000 
#    z 0.000000 0.000000 1.923820 
# 
# From -- ./inp_files/1246.got.cif
#   From: 2010.03.12/outbox.cif.g09.slc.cpg/sg56_1_cif.got.tgz:1246.got - 2010.04.16 15:33:40.
