data_PCOD8227293
_publ_section_title
;
Structure prediction by ZEFSAII (Michael W. Deem and Ramdas Pophale) SiO2 
 PCOD8227293
Probable space group: P B A M
;
_chemical_formula_sum "Si O2"
_cell_formula_units_Z 64
_cell_length_a 11.854902
_cell_length_b 29.972307
_cell_length_c 8.953822
_cell_angle_alpha 90.000000
_cell_angle_beta 90.000000
_cell_angle_gamma 90.000000
_cell_volume 3181.460950
_symmetry_space_group_name_H-M "P B A M"
_symmetry_group_IT_number 55
_symmetry_cell_setting 'orthorhombic'
loop_
_space_group_symop_operation_xyz
x,y,z
-x,-y,z
1/2+x,1/2-y,-z
1/2-x,1/2+y,-z
-x,-y,-z
x,y,-z
1/2-x,1/2+y,z
1/2+x,1/2-y,z
loop_
_atom_site_type_symbol
_atom_site_label
_atom_site_fract_x
_atom_site_fract_y
_atom_site_fract_z
Si Si1 0.709113 0.045647 0.829002
Si Si2 0.260344 0.054958 0.170909
Si Si3 0.503448 0.172687 0.332402
Si Si4 0.493697 0.070537 0.670119
Si Si5 0.161529 0.874959 0.675391
Si Si6 0.899835 0.878519 0.326354
Si Si7 0.710644 0.206002 0.174894
Si Si8 0.743776 0.797309 0.672792
O O1 0.582759 0.040949 0.762186
O O2 0.784067 0.080324 0.738958
O O3 0.767294 0.997465 0.815091
O O4 0.699632 0.061439 0.000000
O O5 0.369546 0.067791 0.264576
O O6 0.152626 0.081246 0.232085
O O7 0.282577 0.068410 0.000000
O O8 0.526332 0.190409 0.500000
O O9 0.537863 0.121140 0.320163
O O10 0.579559 0.200876 0.219059
O O11 0.372998 0.177971 0.291188
O O12 0.490609 0.053662 0.500000
O O13 0.183449 0.873954 0.500000
O O14 0.214477 0.830764 0.743825
O O15 0.030185 0.875060 0.715809
O O16 0.880018 0.889201 0.500000
O O17 0.842911 0.831436 0.284019
O O18 0.751204 0.254581 0.222551
O O19 0.725360 0.200054 0.000000
O O20 0.752395 0.782715 0.500000
#
# Coordination Sequence:
#
# PCOD8227293 Si02
#       8
#     8   8   8   8   8   8   8   8
#     4  11  24  41  61  91 128 167 206 252 314 376
#     4  11  24  40  62  92 129 166 202 252 317 377
#     4  10  21  40  67  93 122 162 207 254 307 363
#     4  11  21  38  65  95 125 162 209 257 306 364
#     4  11  24  43  66  91 121 164 213 262 309 364
#     4  10  23  44  67  91 120 160 214 262 307 365
#     4  12  26  41  62  95 131 163 202 254 309 376
#     4  10  22  43  67  91 122 162 207 256 305 365
#
# _framework density 20.116543
#
# number of rings (size 3 to 8) (size 9 to 14) (size 15 to 20)
#    0.000    1.250    2.500    3.000    1.750    6.500 
#    0.000    2.500    0.000    0.000    0.000    0.000 
#    0.000    0.000    0.000    0.000    0.000    0.000 
#
# Total GULP energy -794011.903478 kJ/mol
# GULP energy per Si atom -12406.435992 kJ/mol
# Density = 2.007076 g / cm^3
# Si number density = 20.116543 Si / 1000 Ang^3
#
#
#
# Elastic Constant Matrix: (Units=GPa)
#
#
# Indices 1 2 3 4 5 6 
#
# 1 119.4046 41.8080 63.1461 0.0000 0.0000 0.0000
# 2 41.8080 95.8104 51.4113 0.0000 0.0000 0.0000
# 3 63.1461 51.4113 127.6006 0.0000 0.0000 0.0000
# 4 0.0000 0.0000 0.0000 26.5472 0.0000 0.0000
# 5 0.0000 0.0000 0.0000 0.0000 21.0669 0.0000
# 6 0.0000 0.0000 0.0000 0.0000 0.0000 26.2943
#
#
#
# Elastic Compliance Matrix: (Units=1/GPa)
#
#
# Indices 1 2 3 4 5 6 
#
# 1 0.011822 -0.002576 -0.004812 0.000000 0.000000 0.000000
# 2 -0.002576 0.013878 -0.004316 0.000000 0.000000 0.000000
# 3 -0.004812 -0.004316 0.011958 0.000000 0.000000 0.000000
# 4 0.000000 0.000000 0.000000 0.037669 0.000000 0.000000
# 5 0.000000 0.000000 0.000000 0.000000 0.047468 0.000000
# 6 0.000000 0.000000 0.000000 0.000000 0.000000 0.038031
#
#
# Mechanical properties :
#
#
# Convention : Reuss Voigt Hill
#
# Bulk Modulus (GPa) = 70.19068 72.83849 71.51459
# Shear Modulus (GPa) = 26.45725 27.21169 26.83447
#
# Velocity S-wave (km/s) = 3.63050 3.68190 3.65629
# Velocity P-wave (km/s) = 7.24857 7.37306 7.31108
#
# Compressibility (1/GPa) = 0.01424691
#
# Stress axis : x y z
#
# Youngs Moduli (GPa) = 84.58856 72.05812 83.62900
#
# Poissons Ratio (x) = 0.18565 0.40245
# Poissons Ratio (y) = 0.21793 0.36098
# Poissons Ratio (z) = 0.40707 0.31104
#
# Static dielectric constant tensor:
#      x y z
#    x 3.694860 0.000000 0.000000 
#    y 0.000000 3.684970 0.000000 
#    z 0.000000 0.000000 3.715930 
# 
# 
# High freq. dielectric constant tensor:
#      x y z
#    x 1.790910 0.000000 0.000000 
#    y 0.000000 1.793100 0.000000 
#    z 0.000000 0.000000 1.788240 
# 
# From -- ./inp_files/4611.got.cif
#   From: 2010.03.12/outbox.cif.g09.slc.cpg/sg55_3_cif.got.tgz:4611.got - 2010.04.16 15:19:21.
