data_PCOD8227781
_publ_section_title
;
Structure prediction by ZEFSAII (Michael W. Deem and Ramdas Pophale) SiO2 
 PCOD8227781
Probable space group: P B A M
;
_chemical_formula_sum "Si O2"
_cell_formula_units_Z 40
_cell_length_a 17.801212
_cell_length_b 8.433165
_cell_length_c 12.667082
_cell_angle_alpha 90.000000
_cell_angle_beta 90.000000
_cell_angle_gamma 90.000000
_cell_volume 1901.589418
_symmetry_space_group_name_H-M "P B A M"
_symmetry_group_IT_number 55
_symmetry_cell_setting 'orthorhombic'
loop_
_space_group_symop_operation_xyz
x,y,z
-x,-y,z
1/2+x,1/2-y,-z
1/2-x,1/2+y,-z
-x,-y,-z
x,y,-z
1/2-x,1/2+y,z
1/2+x,1/2-y,z
loop_
_atom_site_type_symbol
_atom_site_label
_atom_site_fract_x
_atom_site_fract_y
_atom_site_fract_z
Si Si1 0.692128 0.779099 0.807241
Si Si2 0.397769 0.357261 0.620926
Si Si3 0.061736 0.227048 0.000000
Si Si4 0.851237 0.639754 0.807410
Si Si5 0.933530 0.781985 0.620791
Si Si6 0.394648 0.363710 0.000000
O O1 0.665515 0.721742 0.692491
O O2 0.781130 0.758043 0.815830
O O3 0.651506 0.676813 0.895994
O O4 0.676192 0.962516 0.824434
O O5 0.374101 0.330115 0.500000
O O6 0.477758 0.275695 0.644250
O O7 0.402685 0.543315 0.646039
O O8 0.088900 0.318039 0.896589
O O9 0.971908 0.233503 0.000000
O O10 0.091630 0.049591 0.000000
O O11 0.891398 0.655826 0.694047
O O12 0.917404 0.735008 0.500000
#
# Coordination Sequence:
#
# PCOD8227781 Si02
#       6
#     8   8   4   8   8   4
#     4  12  25  40  60  87 121 157 196 243 293 347
#     4   9  19  38  63  89 119 156 197 241 291 348
#     4  11  24  43  66  89 117 153 192 237 292 353
#     4  12  25  40  60  87 121 157 196 243 293 347
#     4   9  19  38  63  89 119 156 197 241 291 348
#     4  11  24  43  66  89 117 153 192 237 292 353
#
# _framework density 21.035035000000001
#
# number of rings (size 3 to 8) (size 9 to 14) (size 15 to 20)
#    0.000    1.400    0.000    7.200    0.000    8.800 
#    0.000    2.000    0.000    0.000    0.000    0.000 
#    0.000    0.000    0.000    0.000    0.000    0.000 
#
# Total GULP energy -496277.086249 kJ/mol
# GULP energy per Si atom -12406.927156 kJ/mol
# Density = 2.098716 g / cm^3
# Si number density = 21.035035 Si / 1000 Ang^3
#
#
#
# Elastic Constant Matrix: (Units=GPa)
#
#
# Indices 1 2 3 4 5 6 
#
# 1 58.1054 -12.9373 31.8694 0.0000 0.0000 0.0000
# 2 -12.9373 35.7002 10.8121 0.0000 0.0000 0.0000
# 3 31.8694 10.8121 112.3348 0.0000 0.0000 0.0000
# 4 0.0000 0.0000 0.0000 18.5474 0.0000 0.0000
# 5 0.0000 0.0000 0.0000 0.0000 18.8822 0.0000
# 6 0.0000 0.0000 0.0000 0.0000 0.0000 33.6079
#
#
#
# Elastic Compliance Matrix: (Units=1/GPa)
#
#
# Indices 1 2 3 4 5 6 
#
# 1 0.023996 0.011081 -0.007874 0.000000 0.000000 0.000000
# 2 0.011081 0.033969 -0.006413 0.000000 0.000000 0.000000
# 3 -0.007874 -0.006413 0.011753 0.000000 0.000000 0.000000
# 4 0.000000 0.000000 0.000000 0.053916 0.000000 0.000000
# 5 0.000000 0.000000 0.000000 0.000000 0.052960 0.000000
# 6 0.000000 0.000000 0.000000 0.000000 0.000000 0.029755
#
#
# Mechanical properties :
#
#
# Convention : Reuss Voigt Hill
#
# Bulk Modulus (GPa) = 15.79658 29.51428 22.65543
# Shear Modulus (GPa) = 21.38000 25.96725 23.67362
#
# Velocity S-wave (km/s) = 3.19156 3.51732 3.35839
# Velocity P-wave (km/s) = 4.59428 5.52783 5.08253
#
# Compressibility (1/GPa) = 0.06330486
#
# Stress axis : x y z
#
# Youngs Moduli (GPa) = 41.67351 29.43877 85.08381
#
# Poissons Ratio (x) = -0.32620 0.66997
# Poissons Ratio (y) = -0.46177 0.54565
# Poissons Ratio (z) = 0.32814 0.18879
#
# Static dielectric constant tensor:
#      x y z
#    x 3.848610 0.000000 0.000000 
#    y 0.000000 3.683970 0.000000 
#    z 0.000000 0.000000 3.882030 
# 
# 
# High freq. dielectric constant tensor:
#      x y z
#    x 1.827770 0.000000 0.000000 
#    y 0.000000 1.822730 0.000000 
#    z 0.000000 0.000000 1.837820 
# 
# From -- ./inp_files/14663.got.cif
#   From: 2010.03.12/outbox.cif.g09.slc.cpg/sg55_8_cif.got.tgz:14663.got - 2010.04.16 15:19:21.
