data_PCOD8227450
_publ_section_title
;
Structure prediction by ZEFSAII (Michael W. Deem and Ramdas Pophale) SiO2 
 PCOD8227450
Probable space group: P B A M
;
_chemical_formula_sum "Si O2"
_cell_formula_units_Z 64
_cell_length_a 11.836596
_cell_length_b 30.269322
_cell_length_c 8.896947
_cell_angle_alpha 90.000000
_cell_angle_beta 90.000000
_cell_angle_gamma 90.000000
_cell_volume 3187.649201
_symmetry_space_group_name_H-M "P B A M"
_symmetry_group_IT_number 55
_symmetry_cell_setting 'orthorhombic'
loop_
_space_group_symop_operation_xyz
x,y,z
-x,-y,z
1/2+x,1/2-y,-z
1/2-x,1/2+y,-z
-x,-y,-z
x,y,-z
1/2-x,1/2+y,z
1/2+x,1/2-y,z
loop_
_atom_site_type_symbol
_atom_site_label
_atom_site_fract_x
_atom_site_fract_y
_atom_site_fract_z
Si Si1 0.496461 0.666104 0.675982
Si Si2 0.273558 0.695381 0.172562
Si Si3 0.339993 0.876814 0.824215
Si Si4 0.994194 0.924622 0.822416
Si Si5 0.794202 0.044912 0.327331
Si Si6 0.259482 0.553903 0.672467
Si Si7 0.804849 0.207636 0.174881
Si Si8 0.900985 0.379832 0.826810
O O1 0.505767 0.657326 0.500000
O O2 0.368799 0.677779 0.716546
O O3 0.537121 0.622959 0.766283
O O4 0.580823 0.704774 0.727817
O O5 0.251196 0.745859 0.214814
O O6 0.161680 0.666588 0.200976
O O7 0.314508 0.690642 0.000000
O O8 0.285994 0.917782 0.738673
O O9 0.281729 0.830859 0.777692
O O10 0.470313 0.873054 0.776511
O O11 0.325356 0.885796 0.000000
O O12 0.868129 0.932859 0.768105
O O13 0.084979 0.959278 0.757172
O O14 0.996833 0.926854 0.000000
O O15 0.819153 0.055829 0.500000
O O16 0.732154 0.997884 0.308120
O O17 0.284908 0.565883 0.500000
O O18 0.151653 0.580935 0.728642
O O19 0.837251 0.205314 0.000000
O O20 0.892226 0.394166 0.000000
#
# Coordination Sequence:
#
# PCOD8227450 Si02
#       8
#     8   8   8   8   8   8   8   8
#     4  12  24  39  63  94 130 165 203 253 310 367
#     4  10  22  40  66  94 123 163 208 253 303 363
#     4  10  22  40  62  90 123 162 209 257 302 359
#     4  12  23  39  64  93 124 160 204 255 311 367
#     4  11  24  41  62  90 124 162 203 252 312 373
#     4  11  24  41  62  90 124 162 203 252 312 373
#     4  10  22  40  66  94 123 163 208 253 303 363
#     4  10  22  40  62  90 123 162 209 257 302 359
#
# _framework density 20.077490999999998
#
# number of rings (size 3 to 8) (size 9 to 14) (size 15 to 20)
#    0.000    1.250    2.500    3.375    1.750    5.000 
#    0.000    2.500    0.000    0.000    0.000    0.000 
#    0.000    0.000    0.000    0.000    0.000    0.000 
#
# Total GULP energy -793979.939905 kJ/mol
# GULP energy per Si atom -12405.936561 kJ/mol
# Density = 2.003179 g / cm^3
# Si number density = 20.077491 Si / 1000 Ang^3
#
#
#
# Elastic Constant Matrix: (Units=GPa)
#
#
# Indices 1 2 3 4 5 6 
#
# 1 112.2768 32.8819 47.8573 0.0000 0.0000 0.0000
# 2 32.8819 108.4419 44.8338 0.0000 0.0000 0.0000
# 3 47.8573 44.8338 108.1813 0.0000 0.0000 0.0000
# 4 0.0000 0.0000 0.0000 8.0182 0.0000 0.0000
# 5 0.0000 0.0000 0.0000 0.0000 24.4907 0.0000
# 6 0.0000 0.0000 0.0000 0.0000 0.0000 24.9713
#
#
#
# Elastic Compliance Matrix: (Units=1/GPa)
#
#
# Indices 1 2 3 4 5 6 
#
# 1 0.011209 -0.001628 -0.004284 0.000000 0.000000 0.000000
# 2 -0.001628 0.011365 -0.003990 0.000000 0.000000 0.000000
# 3 -0.004284 -0.003990 0.012793 0.000000 0.000000 0.000000
# 4 0.000000 0.000000 0.000000 0.124717 0.000000 0.000000
# 5 0.000000 0.000000 0.000000 0.000000 0.040832 0.000000
# 6 0.000000 0.000000 0.000000 0.000000 0.000000 0.040046
#
#
# Mechanical properties :
#
#
# Convention : Reuss Voigt Hill
#
# Bulk Modulus (GPa) = 64.25476 64.44955 64.35215
# Shear Modulus (GPa) = 18.80036 25.05116 21.92576
#
# Velocity S-wave (km/s) = 3.06337 3.53615 3.30821
# Velocity P-wave (km/s) = 6.67721 6.98874 6.83475
#
# Compressibility (1/GPa) = 0.01556305
#
# Stress axis : x y z
#
# Youngs Moduli (GPa) = 89.21102 87.99256 78.17069
#
# Poissons Ratio (x) = 0.14322 0.33490
# Poissons Ratio (y) = 0.14520 0.31189
# Poissons Ratio (z) = 0.38220 0.35107
#
# Static dielectric constant tensor:
#      x y z
#    x 3.626910 0.000000 0.000000 
#    y 0.000000 3.834970 0.000000 
#    z 0.000000 0.000000 3.608210 
# 
# 
# High freq. dielectric constant tensor:
#      x y z
#    x 1.786340 0.000000 0.000000 
#    y 0.000000 1.792830 0.000000 
#    z 0.000000 0.000000 1.781710 
# 
# From -- ./inp_files/4481.got.cif
#   From: 2010.03.12/outbox.cif.g09.slc.cpg/sg55_3_cif.got.tgz:4481.got - 2010.04.16 15:19:21.
