data_PCOD8227761
_publ_section_title
;
Structure prediction by ZEFSAII (Michael W. Deem and Ramdas Pophale) SiO2 
 PCOD8227761
Probable space group: P B A M
;
_chemical_formula_sum "Si O2"
_cell_formula_units_Z 64
_cell_length_a 22.515658
_cell_length_b 9.841172
_cell_length_c 13.903363
_cell_angle_alpha 90.000000
_cell_angle_beta 90.000000
_cell_angle_gamma 90.000000
_cell_volume 3080.713612
_symmetry_space_group_name_H-M "P B A M"
_symmetry_group_IT_number 55
_symmetry_cell_setting 'orthorhombic'
loop_
_space_group_symop_operation_xyz
x,y,z
-x,-y,z
1/2+x,1/2-y,-z
1/2-x,1/2+y,-z
-x,-y,-z
x,y,-z
1/2-x,1/2+y,z
1/2+x,1/2-y,z
loop_
_atom_site_type_symbol
_atom_site_label
_atom_site_fract_x
_atom_site_fract_y
_atom_site_fract_z
Si Si1 0.256167 0.233460 0.810726
Si Si2 0.128753 0.101350 0.391566
Si Si3 0.373526 0.781033 0.111302
Si Si4 0.068593 0.525258 0.209318
Si Si5 0.628443 0.081865 0.391475
Si Si6 0.931595 0.968668 0.794146
Si Si7 0.879840 0.223740 0.890247
Si Si8 0.752595 0.016235 0.319109
O O1 0.195134 0.260087 0.865287
O O2 0.309603 0.249079 0.885948
O O3 0.266060 0.333636 0.720561
O O4 0.256719 0.080027 0.772707
O O5 0.104899 0.082590 0.500000
O O6 0.131992 0.259738 0.362417
O O7 0.084569 0.023573 0.319112
O O8 0.193978 0.036538 0.385004
O O9 0.416800 0.681261 0.169053
O O10 0.390819 0.933094 0.140710
O O11 0.385037 0.757830 0.000000
O O12 0.083456 0.496618 0.321044
O O13 0.083262 0.679781 0.181559
O O14 0.000000 0.500000 0.189735
O O15 0.604936 0.062895 0.500000
O O16 0.693763 0.017593 0.383905
O O17 0.891581 0.070907 0.855581
O O18 0.000000 0.000000 0.809782
O O19 0.901292 0.242693 0.000000
#
# Coordination Sequence:
#
# PCOD8227761 Si02
#       8
#     8   8   8   8   8   8   8   8
#     4  12  21  40  69  92 130 170 207 270 335 380
#     4  11  23  42  68  97 129 171 216 267 331 389
#     4  12  24  44  69  93 127 175 223 265 327 394
#     4  12  25  44  66  93 132 175 218 267 318 384
#     4  11  23  42  68  97 129 171 216 267 331 389
#     4  12  25  44  66  93 132 175 218 267 318 384
#     4  12  26  42  65  99 133 167 213 275 327 378
#     4  12  19  40  65  94 132 168 207 266 333 382
#
# _framework density 20.774408000000001
#
# number of rings (size 3 to 8) (size 9 to 14) (size 15 to 20)
#    0.000    0.250    7.500    2.250    0.000    3.500 
#    0.000    5.625    0.000    0.000    0.000    0.000 
#    0.000    0.000    0.000    0.000    0.000    0.000 
#
# Total GULP energy -794043.678055 kJ/mol
# GULP energy per Si atom -12406.932470 kJ/mol
# Density = 2.072712 g / cm^3
# Si number density = 20.774408 Si / 1000 Ang^3
#
#
#
# Elastic Constant Matrix: (Units=GPa)
#
#
# Indices 1 2 3 4 5 6 
#
# 1 90.9052 3.1919 27.4429 0.0000 0.0000 0.0000
# 2 3.1919 61.0255 22.7611 0.0000 0.0000 0.0000
# 3 27.4429 22.7611 126.3965 0.0000 0.0000 0.0000
# 4 0.0000 0.0000 0.0000 8.2255 0.0000 0.0000
# 5 0.0000 0.0000 0.0000 0.0000 14.2460 0.0000
# 6 0.0000 0.0000 0.0000 0.0000 0.0000 16.7435
#
#
#
# Elastic Compliance Matrix: (Units=1/GPa)
#
#
# Indices 1 2 3 4 5 6 
#
# 1 0.011780 0.000362 -0.002623 0.000000 0.000000 0.000000
# 2 0.000362 0.017578 -0.003244 0.000000 0.000000 0.000000
# 3 -0.002623 -0.003244 0.009065 0.000000 0.000000 0.000000
# 4 0.000000 0.000000 0.000000 0.121573 0.000000 0.000000
# 5 0.000000 0.000000 0.000000 0.000000 0.070195 0.000000
# 6 0.000000 0.000000 0.000000 0.000000 0.000000 0.059725
#
#
# Mechanical properties :
#
#
# Convention : Reuss Voigt Hill
#
# Bulk Modulus (GPa) = 36.47885 42.79100 39.63493
# Shear Modulus (GPa) = 16.12580 22.83843 19.48212
#
# Velocity S-wave (km/s) = 2.78912 3.31925 3.06566
# Velocity P-wave (km/s) = 5.28866 5.94412 5.62594
#
# Compressibility (1/GPa) = 0.02741314
#
# Stress axis : x y z
#
# Youngs Moduli (GPa) = 84.89307 56.89071 110.31183
#
# Poissons Ratio (x) = -0.02060 0.28932
# Poissons Ratio (y) = -0.03074 0.35784
# Poissons Ratio (z) = 0.22265 0.18455
#
# Static dielectric constant tensor:
#      x y z
#    x 3.661210 0.000000 0.000000 
#    y 0.000000 3.960680 0.000000 
#    z 0.000000 0.000000 3.692120 
# 
# 
# High freq. dielectric constant tensor:
#      x y z
#    x 1.811630 0.000000 0.000000 
#    y 0.000000 1.820740 0.000000 
#    z 0.000000 0.000000 1.813350 
# 
# From -- ./inp_files/19989.got.cif
#   From: 2010.03.12/outbox.cif.g09.slc.cpg/sg55_10_cif.got.tgz:19989.got - 2010.04.16 15:19:21.
