data_PCOD8227212
_publ_section_title
;
Structure prediction by ZEFSAII (Michael W. Deem and Ramdas Pophale) SiO2 
 PCOD8227212
Probable space group: P B A M
;
_chemical_formula_sum "Si O2"
_cell_formula_units_Z 48
_cell_length_a 18.314062
_cell_length_b 14.598991
_cell_length_c 9.223163
_cell_angle_alpha 90.000000
_cell_angle_beta 90.000000
_cell_angle_gamma 90.000000
_cell_volume 2465.967820
_symmetry_space_group_name_H-M "P B A M"
_symmetry_group_IT_number 55
_symmetry_cell_setting 'orthorhombic'
loop_
_space_group_symop_operation_xyz
x,y,z
-x,-y,z
1/2+x,1/2-y,-z
1/2-x,1/2+y,-z
-x,-y,-z
x,y,-z
1/2-x,1/2+y,z
1/2+x,1/2-y,z
loop_
_atom_site_type_symbol
_atom_site_label
_atom_site_fract_x
_atom_site_fract_y
_atom_site_fract_z
Si Si1 0.246766 0.314438 0.831597
Si Si2 0.414634 0.750937 0.831373
Si Si3 0.933859 0.934151 0.668741
Si Si4 0.510030 0.894847 0.332099
Si Si5 0.673178 0.835211 0.667989
Si Si6 0.274896 0.497093 0.331166
O O1 0.171151 0.262264 0.802885
O O2 0.311209 0.255677 0.759761
O O3 0.243564 0.413841 0.760647
O O4 0.263702 0.326305 0.000000
O O5 0.442949 0.658664 0.757611
O O6 0.455078 0.837626 0.764828
O O7 0.433186 0.745802 0.000000
O O8 0.936215 0.907776 0.500000
O O9 0.859213 0.986040 0.707969
O O10 0.000000 0.000000 0.712804
O O11 0.490912 0.877993 0.500000
O O12 0.592103 0.866652 0.295561
O O13 0.500000 0.000000 0.289475
O O14 0.683084 0.810236 0.500000
O O15 0.728891 0.914389 0.714788
O O16 0.263972 0.474459 0.500000
#
# Coordination Sequence:
#
# PCOD8227212 Si02
#       6
#     8   8   8   8   8   8
#     4  11  24  39  59  88 123 160 196 241 297 359
#     4  11  24  41  61  89 125 166 201 238 301 366
#     4  10  22  40  63  90 119 157 205 255 300 348
#     4  10  22  40  64  91 119 154 201 254 301 351
#     4  10  21  39  63  90 117 153 200 247 299 353
#     4  10  21  39  64  90 118 155 201 252 300 350
#
# _framework density 19.464974999999999
#
# number of rings (size 3 to 8) (size 9 to 14) (size 15 to 20)
#    0.000    1.667    1.667    2.000    2.333    6.000 
#    0.000    0.000    0.000    0.000    0.000    0.000 
#    0.000    0.000    0.000    0.000    0.000    0.000 
#
# Total GULP energy -595537.302334 kJ/mol
# GULP energy per Si atom -12407.027132 kJ/mol
# Density = 1.942067 g / cm^3
# Si number density = 19.464975 Si / 1000 Ang^3
#
#
#
# Elastic Constant Matrix: (Units=GPa)
#
#
# Indices 1 2 3 4 5 6 
#
# 1 52.6772 20.2126 33.5908 0.0000 0.0000 0.0000
# 2 20.2126 99.1166 58.8567 0.0000 0.0000 0.0000
# 3 33.5908 58.8567 82.8345 0.0000 0.0000 0.0000
# 4 0.0000 0.0000 0.0000 -6.8724 0.0000 0.0000
# 5 0.0000 0.0000 0.0000 0.0000 25.1635 0.0000
# 6 0.0000 0.0000 0.0000 0.0000 0.0000 34.7372
#
#
#
# Elastic Compliance Matrix: (Units=1/GPa)
#
#
# Indices 1 2 3 4 5 6 
#
# 1 0.025758 0.001643 -0.011613 0.000000 0.000000 0.000000
# 2 0.001643 0.017558 -0.013142 0.000000 0.000000 0.000000
# 3 -0.011613 -0.013142 0.026119 0.000000 0.000000 0.000000
# 4 0.000000 0.000000 0.000000 -0.145509 0.000000 0.000000
# 5 0.000000 0.000000 0.000000 0.000000 0.039740 0.000000
# 6 0.000000 0.000000 0.000000 0.000000 0.000000 0.028788
#
#
# Mechanical properties :
#
#
# Convention : Reuss Voigt Hill
#
# Bulk Modulus (GPa) = 43.08086 51.10541 47.09314
# Shear Modulus (GPa) = 107.72568 18.73685 63.23127
#
# Velocity S-wave (km/s) = 7.44738 3.10593 5.70571
# Velocity P-wave (km/s) = 9.80469 6.25895 8.22516
#
# Compressibility (1/GPa) = 0.02321216
#
# Stress axis : x y z
#
# Youngs Moduli (GPa) = 38.82237 56.95496 38.28622
#
# Poissons Ratio (x) = -0.09358 0.44461
# Poissons Ratio (y) = -0.06379 0.50314
# Poissons Ratio (z) = 0.45084 0.74848
#
# Static dielectric constant tensor:
#      x y z
#    x 3.667690 0.000000 0.000000 
#    y 0.000000 3.505600 0.000000 
#    z 0.000000 0.000000 3.478150 
# 
# 
# High freq. dielectric constant tensor:
#      x y z
#    x 1.768580 0.000000 0.000000 
#    y 0.000000 1.769240 0.000000 
#    z 0.000000 0.000000 1.752020 
# 
# From -- ./inp_files/5655.got.cif
#   From: 2010.03.12/outbox.cif.g09.slc.cpg/sg55_3_cif.got.tgz:5655.got - 2010.04.16 15:19:21.
