data_PCOD8227388
_publ_section_title
;
Structure prediction by ZEFSAII (Michael W. Deem and Ramdas Pophale) SiO2 
 PCOD8227388
Probable space group: P B A M
;
_chemical_formula_sum "Si O2"
_cell_formula_units_Z 32
_cell_length_a 4.854637
_cell_length_b 17.365036
_cell_length_c 12.998049
_cell_angle_alpha 90.000000
_cell_angle_beta 90.000000
_cell_angle_gamma 90.000000
_cell_volume 1095.747830
_symmetry_space_group_name_H-M "P B A M"
_symmetry_group_IT_number 55
_symmetry_cell_setting 'orthorhombic'
loop_
_space_group_symop_operation_xyz
x,y,z
-x,-y,z
1/2+x,1/2-y,-z
1/2-x,1/2+y,-z
-x,-y,-z
x,y,-z
1/2-x,1/2+y,z
1/2+x,1/2-y,z
loop_
_atom_site_type_symbol
_atom_site_label
_atom_site_fract_x
_atom_site_fract_y
_atom_site_fract_z
Si Si1 0.377894 0.301784 0.380090
Si Si2 0.241463 0.803552 0.000000
Si Si3 0.906005 0.915707 0.886787
Si Si4 0.537256 0.909806 0.705698
Si Si5 0.251709 0.556158 0.500000
O O1 0.354750 0.329126 0.500000
O O2 0.181151 0.228868 0.354349
O O3 0.266514 0.372519 0.309486
O O4 0.165053 0.856166 0.899409
O O5 0.056500 0.724505 0.000000
O O6 0.692004 0.878322 0.806596
O O7 0.761587 0.925035 0.000000
O O8 0.000000 0.000000 0.847328
O O9 0.733239 0.891739 0.604087
O O10 0.500000 0.000000 0.718980
O O11 0.500000 0.500000 0.500000
O O12 0.000000 0.500000 0.500000
#
# Coordination Sequence:
#
# PCOD8227388 Si02
#       5
#     8   4   8   8   4
#     4  10  23  43  65  95 137 181 221 274 339 399
#     4  10  23  44  71 100 132 176 224 276 333 396
#     4   9  22  44  66 100 138 176 223 278 340 401
#     4  11  23  41  69 101 132 180 227 280 336 399
#     4  10  22  38  60  96 134 164 217 272 321 384
#
# _framework density 29.203800999999999
#
# number of rings (size 3 to 8) (size 9 to 14) (size 15 to 20)
#    0.750    1.250    1.250    0.750    0.000   10.500 
#    0.000    0.000    0.000    0.000    0.000    0.000 
#    0.000    0.000    0.000    0.000    0.000    0.000 
#
# Total GULP energy -396761.005141 kJ/mol
# GULP energy per Si atom -12398.781411 kJ/mol
# Density = 2.913733 g / cm^3
# Si number density = 29.203801 Si / 1000 Ang^3
#
#
#
# Elastic Constant Matrix: (Units=GPa)
#
#
# Indices 1 2 3 4 5 6 
#
# 1 62.9504 -19.3455 13.0819 0.0000 0.0000 0.0000
# 2 -19.3455 127.1782 -18.4918 0.0000 0.0000 0.0000
# 3 13.0819 -18.4918 129.5340 0.0000 0.0000 0.0000
# 4 0.0000 0.0000 0.0000 15.1193 0.0000 0.0000
# 5 0.0000 0.0000 0.0000 0.0000 23.5771 0.0000
# 6 0.0000 0.0000 0.0000 0.0000 0.0000 25.8284
#
#
#
# Elastic Compliance Matrix: (Units=1/GPa)
#
#
# Indices 1 2 3 4 5 6 
#
# 1 0.016899 0.002372 -0.001368 0.000000 0.000000 0.000000
# 2 0.002372 0.008362 0.000954 0.000000 0.000000 0.000000
# 3 -0.001368 0.000954 0.007994 0.000000 0.000000 0.000000
# 4 0.000000 0.000000 0.000000 0.066141 0.000000 0.000000
# 5 0.000000 0.000000 0.000000 0.000000 0.042414 0.000000
# 6 0.000000 0.000000 0.000000 0.000000 0.000000 0.038717
#
#
# Mechanical properties :
#
#
# Convention : Reuss Voigt Hill
#
# Bulk Modulus (GPa) = 26.90260 30.01687 28.45974
# Shear Modulus (GPa) = 26.45473 35.86615 31.16044
#
# Velocity S-wave (km/s) = 3.01303 3.50827 3.27004
# Velocity P-wave (km/s) = 4.61914 5.16831 4.90142
#
# Compressibility (1/GPa) = 0.03717112
#
# Stress axis : x y z
#
# Youngs Moduli (GPa) = 59.17634 119.58165 125.08799
#
# Poissons Ratio (x) = -0.28360 0.17113
# Poissons Ratio (y) = -0.14034 -0.11937
# Poissons Ratio (z) = 0.08096 -0.11412
#
# Static dielectric constant tensor:
#      x y z
#    x 5.438100 0.000000 0.000000 
#    y 0.000000 5.424080 0.000000 
#    z 0.000000 0.000000 5.638230 
# 
# 
# High freq. dielectric constant tensor:
#      x y z
#    x 2.187510 0.000000 0.000000 
#    y 0.000000 2.216690 0.000000 
#    z 0.000000 0.000000 2.181050 
# 
# From -- ./inp_files/16451.got.cif
#   From: 2010.03.12/outbox.cif.g09.slc.cpg/sg55_9_cif.got.tgz:16451.got - 2010.04.16 15:19:21.
