data_PCOD8227845
_publ_section_title
;
Structure prediction by ZEFSAII (Michael W. Deem and Ramdas Pophale) SiO2 
 PCOD8227845
Probable space group: P C C N
;
_chemical_formula_sum "Si O2"
_cell_formula_units_Z 64
_cell_length_a 24.334996
_cell_length_b 31.774382
_cell_length_c 5.168852
_cell_angle_alpha 90.000000
_cell_angle_beta 90.000000
_cell_angle_gamma 90.000000
_cell_volume 3996.708635
_symmetry_space_group_name_H-M "P C C N"
_symmetry_group_IT_number 56
_symmetry_cell_setting 'orthorhombic'
loop_
_space_group_symop_operation_xyz
x,y,z
1/2-x,1/2-y,z
1/2+x,-y,1/2-z
-x,1/2+y,1/2-z
-x,-y,-z
1/2+x,1/2+y,-z
1/2-x,y,1/2+z
x,1/2-y,1/2+z
loop_
_atom_site_type_symbol
_atom_site_label
_atom_site_fract_x
_atom_site_fract_y
_atom_site_fract_z
Si Si1 0.786278 0.346450 0.722705
Si Si2 0.996956 0.275725 0.816146
Si Si3 0.884958 0.721908 0.276580
Si Si4 0.684987 0.971982 0.704028
Si Si5 0.806241 0.935828 0.704816
Si Si6 0.715380 0.060828 0.787732
Si Si7 0.378902 0.778034 0.276930
Si Si8 0.783940 0.837813 0.731966
O O1 0.759728 0.339400 0.441763
O O2 0.812274 0.393474 0.744201
O O3 0.834909 0.314090 0.766504
O O4 0.996958 0.235490 0.620607
O O5 0.054186 0.299631 0.751064
O O6 0.939706 0.299622 0.751136
O O7 0.877104 0.742535 0.557797
O O8 0.842249 0.684590 0.242287
O O9 0.749988 0.962165 0.670745
O O10 0.657535 0.954183 0.441800
O O11 0.673911 0.021988 0.735175
O O12 0.659756 0.945289 0.942723
O O13 0.793461 0.887325 0.744934
O O14 0.765373 0.057064 0.584136
O O15 0.371227 0.757801 0.559392
O O16 0.753308 0.823618 0.472183
#
# Coordination Sequence:
#
# PCOD8227845 Si02
#       8
#     8   8   8   8   8   8   8   8
#     4  10  21  30  40  66  98 120 141 175 207 263
#     4   8  16  32  51  65  76 102 151 195 216 236
#     4  10  21  35  47  62  85 115 149 184 215 253
#     4  10  14  25  41  54  75 112 142 171 202 242
#     4  10  16  25  39  59  78 107 139 178 202 243
#     4  10  16  25  39  56  81 115 141 169 205 240
#     4  10  19  32  50  65  84 118 152 181 214 250
#     4  12  21  30  43  63  92 118 141 175 217 265
#
# _framework density 16.013175
#
# number of rings (size 3 to 8) (size 9 to 14) (size 15 to 20)
#    0.000    2.000    5.000    1.500    0.000    3.000 
#    0.000    0.000    0.000    0.000    0.000    0.000 
#    0.000    2.000    0.000    0.000    0.000    7.250 
#
# Total GULP energy -792867.849079 kJ/mol
# GULP energy per Si atom -12388.560142 kJ/mol
# Density = 1.597673 g / cm^3
# Si number density = 16.013175 Si / 1000 Ang^3
#
#
#
# Elastic Constant Matrix: (Units=GPa)
#
#
# Indices 1 2 3 4 5 6 
#
# 1 64.0556 36.9628 2.1133 0.0000 0.0000 0.0000
# 2 36.9628 54.0366 4.1368 0.0000 0.0000 0.0000
# 3 2.1133 4.1368 88.8372 0.0000 0.0000 0.0000
# 4 0.0000 0.0000 0.0000 15.7405 0.0000 0.0000
# 5 0.0000 0.0000 0.0000 0.0000 14.4330 0.0000
# 6 0.0000 0.0000 0.0000 0.0000 0.0000 -0.3045
#
#
#
# Elastic Compliance Matrix: (Units=1/GPa)
#
#
# Indices 1 2 3 4 5 6 
#
# 1 0.025796 -0.017661 0.000209 0.000000 0.000000 0.000000
# 2 -0.017661 0.030664 -0.001008 0.000000 0.000000 0.000000
# 3 0.000209 -0.001008 0.011299 0.000000 0.000000 0.000000
# 4 0.000000 0.000000 0.000000 0.063530 0.000000 0.000000
# 5 0.000000 0.000000 0.000000 0.000000 0.069286 0.000000
# 6 0.000000 0.000000 0.000000 0.000000 0.000000 -3.284446
#
#
# Mechanical properties :
#
#
# Convention : Reuss Voigt Hill
#
# Bulk Modulus (GPa) = 32.42757 32.59499 32.51128
# Shear Modulus (GPa) = -1.64654 16.88825 7.62086
#
# Velocity S-wave (km/s) = -1.01512 3.25106 2.18391
# Velocity P-wave (km/s) = 4.34978 5.87297 5.16780
#
# Compressibility (1/GPa) = 0.03083796
#
# Stress axis : x y z
#
# Youngs Moduli (GPa) = 38.76604 32.61166 88.50723
#
# Poissons Ratio (x) = 0.57596 -0.01848
# Poissons Ratio (y) = 0.68465 0.08919
# Poissons Ratio (z) = -0.00809 0.03286
#
# Static dielectric constant tensor:
#      x y z
#    x 2.779660 0.000000 0.000000 
#    y 0.000000 2.950860 0.000000 
#    z 0.000000 0.000000 4.138470 
# 
# 
# High freq. dielectric constant tensor:
#      x y z
#    x 1.555270 0.000000 0.000000 
#    y 0.000000 1.596230 0.000000 
#    z 0.000000 0.000000 1.655200 
# 
# From -- ./inp_files/1146.got.cif
#   From: 2010.03.12/outbox.cif.g09.slc.cpg/sg56_1_cif.got.tgz:1146.got - 2010.04.16 15:33:40.
