data_PCOD8227771
_publ_section_title
;
Structure prediction by ZEFSAII (Michael W. Deem and Ramdas Pophale) SiO2 
 PCOD8227771
Probable space group: P B A M
;
_chemical_formula_sum "Si O2"
_cell_formula_units_Z 64
_cell_length_a 32.455826
_cell_length_b 10.073574
_cell_length_c 8.814084
_cell_angle_alpha 90.000000
_cell_angle_beta 90.000000
_cell_angle_gamma 90.000000
_cell_volume 2881.730961
_symmetry_space_group_name_H-M "P B A M"
_symmetry_group_IT_number 55
_symmetry_cell_setting 'orthorhombic'
loop_
_space_group_symop_operation_xyz
x,y,z
-x,-y,z
1/2+x,1/2-y,-z
1/2-x,1/2+y,-z
-x,-y,-z
x,y,-z
1/2-x,1/2+y,z
1/2+x,1/2-y,z
loop_
_atom_site_type_symbol
_atom_site_label
_atom_site_fract_x
_atom_site_fract_y
_atom_site_fract_z
Si Si1 0.222451 0.888221 0.679152
Si Si2 0.783914 0.822576 0.178820
Si Si3 0.580897 0.495661 0.332784
Si Si4 0.640120 0.679358 0.828954
Si Si5 0.438437 0.181886 0.173377
Si Si6 0.134930 0.257193 0.333595
Si Si7 0.494192 0.667734 0.322257
Si Si8 0.440468 0.910197 0.321611
O O1 0.228227 0.900715 0.500000
O O2 0.256279 0.791641 0.748412
O O3 0.177955 0.823656 0.713090
O O4 0.226756 0.034357 0.750636
O O5 0.831079 0.783399 0.210628
O O6 0.776116 0.829313 0.000000
O O7 0.583545 0.566452 0.500000
O O8 0.608490 0.560360 0.202542
O O9 0.599244 0.349983 0.353314
O O10 0.532151 0.469384 0.287208
O O11 0.611582 0.809950 0.809083
O O12 0.657512 0.665258 0.000000
O O13 0.459263 0.313981 0.252207
O O14 0.454599 0.048138 0.248641
O O15 0.451840 0.184126 0.000000
O O16 0.156204 0.278214 0.500000
O O17 0.108320 0.385837 0.282691
O O18 0.498256 0.681496 0.500000
O O19 0.469463 0.794230 0.253511
O O20 0.446722 0.922714 0.500000
#
# Coordination Sequence:
#
# PCOD8227771 Si02
#       8
#     8   8   8   8   8   8   8   8
#     4  12  26  46  71  98 130 172 219 264 318 388
#     4  12  25  43  69 102 136 169 208 263 327 385
#     4   9  18  35  61  87 113 151 201 250 299 363
#     4  11  24  41  59  84 121 161 202 255 315 370
#     4  11  24  37  52  81 122 162 201 252 312 370
#     4   9  18  36  62  91 119 153 201 249 299 367
#     4   9  19  36  58  85 115 153 203 257 307 362
#     4   9  19  36  59  85 117 158 204 254 303 361
#
# _framework density 22.208873000000001
#
# number of rings (size 3 to 8) (size 9 to 14) (size 15 to 20)
#    0.000    1.750    1.250    4.875    0.000    6.500 
#    0.000    7.500    0.000    0.000    0.000    0.000 
#    0.000    0.000    0.000    0.000    0.000    0.000 
#
# Total GULP energy -793345.439433 kJ/mol
# GULP energy per Si atom -12396.022491 kJ/mol
# Density = 2.215832 g / cm^3
# Si number density = 22.208873 Si / 1000 Ang^3
#
#
#
# Elastic Constant Matrix: (Units=GPa)
#
#
# Indices 1 2 3 4 5 6 
#
# 1 107.8619 12.7681 27.4375 0.0000 0.0000 0.0000
# 2 12.7681 51.2084 19.6281 0.0000 0.0000 0.0000
# 3 27.4375 19.6281 105.7909 0.0000 0.0000 0.0000
# 4 0.0000 0.0000 0.0000 22.4197 0.0000 0.0000
# 5 0.0000 0.0000 0.0000 0.0000 28.6141 0.0000
# 6 0.0000 0.0000 0.0000 0.0000 0.0000 30.2044
#
#
#
# Elastic Compliance Matrix: (Units=1/GPa)
#
#
# Indices 1 2 3 4 5 6 
#
# 1 0.010050 -0.001622 -0.002305 0.000000 0.000000 0.000000
# 2 -0.001622 0.021285 -0.003528 0.000000 0.000000 0.000000
# 3 -0.002305 -0.003528 0.010705 0.000000 0.000000 0.000000
# 4 0.000000 0.000000 0.000000 0.044604 0.000000 0.000000
# 5 0.000000 0.000000 0.000000 0.000000 0.034948 0.000000
# 6 0.000000 0.000000 0.000000 0.000000 0.000000 0.033108
#
#
# Mechanical properties :
#
#
# Convention : Reuss Voigt Hill
#
# Bulk Modulus (GPa) = 36.86256 42.72538 39.79397
# Shear Modulus (GPa) = 27.98713 29.91612 28.95162
#
# Velocity S-wave (km/s) = 3.55375 3.67418 3.61447
# Velocity P-wave (km/s) = 5.78559 6.10567 5.94778
#
# Compressibility (1/GPa) = 0.02712779
#
# Stress axis : x y z
#
# Youngs Moduli (GPa) = 99.50662 46.98162 93.41252
#
# Poissons Ratio (x) = 0.07621 0.21536
# Poissons Ratio (y) = 0.16140 0.32960
# Poissons Ratio (z) = 0.22941 0.16577
#
# Static dielectric constant tensor:
#      x y z
#    x 4.261190 0.000000 0.000000 
#    y 0.000000 4.209580 0.000000 
#    z 0.000000 0.000000 3.808390 
# 
# 
# High freq. dielectric constant tensor:
#      x y z
#    x 1.890140 0.000000 0.000000 
#    y 0.000000 1.885610 0.000000 
#    z 0.000000 0.000000 1.858560 
# 
# From -- ./inp_files/10799.got.cif
#   From: 2010.03.12/outbox.cif.g09.slc.cpg/sg55_6_cif.got.tgz:10799.got - 2010.04.16 15:19:21.
