data_PCOD8227536
_publ_section_title
;
Structure prediction by ZEFSAII (Michael W. Deem and Ramdas Pophale) SiO2 
 PCOD8227536
Probable space group: P B A M
;
_chemical_formula_sum "Si O2"
_cell_formula_units_Z 48
_cell_length_a 24.344952
_cell_length_b 8.637709
_cell_length_c 11.053768
_cell_angle_alpha 90.000000
_cell_angle_beta 90.000000
_cell_angle_gamma 90.000000
_cell_volume 2324.437304
_symmetry_space_group_name_H-M "P B A M"
_symmetry_group_IT_number 55
_symmetry_cell_setting 'orthorhombic'
loop_
_space_group_symop_operation_xyz
x,y,z
-x,-y,z
1/2+x,1/2-y,-z
1/2-x,1/2+y,-z
-x,-y,-z
x,y,-z
1/2-x,1/2+y,z
1/2+x,1/2-y,z
loop_
_atom_site_type_symbol
_atom_site_label
_atom_site_fract_x
_atom_site_fract_y
_atom_site_fract_z
Si Si1 0.910535 0.836338 0.139435
Si Si2 0.880123 0.162464 0.245221
Si Si3 0.720356 0.827475 0.138396
Si Si4 0.521550 0.834282 0.861204
Si Si5 0.211969 0.465704 0.500000
Si Si6 0.815645 0.648429 0.243568
Si Si7 0.174011 0.814160 0.500000
O O1 0.875667 0.699921 0.201192
O O2 0.974237 0.793658 0.150740
O O3 0.901444 0.995175 0.208747
O O4 0.892891 0.854069 0.000000
O O5 0.827486 0.205059 0.165111
O O6 0.927637 0.288245 0.223086
O O7 0.865036 0.163370 0.385590
O O8 0.772826 0.787864 0.221140
O O9 0.701898 0.000605 0.166024
O O10 0.738209 0.813783 0.000000
O O11 0.500000 0.000000 0.816557
O O12 0.542182 0.844704 0.000000
O O13 0.182555 0.390194 0.384771
O O14 0.203033 0.648416 0.500000
O O15 0.277566 0.440993 0.500000
#
# Coordination Sequence:
#
# PCOD8227536 Si02
#       7
#     8   8   8   8   4   8   4
#     4  11  24  42  68 102 137 175 219 276 340 405
#     4  12  24  43  66  97 131 177 226 278 329 401
#     4  12  23  38  62  95 134 168 214 284 339 396
#     4  10  22  43  71 100 135 176 219 273 343 409
#     4  12  24  48  65  92 132 185 225 268 323 400
#     4  12  24  41  64  94 133 173 227 267 336 401
#     4  12  28  46  69  95 133 182 236 273 331 395
#
# _framework density 20.650158999999999
#
# number of rings (size 3 to 8) (size 9 to 14) (size 15 to 20)
#    0.000    0.500    3.333    5.500    2.333    2.667 
#    0.000    2.917    0.000    0.000    0.000    0.000 
#    0.000    0.000    0.000    0.000    0.000    0.000 
#
# Total GULP energy -595625.092371 kJ/mol
# GULP energy per Si atom -12408.856091 kJ/mol
# Density = 2.060316 g / cm^3
# Si number density = 20.650159 Si / 1000 Ang^3
#
#
#
# Elastic Constant Matrix: (Units=GPa)
#
#
# Indices 1 2 3 4 5 6 
#
# 1 72.4235 4.4405 47.3641 0.0000 0.0000 0.0000
# 2 4.4405 85.3895 44.2174 0.0000 0.0000 0.0000
# 3 47.3641 44.2174 146.5791 0.0000 0.0000 0.0000
# 4 0.0000 0.0000 0.0000 29.6939 0.0000 0.0000
# 5 0.0000 0.0000 0.0000 0.0000 26.7538 0.0000
# 6 0.0000 0.0000 0.0000 0.0000 0.0000 39.4921
#
#
#
# Elastic Compliance Matrix: (Units=1/GPa)
#
#
# Indices 1 2 3 4 5 6 
#
# 1 0.017930 0.002451 -0.006533 0.000000 0.000000 0.000000
# 2 0.002451 0.014214 -0.005080 0.000000 0.000000 0.000000
# 3 -0.006533 -0.005080 0.010466 0.000000 0.000000 0.000000
# 4 0.000000 0.000000 0.000000 0.033677 0.000000 0.000000
# 5 0.000000 0.000000 0.000000 0.000000 0.037378 0.000000
# 6 0.000000 0.000000 0.000000 0.000000 0.000000 0.025322
#
#
# Mechanical properties :
#
#
# Convention : Reuss Voigt Hill
#
# Bulk Modulus (GPa) = 41.17705 55.15955 48.16830
# Shear Modulus (GPa) = 30.22884 33.07931 31.65407
#
# Velocity S-wave (km/s) = 3.83019 4.00671 3.91944
# Velocity P-wave (km/s) = 6.28840 6.94077 6.62263
#
# Compressibility (1/GPa) = 0.02428537
#
# Stress axis : x y z
#
# Youngs Moduli (GPa) = 55.77290 70.35303 95.55129
#
# Poissons Ratio (x) = -0.17240 0.62423
# Poissons Ratio (y) = -0.13667 0.48537
# Poissons Ratio (z) = 0.36436 0.35737
#
# Static dielectric constant tensor:
#      x y z
#    x 3.807750 0.000000 0.000000 
#    y 0.000000 3.853610 0.000000 
#    z 0.000000 0.000000 3.826090 
# 
# 
# High freq. dielectric constant tensor:
#      x y z
#    x 1.809390 0.000000 0.000000 
#    y 0.000000 1.826060 0.000000 
#    z 0.000000 0.000000 1.805460 
# 
# From -- ./inp_files/15629.got.cif
#   From: 2010.03.12/outbox.cif.g09.slc.cpg/sg55_8_cif.got.tgz:15629.got - 2010.04.16 15:19:21.
