data_PCOD8227380
_publ_section_title
;
Structure prediction by ZEFSAII (Michael W. Deem and Ramdas Pophale) SiO2 
 PCOD8227380
Probable space group: P B A M
;
_chemical_formula_sum "Si O2"
_cell_formula_units_Z 64
_cell_length_a 13.654484
_cell_length_b 11.733655
_cell_length_c 18.215497
_cell_angle_alpha 90.000000
_cell_angle_beta 90.000000
_cell_angle_gamma 90.000000
_cell_volume 2918.432364
_symmetry_space_group_name_H-M "P B A M"
_symmetry_group_IT_number 55
_symmetry_cell_setting 'orthorhombic'
loop_
_space_group_symop_operation_xyz
x,y,z
-x,-y,z
1/2+x,1/2-y,-z
1/2-x,1/2+y,-z
-x,-y,-z
x,y,-z
1/2-x,1/2+y,z
1/2+x,1/2-y,z
loop_
_atom_site_type_symbol
_atom_site_label
_atom_site_fract_x
_atom_site_fract_y
_atom_site_fract_z
Si Si1 0.340793 0.854960 0.665711
Si Si2 0.498363 0.283174 0.413428
Si Si3 0.125203 0.710935 0.825124
Si Si4 0.266989 0.387479 0.085836
Si Si5 0.911151 0.686528 0.824325
Si Si6 0.603939 0.941599 0.578723
Si Si7 0.628703 0.617667 0.300360
Si Si8 0.814826 0.923903 0.805170
O O1 0.395735 0.762292 0.613987
O O2 0.391109 0.865500 0.744480
O O3 0.334823 0.984024 0.635275
O O4 0.227950 0.820035 0.671787
O O5 0.505378 0.314298 0.500000
O O6 0.454638 0.387979 0.364833
O O7 0.416321 0.187125 0.396039
O O8 0.173350 0.772711 0.895448
O O9 0.090771 0.802667 0.764811
O O10 0.203377 0.620640 0.793295
O O11 0.021938 0.655135 0.848525
O O12 0.157087 0.375201 0.116340
O O13 0.319019 0.494642 0.124099
O O14 0.264738 0.409309 0.000000
O O15 0.889817 0.821790 0.820754
O O16 0.659056 0.941599 0.500000
O O17 0.500000 0.000000 0.568512
O O18 0.650504 0.491117 0.268376
#
# Coordination Sequence:
#
# PCOD8227380 Si02
#       8
#     8   8   8   8   8   8   8   8
#     4  11  19  34  60  90 119 163 214 269 309 372
#     4  10  22  38  58  90 131 167 210 269 329 382
#     4  10  22  41  64  95 124 165 216 262 313 378
#     4  10  23  43  63  95 132 165 209 259 318 383
#     4  11  22  40  66  96 124 168 214 262 318 384
#     4   8  17  32  54  83 115 154 200 256 318 365
#     4  11  22  36  62  91 121 170 216 266 319 383
#     4  10  22  41  62  94 128 162 213 262 327 375
#
# _framework density 21.929580999999999
#
# number of rings (size 3 to 8) (size 9 to 14) (size 15 to 20)
#    0.000    1.875    5.000    1.125    1.750    7.000 
#    0.000    1.250    0.000    2.250    0.000    0.000 
#    0.000    0.000    0.000    0.000    0.000    0.000 
#
# Total GULP energy -793221.387579 kJ/mol
# GULP energy per Si atom -12394.084181 kJ/mol
# Density = 2.187967 g / cm^3
# Si number density = 21.929581 Si / 1000 Ang^3
#
#
#
# Elastic Constant Matrix: (Units=GPa)
#
#
# Indices 1 2 3 4 5 6 
#
# 1 60.9482 -6.5393 10.8119 0.0000 0.0000 0.0000
# 2 -6.5393 66.7583 26.1000 0.0000 0.0000 0.0000
# 3 10.8119 26.1000 117.9920 0.0000 0.0000 0.0000
# 4 0.0000 0.0000 0.0000 20.8300 0.0000 0.0000
# 5 0.0000 0.0000 0.0000 0.0000 39.0345 0.0000
# 6 0.0000 0.0000 0.0000 0.0000 0.0000 22.6849
#
#
#
# Elastic Compliance Matrix: (Units=1/GPa)
#
#
# Indices 1 2 3 4 5 6 
#
# 1 0.017050 0.002497 -0.002115 0.000000 0.000000 0.000000
# 2 0.002497 0.016763 -0.003937 0.000000 0.000000 0.000000
# 3 -0.002115 -0.003937 0.009540 0.000000 0.000000 0.000000
# 4 0.000000 0.000000 0.000000 0.048008 0.000000 0.000000
# 5 0.000000 0.000000 0.000000 0.000000 0.025618 0.000000
# 6 0.000000 0.000000 0.000000 0.000000 0.000000 0.044082
#
#
# Mechanical properties :
#
#
# Convention : Reuss Voigt Hill
#
# Bulk Modulus (GPa) = 27.59064 34.04928 30.81996
# Shear Modulus (GPa) = 27.73894 30.86496 29.30195
#
# Velocity S-wave (km/s) = 3.56042 3.75568 3.65935
# Velocity P-wave (km/s) = 5.43239 5.86235 5.65146
#
# Compressibility (1/GPa) = 0.03624418
#
# Stress axis : x y z
#
# Youngs Moduli (GPa) = 58.64960 59.65461 104.82452
#
# Poissons Ratio (x) = -0.14895 0.22167
# Poissons Ratio (y) = -0.14645 0.41268
# Poissons Ratio (z) = 0.12403 0.23485
#
# Static dielectric constant tensor:
#      x y z
#    x 3.840290 0.000000 0.000000 
#    y 0.000000 4.257170 0.000000 
#    z 0.000000 0.000000 3.830170 
# 
# 
# High freq. dielectric constant tensor:
#      x y z
#    x 1.854660 0.000000 0.000000 
#    y 0.000000 1.855930 0.000000 
#    z 0.000000 0.000000 1.845880 
# 
# From -- ./inp_files/21648.got.cif
#   From: 2010.03.12/outbox.cif.g09.slc.cpg/sg55_11_cif.got.tgz:21648.got - 2010.04.16 15:19:21.
