data_PCOD8227483
_publ_section_title
;
Structure prediction by ZEFSAII (Michael W. Deem and Ramdas Pophale) SiO2 
 PCOD8227483
Probable space group: P B A M
;
_chemical_formula_sum "Si O2"
_cell_formula_units_Z 56
_cell_length_a 21.497627
_cell_length_b 14.394960
_cell_length_c 8.941515
_cell_angle_alpha 90.000000
_cell_angle_beta 90.000000
_cell_angle_gamma 90.000000
_cell_volume 2767.018706
_symmetry_space_group_name_H-M "P B A M"
_symmetry_group_IT_number 55
_symmetry_cell_setting 'orthorhombic'
loop_
_space_group_symop_operation_xyz
x,y,z
-x,-y,z
1/2+x,1/2-y,-z
1/2-x,1/2+y,-z
-x,-y,-z
x,y,-z
1/2-x,1/2+y,z
1/2+x,1/2-y,z
loop_
_atom_site_type_symbol
_atom_site_label
_atom_site_fract_x
_atom_site_fract_y
_atom_site_fract_z
Si Si1 0.324018 0.027251 0.674072
Si Si2 0.049999 0.576108 0.827477
Si Si3 0.878526 0.087399 0.673445
Si Si4 0.725959 0.314089 0.327859
Si Si5 0.475983 0.286658 0.827651
Si Si6 0.087980 0.118326 0.329281
Si Si7 0.250837 0.376067 0.823833
O O1 0.326967 0.003979 0.500000
O O2 0.389644 0.066560 0.726220
O O3 0.271401 0.101970 0.711768
O O4 0.308089 0.932368 0.760335
O O5 0.020102 0.676828 0.799996
O O6 0.000000 0.500000 0.776032
O O7 0.068878 0.561826 0.000000
O O8 0.863147 0.103236 0.500000
O O9 0.919557 0.172443 0.731573
O O10 0.813896 0.080857 0.759604
O O11 0.916133 0.992031 0.698399
O O12 0.733615 0.283403 0.500000
O O13 0.656520 0.346055 0.292297
O O14 0.744565 0.230647 0.220772
O O15 0.541336 0.330323 0.780855
O O16 0.463198 0.310440 0.000000
O O17 0.069360 0.141105 0.500000
O O18 0.252007 0.384915 0.000000
#
# Coordination Sequence:
#
# PCOD8227483 Si02
#       7
#     8   8   8   8   8   8   8
#     4  11  23  43  68  95 125 164 213 263 312 372
#     4  10  24  45  64  88 128 170 210 261 318 376
#     4  11  22  42  66  92 126 168 214 258 314 378
#     4  10  22  42  65  92 127 167 213 262 313 376
#     4  11  24  40  62  94 129 166 211 262 321 378
#     4  10  22  41  64  91 125 165 210 260 314 373
#     4  12  25  39  63  96 130 166 205 257 323 380
#
# _framework density 20.238389000000002
#
# number of rings (size 3 to 8) (size 9 to 14) (size 15 to 20)
#    0.000    1.286    1.429    3.857    2.000    8.286 
#    0.000    0.000    0.000    0.000    0.000    0.000 
#    0.000    0.000    0.000    0.000    0.000    0.000 
#
# Total GULP energy -694831.594471 kJ/mol
# GULP energy per Si atom -12407.707044 kJ/mol
# Density = 2.019233 g / cm^3
# Si number density = 20.238389 Si / 1000 Ang^3
#
#
#
# Elastic Constant Matrix: (Units=GPa)
#
#
# Indices 1 2 3 4 5 6 
#
# 1 82.9433 29.3020 39.0093 0.0000 0.0000 0.0000
# 2 29.3020 87.8237 51.4589 0.0000 0.0000 0.0000
# 3 39.0093 51.4589 116.6675 0.0000 0.0000 0.0000
# 4 0.0000 0.0000 0.0000 31.9087 0.0000 0.0000
# 5 0.0000 0.0000 0.0000 0.0000 32.4980 0.0000
# 6 0.0000 0.0000 0.0000 0.0000 0.0000 30.9669
#
#
#
# Elastic Compliance Matrix: (Units=1/GPa)
#
#
# Indices 1 2 3 4 5 6 
#
# 1 0.014781 -0.002745 -0.003731 0.000000 0.000000 0.000000
# 2 -0.002745 0.015865 -0.006080 0.000000 0.000000 0.000000
# 3 -0.003731 -0.006080 0.012501 0.000000 0.000000 0.000000
# 4 0.000000 0.000000 0.000000 0.031339 0.000000 0.000000
# 5 0.000000 0.000000 0.000000 0.000000 0.030771 0.000000
# 6 0.000000 0.000000 0.000000 0.000000 0.000000 0.032293
#
#
# Mechanical properties :
#
#
# Convention : Reuss Voigt Hill
#
# Bulk Modulus (GPa) = 55.45129 58.55278 57.00204
# Shear Modulus (GPa) = 29.64312 30.25234 29.94773
#
# Velocity S-wave (km/s) = 3.83129 3.87046 3.85092
# Velocity P-wave (km/s) = 6.85786 6.99773 6.92815
#
# Compressibility (1/GPa) = 0.01803385
#
# Stress axis : x y z
#
# Youngs Moduli (GPa) = 67.65343 63.03338 79.99670
#
# Poissons Ratio (x) = 0.17305 0.29850
# Poissons Ratio (y) = 0.18573 0.48634
# Poissons Ratio (z) = 0.25244 0.38321
#
# Static dielectric constant tensor:
#      x y z
#    x 3.691320 0.000000 0.000000 
#    y 0.000000 3.765370 0.000000 
#    z 0.000000 0.000000 3.670660 
# 
# 
# High freq. dielectric constant tensor:
#      x y z
#    x 1.798140 0.000000 0.000000 
#    y 0.000000 1.802700 0.000000 
#    z 0.000000 0.000000 1.792590 
# 
# From -- ./inp_files/8721.got.cif
#   From: 2010.03.12/outbox.cif.g09.slc.cpg/sg55_5_cif.got.tgz:8721.got - 2010.04.16 15:19:21.
