data_PCOD8227440
_publ_section_title
;
Structure prediction by ZEFSAII (Michael W. Deem and Ramdas Pophale) SiO2 
 PCOD8227440
Probable space group: P B A M
;
_chemical_formula_sum "Si O2"
_cell_formula_units_Z 48
_cell_length_a 14.695932
_cell_length_b 18.572229
_cell_length_c 8.856230
_cell_angle_alpha 90.000000
_cell_angle_beta 90.000000
_cell_angle_gamma 90.000000
_cell_volume 2417.185891
_symmetry_space_group_name_H-M "P B A M"
_symmetry_group_IT_number 55
_symmetry_cell_setting 'orthorhombic'
loop_
_space_group_symop_operation_xyz
x,y,z
-x,-y,z
1/2+x,1/2-y,-z
1/2-x,1/2+y,-z
-x,-y,-z
x,y,-z
1/2-x,1/2+y,z
1/2+x,1/2-y,z
loop_
_atom_site_type_symbol
_atom_site_label
_atom_site_fract_x
_atom_site_fract_y
_atom_site_fract_z
Si Si1 0.600709 0.476291 0.675221
Si Si2 0.238768 0.917684 0.178385
Si Si3 0.944357 0.567772 0.179365
Si Si4 0.041798 0.711745 0.821807
Si Si5 0.901370 0.809465 0.324979
Si Si6 0.715531 0.733527 0.677789
O O1 0.500000 0.500000 0.724085
O O2 0.617918 0.494497 0.500000
O O3 0.673956 0.517111 0.776338
O O4 0.614611 0.392683 0.710519
O O5 0.340513 0.935362 0.236849
O O6 0.202200 0.845592 0.255415
O O7 0.237127 0.906345 0.000000
O O8 0.000000 0.500000 0.246346
O O9 0.990678 0.640766 0.239335
O O10 0.946912 0.565939 0.000000
O O11 0.140717 0.713239 0.747001
O O12 0.985682 0.782191 0.773484
O O13 0.053243 0.710506 0.000000
O O14 0.925042 0.797530 0.500000
O O15 0.812874 0.765030 0.275417
O O16 0.702433 0.730355 0.500000
#
# Coordination Sequence:
#
# PCOD8227440 Si02
#       6
#     8   8   8   8   8   8
#     4  10  22  40  61  86 120 160 197 244 304 360
#     4  11  22  39  64  92 121 157 203 250 301 359
#     4   9  20  38  58  86 124 161 195 243 306 360
#     4  11  22  38  64  91 120 155 203 256 301 357
#     4  10  22  40  61  87 123 163 201 244 301 364
#     4  11  23  39  60  86 122 162 202 247 300 364
#
# _framework density 19.857800999999998
#
# number of rings (size 3 to 8) (size 9 to 14) (size 15 to 20)
#    0.000    1.667    1.667    2.500    2.333    3.000 
#    0.000    0.000    0.000    4.000    0.000    0.000 
#    0.000    0.000    0.000    0.000    0.000    0.000 
#
# Total GULP energy -595494.418521 kJ/mol
# GULP energy per Si atom -12406.133719 kJ/mol
# Density = 1.981260 g / cm^3
# Si number density = 19.857801 Si / 1000 Ang^3
#
#
#
# Elastic Constant Matrix: (Units=GPa)
#
#
# Indices 1 2 3 4 5 6 
#
# 1 102.4748 34.3128 34.1761 0.0000 0.0000 0.0000
# 2 34.3128 99.4325 23.6653 0.0000 0.0000 0.0000
# 3 34.1761 23.6653 60.2789 0.0000 0.0000 0.0000
# 4 0.0000 0.0000 0.0000 24.3839 0.0000 0.0000
# 5 0.0000 0.0000 0.0000 0.0000 27.9717 0.0000
# 6 0.0000 0.0000 0.0000 0.0000 0.0000 38.8031
#
#
#
# Elastic Compliance Matrix: (Units=1/GPa)
#
#
# Indices 1 2 3 4 5 6 
#
# 1 0.012779 -0.002962 -0.006082 0.000000 0.000000 0.000000
# 2 -0.002962 0.011780 -0.002945 0.000000 0.000000 0.000000
# 3 -0.006082 -0.002945 0.021194 0.000000 0.000000 0.000000
# 4 0.000000 0.000000 0.000000 0.041011 0.000000 0.000000
# 5 0.000000 0.000000 0.000000 0.000000 0.035750 0.000000
# 6 0.000000 0.000000 0.000000 0.000000 0.000000 0.025771
#
#
# Mechanical properties :
#
#
# Convention : Reuss Voigt Hill
#
# Bulk Modulus (GPa) = 45.92685 49.61052 47.76869
# Shear Modulus (GPa) = 27.85152 29.56720 28.70936
#
# Velocity S-wave (km/s) = 3.74912 3.86287 3.80642
# Velocity P-wave (km/s) = 6.47451 6.70320 6.58985
#
# Compressibility (1/GPa) = 0.02177375
#
# Stress axis : x y z
#
# Youngs Moduli (GPa) = 78.25437 84.88739 47.18236
#
# Poissons Ratio (x) = 0.25145 0.28697
# Poissons Ratio (y) = 0.23181 0.13897
# Poissons Ratio (z) = 0.47596 0.25003
#
# Static dielectric constant tensor:
#      x y z
#    x 3.769180 0.000000 0.000000 
#    y 0.000000 3.706360 0.000000 
#    z 0.000000 0.000000 3.404190 
# 
# 
# High freq. dielectric constant tensor:
#      x y z
#    x 1.789560 0.000000 0.000000 
#    y 0.000000 1.784080 0.000000 
#    z 0.000000 0.000000 1.759130 
# 
# From -- ./inp_files/5652.got.cif
#   From: 2010.03.12/outbox.cif.g09.slc.cpg/sg55_3_cif.got.tgz:5652.got - 2010.04.16 15:19:21.
