data_PCOD8227187
_publ_section_title
;
Structure prediction by ZEFSAII (Michael W. Deem and Ramdas Pophale) SiO2 
 PCOD8227187
Probable space group: P B A M
;
_chemical_formula_sum "Si O2"
_cell_formula_units_Z 40
_cell_length_a 16.479921
_cell_length_b 8.848222
_cell_length_c 13.325494
_cell_angle_alpha 90.000000
_cell_angle_beta 90.000000
_cell_angle_gamma 90.000000
_cell_volume 1943.096878
_symmetry_space_group_name_H-M "P B A M"
_symmetry_group_IT_number 55
_symmetry_cell_setting 'orthorhombic'
loop_
_space_group_symop_operation_xyz
x,y,z
-x,-y,z
1/2+x,1/2-y,-z
1/2-x,1/2+y,-z
-x,-y,-z
x,y,-z
1/2-x,1/2+y,z
1/2+x,1/2-y,z
loop_
_atom_site_type_symbol
_atom_site_label
_atom_site_fract_x
_atom_site_fract_y
_atom_site_fract_z
Si Si1 0.447987 0.719577 0.000000
Si Si2 0.518508 0.172321 0.212601
Si Si3 0.657785 0.704718 0.793412
Si Si4 0.249822 0.549460 0.317698
Si Si5 0.138392 0.298277 0.609975
Si Si6 0.872531 0.089723 0.000000
O O1 0.438725 0.817153 0.102582
O O2 0.378124 0.592301 0.000000
O O3 0.536783 0.650806 0.000000
O O4 0.438220 0.273069 0.219890
O O5 0.576981 0.235339 0.299360
O O6 0.500000 0.000000 0.236293
O O7 0.707186 0.858522 0.773161
O O8 0.684449 0.569894 0.721065
O O9 0.677487 0.651808 0.905810
O O10 0.293884 0.667276 0.390590
O O11 0.179631 0.462187 0.377649
O O12 0.095702 0.296209 0.500000
#
# Coordination Sequence:
#
# PCOD8227187 Si02
#       6
#     4   8   8   8   8   4
#     4   9  19  34  60  87 125 160 194 243 306 358
#     4  11  21  39  61  93 122 163 208 255 300 358
#     4  10  21  39  61  88 124 159 204 250 303 365
#     4  10  22  41  60  86 123 161 197 250 315 372
#     4  11  23  41  64  89 120 159 205 254 310 366
#     4   9  18  34  58  89 118 161 200 246 296 355
#
# _framework density 20.585695999999999
#
# number of rings (size 3 to 8) (size 9 to 14) (size 15 to 20)
#    0.000    1.800    2.000    2.100    0.000    3.600 
#    0.000    7.000    0.000    0.000    0.000    0.000 
#    0.000    0.000    0.000    0.000    0.000    0.000 
#
# Total GULP energy -495955.353289 kJ/mol
# GULP energy per Si atom -12398.883832 kJ/mol
# Density = 2.053884 g / cm^3
# Si number density = 20.585696 Si / 1000 Ang^3
#
#
#
# Elastic Constant Matrix: (Units=GPa)
#
#
# Indices 1 2 3 4 5 6 
#
# 1 67.5638 24.9667 46.0285 0.0000 0.0000 0.0000
# 2 24.9667 90.0478 22.5642 0.0000 0.0000 0.0000
# 3 46.0285 22.5642 148.4011 0.0000 0.0000 0.0000
# 4 0.0000 0.0000 0.0000 14.7626 0.0000 0.0000
# 5 0.0000 0.0000 0.0000 0.0000 24.1674 0.0000
# 6 0.0000 0.0000 0.0000 0.0000 0.0000 36.4685
#
#
#
# Elastic Compliance Matrix: (Units=1/GPa)
#
#
# Indices 1 2 3 4 5 6 
#
# 1 0.020178 -0.004186 -0.005622 0.000000 0.000000 0.000000
# 2 -0.004186 0.012413 -0.000589 0.000000 0.000000 0.000000
# 3 -0.005622 -0.000589 0.008572 0.000000 0.000000 0.000000
# 4 0.000000 0.000000 0.000000 0.067739 0.000000 0.000000
# 5 0.000000 0.000000 0.000000 0.000000 0.041378 0.000000
# 6 0.000000 0.000000 0.000000 0.000000 0.000000 0.027421
#
#
# Mechanical properties :
#
#
# Convention : Reuss Voigt Hill
#
# Bulk Modulus (GPa) = 49.09390 54.79241 51.94316
# Shear Modulus (GPa) = 24.35652 29.24324 26.79988
#
# Velocity S-wave (km/s) = 3.44347 3.77312 3.61206
# Velocity P-wave (km/s) = 6.30161 6.75696 6.53325
#
# Compressibility (1/GPa) = 0.02036913
#
# Stress axis : x y z
#
# Youngs Moduli (GPa) = 49.56013 80.55821 116.66187
#
# Poissons Ratio (x) = 0.33719 0.65586
# Poissons Ratio (y) = 0.20744 0.06874
# Poissons Ratio (z) = 0.27862 0.04746
#
# Static dielectric constant tensor:
#      x y z
#    x 3.566420 0.000000 0.000000 
#    y 0.000000 3.824230 0.000000 
#    z 0.000000 0.000000 3.762430 
# 
# 
# High freq. dielectric constant tensor:
#      x y z
#    x 1.787340 0.000000 0.000000 
#    y 0.000000 1.814670 0.000000 
#    z 0.000000 0.000000 1.803500 
# 
# From -- ./inp_files/14679.got.cif
#   From: 2010.03.12/outbox.cif.g09.slc.cpg/sg55_8_cif.got.tgz:14679.got - 2010.04.16 15:19:21.
