data_PCOD8227923
_publ_section_title
;
Structure prediction by ZEFSAII (Michael W. Deem and Ramdas Pophale) SiO2 
 PCOD8227923
Probable space group: P C C N
;
_chemical_formula_sum "Si O2"
_cell_formula_units_Z 64
_cell_length_a 20.674065
_cell_length_b 9.011971
_cell_length_c 18.493469
_cell_angle_alpha 90.000000
_cell_angle_beta 90.000000
_cell_angle_gamma 90.000000
_cell_volume 3445.593556
_symmetry_space_group_name_H-M "P C C N"
_symmetry_group_IT_number 56
_symmetry_cell_setting 'orthorhombic'
loop_
_space_group_symop_operation_xyz
x,y,z
1/2-x,1/2-y,z
1/2+x,-y,1/2-z
-x,1/2+y,1/2-z
-x,-y,-z
1/2+x,1/2+y,-z
1/2-x,y,1/2+z
x,1/2-y,1/2+z
loop_
_atom_site_type_symbol
_atom_site_label
_atom_site_fract_x
_atom_site_fract_y
_atom_site_fract_z
Si Si1 0.109804 0.418092 0.163358
Si Si2 0.878728 0.576954 0.668108
Si Si3 0.378728 0.076955 0.831892
Si Si4 0.750000 0.423708 0.672726
Si Si5 0.498449 0.924834 0.077117
Si Si6 0.250000 0.417544 0.180416
Si Si7 0.998449 0.424834 0.422883
Si Si8 0.890196 0.918092 0.836642
O O1 0.107687 0.459367 0.248006
O O2 0.066219 0.531051 0.119340
O O3 0.184082 0.435751 0.134205
O O4 0.085132 0.250000 0.150789
O O5 0.866778 0.750000 0.656548
O O6 0.815212 0.492599 0.638297
O O7 0.939851 0.519810 0.622607
O O8 0.439851 0.019810 0.877393
O O9 0.392313 0.040633 0.748006
O O10 0.315212 0.992599 0.861703
O O11 0.750000 0.250000 0.658775
O O12 0.750000 0.459861 0.757506
O O13 0.499037 0.750000 0.066863
O O14 0.500000 0.000000 0.000000
O O15 0.250000 0.250000 0.215421
O O16 0.315918 0.435751 0.134205
O O17 0.000000 0.500000 0.500000
O O18 0.933781 0.468949 0.380660
#
# Coordination Sequence:
#
# PCOD8227923 Si02
#       8
#     8   8   8   8   8   8   8   8
#     4   9  17  33  57  81 105 135 173 214 255 306
#     4   9  19  36  56  77 105 141 174 207 258 319
#     4   9  19  36  56  77 105 141 174 207 258 319
#     4  10  18  28  51  84 109 130 166 218 262 298
#     4  11  23  37  53  75 105 141 178 216 260 309
#     4   8  16  32  53  78 109 140 168 204 258 318
#     4  11  23  37  53  75 105 141 178 216 260 309
#     4   9  17  33  57  81 105 135 173 214 255 306
#
# _framework density 18.574448
#
# number of rings (size 3 to 8) (size 9 to 14) (size 15 to 20)
#    0.000    2.500    0.000    4.125    0.000    6.000 
#    0.000    1.250    0.000    3.000    0.000    0.000 
#    0.000    0.000    0.000    0.000    0.000    0.000 
#
# Total GULP energy -793406.394741 kJ/mol
# GULP energy per Si atom -12396.974918 kJ/mol
# Density = 1.853217 g / cm^3
# Si number density = 18.574448 Si / 1000 Ang^3
#
#
#
# Elastic Constant Matrix: (Units=GPa)
#
#
# Indices 1 2 3 4 5 6 
#
# 1 175.4946 59.5644 64.5370 0.0000 0.0000 0.0000
# 2 59.5644 73.1850 37.3623 0.0000 0.0000 0.0000
# 3 64.5370 37.3623 74.6081 0.0000 0.0000 0.0000
# 4 0.0000 0.0000 0.0000 26.5225 0.0000 0.0000
# 5 0.0000 0.0000 0.0000 0.0000 1.6045 0.0000
# 6 0.0000 0.0000 0.0000 0.0000 0.0000 36.1792
#
#
#
# Elastic Compliance Matrix: (Units=1/GPa)
#
#
# Indices 1 2 3 4 5 6 
#
# 1 0.009430 -0.004717 -0.005795 0.000000 0.000000 0.000000
# 2 -0.004717 0.020716 -0.006294 0.000000 0.000000 0.000000
# 3 -0.005795 -0.006294 0.021568 0.000000 0.000000 0.000000
# 4 0.000000 0.000000 0.000000 0.037704 0.000000 0.000000
# 5 0.000000 0.000000 0.000000 0.000000 0.623249 0.000000
# 6 0.000000 0.000000 0.000000 0.000000 0.000000 0.027640
#
#
# Mechanical properties :
#
#
# Convention : Reuss Voigt Hill
#
# Bulk Modulus (GPa) = 55.24129 71.80167 63.52148
# Shear Modulus (GPa) = 6.41064 23.64951 15.03007
#
# Velocity S-wave (km/s) = 1.85979 3.57210 2.84769
# Velocity P-wave (km/s) = 5.86658 7.46681 6.71454
#
# Compressibility (1/GPa) = 0.01810240
#
# Stress axis : x y z
#
# Youngs Moduli (GPa) = 106.04239 48.27165 46.36398
#
# Poissons Ratio (x) = 0.22767 0.26869
# Poissons Ratio (y) = 0.50015 0.29183
# Poissons Ratio (z) = 0.61455 0.30384
#
# Static dielectric constant tensor:
#      x y z
#    x 3.876640 0.000000 0.000000 
#    y 0.000000 3.289660 0.000000 
#    z 0.000000 0.000000 3.138540 
# 
# 
# High freq. dielectric constant tensor:
#      x y z
#    x 1.744820 0.000000 0.000000 
#    y 0.000000 1.716250 0.000000 
#    z 0.000000 0.000000 1.677920 
# 
# From -- ./inp_files/16885.got.cif
#   From: 2010.03.12/outbox.cif.g09.slc.cpg/sg56_9_cif.got.tgz:16885.got - 2010.04.16 15:33:40.
