data_PCOD8227060
_publ_section_title
;
Structure prediction by ZEFSAII (Michael W. Deem and Ramdas Pophale) SiO2 
 PCOD8227060
Probable space group: P B A M
;
_chemical_formula_sum "Si O2"
_cell_formula_units_Z 32
_cell_length_a 13.370442
_cell_length_b 14.951115
_cell_length_c 9.144985
_cell_angle_alpha 90.000000
_cell_angle_beta 90.000000
_cell_angle_gamma 90.000000
_cell_volume 1828.110082
_symmetry_space_group_name_H-M "P B A M"
_symmetry_group_IT_number 55
_symmetry_cell_setting 'orthorhombic'
loop_
_space_group_symop_operation_xyz
x,y,z
-x,-y,z
1/2+x,1/2-y,-z
1/2-x,1/2+y,-z
-x,-y,-z
x,y,-z
1/2-x,1/2+y,z
1/2+x,1/2-y,z
loop_
_atom_site_type_symbol
_atom_site_label
_atom_site_fract_x
_atom_site_fract_y
_atom_site_fract_z
Si Si1 0.114414 0.759209 0.334616
Si Si2 0.520431 0.397467 0.169626
Si Si3 0.415055 0.064549 0.665679
Si Si4 0.245970 0.142455 0.172614
O O1 0.142788 0.786102 0.500000
O O2 0.046759 0.668196 0.332738
O O3 0.216577 0.736105 0.245011
O O4 0.056878 0.840092 0.261606
O O5 0.500000 0.500000 0.205446
O O6 0.632235 0.373533 0.218739
O O7 0.503539 0.375788 0.000000
O O8 0.389879 0.033840 0.500000
O O9 0.313571 0.060222 0.763220
O O10 0.500000 0.000000 0.733476
O O11 0.260122 0.146406 0.000000
#
# Coordination Sequence:
#
# PCOD8227060 Si02
#       4
#     8   8   8   8
#     4   9  19  35  55  79 108 143 182 223 268 324
#     4  10  21  38  57  79 112 148 184 228 274 326
#     4   8  16  33  53  76 108 142 176 221 271 322
#     4   9  18  34  54  77 106 140 181 225 269 320
#
# _framework density 17.504415000000002
#
# number of rings (size 3 to 8) (size 9 to 14) (size 15 to 20)
#    1.500    1.500    0.000    0.750    0.000    3.000 
#    4.500    0.000    0.000    0.000    0.000    0.000 
#    0.000    0.000    0.000    0.000    0.000    0.000 
#
# Total GULP energy -396428.401750 kJ/mol
# GULP energy per Si atom -12388.387555 kJ/mol
# Density = 1.746457 g / cm^3
# Si number density = 17.504415 Si / 1000 Ang^3
#
#
#
# Elastic Constant Matrix: (Units=GPa)
#
#
# Indices 1 2 3 4 5 6 
#
# 1 117.7429 47.5781 64.2560 0.0000 0.0000 0.0000
# 2 47.5781 64.9205 43.5042 0.0000 0.0000 0.0000
# 3 64.2560 43.5042 92.3059 0.0000 0.0000 0.0000
# 4 0.0000 0.0000 0.0000 26.5542 0.0000 0.0000
# 5 0.0000 0.0000 0.0000 0.0000 8.9825 0.0000
# 6 0.0000 0.0000 0.0000 0.0000 0.0000 32.3153
#
#
#
# Elastic Compliance Matrix: (Units=1/GPa)
#
#
# Indices 1 2 3 4 5 6 
#
# 1 0.015088 -0.005874 -0.007734 0.000000 0.000000 0.000000
# 2 -0.005874 0.024801 -0.007600 0.000000 0.000000 0.000000
# 3 -0.007734 -0.007600 0.019799 0.000000 0.000000 0.000000
# 4 0.000000 0.000000 0.000000 0.037659 0.000000 0.000000
# 5 0.000000 0.000000 0.000000 0.000000 0.111328 0.000000
# 6 0.000000 0.000000 0.000000 0.000000 0.000000 0.030945
#
#
# Mechanical properties :
#
#
# Convention : Reuss Voigt Hill
#
# Bulk Modulus (GPa) = 57.89845 65.07177 61.48511
# Shear Modulus (GPa) = 17.37358 21.54579 19.45969
#
# Velocity S-wave (km/s) = 3.15386 3.51219 3.33784
# Velocity P-wave (km/s) = 6.81254 7.32820 7.07507
#
# Compressibility (1/GPa) = 0.01727162
#
# Stress axis : x y z
#
# Youngs Moduli (GPa) = 66.27954 40.32056 50.50711
#
# Poissons Ratio (x) = 0.23686 0.39063
# Poissons Ratio (y) = 0.38935 0.38384
# Poissons Ratio (z) = 0.51262 0.30642
#
# Static dielectric constant tensor:
#      x y z
#    x 3.100530 0.000000 0.000000 
#    y 0.000000 3.046720 0.000000 
#    z 0.000000 0.000000 3.243110 
# 
# 
# High freq. dielectric constant tensor:
#      x y z
#    x 1.659940 0.000000 0.000000 
#    y 0.000000 1.658230 0.000000 
#    z 0.000000 0.000000 1.683460 
# 
# From -- ./inp_files/3330.got.cif
#   From: 2010.03.12/outbox.cif.g09.slc.cpg/sg55_2_cif.got.tgz:3330.got - 2010.04.16 15:19:21.
