data_PCOD8227375
_publ_section_title
;
Structure prediction by ZEFSAII (Michael W. Deem and Ramdas Pophale) SiO2 
 PCOD8227375
Probable space group: P B A M
;
_chemical_formula_sum "Si O2"
_cell_formula_units_Z 64
_cell_length_a 11.813758
_cell_length_b 33.174440
_cell_length_c 9.088425
_cell_angle_alpha 90.000000
_cell_angle_beta 90.000000
_cell_angle_gamma 90.000000
_cell_volume 3561.888320
_symmetry_space_group_name_H-M "P B A M"
_symmetry_group_IT_number 55
_symmetry_cell_setting 'orthorhombic'
loop_
_space_group_symop_operation_xyz
x,y,z
-x,-y,z
1/2+x,1/2-y,-z
1/2-x,1/2+y,-z
-x,-y,-z
x,y,-z
1/2-x,1/2+y,z
1/2+x,1/2-y,z
loop_
_atom_site_type_symbol
_atom_site_label
_atom_site_fract_x
_atom_site_fract_y
_atom_site_fract_z
Si Si1 0.958732 0.170251 0.671947
Si Si2 0.873616 0.317557 0.830517
Si Si3 0.889261 0.680461 0.672771
Si Si4 0.305183 0.272391 0.830593
Si Si5 0.266835 0.391484 0.331401
Si Si6 0.807122 0.869837 0.326689
Si Si7 0.610934 0.447848 0.172533
Si Si8 0.144219 0.962481 0.170869
O O1 0.944106 0.180441 0.500000
O O2 0.922235 0.209245 0.766098
O O3 0.877300 0.133535 0.718000
O O4 0.086173 0.158374 0.712988
O O5 0.808295 0.275524 0.815480
O O6 0.803280 0.352033 0.749638
O O7 0.994124 0.313714 0.754681
O O8 0.890274 0.329660 0.000000
O O9 0.903244 0.689084 0.500000
O O10 0.800650 0.712604 0.735956
O O11 0.844576 0.635025 0.701256
O O12 0.291853 0.285773 0.000000
O O13 0.275586 0.403171 0.500000
O O14 0.262446 0.433750 0.245506
O O15 0.787326 0.871988 0.500000
O O16 0.824354 0.914718 0.267031
O O17 0.481219 0.450648 0.226050
O O18 0.670548 0.490820 0.205906
O O19 0.618029 0.437264 0.000000
O O20 0.151381 0.954504 0.000000
#
# Coordination Sequence:
#
# PCOD8227375 Si02
#       8
#     8   8   8   8   8   8   8   8
#     4   9  19  34  52  79 111 142 180 221 267 326
#     4  11  25  41  57  80 109 144 186 229 276 329
#     4  10  22  40  59  80 109 143 183 228 272 325
#     4  10  22  38  58  82 108 139 179 228 276 323
#     4   9  17  32  53  79 109 139 176 222 269 317
#     4  11  22  36  55  81 111 149 187 223 276 332
#     4   9  18  32  49  77 116 149 181 223 269 323
#     4   9  17  29  50  80 112 147 182 218 269 326
#
# _framework density 17.967997
#
# number of rings (size 3 to 8) (size 9 to 14) (size 15 to 20)
#    0.000    2.250    1.250    3.000    1.750    6.000 
#    0.000    1.250    0.000    0.750    0.000    5.250 
#    0.000    0.000    0.000    0.000    0.000    0.000 
#
# Total GULP energy -793671.262568 kJ/mol
# GULP energy per Si atom -12401.113478 kJ/mol
# Density = 1.792710 g / cm^3
# Si number density = 17.967997 Si / 1000 Ang^3
#
#
#
# Elastic Constant Matrix: (Units=GPa)
#
#
# Indices 1 2 3 4 5 6 
#
# 1 73.0057 30.4760 40.6835 0.0000 0.0000 0.0000
# 2 30.4760 95.4462 56.0013 0.0000 0.0000 0.0000
# 3 40.6835 56.0013 93.8963 0.0000 0.0000 0.0000
# 4 0.0000 0.0000 0.0000 26.3926 0.0000 0.0000
# 5 0.0000 0.0000 0.0000 0.0000 27.6212 0.0000
# 6 0.0000 0.0000 0.0000 0.0000 0.0000 24.1280
#
#
#
# Elastic Compliance Matrix: (Units=1/GPa)
#
#
# Indices 1 2 3 4 5 6 
#
# 1 0.018263 -0.001828 -0.006822 0.000000 0.000000 0.000000
# 2 -0.001828 0.016300 -0.008929 0.000000 0.000000 0.000000
# 3 -0.006822 -0.008929 0.018932 0.000000 0.000000 0.000000
# 4 0.000000 0.000000 0.000000 0.037889 0.000000 0.000000
# 5 0.000000 0.000000 0.000000 0.000000 0.036204 0.000000
# 6 0.000000 0.000000 0.000000 0.000000 0.000000 0.041446
#
#
# Mechanical properties :
#
#
# Convention : Reuss Voigt Hill
#
# Bulk Modulus (GPa) = 54.54325 57.40777 55.97551
# Shear Modulus (GPa) = 23.77495 24.64086 24.20790
#
# Velocity S-wave (km/s) = 3.64150 3.70723 3.67451
# Velocity P-wave (km/s) = 6.93559 7.09536 7.01593
#
# Compressibility (1/GPa) = 0.01833408
#
# Stress axis : x y z
#
# Youngs Moduli (GPa) = 54.75645 61.34935 52.82131
#
# Poissons Ratio (x) = 0.11217 0.36037
# Poissons Ratio (y) = 0.10011 0.47167
# Poissons Ratio (z) = 0.37357 0.54782
#
# Static dielectric constant tensor:
#      x y z
#    x 3.181900 0.000000 0.000000 
#    y 0.000000 3.337170 0.000000 
#    z 0.000000 0.000000 3.346800 
# 
# 
# High freq. dielectric constant tensor:
#      x y z
#    x 1.670990 0.000000 0.000000 
#    y 0.000000 1.696140 0.000000 
#    z 0.000000 0.000000 1.703270 
# 
# From -- ./inp_files/4668.got.cif
#   From: 2010.03.12/outbox.cif.g09.slc.cpg/sg55_3_cif.got.tgz:4668.got - 2010.04.16 15:19:21.
