data_PCOD8227139
_publ_section_title
;
Structure prediction by ZEFSAII (Michael W. Deem and Ramdas Pophale) SiO2 
 PCOD8227139
Probable space group: P B A M
;
_chemical_formula_sum "Si O2"
_cell_formula_units_Z 48
_cell_length_a 19.066217
_cell_length_b 14.942936
_cell_length_c 8.493231
_cell_angle_alpha 90.000000
_cell_angle_beta 90.000000
_cell_angle_gamma 90.000000
_cell_volume 2419.766190
_symmetry_space_group_name_H-M "P B A M"
_symmetry_group_IT_number 55
_symmetry_cell_setting 'orthorhombic'
loop_
_space_group_symop_operation_xyz
x,y,z
-x,-y,z
1/2+x,1/2-y,-z
1/2-x,1/2+y,-z
-x,-y,-z
x,y,-z
1/2-x,1/2+y,z
1/2+x,1/2-y,z
loop_
_atom_site_type_symbol
_atom_site_label
_atom_site_fract_x
_atom_site_fract_y
_atom_site_fract_z
Si Si1 0.171879 0.382024 0.683980
Si Si2 0.923554 0.972928 0.184121
Si Si3 0.569241 0.778235 0.684740
Si Si4 0.576177 0.966095 0.183716
Si Si5 0.420041 0.733197 0.817510
Si Si6 0.829511 0.123288 0.315254
O O1 0.169871 0.406142 0.500000
O O2 0.133294 0.458788 0.781425
O O3 0.134628 0.287234 0.711681
O O4 0.250689 0.374727 0.751865
O O5 0.909151 0.870207 0.224328
O O6 0.864641 0.029693 0.271049
O O7 0.919362 0.993642 0.000000
O O8 0.000000 0.000000 0.249708
O O9 0.555081 0.765127 0.500000
O O10 0.597314 0.877628 0.719452
O O11 0.498409 0.763652 0.780677
O O12 0.625844 0.707013 0.750895
O O13 0.500000 0.000000 0.240285
O O14 0.575592 0.943160 0.000000
O O15 0.405334 0.753035 0.000000
O O16 0.825420 0.133019 0.500000
#
# Coordination Sequence:
#
# PCOD8227139 Si02
#       6
#     8   8   8   8   8   8
#     4  11  24  42  62  88 124 161 199 249 304 357
#     4  10  21  38  62  91 123 159 201 248 297 356
#     4  11  22  38  63  92 121 158 202 248 300 356
#     4  11  23  39  62  91 122 156 202 251 298 358
#     4  11  22  38  61  91 122 157 203 249 296 357
#     4  10  24  42  61  90 125 159 200 249 301 358
#
# _framework density 19.836625999999999
#
# number of rings (size 3 to 8) (size 9 to 14) (size 15 to 20)
#    0.000    1.333    3.333    2.000    0.000    5.667 
#    0.000    5.000    0.000    0.000    0.000    0.000 
#    0.000    0.000    0.000    0.000    0.000    0.000 
#
# Total GULP energy -595494.394165 kJ/mol
# GULP energy per Si atom -12406.133212 kJ/mol
# Density = 1.979148 g / cm^3
# Si number density = 19.836626 Si / 1000 Ang^3
#
#
#
# Elastic Constant Matrix: (Units=GPa)
#
#
# Indices 1 2 3 4 5 6 
#
# 1 154.0718 59.4677 9.7379 0.0000 0.0000 0.0000
# 2 59.4677 128.1662 11.9401 0.0000 0.0000 0.0000
# 3 9.7379 11.9401 23.2920 0.0000 0.0000 0.0000
# 4 0.0000 0.0000 0.0000 31.5207 0.0000 0.0000
# 5 0.0000 0.0000 0.0000 0.0000 7.3039 0.0000
# 6 0.0000 0.0000 0.0000 0.0000 0.0000 32.6182
#
#
#
# Elastic Compliance Matrix: (Units=1/GPa)
#
#
# Indices 1 2 3 4 5 6 
#
# 1 0.007956 -0.003551 -0.001506 0.000000 0.000000 0.000000
# 2 -0.003551 0.009779 -0.003528 0.000000 0.000000 0.000000
# 3 -0.001506 -0.003528 0.045371 0.000000 0.000000 0.000000
# 4 0.000000 0.000000 0.000000 0.031725 0.000000 0.000000
# 5 0.000000 0.000000 0.000000 0.000000 0.136913 0.000000
# 6 0.000000 0.000000 0.000000 0.000000 0.000000 0.030658
#
#
# Mechanical properties :
#
#
# Convention : Reuss Voigt Hill
#
# Bulk Modulus (GPa) = 21.76951 51.98016 36.87484
# Shear Modulus (GPa) = 16.95577 29.24753 23.10165
#
# Velocity S-wave (km/s) = 2.92682 3.84398 3.41632
# Velocity P-wave (km/s) = 4.73497 6.77958 5.84733
#
# Compressibility (1/GPa) = 0.04593580
#
# Stress axis : x y z
#
# Youngs Moduli (GPa) = 125.68501 102.26144 22.04035
#
# Poissons Ratio (x) = 0.36317 0.03319
# Poissons Ratio (y) = 0.44636 0.07776
# Poissons Ratio (z) = 0.18927 0.36079
#
# Static dielectric constant tensor:
#      x y z
#    x 3.776090 0.000000 0.000000 
#    y 0.000000 3.856830 0.000000 
#    z 0.000000 0.000000 3.459700 
# 
# 
# High freq. dielectric constant tensor:
#      x y z
#    x 1.771510 0.000000 0.000000 
#    y 0.000000 1.788560 0.000000 
#    z 0.000000 0.000000 1.770690 
# 
# From -- ./inp_files/5664.got.cif
#   From: 2010.03.12/outbox.cif.g09.slc.cpg/sg55_3_cif.got.tgz:5664.got - 2010.04.16 15:19:21.
