data_PCOD8227642
_publ_section_title
;
Structure prediction by ZEFSAII (Michael W. Deem and Ramdas Pophale) SiO2 
 PCOD8227642
Probable space group: P B A M
;
_chemical_formula_sum "Si O2"
_cell_formula_units_Z 32
_cell_length_a 14.334685
_cell_length_b 15.273496
_cell_length_c 9.001106
_cell_angle_alpha 90.000000
_cell_angle_beta 90.000000
_cell_angle_gamma 90.000000
_cell_volume 1970.708935
_symmetry_space_group_name_H-M "P B A M"
_symmetry_group_IT_number 55
_symmetry_cell_setting 'orthorhombic'
loop_
_space_group_symop_operation_xyz
x,y,z
-x,-y,z
1/2+x,1/2-y,-z
1/2-x,1/2+y,-z
-x,-y,-z
x,y,-z
1/2-x,1/2+y,z
1/2+x,1/2-y,z
loop_
_atom_site_type_symbol
_atom_site_label
_atom_site_fract_x
_atom_site_fract_y
_atom_site_fract_z
Si Si1 0.510088 0.858962 0.331737
Si Si2 0.320612 0.855536 0.172978
Si Si3 0.163879 0.554213 0.172938
Si Si4 0.698994 0.781611 0.332229
O O1 0.486308 0.887611 0.500000
O O2 0.417320 0.827520 0.249225
O O3 0.559750 0.940013 0.244923
O O4 0.585371 0.778651 0.331053
O O5 0.236401 0.801252 0.242935
O O6 0.297013 0.957319 0.201722
O O7 0.328990 0.834344 0.000000
O O8 0.230489 0.626669 0.252712
O O9 0.156952 0.576462 0.000000
O O10 0.738293 0.780525 0.500000
#
# Coordination Sequence:
#
# PCOD8227642 Si02
#       4
#     8   8   8   8
#     4   9  19  32  48  73 101 128 161 201 242 286
#     4  11  20  30  52  75  98 133 160 198 249 287
#     4   9  18  32  48  73 102 125 161 201 242 289
#     4   9  20  33  47  71 100 130 162 201 242 287
#
# _framework density 16.23781
#
# number of rings (size 3 to 8) (size 9 to 14) (size 15 to 20)
#    1.500    1.000    0.000    3.000    0.000    7.000 
#    0.000    0.000    0.000    1.500    0.000   10.500 
#    0.000    0.000    0.000    0.000    0.000    0.000 
#
# Total GULP energy -396463.773353 kJ/mol
# GULP energy per Si atom -12389.492917 kJ/mol
# Density = 1.620085 g / cm^3
# Si number density = 16.237810 Si / 1000 Ang^3
#
#
#
# Elastic Constant Matrix: (Units=GPa)
#
#
# Indices 1 2 3 4 5 6 
#
# 1 13.7216 18.4975 18.5443 0.0000 0.0000 0.0000
# 2 18.4975 52.1547 30.4276 0.0000 0.0000 0.0000
# 3 18.5443 30.4276 118.5605 0.0000 0.0000 0.0000
# 4 0.0000 0.0000 0.0000 20.0018 0.0000 0.0000
# 5 0.0000 0.0000 0.0000 0.0000 29.4894 0.0000
# 6 0.0000 0.0000 0.0000 0.0000 0.0000 22.1216
#
#
#
# Elastic Compliance Matrix: (Units=1/GPa)
#
#
# Indices 1 2 3 4 5 6 
#
# 1 0.152324 -0.047190 -0.011714 0.000000 0.000000 0.000000
# 2 -0.047190 0.037170 -0.002158 0.000000 0.000000 0.000000
# 3 -0.011714 -0.002158 0.010821 0.000000 0.000000 0.000000
# 4 0.000000 0.000000 0.000000 0.049995 0.000000 0.000000
# 5 0.000000 0.000000 0.000000 0.000000 0.033911 0.000000
# 6 0.000000 0.000000 0.000000 0.000000 0.000000 0.045205
#
#
# Mechanical properties :
#
#
# Convention : Reuss Voigt Hill
#
# Bulk Modulus (GPa) = 12.78948 35.48615 24.13781
# Shear Modulus (GPa) = 10.46873 22.12039 16.29456
#
# Velocity S-wave (km/s) = 2.54187 3.69491 3.17124
# Velocity P-wave (km/s) = 4.06304 6.33282 5.32038
#
# Compressibility (1/GPa) = 0.07818928
#
# Stress axis : x y z
#
# Youngs Moduli (GPa) = 6.56495 26.90376 92.41579
#
# Poissons Ratio (x) = 1.26959 1.08259
# Poissons Ratio (y) = 0.30980 0.19945
# Poissons Ratio (z) = 0.07690 0.05806
#
# Static dielectric constant tensor:
#      x y z
#    x 2.744420 0.000000 0.000000 
#    y 0.000000 2.851430 0.000000 
#    z 0.000000 0.000000 3.269090 
# 
# 
# High freq. dielectric constant tensor:
#      x y z
#    x 1.588720 0.000000 0.000000 
#    y 0.000000 1.605730 0.000000 
#    z 0.000000 0.000000 1.650550 
# 
# From -- ./inp_files/3331.got.cif
#   From: 2010.03.12/outbox.cif.g09.slc.cpg/sg55_2_cif.got.tgz:3331.got - 2010.04.16 15:19:21.
