data_PCOD8227940
_publ_section_title
;
Structure prediction by ZEFSAII (Michael W. Deem and Ramdas Pophale) SiO2 
 PCOD8227940
Probable space group: P C C N
;
_chemical_formula_sum "Si O2"
_cell_formula_units_Z 48
_cell_length_a 18.680884
_cell_length_b 14.730564
_cell_length_c 8.764192
_cell_angle_alpha 90.000000
_cell_angle_beta 90.000000
_cell_angle_gamma 90.000000
_cell_volume 2411.729981
_symmetry_space_group_name_H-M "P C C N"
_symmetry_group_IT_number 56
_symmetry_cell_setting 'orthorhombic'
loop_
_space_group_symop_operation_xyz
x,y,z
1/2-x,1/2-y,z
1/2+x,-y,1/2-z
-x,1/2+y,1/2-z
-x,-y,-z
1/2+x,1/2+y,-z
1/2-x,y,1/2+z
x,1/2-y,1/2+z
loop_
_atom_site_type_symbol
_atom_site_label
_atom_site_fract_x
_atom_site_fract_y
_atom_site_fract_z
Si Si1 0.078099 0.006646 0.428743
Si Si2 0.674321 0.201744 0.572593
Si Si3 0.095221 0.553929 0.580473
Si Si4 0.444263 0.190812 0.820074
Si Si5 0.607906 0.347105 0.384787
Si Si6 0.445299 0.366121 0.992438
O O1 0.083365 0.962361 0.259741
O O2 0.126313 0.947322 0.545389
O O3 0.099573 0.113347 0.416587
O O4 0.000000 0.000000 0.500000
O O5 0.750000 0.250000 0.550825
O O6 0.665806 0.113346 0.460855
O O7 0.615998 0.275701 0.522201
O O8 0.662543 0.172614 0.747398
O O9 0.099896 0.459631 0.484701
O O10 0.029048 0.611112 0.514097
O O11 0.527087 0.163158 0.830279
O O12 0.423445 0.185718 0.645129
O O13 0.424562 0.293735 0.862980
#
# Coordination Sequence:
#
# PCOD8227940 Si02
#       6
#     8   8   8   8   8   8
#     4   9  21  32  53  79 112 147 193 240 305 367
#     4  12  24  37  54  76 110 160 205 242 290 343
#     4  10  20  36  50  80 110 154 194 240 290 359
#     4  10  18  32  50  83 108 149 181 234 304 367
#     4  11  20  35  50  76 109 149 195 247 285 354
#     4  10  20  30  54  78 114 145 186 233 301 359
#
# _framework density 19.902725
#
# number of rings (size 3 to 8) (size 9 to 14) (size 15 to 20)
#    0.000    1.667    3.333    1.500    7.000    0.000 
#    0.000    0.833    0.000    0.000    0.000    1.167 
#    0.000    8.000    0.000    0.167    0.000    0.000 
#
# Total GULP energy -594649.105659 kJ/mol
# GULP energy per Si atom -12388.523035 kJ/mol
# Density = 1.985743 g / cm^3
# Si number density = 19.902725 Si / 1000 Ang^3
#
#
#
# Elastic Constant Matrix: (Units=GPa)
#
#
# Indices 1 2 3 4 5 6 
#
# 1 42.0110 38.2615 24.4613 0.0000 0.0000 0.0000
# 2 38.2615 165.2213 59.8826 0.0000 0.0000 0.0000
# 3 24.4613 59.8826 95.0969 0.0000 0.0000 0.0000
# 4 0.0000 0.0000 0.0000 34.6572 0.0000 0.0000
# 5 0.0000 0.0000 0.0000 0.0000 19.4094 0.0000
# 6 0.0000 0.0000 0.0000 0.0000 0.0000 30.2806
#
#
#
# Elastic Compliance Matrix: (Units=1/GPa)
#
#
# Indices 1 2 3 4 5 6 
#
# 1 0.031624 -0.005669 -0.004565 0.000000 0.000000 0.000000
# 2 -0.005669 0.008859 -0.004120 0.000000 0.000000 0.000000
# 3 -0.004565 -0.004120 0.014284 0.000000 0.000000 0.000000
# 4 0.000000 0.000000 0.000000 0.028854 0.000000 0.000000
# 5 0.000000 0.000000 0.000000 0.000000 0.051521 0.000000
# 6 0.000000 0.000000 0.000000 0.000000 0.000000 0.033024
#
#
# Mechanical properties :
#
#
# Convention : Reuss Voigt Hill
#
# Bulk Modulus (GPa) = 38.37400 60.83776 49.60588
# Shear Modulus (GPa) = 24.32373 28.85105 26.58739
#
# Velocity S-wave (km/s) = 3.49969 3.81150 3.65892
# Velocity P-wave (km/s) = 5.97102 7.07134 6.54435
#
# Compressibility (1/GPa) = 0.02605931
#
# Stress axis : x y z
#
# Youngs Moduli (GPa) = 31.62142 112.88530 70.00776
#
# Poissons Ratio (x) = 0.63994 0.31957
# Poissons Ratio (y) = 0.17926 0.28843
# Poissons Ratio (z) = 0.14434 0.46509
#
# Static dielectric constant tensor:
#      x y z
#    x 3.010580 0.000000 0.000000 
#    y 0.000000 4.268730 0.000000 
#    z 0.000000 0.000000 3.774080 
# 
# 
# High freq. dielectric constant tensor:
#      x y z
#    x 1.694270 0.000000 0.000000 
#    y 0.000000 1.800290 0.000000 
#    z 0.000000 0.000000 1.790950 
# 
# From -- ./inp_files/3469.got.cif
#   From: 2010.03.12/outbox.cif.g09.slc.cpg/sg56_2_cif.got.tgz:3469.got - 2010.04.16 15:33:40.
