data_PCOD8227986
_publ_section_title
;
Structure prediction by ZEFSAII (Michael W. Deem and Ramdas Pophale) SiO2 
 PCOD8227986
Probable space group: P C C N
;
_chemical_formula_sum "Si O2"
_cell_formula_units_Z 64
_cell_length_a 9.154187
_cell_length_b 18.285063
_cell_length_c 18.570624
_cell_angle_alpha 90.000000
_cell_angle_beta 90.000000
_cell_angle_gamma 90.000000
_cell_volume 3108.441781
_symmetry_space_group_name_H-M "P C C N"
_symmetry_group_IT_number 56
_symmetry_cell_setting 'orthorhombic'
loop_
_space_group_symop_operation_xyz
x,y,z
1/2-x,1/2-y,z
1/2+x,-y,1/2-z
-x,1/2+y,1/2-z
-x,-y,-z
1/2+x,1/2+y,-z
1/2-x,y,1/2+z
x,1/2-y,1/2+z
loop_
_atom_site_type_symbol
_atom_site_label
_atom_site_fract_x
_atom_site_fract_y
_atom_site_fract_z
Si Si1 0.076285 0.511379 0.103035
Si Si2 0.145820 0.815730 0.262883
Si Si3 0.414445 0.910052 0.243349
Si Si4 0.813968 0.559973 0.490559
Si Si5 0.404270 0.565894 0.908380
Si Si6 0.586988 0.726678 0.687073
Si Si7 0.103805 0.630157 0.912043
Si Si8 0.062432 0.344864 0.958433
O O1 0.077401 0.520373 0.189785
O O2 0.231811 0.489140 0.069489
O O3 0.956880 0.452293 0.078650
O O4 0.032798 0.589312 0.072529
O O5 0.250000 0.750000 0.286848
O O6 0.250280 0.878875 0.231560
O O7 0.058392 0.840453 0.333909
O O8 0.025217 0.792108 0.204706
O O9 0.438059 0.941005 0.323435
O O10 0.538087 0.848317 0.226954
O O11 0.856852 0.512955 0.560788
O O12 0.722259 0.629118 0.517431
O O13 0.955261 0.593849 0.451719
O O14 0.278692 0.626776 0.920119
O O15 0.750000 0.750000 0.711287
O O16 0.579665 0.718057 0.600690
O O17 0.029416 0.682805 0.971862
#
# Coordination Sequence:
#
# PCOD8227986 Si02
#       8
#     8   8   8   8   8   8   8   8
#     4  10  18  35  57  89 120 155 189 232 300 360
#     4   9  20  41  58  81 113 155 199 243 282 340
#     4   9  21  38  60  84 120 154 191 240 295 355
#     4  10  19  34  54  87 129 147 181 236 288 354
#     4  10  19  33  53  90 124 149 184 230 284 358
#     4  10  22  42  59  79 111 151 202 250 282 333
#     4  10  18  36  63  83 116 155 192 237 293 353
#     4  10  19  38  59  81 114 157 187 239 295 348
#
# _framework density 20.589093999999999
#
# number of rings (size 3 to 8) (size 9 to 14) (size 15 to 20)
#    0.000    2.250    2.500    0.750    0.000    4.000 
#    6.750    8.750    0.000    0.000    0.000    0.000 
#    0.000    0.000    0.000    0.000    0.000    0.000 
#
# Total GULP energy -793504.281191 kJ/mol
# GULP energy per Si atom -12398.504394 kJ/mol
# Density = 2.054223 g / cm^3
# Si number density = 20.589094 Si / 1000 Ang^3
#
#
#
# Elastic Constant Matrix: (Units=GPa)
#
#
# Indices 1 2 3 4 5 6 
#
# 1 128.3604 26.9129 67.0091 0.0000 0.0000 0.0000
# 2 26.9129 30.5536 31.2548 0.0000 0.0000 0.0000
# 3 67.0091 31.2548 150.0990 0.0000 0.0000 0.0000
# 4 0.0000 0.0000 0.0000 31.9830 0.0000 0.0000
# 5 0.0000 0.0000 0.0000 0.0000 31.3369 0.0000
# 6 0.0000 0.0000 0.0000 0.0000 0.0000 13.2907
#
#
#
# Elastic Compliance Matrix: (Units=1/GPa)
#
#
# Indices 1 2 3 4 5 6 
#
# 1 0.010934 -0.005893 -0.003654 0.000000 0.000000 0.000000
# 2 -0.005893 0.044764 -0.006690 0.000000 0.000000 0.000000
# 3 -0.003654 -0.006690 0.009687 0.000000 0.000000 0.000000
# 4 0.000000 0.000000 0.000000 0.031267 0.000000 0.000000
# 5 0.000000 0.000000 0.000000 0.000000 0.031911 0.000000
# 6 0.000000 0.000000 0.000000 0.000000 0.000000 0.075241
#
#
# Mechanical properties :
#
#
# Convention : Reuss Voigt Hill
#
# Bulk Modulus (GPa) = 30.38618 62.15185 46.26902
# Shear Modulus (GPa) = 20.22264 27.57786 23.90025
#
# Velocity S-wave (km/s) = 3.13741 3.66381 3.41078
# Velocity P-wave (km/s) = 5.28345 6.93904 6.16706
#
# Compressibility (1/GPa) = 0.03290970
#
# Stress axis : x y z
#
# Youngs Moduli (GPa) = 91.46041 22.33939 103.23446
#
# Poissons Ratio (x) = 0.13164 0.37723
# Poissons Ratio (y) = 0.53897 0.69067
# Poissons Ratio (z) = 0.33420 0.14946
#
# Static dielectric constant tensor:
#      x y z
#    x 3.826220 0.000000 0.000000 
#    y 0.000000 3.399590 0.000000 
#    z 0.000000 0.000000 4.021160 
# 
# 
# High freq. dielectric constant tensor:
#      x y z
#    x 1.809700 0.000000 0.000000 
#    y 0.000000 1.768380 0.000000 
#    z 0.000000 0.000000 1.816050 
# 
# From -- ./inp_files/18376.got.cif
#   From: 2010.03.12/outbox.cif.g09.slc.cpg/sg56_10_cif.got.tgz:18376.got - 2010.04.16 15:33:40.
