data_PCOD8227943
_publ_section_title
;
Structure prediction by ZEFSAII (Michael W. Deem and Ramdas Pophale) SiO2 
 PCOD8227943
Probable space group: P C C N
;
_chemical_formula_sum "Si O2"
_cell_formula_units_Z 48
_cell_length_a 8.429749
_cell_length_b 11.921609
_cell_length_c 21.716232
_cell_angle_alpha 90.000000
_cell_angle_beta 90.000000
_cell_angle_gamma 90.000000
_cell_volume 2182.398176
_symmetry_space_group_name_H-M "P C C N"
_symmetry_group_IT_number 56
_symmetry_cell_setting 'orthorhombic'
loop_
_space_group_symop_operation_xyz
x,y,z
1/2-x,1/2-y,z
1/2+x,-y,1/2-z
-x,1/2+y,1/2-z
-x,-y,-z
1/2+x,1/2+y,-z
1/2-x,y,1/2+z
x,1/2-y,1/2+z
loop_
_atom_site_type_symbol
_atom_site_label
_atom_site_fract_x
_atom_site_fract_y
_atom_site_fract_z
Si Si1 0.821908 0.137842 0.279924
Si Si2 0.455151 0.606151 0.591398
Si Si3 0.043006 0.480780 0.696837
Si Si4 0.277642 0.368080 0.848396
Si Si5 0.522320 0.673856 0.033388
Si Si6 0.822007 0.964956 0.935306
O O1 0.750000 0.250000 0.251038
O O2 0.851164 0.156725 0.352496
O O3 0.988833 0.116100 0.244391
O O4 0.688504 0.042584 0.270615
O O5 0.625050 0.571651 0.620586
O O6 0.458954 0.696708 0.534447
O O7 0.367103 0.490483 0.569780
O O8 0.879769 0.551242 0.694308
O O9 0.094360 0.436650 0.629764
O O10 0.250000 0.250000 0.812067
O O11 0.388315 0.328110 0.903152
O O12 0.385722 0.579771 0.033147
O O13 0.643002 0.644243 0.977369
#
# Coordination Sequence:
#
# PCOD8227943 Si02
#       6
#     8   8   8   8   8   8
#     4  11  21  36  59  83 114 152 194 237 286 349
#     4  10  18  32  55  80 106 145 191 234 282 340
#     4  10  21  36  56  85 115 149 192 237 288 344
#     4   9  17  31  53  81 110 143 189 235 282 342
#     4   9  17  31  51  76 105 141 184 231 279 338
#     4   9  18  32  50  75 108 143 186 234 282 336
#
# _framework density 21.994154000000002
#
# number of rings (size 3 to 8) (size 9 to 14) (size 15 to 20)
#    0.000    2.333    0.000    5.500    0.000    0.667 
#    0.000    5.000    0.000   12.000    0.000    0.000 
#    0.000    0.000    0.000    0.000    0.000    0.000 
#
# Total GULP energy -594660.596476 kJ/mol
# GULP energy per Si atom -12388.762427 kJ/mol
# Density = 2.194409 g / cm^3
# Si number density = 21.994154 Si / 1000 Ang^3
#
#
#
# Elastic Constant Matrix: (Units=GPa)
#
#
# Indices 1 2 3 4 5 6 
#
# 1 96.1452 25.3331 3.7845 0.0000 0.0000 0.0000
# 2 25.3331 62.8205 41.4310 0.0000 0.0000 0.0000
# 3 3.7845 41.4310 58.8560 0.0000 0.0000 0.0000
# 4 0.0000 0.0000 0.0000 -3.7274 0.0000 0.0000
# 5 0.0000 0.0000 0.0000 0.0000 370.8707 0.0000
# 6 0.0000 0.0000 0.0000 0.0000 0.0000 30.4015
#
#
#
# Elastic Compliance Matrix: (Units=1/GPa)
#
#
# Indices 1 2 3 4 5 6 
#
# 1 0.012402 -0.008353 0.005083 0.000000 0.000000 0.000000
# 2 -0.008353 0.035339 -0.024340 0.000000 0.000000 0.000000
# 3 0.005083 -0.024340 0.033797 0.000000 0.000000 0.000000
# 4 0.000000 0.000000 0.000000 -0.268283 0.000000 0.000000
# 5 0.000000 0.000000 0.000000 0.000000 0.002696 0.000000
# 6 0.000000 0.000000 0.000000 0.000000 0.000000 0.032893
#
#
# Mechanical properties :
#
#
# Convention : Reuss Voigt Hill
#
# Bulk Modulus (GPa) = 37.99642 39.87986 38.93814
# Shear Modulus (GPa) = -57.36438 89.32717 15.98140
#
# Velocity S-wave (km/s) = -5.11256 6.37983 2.69851
# Velocity P-wave (km/s) = 4.18782 8.51123 5.23943
#
# Compressibility (1/GPa) = 0.02631827
#
# Stress axis : x y z
#
# Youngs Moduli (GPa) = 80.63297 28.29716 29.58813
#
# Poissons Ratio (x) = 0.23638 -0.15039
# Poissons Ratio (y) = 0.67356 0.72016
# Poissons Ratio (z) = -0.40984 0.68874
#
# Static dielectric constant tensor:
#      x y z
#    x 3.948740 0.000000 0.000000 
#    y 0.000000 4.689320 0.000000 
#    z 0.000000 0.000000 3.712800 
# 
# 
# High freq. dielectric constant tensor:
#      x y z
#    x 1.885100 0.000000 0.000000 
#    y 0.000000 1.831160 0.000000 
#    z 0.000000 0.000000 1.840400 
# 
# From -- ./inp_files/20511.got.cif
#   From: 2010.03.12/outbox.cif.g09.slc.cpg/sg56_11_cif.got.tgz:20511.got - 2010.04.16 15:33:40.
