data_PCOD8227144
_publ_section_title
;
Structure prediction by ZEFSAII (Michael W. Deem and Ramdas Pophale) SiO2 
 PCOD8227144
Probable space group: P B A M
;
_chemical_formula_sum "Si O2"
_cell_formula_units_Z 64
_cell_length_a 10.804815
_cell_length_b 32.197903
_cell_length_c 8.833343
_cell_angle_alpha 90.000000
_cell_angle_beta 90.000000
_cell_angle_gamma 90.000000
_cell_volume 3073.052766
_symmetry_space_group_name_H-M "P B A M"
_symmetry_group_IT_number 55
_symmetry_cell_setting 'orthorhombic'
loop_
_space_group_symop_operation_xyz
x,y,z
-x,-y,z
1/2+x,1/2-y,-z
1/2-x,1/2+y,-z
-x,-y,-z
x,y,-z
1/2-x,1/2+y,z
1/2+x,1/2-y,z
loop_
_atom_site_type_symbol
_atom_site_label
_atom_site_fract_x
_atom_site_fract_y
_atom_site_fract_z
Si Si1 0.614473 0.029757 0.179506
Si Si2 0.992835 0.696954 0.333196
Si Si3 0.141511 0.092753 0.170683
Si Si4 0.036311 0.218305 0.823842
Si Si5 0.386972 0.361157 0.170611
Si Si6 0.644802 0.115600 0.677580
Si Si7 0.140731 0.008497 0.322531
Si Si8 0.732759 0.331624 0.665479
O O1 0.584415 0.076284 0.236830
O O2 0.500000 0.000000 0.232627
O O3 0.750137 0.017939 0.244338
O O4 0.624680 0.029219 0.000000
O O5 0.940711 0.710033 0.500000
O O6 0.997399 0.734871 0.216872
O O7 0.129292 0.681620 0.355742
O O8 0.915331 0.658642 0.264303
O O9 0.169163 0.056087 0.286568
O O10 0.229725 0.130249 0.218627
O O11 0.001238 0.107706 0.181894
O O12 0.174799 0.078766 0.000000
O O13 0.926878 0.185703 0.782245
O O14 0.158482 0.207324 0.731185
O O15 0.066780 0.214458 0.000000
O O16 0.289652 0.379940 0.287304
O O17 0.332894 0.361061 0.000000
O O18 0.622901 0.109156 0.500000
O O19 0.148018 0.999350 0.500000
O O20 0.000000 0.000000 0.261455
O O21 0.677900 0.344012 0.500000
#
# Coordination Sequence:
#
# PCOD8227144 Si02
#       8
#     8   8   8   8   8   8   8   8
#     4  11  26  46  67  95 129 169 214 263 322 383
#     4  10  24  41  59  87 121 160 203 249 302 362
#     4  10  21  38  62  92 125 160 202 252 306 361
#     4  10  22  39  61  90 121 159 203 253 309 359
#     4   9  20  39  61  90 127 164 203 252 306 361
#     4  11  24  41  63  91 123 163 207 251 306 370
#     4  11  24  41  66  98 128 164 211 261 317 379
#     4  10  21  39  61  86 120 159 203 250 300 362
#
# _framework density 20.826197000000001
#
# number of rings (size 3 to 8) (size 9 to 14) (size 15 to 20)
#    0.000    1.750    0.000    3.750    3.500    9.000 
#    0.000    0.000    0.000    0.000    0.000    0.000 
#    0.000    0.000    0.000    0.000    0.000    0.000 
#
# Total GULP energy -793531.333282 kJ/mol
# GULP energy per Si atom -12398.927083 kJ/mol
# Density = 2.077880 g / cm^3
# Si number density = 20.826197 Si / 1000 Ang^3
#
#
#
# Elastic Constant Matrix: (Units=GPa)
#
#
# Indices 1 2 3 4 5 6 
#
# 1 61.7492 20.5459 28.0720 0.0000 0.0000 0.0000
# 2 20.5459 95.6787 24.3516 0.0000 0.0000 0.0000
# 3 28.0720 24.3516 77.1002 0.0000 0.0000 0.0000
# 4 0.0000 0.0000 0.0000 42.2435 0.0000 0.0000
# 5 0.0000 0.0000 0.0000 0.0000 26.7534 0.0000
# 6 0.0000 0.0000 0.0000 0.0000 0.0000 -3.8864
#
#
#
# Elastic Compliance Matrix: (Units=1/GPa)
#
#
# Indices 1 2 3 4 5 6 
#
# 1 0.020009 -0.002656 -0.006446 0.000000 0.000000 0.000000
# 2 -0.002656 0.011718 -0.002734 0.000000 0.000000 0.000000
# 3 -0.006446 -0.002734 0.016181 0.000000 0.000000 0.000000
# 4 0.000000 0.000000 0.000000 0.023672 0.000000 0.000000
# 5 0.000000 0.000000 0.000000 0.000000 0.037378 0.000000
# 6 0.000000 0.000000 0.000000 0.000000 0.000000 -0.257305
#
#
# Mechanical properties :
#
#
# Convention : Reuss Voigt Hill
#
# Bulk Modulus (GPa) = 41.26281 42.27412 41.76847
# Shear Modulus (GPa) = -42.88314 23.79268 -9.54523
#
# Velocity S-wave (km/s) = -4.54265 3.38367 -2.14318
# Velocity P-wave (km/s) = 2.76736 5.96726 3.73831
#
# Compressibility (1/GPa) = 0.02423490
#
# Stress axis : x y z
#
# Youngs Moduli (GPa) = 49.97789 85.34013 61.80203
#
# Poissons Ratio (x) = 0.22666 0.39839
# Poissons Ratio (y) = 0.13274 0.16896
# Poissons Ratio (z) = 0.32217 0.23332
#
# Static dielectric constant tensor:
#      x y z
#    x 3.737190 0.000000 0.000000 
#    y 0.000000 3.669780 0.000000 
#    z 0.000000 0.000000 4.296270 
# 
# 
# High freq. dielectric constant tensor:
#      x y z
#    x 1.809090 0.000000 0.000000 
#    y 0.000000 1.824200 0.000000 
#    z 0.000000 0.000000 1.820360 
# 
# From -- ./inp_files/4705.got.cif
#   From: 2010.03.12/outbox.cif.g09.slc.cpg/sg55_3_cif.got.tgz:4705.got - 2010.04.16 15:19:21.
