data_PCOD8227632
_publ_section_title
;
Structure prediction by ZEFSAII (Michael W. Deem and Ramdas Pophale) SiO2 
 PCOD8227632
Probable space group: P B A M
;
_chemical_formula_sum "Si O2"
_cell_formula_units_Z 64
_cell_length_a 20.622922
_cell_length_b 24.670622
_cell_length_c 9.262526
_cell_angle_alpha 90.000000
_cell_angle_beta 90.000000
_cell_angle_gamma 90.000000
_cell_volume 4712.590879
_symmetry_space_group_name_H-M "P B A M"
_symmetry_group_IT_number 55
_symmetry_cell_setting 'orthorhombic'
loop_
_space_group_symop_operation_xyz
x,y,z
-x,-y,z
1/2+x,1/2-y,-z
1/2-x,1/2+y,-z
-x,-y,-z
x,y,-z
1/2-x,1/2+y,z
1/2+x,1/2-y,z
loop_
_atom_site_type_symbol
_atom_site_label
_atom_site_fract_x
_atom_site_fract_y
_atom_site_fract_z
Si Si1 0.499132 0.291769 0.835781
Si Si2 0.115718 0.238906 0.660821
Si Si3 0.360419 0.538176 0.670338
Si Si4 0.858314 0.185475 0.828572
Si Si5 0.626632 0.565528 0.166356
Si Si6 0.238142 0.242265 0.828706
Si Si7 0.794644 0.854722 0.659935
Si Si8 0.522124 0.417667 0.839398
O O1 0.546184 0.254672 0.738046
O O2 0.425721 0.287804 0.773496
O O3 0.522817 0.353206 0.827217
O O4 0.503077 0.270328 0.000000
O O5 0.112020 0.264711 0.500000
O O6 0.173026 0.267562 0.755595
O O7 0.135131 0.175240 0.650178
O O8 0.363015 0.530987 0.500000
O O9 0.338346 0.481744 0.742655
O O10 0.307504 0.584154 0.714544
O O11 0.431300 0.555376 0.723306
O O12 0.850086 0.123896 0.771538
O O13 0.798420 0.221616 0.776514
O O14 0.864028 0.182030 0.000000
O O15 0.549644 0.559510 0.186873
O O16 0.646905 0.559267 0.000000
O O17 0.249813 0.180310 0.771089
O O18 0.230276 0.241734 0.000000
O O19 0.762347 0.854996 0.500000
O O20 0.545935 0.434352 0.000000
#
# Coordination Sequence:
#
# PCOD8227632 Si02
#       8
#     8   8   8   8   8   8   8   8
#     4   9  15  25  41  57  73  97 129 161 192 226
#     4   9  16  26  37  54  76  97 123 158 195 223
#     4  11  19  26  35  50  72  96 125 162 191 213
#     4   8  16  29  42  57  77  99 127 164 197 227
#     4   9  18  29  37  48  70  99 126 154 190 224
#     4   9  15  26  44  59  70  93 129 160 192 234
#     4   8  17  28  37  51  74  95 119 159 197 219
#     4   9  16  25  36  48  66  96 129 156 185 219
#
# _framework density 13.580639
#
# number of rings (size 3 to 8) (size 9 to 14) (size 15 to 20)
#    0.750    2.250    1.250    2.625    0.000    3.000 
#    0.000    4.375    0.000    0.000    0.000    0.000 
#    0.000    0.000    0.000    1.125    0.000   23.500 
#
# Total GULP energy -792875.400751 kJ/mol
# GULP energy per Si atom -12388.678137 kJ/mol
# Density = 1.354973 g / cm^3
# Si number density = 13.580639 Si / 1000 Ang^3
#
#
#
# Elastic Constant Matrix: (Units=GPa)
#
#
# Indices 1 2 3 4 5 6 
#
# 1 66.6991 52.2789 37.6396 0.0000 0.0000 0.0000
# 2 52.2789 48.7146 31.9906 0.0000 0.0000 0.0000
# 3 37.6396 31.9906 67.2937 0.0000 0.0000 0.0000
# 4 0.0000 0.0000 0.0000 14.7263 0.0000 0.0000
# 5 0.0000 0.0000 0.0000 0.0000 8.1872 0.0000
# 6 0.0000 0.0000 0.0000 0.0000 0.0000 17.4784
#
#
#
# Elastic Compliance Matrix: (Units=1/GPa)
#
#
# Indices 1 2 3 4 5 6 
#
# 1 0.096538 -0.099070 -0.006900 0.000000 0.000000 0.000000
# 2 -0.099070 0.131513 -0.007107 0.000000 0.000000 0.000000
# 3 -0.006900 -0.007107 0.022098 0.000000 0.000000 0.000000
# 4 0.000000 0.000000 0.000000 0.067906 0.000000 0.000000
# 5 0.000000 0.000000 0.000000 0.000000 0.122141 0.000000
# 6 0.000000 0.000000 0.000000 0.000000 0.000000 0.057213
#
#
# Mechanical properties :
#
#
# Convention : Reuss Voigt Hill
#
# Bulk Modulus (GPa) = 41.67424 47.39174 44.53299
# Shear Modulus (GPa) = 6.83469 12.13161 9.48315
#
# Velocity S-wave (km/s) = 2.24580 2.99206 2.64537
# Velocity P-wave (km/s) = 6.12192 6.84900 6.49564
#
# Compressibility (1/GPa) = 0.02399564
#
# Stress axis : x y z
#
# Youngs Moduli (GPa) = 10.35863 7.60379 45.25255
#
# Poissons Ratio (x) = 0.75331 0.31225
# Poissons Ratio (y) = 1.02623 0.32160
# Poissons Ratio (z) = 0.07148 0.05404
#
# Static dielectric constant tensor:
#      x y z
#    x 2.476690 0.000000 0.000000 
#    y 0.000000 2.546670 0.000000 
#    z 0.000000 0.000000 2.657580 
# 
# 
# High freq. dielectric constant tensor:
#      x y z
#    x 1.480140 0.000000 0.000000 
#    y 0.000000 1.486880 0.000000 
#    z 0.000000 0.000000 1.518190 
# 
# From -- ./inp_files/9234.got.cif
#   From: 2010.03.12/outbox.cif.g09.slc.cpg/sg55_5_cif.got.tgz:9234.got - 2010.04.16 15:19:21.
