data_PCOD8227034
_publ_section_title
;
Structure prediction by ZEFSAII (Michael W. Deem and Ramdas Pophale) SiO2 
 PCOD8227034
Probable space group: P B A M
;
_chemical_formula_sum "Si O2"
_cell_formula_units_Z 64
_cell_length_a 17.472120
_cell_length_b 9.372805
_cell_length_c 18.757646
_cell_angle_alpha 90.000000
_cell_angle_beta 90.000000
_cell_angle_gamma 90.000000
_cell_volume 3071.804137
_symmetry_space_group_name_H-M "P B A M"
_symmetry_group_IT_number 55
_symmetry_cell_setting 'orthorhombic'
loop_
_space_group_symop_operation_xyz
x,y,z
-x,-y,z
1/2+x,1/2-y,-z
1/2-x,1/2+y,-z
-x,-y,-z
x,y,-z
1/2-x,1/2+y,z
1/2+x,1/2-y,z
loop_
_atom_site_type_symbol
_atom_site_label
_atom_site_fract_x
_atom_site_fract_y
_atom_site_fract_z
Si Si1 0.612101 0.861690 0.210607
Si Si2 0.422164 0.911542 0.576910
Si Si3 0.247483 0.523087 0.581289
Si Si4 0.843592 0.796859 0.918398
Si Si5 0.527393 0.342256 0.180455
Si Si6 0.775901 0.220851 0.676250
Si Si7 0.203399 0.514728 0.084151
Si Si8 0.382347 0.839337 0.277170
O O1 0.538449 0.772360 0.189252
O O2 0.657716 0.772363 0.271001
O O3 0.654479 0.881919 0.135179
O O4 0.586295 0.012653 0.243854
O O5 0.419205 0.830601 0.500000
O O6 0.420460 0.809085 0.645178
O O7 0.500000 0.000000 0.580081
O O8 0.344992 0.006263 0.584195
O O9 0.275199 0.545700 0.500000
O O10 0.265668 0.657034 0.630581
O O11 0.298694 0.395941 0.616151
O O12 0.930717 0.831179 0.895723
O O13 0.790867 0.934960 0.902614
O O14 0.808423 0.647636 0.887441
O O15 0.848667 0.763286 0.000000
O O16 0.500000 0.500000 0.197129
O O17 0.596024 0.301170 0.233585
O O18 0.709421 0.148341 0.723571
O O19 0.181703 0.536838 0.000000
#
# Coordination Sequence:
#
# PCOD8227034 Si02
#       8
#     8   8   8   8   8   8   8   8
#     4  12  24  41  66  93 131 174 222 265 331 392
#     4   9  17  33  59  87 116 158 208 256 313 387
#     4  10  21  37  60  93 128 164 214 271 332 388
#     4  10  23  45  69  99 132 172 219 265 323 389
#     4  12  28  42  64  96 132 170 211 278 330 386
#     4  11  22  38  63  94 123 176 217 276 324 385
#     4  10  23  42  70  99 132 175 220 265 316 387
#     4  11  23  42  62  90 130 167 221 266 329 391
#
# _framework density 20.83466
#
# number of rings (size 3 to 8) (size 9 to 14) (size 15 to 20)
#    0.000    1.375    3.750    2.250    3.500    1.250 
#    0.000    1.250    0.000    0.375    0.000    0.000 
#    0.000    0.000    0.000    0.000    0.000    0.000 
#
# Total GULP energy -792951.694492 kJ/mol
# GULP energy per Si atom -12389.870226 kJ/mol
# Density = 2.078724 g / cm^3
# Si number density = 20.834660 Si / 1000 Ang^3
#
#
#
# Elastic Constant Matrix: (Units=GPa)
#
#
# Indices 1 2 3 4 5 6 
#
# 1 78.8240 30.7271 29.8973 0.0000 0.0000 0.0000
# 2 30.7271 100.3897 19.5017 0.0000 0.0000 0.0000
# 3 29.8973 19.5017 47.8664 0.0000 0.0000 0.0000
# 4 0.0000 0.0000 0.0000 25.4739 0.0000 0.0000
# 5 0.0000 0.0000 0.0000 0.0000 26.2287 0.0000
# 6 0.0000 0.0000 0.0000 0.0000 0.0000 33.9593
#
#
#
# Elastic Compliance Matrix: (Units=1/GPa)
#
#
# Indices 1 2 3 4 5 6 
#
# 1 0.017721 -0.003555 -0.009620 0.000000 0.000000 0.000000
# 2 -0.003555 0.011531 -0.002477 0.000000 0.000000 0.000000
# 3 -0.009620 -0.002477 0.027910 0.000000 0.000000 0.000000
# 4 0.000000 0.000000 0.000000 0.039256 0.000000 0.000000
# 5 0.000000 0.000000 0.000000 0.000000 0.038126 0.000000
# 6 0.000000 0.000000 0.000000 0.000000 0.000000 0.029447
#
#
# Mechanical properties :
#
#
# Convention : Reuss Voigt Hill
#
# Bulk Modulus (GPa) = 38.67562 43.03693 40.85627
# Shear Modulus (GPa) = 24.52008 26.92930 25.72469
#
# Velocity S-wave (km/s) = 3.43430 3.59907 3.51765
# Velocity P-wave (km/s) = 5.85912 6.16217 6.01256
#
# Compressibility (1/GPa) = 0.02585608
#
# Stress axis : x y z
#
# Youngs Moduli (GPa) = 56.42926 86.72587 35.83005
#
# Poissons Ratio (x) = 0.30834 0.34469
# Poissons Ratio (y) = 0.20062 0.08876
# Poissons Ratio (z) = 0.54286 0.21483
#
# Static dielectric constant tensor:
#      x y z
#    x 3.723200 0.000000 0.000000 
#    y 0.000000 3.752760 0.000000 
#    z 0.000000 0.000000 4.205870 
# 
# 
# High freq. dielectric constant tensor:
#      x y z
#    x 1.801000 0.000000 0.000000 
#    y 0.000000 1.800990 0.000000 
#    z 0.000000 0.000000 1.839270 
# 
# From -- ./inp_files/22732.got.cif
#   From: 2010.03.12/outbox.cif.g09.slc.cpg/sg55_12_cif.got.tgz:22732.got - 2010.04.16 15:19:21.
