data_PCOD8227630
_publ_section_title
;
Structure prediction by ZEFSAII (Michael W. Deem and Ramdas Pophale) SiO2 
 PCOD8227630
Probable space group: P B A M
;
_chemical_formula_sum "Si O2"
_cell_formula_units_Z 64
_cell_length_a 25.706681
_cell_length_b 10.177583
_cell_length_c 14.124537
_cell_angle_alpha 90.000000
_cell_angle_beta 90.000000
_cell_angle_gamma 90.000000
_cell_volume 3695.429163
_symmetry_space_group_name_H-M "P B A M"
_symmetry_group_IT_number 55
_symmetry_cell_setting 'orthorhombic'
loop_
_space_group_symop_operation_xyz
x,y,z
-x,-y,z
1/2+x,1/2-y,-z
1/2-x,1/2+y,-z
-x,-y,-z
x,y,-z
1/2-x,1/2+y,z
1/2+x,1/2-y,z
loop_
_atom_site_type_symbol
_atom_site_label
_atom_site_fract_x
_atom_site_fract_y
_atom_site_fract_z
Si Si1 0.029401 0.634575 0.769310
Si Si2 0.377724 0.215420 0.892344
Si Si3 0.792657 0.996355 0.730783
Si Si4 0.891952 0.981202 0.607629
Si Si5 0.101380 0.714405 0.392582
Si Si6 0.959438 0.884832 0.229856
Si Si7 0.299869 0.203377 0.269475
Si Si8 0.869636 0.979672 0.107586
O O1 0.071207 0.643887 0.853512
O O2 0.057962 0.639447 0.667953
O O3 0.000000 0.500000 0.780685
O O4 0.986519 0.746106 0.778719
O O5 0.327172 0.176231 0.831533
O O6 0.388201 0.370298 0.882604
O O7 0.367459 0.171974 0.000000
O O8 0.834024 0.966837 0.648304
O O9 0.775788 0.149607 0.728233
O O10 0.817003 0.959668 0.832689
O O11 0.743565 0.904995 0.712499
O O12 0.892280 0.930552 0.500000
O O13 0.910654 0.131262 0.615645
O O14 0.932780 0.895560 0.666989
O O15 0.098283 0.663891 0.500000
O O16 0.158737 0.685464 0.353462
O O17 0.915625 0.890150 0.148489
O O18 0.000000 0.000000 0.212318
O O19 0.857829 0.938873 0.000000
#
# Coordination Sequence:
#
# PCOD8227630 Si02
#       8
#     8   8   8   8   8   8   8   8
#     4  11  22  35  51  74 108 140 166 207 258 301
#     4   9  18  35  55  75 101 137 174 204 248 309
#     4   9  18  34  53  75 104 133 167 204 256 304
#     4   9  18  33  55  79 101 128 172 219 249 291
#     4   9  18  35  55  75 101 137 174 204 248 309
#     4  11  18  33  55  78  98 132 176 206 245 299
#     4   9  18  34  55  76 100 135 167 208 253 302
#     4   9  18  33  55  79 101 128 172 219 249 291
#
# _framework density 17.318691999999999
#
# number of rings (size 3 to 8) (size 9 to 14) (size 15 to 20)
#    0.000    2.500    2.500    1.500    0.000    3.000 
#    9.000    0.000    0.000    0.000    0.000    0.000 
#    0.000    0.000    0.000    0.000    0.000    0.000 
#
# Total GULP energy -793648.951524 kJ/mol
# GULP energy per Si atom -12400.764868 kJ/mol
# Density = 1.727927 g / cm^3
# Si number density = 17.318692 Si / 1000 Ang^3
#
#
#
# Elastic Constant Matrix: (Units=GPa)
#
#
# Indices 1 2 3 4 5 6 
#
# 1 40.9467 25.3544 -26.2536 0.0000 0.0000 0.0000
# 2 25.3544 70.4764 -14.7300 0.0000 0.0000 0.0000
# 3 -26.2536 -14.7300 55.7938 0.0000 0.0000 0.0000
# 4 0.0000 0.0000 0.0000 14.5879 0.0000 0.0000
# 5 0.0000 0.0000 0.0000 0.0000 13.6922 0.0000
# 6 0.0000 0.0000 0.0000 0.0000 0.0000 27.7010
#
#
#
# Elastic Compliance Matrix: (Units=1/GPa)
#
#
# Indices 1 2 3 4 5 6 
#
# 1 0.042561 -0.011776 0.016918 0.000000 0.000000 0.000000
# 2 -0.011776 0.018276 -0.000716 0.000000 0.000000 0.000000
# 3 0.016918 -0.000716 0.025695 0.000000 0.000000 0.000000
# 4 0.000000 0.000000 0.000000 0.068550 0.000000 0.000000
# 5 0.000000 0.000000 0.000000 0.000000 0.073034 0.000000
# 6 0.000000 0.000000 0.000000 0.000000 0.000000 0.036100
#
#
# Mechanical properties :
#
#
# Convention : Reuss Voigt Hill
#
# Bulk Modulus (GPa) = 10.48392 15.10650 12.79521
# Shear Modulus (GPa) = 17.41205 23.38595 20.39900
#
# Velocity S-wave (km/s) = 3.17423 3.67867 3.43572
# Velocity P-wave (km/s) = 4.41599 5.17543 4.81072
#
# Compressibility (1/GPa) = 0.09538416
#
# Stress axis : x y z
#
# Youngs Moduli (GPa) = 23.49588 54.71704 38.91836
#
# Poissons Ratio (x) = 0.64432 -0.65842
# Poissons Ratio (y) = 0.27668 0.02787
# Poissons Ratio (z) = -0.39750 0.03918
#
# Static dielectric constant tensor:
#      x y z
#    x 3.091810 0.000000 0.000000 
#    y 0.000000 2.834090 0.000000 
#    z 0.000000 0.000000 3.417600 
# 
# 
# High freq. dielectric constant tensor:
#      x y z
#    x 1.668020 0.000000 0.000000 
#    y 0.000000 1.640510 0.000000 
#    z 0.000000 0.000000 1.676960 
# 
# From -- ./inp_files/19949.got.cif
#   From: 2010.03.12/outbox.cif.g09.slc.cpg/sg55_10_cif.got.tgz:19949.got - 2010.04.16 15:19:21.
