data_PCOD8227546
_publ_section_title
;
Structure prediction by ZEFSAII (Michael W. Deem and Ramdas Pophale) SiO2 
 PCOD8227546
Probable space group: P B A M
;
_chemical_formula_sum "Si O2"
_cell_formula_units_Z 32
_cell_length_a 8.836328
_cell_length_b 17.525478
_cell_length_c 10.486938
_cell_angle_alpha 90.000000
_cell_angle_beta 90.000000
_cell_angle_gamma 90.000000
_cell_volume 1624.016363
_symmetry_space_group_name_H-M "P B A M"
_symmetry_group_IT_number 55
_symmetry_cell_setting 'orthorhombic'
loop_
_space_group_symop_operation_xyz
x,y,z
-x,-y,z
1/2+x,1/2-y,-z
1/2-x,1/2+y,-z
-x,-y,-z
x,y,-z
1/2-x,1/2+y,z
1/2+x,1/2-y,z
loop_
_atom_site_type_symbol
_atom_site_label
_atom_site_fract_x
_atom_site_fract_y
_atom_site_fract_z
Si Si1 0.145542 0.108856 0.639828
Si Si2 0.170450 0.721661 0.500000
Si Si3 0.066518 0.916159 0.861096
Si Si4 0.366469 0.856774 0.500000
Si Si5 0.155874 0.467623 0.730650
O O1 0.069095 0.093105 0.500000
O O2 0.259088 0.180984 0.626760
O O3 0.019106 0.128695 0.746828
O O4 0.240486 0.034475 0.675588
O O5 0.205966 0.812184 0.500000
O O6 0.990175 0.711692 0.500000
O O7 0.246702 0.921251 0.835041
O O8 0.042872 0.876222 0.000000
O O9 0.000000 0.000000 0.867028
O O10 0.391397 0.909664 0.379243
O O11 0.000000 0.500000 0.791599
#
# Coordination Sequence:
#
# PCOD8227546 Si02
#       5
#     8   4   8   4   8
#     4   9  18  36  56  84 109 143 182 225 276 329
#     4  10  23  34  53  85 114 142 181 230 280 326
#     4   9  20  33  53  84 114 142 178 224 277 327
#     4  12  22  35  52  89 113 140 182 235 278 321
#     4  11  19  34  58  79 114 146 184 227 274 327
#
# _framework density 19.704234
#
# number of rings (size 3 to 8) (size 9 to 14) (size 15 to 20)
#    0.750    1.250    3.750    0.375    5.250    2.000 
#    0.000    0.000    0.000    1.500    0.000    0.000 
#    0.000    0.000    0.000    0.000    0.000    0.000 
#
# Total GULP energy -396485.405653 kJ/mol
# GULP energy per Si atom -12390.168927 kJ/mol
# Density = 1.965939 g / cm^3
# Si number density = 19.704234 Si / 1000 Ang^3
#
#
#
# Elastic Constant Matrix: (Units=GPa)
#
#
# Indices 1 2 3 4 5 6 
#
# 1 116.9492 9.3703 48.0275 0.0000 0.0000 0.0000
# 2 9.3703 34.5035 -9.5599 0.0000 0.0000 0.0000
# 3 48.0275 -9.5599 118.7097 0.0000 0.0000 0.0000
# 4 0.0000 0.0000 0.0000 37.5534 0.0000 0.0000
# 5 0.0000 0.0000 0.0000 0.0000 30.0293 0.0000
# 6 0.0000 0.0000 0.0000 0.0000 0.0000 33.6812
#
#
#
# Elastic Compliance Matrix: (Units=1/GPa)
#
#
# Indices 1 2 3 4 5 6 
#
# 1 0.010831 -0.004251 -0.004725 0.000000 0.000000 0.000000
# 2 -0.004251 0.031312 0.004241 0.000000 0.000000 0.000000
# 3 -0.004725 0.004241 0.010677 0.000000 0.000000 0.000000
# 4 0.000000 0.000000 0.000000 0.026629 0.000000 0.000000
# 5 0.000000 0.000000 0.000000 0.000000 0.033301 0.000000
# 6 0.000000 0.000000 0.000000 0.000000 0.000000 0.029690
#
#
# Mechanical properties :
#
#
# Convention : Reuss Voigt Hill
#
# Bulk Modulus (GPa) = 23.06649 40.64869 31.85759
# Shear Modulus (GPa) = 30.05554 35.07443 32.56499
#
# Velocity S-wave (km/s) = 3.90979 4.22364 4.06974
# Velocity P-wave (km/s) = 5.66690 6.66781 6.18762
#
# Compressibility (1/GPa) = 0.04335294
#
# Stress axis : x y z
#
# Youngs Moduli (GPa) = 92.32333 31.93654 93.66006
#
# Poissons Ratio (x) = 0.13575 0.44250
# Poissons Ratio (y) = 0.39243 -0.39724
# Poissons Ratio (z) = 0.43618 -0.13545
#
# Static dielectric constant tensor:
#      x y z
#    x 3.745650 0.000000 0.000000 
#    y 0.000000 3.199170 0.000000 
#    z 0.000000 0.000000 3.869770 
# 
# 
# High freq. dielectric constant tensor:
#      x y z
#    x 1.778150 0.000000 0.000000 
#    y 0.000000 1.735020 0.000000 
#    z 0.000000 0.000000 1.741820 
# 
# From -- ./inp_files/11825.got.cif
#   From: 2010.03.12/outbox.cif.g09.slc.cpg/sg55_6_cif.got.tgz:11825.got - 2010.04.16 15:19:21.
