data_PCOD8227421
_publ_section_title
;
Structure prediction by ZEFSAII (Michael W. Deem and Ramdas Pophale) SiO2 
 PCOD8227421
Probable space group: P B A M
;
_chemical_formula_sum "Si O2"
_cell_formula_units_Z 64
_cell_length_a 9.332310
_cell_length_b 22.151661
_cell_length_c 15.466101
_cell_angle_alpha 90.000000
_cell_angle_beta 90.000000
_cell_angle_gamma 90.000000
_cell_volume 3197.247785
_symmetry_space_group_name_H-M "P B A M"
_symmetry_group_IT_number 55
_symmetry_cell_setting 'orthorhombic'
loop_
_space_group_symop_operation_xyz
x,y,z
-x,-y,z
1/2+x,1/2-y,-z
1/2-x,1/2+y,-z
-x,-y,-z
x,y,-z
1/2-x,1/2+y,z
1/2+x,1/2-y,z
loop_
_atom_site_type_symbol
_atom_site_label
_atom_site_fract_x
_atom_site_fract_y
_atom_site_fract_z
Si Si1 0.346066 0.497752 0.096645
Si Si2 0.500826 0.070072 0.704464
Si Si3 0.465697 0.177425 0.403567
Si Si4 0.492790 0.680142 0.226163
Si Si5 0.229748 0.380819 0.166205
Si Si6 0.002194 0.294033 0.099227
Si Si7 0.345588 0.712813 0.601665
Si Si8 0.219964 0.612673 0.831335
O O1 0.500000 0.500000 0.146951
O O2 0.285645 0.430108 0.098944
O O3 0.230532 0.545815 0.129571
O O4 0.376066 0.517678 0.000000
O O5 0.517764 0.110248 0.619293
O O6 0.626464 0.082339 0.771028
O O7 0.353094 0.098543 0.739827
O O8 0.500000 0.000000 0.679327
O O9 0.413743 0.175868 0.500000
O O10 0.317306 0.204469 0.361807
O O11 0.607108 0.217545 0.388850
O O12 0.644368 0.647195 0.223432
O O13 0.507940 0.743616 0.174404
O O14 0.450463 0.681575 0.327855
O O15 0.376182 0.641059 0.175528
O O16 0.152855 0.327957 0.112774
O O17 0.874838 0.342293 0.110545
O O18 0.996480 0.268506 0.000000
O O19 0.370720 0.691948 0.500000
#
# Coordination Sequence:
#
# PCOD8227421 Si02
#       8
#     8   8   8   8   8   8   8   8
#     4  11  22  38  61  88 117 159 214 263 307 357
#     4  11  22  40  63  87 122 159 205 250 305 367
#     4  10  22  39  63  94 125 159 202 252 311 369
#     4  12  24  40  65  90 125 164 204 254 315 376
#     4  11  24  40  61  89 122 161 209 258 305 365
#     4  11  26  41  59  89 127 167 205 254 315 371
#     4  10  22  40  64  96 129 160 202 258 310 371
#     4  11  22  41  61  88 120 160 209 254 308 360
#
# _framework density 20.017216999999999
#
# number of rings (size 3 to 8) (size 9 to 14) (size 15 to 20)
#    0.000    1.125    3.750    3.000    3.500    3.250 
#    0.000    1.875    0.000    0.000    0.000    2.625 
#    0.000    0.000    0.000    0.000    0.000    0.000 
#
# Total GULP energy -792908.538590 kJ/mol
# GULP energy per Si atom -12389.195915 kJ/mol
# Density = 1.997166 g / cm^3
# Si number density = 20.017217 Si / 1000 Ang^3
#
#
#
# Elastic Constant Matrix: (Units=GPa)
#
#
# Indices 1 2 3 4 5 6 
#
# 1 69.9234 26.3030 22.1576 0.0000 0.0000 0.0000
# 2 26.3030 107.6385 33.4131 0.0000 0.0000 0.0000
# 3 22.1576 33.4131 52.8588 0.0000 0.0000 0.0000
# 4 0.0000 0.0000 0.0000 27.2884 0.0000 0.0000
# 5 0.0000 0.0000 0.0000 0.0000 16.4575 0.0000
# 6 0.0000 0.0000 0.0000 0.0000 0.0000 36.1068
#
#
#
# Elastic Compliance Matrix: (Units=1/GPa)
#
#
# Indices 1 2 3 4 5 6 
#
# 1 0.016982 -0.002414 -0.005593 0.000000 0.000000 0.000000
# 2 -0.002414 0.011901 -0.006511 0.000000 0.000000 0.000000
# 3 -0.005593 -0.006511 0.025379 0.000000 0.000000 0.000000
# 4 0.000000 0.000000 0.000000 0.036646 0.000000 0.000000
# 5 0.000000 0.000000 0.000000 0.000000 0.060763 0.000000
# 6 0.000000 0.000000 0.000000 0.000000 0.000000 0.027696
#
#
# Mechanical properties :
#
#
# Convention : Reuss Voigt Hill
#
# Bulk Modulus (GPa) = 39.64124 43.79643 41.71883
# Shear Modulus (GPa) = 23.06172 25.87366 24.46769
#
# Velocity S-wave (km/s) = 3.39793 3.59913 3.49998
# Velocity P-wave (km/s) = 5.93643 6.26088 6.10081
#
# Compressibility (1/GPa) = 0.02522626
#
# Stress axis : x y z
#
# Youngs Moduli (GPa) = 58.88754 84.02366 39.40320
#
# Poissons Ratio (x) = 0.20280 0.22037
# Poissons Ratio (y) = 0.14213 0.25657
# Poissons Ratio (z) = 0.32934 0.54711
#
# Static dielectric constant tensor:
#      x y z
#    x 3.903900 0.000000 0.000000 
#    y 0.000000 3.747370 0.000000 
#    z 0.000000 0.000000 3.559370 
# 
# 
# High freq. dielectric constant tensor:
#      x y z
#    x 1.795530 0.000000 0.000000 
#    y 0.000000 1.779500 0.000000 
#    z 0.000000 0.000000 1.769950 
# 
# From -- ./inp_files/17857.got.cif
#   From: 2010.03.12/outbox.cif.g09.slc.cpg/sg55_9_cif.got.tgz:17857.got - 2010.04.16 15:19:21.
