data_PCOD8227977
_publ_section_title
;
Structure prediction by ZEFSAII (Michael W. Deem and Ramdas Pophale) SiO2 
 PCOD8227977
Probable space group: P C C N
;
_chemical_formula_sum "Si O2"
_cell_formula_units_Z 36
_cell_length_a 17.818398
_cell_length_b 5.556635
_cell_length_c 18.707395
_cell_angle_alpha 90.000000
_cell_angle_beta 90.000000
_cell_angle_gamma 90.000000
_cell_volume 1852.225427
_symmetry_space_group_name_H-M "P C C N"
_symmetry_group_IT_number 56
_symmetry_cell_setting 'orthorhombic'
loop_
_space_group_symop_operation_xyz
x,y,z
1/2-x,1/2-y,z
1/2+x,-y,1/2-z
-x,1/2+y,1/2-z
-x,-y,-z
1/2+x,1/2+y,-z
1/2-x,y,1/2+z
x,1/2-y,1/2+z
loop_
_atom_site_type_symbol
_atom_site_label
_atom_site_fract_x
_atom_site_fract_y
_atom_site_fract_z
Si Si1 0.523933 0.998766 0.713601
Si Si2 0.674586 0.877412 0.649872
Si Si3 0.618104 0.958546 0.026871
Si Si4 0.989300 0.684967 0.437554
Si Si5 0.750000 0.250000 0.554291
O O1 0.512627 0.249248 0.757332
O O2 0.484661 0.045294 0.637117
O O3 0.613869 0.948972 0.710274
O O4 0.750000 0.750000 0.682050
O O5 0.632928 0.715373 0.592426
O O6 0.694704 0.114450 0.607184
O O7 0.558655 0.136751 0.061785
O O8 0.697004 0.084326 0.004485
O O9 0.587685 0.830104 0.955026
O O10 0.000000 0.500000 0.500000
#
# Coordination Sequence:
#
# PCOD8227977 Si02
#       5
#     8   8   8   8   4
#     4  12  26  42  64 103 137 177 226 275 340 406
#     4  10  21  38  64  98 124 172 227 276 321 404
#     4  10  19  34  63  96 125 161 221 280 330 383
#     4  11  21  37  63  94 131 163 217 278 343 384
#     4  10  18  34  64  94 122 160 234 268 326 390
#
# _framework density 19.436077999999998
#
# number of rings (size 3 to 8) (size 9 to 14) (size 15 to 20)
#    0.000    1.333    4.444    1.333    6.222    0.000 
#    0.000    0.000    0.000    8.000    0.000    0.000 
#    0.000    0.000    0.000    0.000    0.000    0.000 
#
# Total GULP energy -446000.524121 kJ/mol
# GULP energy per Si atom -12388.903448 kJ/mol
# Density = 1.939184 g / cm^3
# Si number density = 19.436078 Si / 1000 Ang^3
#
#
#
# Elastic Constant Matrix: (Units=GPa)
#
#
# Indices 1 2 3 4 5 6 
#
# 1 150.1312 67.4965 56.8142 0.0000 0.0000 0.0000
# 2 67.4965 140.1299 58.0066 0.0000 0.0000 0.0000
# 3 56.8142 58.0066 103.5272 0.0000 0.0000 0.0000
# 4 0.0000 0.0000 0.0000 55.6904 0.0000 0.0000
# 5 0.0000 0.0000 0.0000 0.0000 33.5917 0.0000
# 6 0.0000 0.0000 0.0000 0.0000 0.0000 43.9827
#
#
#
# Elastic Compliance Matrix: (Units=1/GPa)
#
#
# Indices 1 2 3 4 5 6 
#
# 1 0.009334 -0.003093 -0.003389 0.000000 0.000000 0.000000
# 2 -0.003093 0.010316 -0.004083 0.000000 0.000000 0.000000
# 3 -0.003389 -0.004083 0.013807 0.000000 0.000000 0.000000
# 4 0.000000 0.000000 0.000000 0.017956 0.000000 0.000000
# 5 0.000000 0.000000 0.000000 0.000000 0.029769 0.000000
# 6 0.000000 0.000000 0.000000 0.000000 0.000000 0.022736
#
#
# Mechanical properties :
#
#
# Convention : Reuss Voigt Hill
#
# Bulk Modulus (GPa) = 81.12371 84.26920 82.69645
# Shear Modulus (GPa) = 38.71228 40.75104 39.73166
#
# Velocity S-wave (km/s) = 4.46777 4.58391 4.52621
# Velocity P-wave (km/s) = 8.27309 8.45385 8.36396
#
# Compressibility (1/GPa) = 0.01232685
#
# Stress axis : x y z
#
# Youngs Moduli (GPa) = 107.13526 96.93640 72.42733
#
# Poissons Ratio (x) = 0.29981 0.24549
# Poissons Ratio (y) = 0.33136 0.29571
# Poissons Ratio (z) = 0.36313 0.39577
#
# Static dielectric constant tensor:
#      x y z
#    x 4.043710 0.000000 0.000000 
#    y 0.000000 4.168950 0.000000 
#    z 0.000000 0.000000 3.380920 
# 
# 
# High freq. dielectric constant tensor:
#      x y z
#    x 1.769170 0.000000 0.000000 
#    y 0.000000 1.790930 0.000000 
#    z 0.000000 0.000000 1.708060 
# 
# From -- ./inp_files/16749.got.cif
#   From: 2010.03.12/outbox.cif.g09.slc.cpg/sg56_9_cif.got.tgz:16749.got - 2010.04.16 15:33:40.
