data_PCOD8227404
_publ_section_title
;
Structure prediction by ZEFSAII (Michael W. Deem and Ramdas Pophale) SiO2 
 PCOD8227404
Probable space group: P B A M
;
_chemical_formula_sum "Si O2"
_cell_formula_units_Z 56
_cell_length_a 15.204752
_cell_length_b 8.694498
_cell_length_c 20.106365
_cell_angle_alpha 90.000000
_cell_angle_beta 90.000000
_cell_angle_gamma 90.000000
_cell_volume 2658.014924
_symmetry_space_group_name_H-M "P B A M"
_symmetry_group_IT_number 55
_symmetry_cell_setting 'orthorhombic'
loop_
_space_group_symop_operation_xyz
x,y,z
-x,-y,z
1/2+x,1/2-y,-z
1/2-x,1/2+y,-z
-x,-y,-z
x,y,-z
1/2-x,1/2+y,z
1/2+x,1/2-y,z
loop_
_atom_site_type_symbol
_atom_site_label
_atom_site_fract_x
_atom_site_fract_y
_atom_site_fract_z
Si Si1 0.022421 0.178042 0.573686
Si Si2 0.849254 0.725181 0.205235
Si Si3 0.136082 0.805793 0.073606
Si Si4 0.810994 0.860640 0.345915
Si Si5 0.034146 0.835539 0.204216
Si Si6 0.865477 0.211458 0.667136
Si Si7 0.263425 0.034257 0.127632
O O1 0.013739 0.251493 0.500000
O O2 0.952180 0.251657 0.624362
O O3 0.122354 0.206176 0.598554
O O4 0.000000 0.000000 0.570241
O O5 0.827137 0.763478 0.280120
O O6 0.811690 0.857690 0.157714
O O7 0.809530 0.559204 0.187541
O O8 0.954370 0.716354 0.197833
O O9 0.070498 0.863165 0.130472
O O10 0.163573 0.630511 0.088155
O O11 0.221062 0.916229 0.075214
O O12 0.093077 0.814682 0.000000
O O13 0.707818 0.830286 0.360419
O O14 0.827618 0.040937 0.340769
O O15 0.108735 0.769273 0.254399
O O16 0.000000 0.000000 0.233304
#
# Coordination Sequence:
#
# PCOD8227404 Si02
#       7
#     8   8   8   8   8   8   8
#     4   9  19  37  60  88 124 164 203 242 293 363
#     4  11  20  38  61  88 117 154 197 258 302 358
#     4  11  23  40  60  85 117 156 200 249 309 370
#     4  11  20  35  62  88 119 159 202 249 302 356
#     4  12  21  38  60  87 120 155 203 257 303 361
#     4  11  21  38  62  90 123 157 206 251 301 355
#     4  10  22  39  60  86 116 153 199 251 307 367
#
# _framework density 21.068353999999999
#
# number of rings (size 3 to 8) (size 9 to 14) (size 15 to 20)
#    0.000    1.286    4.286    3.429    0.000    1.429 
#    0.000    2.857    0.000    0.857    0.000    0.000 
#    0.000    0.000    0.000    0.000    0.000    0.000 
#
# Total GULP energy -694328.676616 kJ/mol
# GULP energy per Si atom -12398.726368 kJ/mol
# Density = 2.102040 g / cm^3
# Si number density = 21.068354 Si / 1000 Ang^3
#
#
#
# Elastic Constant Matrix: (Units=GPa)
#
#
# Indices 1 2 3 4 5 6 
#
# 1 127.4798 21.4392 33.7413 0.0000 0.0000 0.0000
# 2 21.4392 62.5107 7.3231 0.0000 0.0000 0.0000
# 3 33.7413 7.3231 125.3219 0.0000 0.0000 0.0000
# 4 0.0000 0.0000 0.0000 15.0157 0.0000 0.0000
# 5 0.0000 0.0000 0.0000 0.0000 30.7929 0.0000
# 6 0.0000 0.0000 0.0000 0.0000 0.0000 28.1396
#
#
#
# Elastic Compliance Matrix: (Units=1/GPa)
#
#
# Indices 1 2 3 4 5 6 
#
# 1 0.008905 -0.002793 -0.002234 0.000000 0.000000 0.000000
# 2 -0.002793 0.016983 -0.000241 0.000000 0.000000 0.000000
# 3 -0.002234 -0.000241 0.008595 0.000000 0.000000 0.000000
# 4 0.000000 0.000000 0.000000 0.066597 0.000000 0.000000
# 5 0.000000 0.000000 0.000000 0.000000 0.032475 0.000000
# 6 0.000000 0.000000 0.000000 0.000000 0.000000 0.035537
#
#
# Mechanical properties :
#
#
# Convention : Reuss Voigt Hill
#
# Bulk Modulus (GPa) = 41.75608 48.92441 45.34024
# Shear Modulus (GPa) = 26.65093 31.64356 29.14724
#
# Velocity S-wave (km/s) = 3.56051 3.87970 3.72353
# Velocity P-wave (km/s) = 6.06344 6.58343 6.32878
#
# Compressibility (1/GPa) = 0.02394861
#
# Stress axis : x y z
#
# Youngs Moduli (GPa) = 112.29088 58.88179 116.34513
#
# Poissons Ratio (x) = 0.16443 0.25997
# Poissons Ratio (y) = 0.31357 0.02799
# Poissons Ratio (z) = 0.25091 0.01416
#
# Static dielectric constant tensor:
#      x y z
#    x 4.250260 0.000000 0.000000 
#    y 0.000000 3.743200 0.000000 
#    z 0.000000 0.000000 3.840140 
# 
# 
# High freq. dielectric constant tensor:
#      x y z
#    x 1.831240 0.000000 0.000000 
#    y 0.000000 1.805250 0.000000 
#    z 0.000000 0.000000 1.815880 
# 
# From -- ./inp_files/22616.got.cif
#   From: 2010.03.12/outbox.cif.g09.slc.cpg/sg55_12_cif.got.tgz:22616.got - 2010.04.16 15:19:21.
