data_PCOD8227056
_publ_section_title
;
Structure prediction by ZEFSAII (Michael W. Deem and Ramdas Pophale) SiO2 
 PCOD8227056
Probable space group: P B A M
;
_chemical_formula_sum "Si O2"
_cell_formula_units_Z 36
_cell_length_a 13.220691
_cell_length_b 4.975878
_cell_length_c 25.620696
_cell_angle_alpha 90.000000
_cell_angle_beta 90.000000
_cell_angle_gamma 90.000000
_cell_volume 1685.445842
_symmetry_space_group_name_H-M "P B A M"
_symmetry_group_IT_number 55
_symmetry_cell_setting 'orthorhombic'
loop_
_space_group_symop_operation_xyz
x,y,z
-x,-y,z
1/2+x,1/2-y,-z
1/2-x,1/2+y,-z
-x,-y,-z
x,y,-z
1/2-x,1/2+y,z
1/2+x,1/2-y,z
loop_
_atom_site_type_symbol
_atom_site_label
_atom_site_fract_x
_atom_site_fract_y
_atom_site_fract_z
Si Si1 0.500000 0.500000 0.296850
Si Si2 0.183862 0.865400 0.892542
Si Si3 0.318227 0.506635 0.000000
Si Si4 0.680439 0.535740 0.220000
Si Si5 0.816158 0.474029 0.559388
Si Si6 0.500000 0.000000 0.366794
O O1 0.594626 0.591657 0.262176
O O2 0.534033 0.249637 0.331726
O O3 0.215179 0.553483 0.893759
O O4 0.120636 0.939070 0.945817
O O5 0.128431 0.929514 0.837610
O O6 0.281764 0.813795 0.000000
O O7 0.726283 0.239945 0.227135
O O8 0.854893 0.441184 0.500000
O O9 0.776350 0.772690 0.570330
O O10 0.907558 0.404968 0.597463
#
# Coordination Sequence:
#
# PCOD8227056 Si02
#       6
#     4   8   4   8   8   4
#     4  12  26  38  57  85 112 152 194 230 274 320
#     4   8  14  25  44  68  95 130 169 216 272 325
#     4   8  12  20  38  67  94 119 164 214 264 329
#     4  10  21  38  56  76 108 147 187 231 278 329
#     4  10  22  41  65  91 119 151 184 223 275 330
#     4  12  25  40  60  88 118 149 188 232 274 318
#
# _framework density 21.359332999999999
#
# number of rings (size 3 to 8) (size 9 to 14) (size 15 to 20)
#    0.000    2.222    0.000    3.000    0.000    5.333 
#    0.000    4.444    0.000    0.667    0.000    0.000 
#    0.000   28.444    0.000    0.000    0.000    3.778 
#
# Total GULP energy -446159.092176 kJ/mol
# GULP energy per Si atom -12393.308116 kJ/mol
# Density = 2.131072 g / cm^3
# Si number density = 21.359333 Si / 1000 Ang^3
#
#
#
# Elastic Constant Matrix: (Units=GPa)
#
#
# Indices 1 2 3 4 5 6 
#
# 1 47.8706 -1.1864 45.3405 0.0000 0.0000 0.0000
# 2 -1.1864 89.8945 19.9969 0.0000 0.0000 0.0000
# 3 45.3405 19.9969 145.1363 0.0000 0.0000 0.0000
# 4 0.0000 0.0000 0.0000 23.8804 0.0000 0.0000
# 5 0.0000 0.0000 0.0000 0.0000 17.7261 0.0000
# 6 0.0000 0.0000 0.0000 0.0000 0.0000 16.6637
#
#
#
# Elastic Compliance Matrix: (Units=1/GPa)
#
#
# Indices 1 2 3 4 5 6 
#
# 1 0.030237 0.002579 -0.009801 0.000000 0.000000 0.000000
# 2 0.002579 0.011696 -0.002417 0.000000 0.000000 0.000000
# 3 -0.009801 -0.002417 0.010285 0.000000 0.000000 0.000000
# 4 0.000000 0.000000 0.000000 0.041875 0.000000 0.000000
# 5 0.000000 0.000000 0.000000 0.000000 0.056414 0.000000
# 6 0.000000 0.000000 0.000000 0.000000 0.000000 0.060011
#
#
# Mechanical properties :
#
#
# Convention : Reuss Voigt Hill
#
# Bulk Modulus (GPa) = 30.35880 45.68925 38.02402
# Shear Modulus (GPa) = 20.76617 26.23740 23.50179
#
# Velocity S-wave (km/s) = 3.12144 3.50863 3.32068
# Velocity P-wave (km/s) = 5.21876 6.15233 5.70467
#
# Compressibility (1/GPa) = 0.03293938
#
# Stress axis : x y z
#
# Youngs Moduli (GPa) = 33.07212 85.49996 97.22825
#
# Poissons Ratio (x) = -0.22054 0.95297
# Poissons Ratio (y) = -0.08531 0.23503
# Poissons Ratio (z) = 0.32415 0.20668
#
# Static dielectric constant tensor:
#      x y z
#    x 3.059110 0.000000 0.000000 
#    y 0.000000 3.905110 0.000000 
#    z 0.000000 0.000000 4.474560 
# 
# 
# High freq. dielectric constant tensor:
#      x y z
#    x 1.763770 0.000000 0.000000 
#    y 0.000000 1.856180 0.000000 
#    z 0.000000 0.000000 1.872060 
# 
# From -- ./inp_files/23249.got.cif
#   From: 2010.03.12/outbox.cif.g09.slc.cpg/sg55_12_cif.got.tgz:23249.got - 2010.04.16 15:19:21.
