data_PCOD8227093
_publ_section_title
;
Structure prediction by ZEFSAII (Michael W. Deem and Ramdas Pophale) SiO2 
 PCOD8227093
Probable space group: P B A M
;
_chemical_formula_sum "Si O2"
_cell_formula_units_Z 40
_cell_length_a 13.361539
_cell_length_b 17.794136
_cell_length_c 8.605664
_cell_angle_alpha 90.000000
_cell_angle_beta 90.000000
_cell_angle_gamma 90.000000
_cell_volume 2046.057218
_symmetry_space_group_name_H-M "P B A M"
_symmetry_group_IT_number 55
_symmetry_cell_setting 'orthorhombic'
loop_
_space_group_symop_operation_xyz
x,y,z
-x,-y,z
1/2+x,1/2-y,-z
1/2-x,1/2+y,-z
-x,-y,-z
x,y,-z
1/2-x,1/2+y,z
1/2+x,1/2-y,z
loop_
_atom_site_type_symbol
_atom_site_label
_atom_site_fract_x
_atom_site_fract_y
_atom_site_fract_z
Si Si1 0.896055 0.962284 0.819360
Si Si2 0.406375 0.837368 0.821573
Si Si3 0.889198 0.371278 0.678097
Si Si4 0.826880 0.810814 0.321513
Si Si5 0.206535 0.473810 0.680324
O O1 0.884779 0.887010 0.719415
O O2 0.807932 0.020999 0.779831
O O3 0.892471 0.941248 0.000000
O O4 0.000000 0.000000 0.772045
O O5 0.524341 0.839311 0.787267
O O6 0.365340 0.754777 0.788681
O O7 0.348576 0.896331 0.714328
O O8 0.387591 0.857836 0.000000
O O9 0.924695 0.366084 0.500000
O O10 0.791245 0.320951 0.706756
O O11 0.867103 0.457573 0.723884
O O12 0.849658 0.790722 0.500000
O O13 0.236019 0.478674 0.500000
#
# Coordination Sequence:
#
# PCOD8227093 Si02
#       5
#     8   8   8   8   8
#     4  10  21  38  60  86 117 150 186 232 284 336
#     4  12  24  36  57  87 117 149 185 232 287 336
#     4   9  20  39  60  81 108 145 187 231 280 334
#     4  10  22  40  60  82 112 150 190 233 279 332
#     4  10  21  38  60  84 112 149 193 234 274 333
#
# _framework density 19.549795
#
# number of rings (size 3 to 8) (size 9 to 14) (size 15 to 20)
#    0.000    1.800    0.000    5.400    0.000   10.400 
#    0.000    0.000    0.000    0.000    0.000    0.000 
#    0.000    0.000    0.000    0.000    0.000    0.000 
#
# Total GULP energy -496251.882690 kJ/mol
# GULP energy per Si atom -12406.297067 kJ/mol
# Density = 1.950530 g / cm^3
# Si number density = 19.549795 Si / 1000 Ang^3
#
#
#
# Elastic Constant Matrix: (Units=GPa)
#
#
# Indices 1 2 3 4 5 6 
#
# 1 108.2784 54.9822 30.5790 0.0000 0.0000 0.0000
# 2 54.9822 85.4046 20.6082 0.0000 0.0000 0.0000
# 3 30.5790 20.6082 62.5323 0.0000 0.0000 0.0000
# 4 0.0000 0.0000 0.0000 32.7449 0.0000 0.0000
# 5 0.0000 0.0000 0.0000 0.0000 31.0548 0.0000
# 6 0.0000 0.0000 0.0000 0.0000 0.0000 25.0719
#
#
#
# Elastic Compliance Matrix: (Units=1/GPa)
#
#
# Indices 1 2 3 4 5 6 
#
# 1 0.014777 -0.008440 -0.004444 0.000000 0.000000 0.000000
# 2 -0.008440 0.017542 -0.001654 0.000000 0.000000 0.000000
# 3 -0.004444 -0.001654 0.018710 0.000000 0.000000 0.000000
# 4 0.000000 0.000000 0.000000 0.030539 0.000000 0.000000
# 5 0.000000 0.000000 0.000000 0.000000 0.032201 0.000000
# 6 0.000000 0.000000 0.000000 0.000000 0.000000 0.039885
#
#
# Mechanical properties :
#
#
# Convention : Reuss Voigt Hill
#
# Bulk Modulus (GPa) = 45.55461 52.06157 48.80809
# Shear Modulus (GPa) = 26.30918 27.77738 27.04328
#
# Velocity S-wave (km/s) = 3.67243 3.77351 3.72331
# Velocity P-wave (km/s) = 6.42921 6.75825 6.59578
#
# Compressibility (1/GPa) = 0.02195168
#
# Stress axis : x y z
#
# Youngs Moduli (GPa) = 67.67499 57.00651 53.44742
#
# Poissons Ratio (x) = 0.48116 0.23753
# Poissons Ratio (y) = 0.57121 0.08838
# Poissons Ratio (z) = 0.30076 0.09427
#
# Static dielectric constant tensor:
#      x y z
#    x 3.587340 0.000000 0.000000 
#    y 0.000000 3.452510 0.000000 
#    z 0.000000 0.000000 3.528460 
# 
# 
# High freq. dielectric constant tensor:
#      x y z
#    x 1.765980 0.000000 0.000000 
#    y 0.000000 1.758500 0.000000 
#    z 0.000000 0.000000 1.768020 
# 
# From -- ./inp_files/3600.got.cif
#   From: 2010.03.12/outbox.cif.g09.slc.cpg/sg55_2_cif.got.tgz:3600.got - 2010.04.16 15:19:21.
