data_PCOD8227590
_publ_section_title
;
Structure prediction by ZEFSAII (Michael W. Deem and Ramdas Pophale) SiO2 
 PCOD8227590
Probable space group: P B A M
;
_chemical_formula_sum "Si O2"
_cell_formula_units_Z 48
_cell_length_a 9.925101
_cell_length_b 27.315753
_cell_length_c 8.506621
_cell_angle_alpha 90.000000
_cell_angle_beta 90.000000
_cell_angle_gamma 90.000000
_cell_volume 2306.243693
_symmetry_space_group_name_H-M "P B A M"
_symmetry_group_IT_number 55
_symmetry_cell_setting 'orthorhombic'
loop_
_space_group_symop_operation_xyz
x,y,z
-x,-y,z
1/2+x,1/2-y,-z
1/2-x,1/2+y,-z
-x,-y,-z
x,y,-z
1/2-x,1/2+y,z
1/2+x,1/2-y,z
loop_
_atom_site_type_symbol
_atom_site_label
_atom_site_fract_x
_atom_site_fract_y
_atom_site_fract_z
Si Si1 0.972621 0.145960 0.818199
Si Si2 0.385232 0.462664 0.815716
Si Si3 0.756319 0.708230 0.317917
Si Si4 0.514435 0.143422 0.819050
Si Si5 0.397634 0.957579 0.682450
Si Si6 0.256504 0.678912 0.681777
O O1 0.931960 0.091469 0.769279
O O2 0.888160 0.184068 0.714707
O O3 0.130027 0.152853 0.785243
O O4 0.941280 0.155705 0.000000
O O5 0.500000 0.500000 0.760793
O O6 0.251797 0.476648 0.719773
O O7 0.355481 0.467802 0.000000
O O8 0.793651 0.701839 0.500000
O O9 0.745044 0.764594 0.268885
O O10 0.872152 0.683663 0.214906
O O11 0.574415 0.090195 0.785439
O O12 0.384261 0.152218 0.712705
O O13 0.472497 0.147345 0.000000
O O14 0.412199 0.944074 0.500000
O O15 0.500000 0.000000 0.732414
O O16 0.294233 0.673203 0.500000
#
# Coordination Sequence:
#
# PCOD8227590 Si02
#       6
#     8   8   8   8   8   8
#     4  11  23  40  64  96 129 167 211 260 318 374
#     4  10  23  43  66  95 129 165 206 255 315 380
#     4  11  23  42  66  92 127 171 214 262 320 377
#     4  12  25  42  66  95 129 170 213 264 321 377
#     4  11  25  44  67  97 128 164 212 262 316 380
#     4  11  25  42  63  93 130 172 214 261 318 376
#
# _framework density 20.813065999999999
#
# number of rings (size 3 to 8) (size 9 to 14) (size 15 to 20)
#    0.000    1.000    1.667    4.500    2.333    9.000 
#    0.000    0.000    0.000    0.000    0.000    0.000 
#    0.000    0.000    0.000    0.000    0.000    0.000 
#
# Total GULP energy -595663.740854 kJ/mol
# GULP energy per Si atom -12409.661268 kJ/mol
# Density = 2.076569 g / cm^3
# Si number density = 20.813066 Si / 1000 Ang^3
#
#
#
# Elastic Constant Matrix: (Units=GPa)
#
#
# Indices 1 2 3 4 5 6 
#
# 1 138.0631 51.6599 15.9658 0.0000 0.0000 0.0000
# 2 51.6599 93.8996 36.0695 0.0000 0.0000 0.0000
# 3 15.9658 36.0695 62.1360 0.0000 0.0000 0.0000
# 4 0.0000 0.0000 0.0000 17.7777 0.0000 0.0000
# 5 0.0000 0.0000 0.0000 0.0000 38.2618 0.0000
# 6 0.0000 0.0000 0.0000 0.0000 0.0000 44.2372
#
#
#
# Elastic Compliance Matrix: (Units=1/GPa)
#
#
# Indices 1 2 3 4 5 6 
#
# 1 0.009147 -0.005314 0.000735 0.000000 0.000000 0.000000
# 2 -0.005314 0.016794 -0.008383 0.000000 0.000000 0.000000
# 3 0.000735 -0.008383 0.020771 0.000000 0.000000 0.000000
# 4 0.000000 0.000000 0.000000 0.056250 0.000000 0.000000
# 5 0.000000 0.000000 0.000000 0.000000 0.026136 0.000000
# 6 0.000000 0.000000 0.000000 0.000000 0.000000 0.022605
#
#
# Mechanical properties :
#
#
# Convention : Reuss Voigt Hill
#
# Bulk Modulus (GPa) = 48.10906 55.72102 51.91504
# Shear Modulus (GPa) = 27.09196 32.74892 29.92044
#
# Velocity S-wave (km/s) = 3.61179 3.97101 3.79566
# Velocity P-wave (km/s) = 6.36855 6.91777 6.64883
#
# Compressibility (1/GPa) = 0.02078611
#
# Stress axis : x y z
#
# Youngs Moduli (GPa) = 109.33034 59.54664 48.14354
#
# Poissons Ratio (x) = 0.31645 -0.03537
# Poissons Ratio (y) = 0.58102 0.40359
# Poissons Ratio (z) = -0.08033 0.49918
#
# Static dielectric constant tensor:
#      x y z
#    x 3.809740 0.000000 0.000000 
#    y 0.000000 3.843660 0.000000 
#    z 0.000000 0.000000 3.655900 
# 
# 
# High freq. dielectric constant tensor:
#      x y z
#    x 1.829200 0.000000 0.000000 
#    y 0.000000 1.821720 0.000000 
#    z 0.000000 0.000000 1.817700 
# 
# From -- ./inp_files/4183.got.cif
#   From: 2010.03.12/outbox.cif.g09.slc.cpg/sg55_3_cif.got.tgz:4183.got - 2010.04.16 15:19:21.
