data_PCOD8227740
_publ_section_title
;
Structure prediction by ZEFSAII (Michael W. Deem and Ramdas Pophale) SiO2 
 PCOD8227740
Probable space group: P B A M
;
_chemical_formula_sum "Si O2"
_cell_formula_units_Z 32
_cell_length_a 28.654834
_cell_length_b 4.891561
_cell_length_c 10.110126
_cell_angle_alpha 90.000000
_cell_angle_beta 90.000000
_cell_angle_gamma 90.000000
_cell_volume 1417.104701
_symmetry_space_group_name_H-M "P B A M"
_symmetry_group_IT_number 55
_symmetry_cell_setting 'orthorhombic'
loop_
_space_group_symop_operation_xyz
x,y,z
-x,-y,z
1/2+x,1/2-y,-z
1/2-x,1/2+y,-z
-x,-y,-z
x,y,-z
1/2-x,1/2+y,z
1/2+x,1/2-y,z
loop_
_atom_site_type_symbol
_atom_site_label
_atom_site_fract_x
_atom_site_fract_y
_atom_site_fract_z
Si Si1 0.500000 0.500000 0.712448
Si Si2 0.281700 0.912435 0.000000
Si Si3 0.941488 0.744330 0.500000
Si Si4 0.854548 0.455701 0.779216
Si Si5 0.624491 0.765392 0.500000
Si Si6 0.090048 0.041467 0.854430
O O1 0.476171 0.734091 0.624740
O O2 0.457488 0.398171 0.804049
O O3 0.309860 0.944965 0.862175
O O4 0.263306 0.604237 0.000000
O O5 0.897317 0.959716 0.500000
O O6 0.922725 0.439453 0.500000
O O7 0.844529 0.338497 0.630356
O O8 0.873762 0.204696 0.863493
O O9 0.890851 0.709204 0.763507
O O10 0.083413 0.167462 0.000000
#
# Coordination Sequence:
#
# PCOD8227740 Si02
#       6
#     4   4   4   8   4   8
#     4  11  23  38  58  96 135 187 232 272 300 360
#     4  12  26  48  76 101 124 161 212 272 342 420
#     4  11  24  36  62  87 139 184 233 261 310 366
#     4  12  24  44  70  98 131 170 215 270 338 391
#     4  12  22  45  64  97 131 182 215 271 322 385
#     4  12  23  41  62  94 138 179 225 275 311 376
#
# _framework density 22.581251999999999
#
# number of rings (size 3 to 8) (size 9 to 14) (size 15 to 20)
#    0.000    0.250    7.500    1.875    0.000    5.000 
#    0.000    3.750    0.000    0.000    0.000    0.000 
#    0.000    0.000    0.000    0.000    0.000    0.000 
#
# Total GULP energy -396549.725630 kJ/mol
# GULP energy per Si atom -12392.178926 kJ/mol
# Density = 2.252986 g / cm^3
# Si number density = 22.581252 Si / 1000 Ang^3
#
#
#
# Elastic Constant Matrix: (Units=GPa)
#
#
# Indices 1 2 3 4 5 6 
#
# 1 80.8805 8.0637 40.5028 0.0000 0.0000 0.0000
# 2 8.0637 72.3801 0.7567 0.0000 0.0000 0.0000
# 3 40.5028 0.7567 144.4896 0.0000 0.0000 0.0000
# 4 0.0000 0.0000 0.0000 24.0273 0.0000 0.0000
# 5 0.0000 0.0000 0.0000 0.0000 35.5490 0.0000
# 6 0.0000 0.0000 0.0000 0.0000 0.0000 30.2759
#
#
#
# Elastic Compliance Matrix: (Units=1/GPa)
#
#
# Indices 1 2 3 4 5 6 
#
# 1 0.014561 -0.001580 -0.004073 0.000000 0.000000 0.000000
# 2 -0.001580 0.013988 0.000370 0.000000 0.000000 0.000000
# 3 -0.004073 0.000370 0.008061 0.000000 0.000000 0.000000
# 4 0.000000 0.000000 0.000000 0.041619 0.000000 0.000000
# 5 0.000000 0.000000 0.000000 0.000000 0.028130 0.000000
# 6 0.000000 0.000000 0.000000 0.000000 0.000000 0.033030
#
#
# Mechanical properties :
#
#
# Convention : Reuss Voigt Hill
#
# Bulk Modulus (GPa) = 38.39800 44.04406 41.22103
# Shear Modulus (GPa) = 31.51838 34.53223 33.02531
#
# Velocity S-wave (km/s) = 3.74006 3.91480 3.82843
# Velocity P-wave (km/s) = 5.97428 6.32307 6.15115
#
# Compressibility (1/GPa) = 0.02604302
#
# Stress axis : x y z
#
# Youngs Moduli (GPa) = 68.67519 71.48944 124.05644
#
# Poissons Ratio (x) = 0.11293 0.50534
# Poissons Ratio (y) = 0.10848 -0.04584
# Poissons Ratio (z) = 0.27975 -0.02642
#
# Static dielectric constant tensor:
#      x y z
#    x 3.748030 0.000000 0.000000 
#    y 0.000000 3.905230 0.000000 
#    z 0.000000 0.000000 4.324680 
# 
# 
# High freq. dielectric constant tensor:
#      x y z
#    x 1.854250 0.000000 0.000000 
#    y 0.000000 1.891720 0.000000 
#    z 0.000000 0.000000 1.912740 
# 
# From -- ./inp_files/11304.got.cif
#   From: 2010.03.12/outbox.cif.g09.slc.cpg/sg55_6_cif.got.tgz:11304.got - 2010.04.16 15:19:21.
