data_PCOD8227260
_publ_section_title
;
Structure prediction by ZEFSAII (Michael W. Deem and Ramdas Pophale) SiO2 
 PCOD8227260
Probable space group: P B A M
;
_chemical_formula_sum "Si O2"
_cell_formula_units_Z 64
_cell_length_a 18.898315
_cell_length_b 18.955566
_cell_length_c 8.902307
_cell_angle_alpha 90.000000
_cell_angle_beta 90.000000
_cell_angle_gamma 90.000000
_cell_volume 3189.057922
_symmetry_space_group_name_H-M "P B A M"
_symmetry_group_IT_number 55
_symmetry_cell_setting 'orthorhombic'
loop_
_space_group_symop_operation_xyz
x,y,z
-x,-y,z
1/2+x,1/2-y,-z
1/2-x,1/2+y,-z
-x,-y,-z
x,y,-z
1/2-x,1/2+y,z
1/2+x,1/2-y,z
loop_
_atom_site_type_symbol
_atom_site_label
_atom_site_fract_x
_atom_site_fract_y
_atom_site_fract_z
Si Si1 0.132656 0.332581 0.678064
Si Si2 0.798458 0.535030 0.824433
Si Si3 0.591636 0.403413 0.327358
Si Si4 0.537505 0.668391 0.172510
Si Si5 0.279789 0.698263 0.326210
Si Si6 0.527422 0.811134 0.322969
Si Si7 0.654841 0.879538 0.822798
Si Si8 0.636725 0.539445 0.827865
O O1 0.133481 0.331512 0.500000
O O2 0.155288 0.408590 0.736017
O O3 0.184435 0.270261 0.737291
O O4 0.052931 0.319040 0.735575
O O5 0.820255 0.456973 0.772420
O O6 0.717559 0.547101 0.779152
O O7 0.811548 0.546192 0.000000
O O8 0.566920 0.397772 0.500000
O O9 0.535626 0.366062 0.221612
O O10 0.666672 0.366334 0.302476
O O11 0.597188 0.484596 0.279735
O O12 0.556075 0.734823 0.275145
O O13 0.601754 0.614894 0.195678
O O14 0.530889 0.692105 0.000000
O O15 0.259621 0.707288 0.500000
O O16 0.208630 0.680409 0.236235
O O17 0.532673 0.820190 0.500000
O O18 0.576962 0.869552 0.246064
O O19 0.651046 0.872051 0.000000
O O20 0.630126 0.512997 0.000000
#
# Coordination Sequence:
#
# PCOD8227260 Si02
#       8
#     8   8   8   8   8   8   8   8
#     4  10  23  43  65  90 122 160 204 251 306 365
#     4  10  23  42  63  90 124 160 204 258 308 364
#     4  11  21  37  62  90 125 165 208 252 305 368
#     4  11  23  38  60  90 127 167 208 253 305 369
#     4  10  21  40  63  91 123 159 203 251 300 363
#     4  11  24  44  65  90 125 161 205 259 308 365
#     4  11  24  42  65  93 123 160 205 251 308 367
#     4  10  22  40  58  87 127 164 205 252 305 367
#
# _framework density 20.068622000000001
#
# number of rings (size 3 to 8) (size 9 to 14) (size 15 to 20)
#    0.000    1.500    2.500    1.875    1.750    6.500 
#    0.000    2.500    0.000    0.000    0.000    0.000 
#    0.000    0.000    0.000    0.000    0.000    0.000 
#
# Total GULP energy -793948.269421 kJ/mol
# GULP energy per Si atom -12405.441710 kJ/mol
# Density = 2.002294 g / cm^3
# Si number density = 20.068622 Si / 1000 Ang^3
#
#
#
# Elastic Constant Matrix: (Units=GPa)
#
#
# Indices 1 2 3 4 5 6 
#
# 1 68.5788 48.7691 40.6177 0.0000 0.0000 0.0000
# 2 48.7691 93.5500 34.7606 0.0000 0.0000 0.0000
# 3 40.6177 34.7606 49.3768 0.0000 0.0000 0.0000
# 4 0.0000 0.0000 0.0000 31.7921 0.0000 0.0000
# 5 0.0000 0.0000 0.0000 0.0000 33.7187 0.0000
# 6 0.0000 0.0000 0.0000 0.0000 0.0000 31.3753
#
#
#
# Elastic Compliance Matrix: (Units=1/GPa)
#
#
# Indices 1 2 3 4 5 6 
#
# 1 0.034160 -0.009976 -0.021077 0.000000 0.000000 0.000000
# 2 -0.009976 0.017390 -0.004036 0.000000 0.000000 0.000000
# 3 -0.021077 -0.004036 0.040431 0.000000 0.000000 0.000000
# 4 0.000000 0.000000 0.000000 0.031454 0.000000 0.000000
# 5 0.000000 0.000000 0.000000 0.000000 0.029657 0.000000
# 6 0.000000 0.000000 0.000000 0.000000 0.000000 0.031872
#
#
# Mechanical properties :
#
#
# Convention : Reuss Voigt Hill
#
# Bulk Modulus (GPa) = 45.86440 51.08894 48.47667
# Shear Modulus (GPa) = 19.05417 25.20110 22.12764
#
# Velocity S-wave (km/s) = 3.08466 3.54750 3.32414
# Velocity P-wave (km/s) = 5.96575 6.50323 6.24028
#
# Compressibility (1/GPa) = 0.02180340
#
# Stress axis : x y z
#
# Youngs Moduli (GPa) = 29.27428 57.50487 24.73332
#
# Poissons Ratio (x) = 0.57369 0.52130
# Poissons Ratio (y) = 0.29205 0.09981
# Poissons Ratio (z) = 0.61701 0.23206
#
# Static dielectric constant tensor:
#      x y z
#    x 3.727630 0.000000 0.000000 
#    y 0.000000 3.765310 0.000000 
#    z 0.000000 0.000000 3.596580 
# 
# 
# High freq. dielectric constant tensor:
#      x y z
#    x 1.791070 0.000000 0.000000 
#    y 0.000000 1.787900 0.000000 
#    z 0.000000 0.000000 1.780410 
# 
# From -- ./inp_files/8071.got.cif
#   From: 2010.03.12/outbox.cif.g09.slc.cpg/sg55_5_cif.got.tgz:8071.got - 2010.04.16 15:19:21.
