data_PCOD8227343
_publ_section_title
;
Structure prediction by ZEFSAII (Michael W. Deem and Ramdas Pophale) SiO2 
 PCOD8227343
Probable space group: P B A M
;
_chemical_formula_sum "Si O2"
_cell_formula_units_Z 56
_cell_length_a 20.242679
_cell_length_b 9.173122
_cell_length_c 15.085168
_cell_angle_alpha 90.000000
_cell_angle_beta 90.000000
_cell_angle_gamma 90.000000
_cell_volume 2801.143185
_symmetry_space_group_name_H-M "P B A M"
_symmetry_group_IT_number 55
_symmetry_cell_setting 'orthorhombic'
loop_
_space_group_symop_operation_xyz
x,y,z
-x,-y,z
1/2+x,1/2-y,-z
1/2-x,1/2+y,-z
-x,-y,-z
x,y,-z
1/2-x,1/2+y,z
1/2+x,1/2-y,z
loop_
_atom_site_type_symbol
_atom_site_label
_atom_site_fract_x
_atom_site_fract_y
_atom_site_fract_z
Si Si1 0.332244 0.954966 0.206960
Si Si2 0.437037 0.088916 0.669984
Si Si3 0.652644 0.700896 0.594499
Si Si4 0.739994 0.306069 0.719721
Si Si5 0.945368 0.617640 0.898270
Si Si6 0.018321 0.168761 0.750252
Si Si7 0.620547 0.386661 0.398003
O O1 0.390004 0.975402 0.279506
O O2 0.274208 0.073029 0.217496
O O3 0.301929 0.794741 0.215747
O O4 0.372200 0.955948 0.113639
O O5 0.394607 0.156902 0.590202
O O6 0.454955 0.229263 0.731419
O O7 0.500000 0.000000 0.634500
O O8 0.690480 0.693715 0.500000
O O9 0.703993 0.708014 0.674367
O O10 0.606208 0.559223 0.604374
O O11 0.694609 0.369510 0.641069
O O12 0.948552 0.765200 0.839389
O O13 0.000000 0.500000 0.865668
O O14 0.957075 0.660173 0.000000
O O15 0.066550 0.188014 0.665100
O O16 0.000000 0.000000 0.768158
O O17 0.616336 0.326761 0.500000
#
# Coordination Sequence:
#
# PCOD8227343 Si02
#       7
#     8   8   8   8   8   8   8
#     4  11  21  39  65  90 122 160 207 252 317 373
#     4  11  20  38  60  86 118 164 210 258 320 372
#     4  10  22  36  53  85 124 164 215 263 298 359
#     4  11  21  38  61  86 120 170 210 251 300 370
#     4  11  23  44  72  96 122 159 205 262 327 385
#     4  12  22  38  64  92 126 166 207 259 315 377
#     4  11  22  36  57  89 129 173 211 254 309 366
#
# _framework density 19.991837
#
# number of rings (size 3 to 8) (size 9 to 14) (size 15 to 20)
#    0.000    1.000    7.143    0.429    0.000    1.429 
#    0.000    4.286    0.000    0.429    0.000    0.000 
#    0.000    0.000    0.000    0.000    0.000    0.000 
#
# Total GULP energy -693993.277564 kJ/mol
# GULP energy per Si atom -12392.737099 kJ/mol
# Density = 1.994634 g / cm^3
# Si number density = 19.991837 Si / 1000 Ang^3
#
#
#
# Elastic Constant Matrix: (Units=GPa)
#
#
# Indices 1 2 3 4 5 6 
#
# 1 102.1738 41.8194 35.1590 0.0000 0.0000 0.0000
# 2 41.8194 98.5675 42.1601 0.0000 0.0000 0.0000
# 3 35.1590 42.1601 85.3554 0.0000 0.0000 0.0000
# 4 0.0000 0.0000 0.0000 24.3787 0.0000 0.0000
# 5 0.0000 0.0000 0.0000 0.0000 25.6935 0.0000
# 6 0.0000 0.0000 0.0000 0.0000 0.0000 37.5857
#
#
#
# Elastic Compliance Matrix: (Units=1/GPa)
#
#
# Indices 1 2 3 4 5 6 
#
# 1 0.012500 -0.003932 -0.003207 0.000000 0.000000 0.000000
# 2 -0.003932 0.014100 -0.005345 0.000000 0.000000 0.000000
# 3 -0.003207 -0.005345 0.015677 0.000000 0.000000 0.000000
# 4 0.000000 0.000000 0.000000 0.041019 0.000000 0.000000
# 5 0.000000 0.000000 0.000000 0.000000 0.038920 0.000000
# 6 0.000000 0.000000 0.000000 0.000000 0.000000 0.026606
#
#
# Mechanical properties :
#
#
# Convention : Reuss Voigt Hill
#
# Bulk Modulus (GPa) = 57.77184 58.26375 58.01780
# Shear Modulus (GPa) = 27.84611 28.66214 28.25412
#
# Velocity S-wave (km/s) = 3.73617 3.79052 3.76344
# Velocity P-wave (km/s) = 6.89728 6.95445 6.92592
#
# Compressibility (1/GPa) = 0.01730947
#
# Stress axis : x y z
#
# Youngs Moduli (GPa) = 79.99987 70.92431 63.78920
#
# Poissons Ratio (x) = 0.27885 0.20457
# Poissons Ratio (y) = 0.31454 0.34094
# Poissons Ratio (z) = 0.25655 0.37907
#
# Static dielectric constant tensor:
#      x y z
#    x 3.739810 0.000000 0.000000 
#    y 0.000000 3.712030 0.000000 
#    z 0.000000 0.000000 3.330580 
# 
# 
# High freq. dielectric constant tensor:
#      x y z
#    x 1.786340 0.000000 0.000000 
#    y 0.000000 1.789820 0.000000 
#    z 0.000000 0.000000 1.742020 
# 
# From -- ./inp_files/19744.got.cif
#   From: 2010.03.12/outbox.cif.g09.slc.cpg/sg55_10_cif.got.tgz:19744.got - 2010.04.16 15:19:21.
