data_PCOD8227873
_publ_section_title
;
Structure prediction by ZEFSAII (Michael W. Deem and Ramdas Pophale) SiO2 
 PCOD8227873
Probable space group: P C C N
;
_chemical_formula_sum "Si O2"
_cell_formula_units_Z 64
_cell_length_a 20.077710
_cell_length_b 22.836392
_cell_length_c 8.718828
_cell_angle_alpha 90.000000
_cell_angle_beta 90.000000
_cell_angle_gamma 90.000000
_cell_volume 3997.604052
_symmetry_space_group_name_H-M "P C C N"
_symmetry_group_IT_number 56
_symmetry_cell_setting 'orthorhombic'
loop_
_space_group_symop_operation_xyz
x,y,z
1/2-x,1/2-y,z
1/2+x,-y,1/2-z
-x,1/2+y,1/2-z
-x,-y,-z
1/2+x,1/2+y,-z
1/2-x,y,1/2+z
x,1/2-y,1/2+z
loop_
_atom_site_type_symbol
_atom_site_label
_atom_site_fract_x
_atom_site_fract_y
_atom_site_fract_z
Si Si1 0.101432 0.990205 0.680705
Si Si2 0.519795 0.579405 0.820977
Si Si3 0.480204 0.420588 0.820965
Si Si4 0.398571 0.990198 0.819299
Si Si5 0.559232 0.312320 0.176421
Si Si6 0.180333 0.892220 0.817724
Si Si7 0.440768 0.812313 0.676396
Si Si8 0.819667 0.392215 0.317729
O O1 0.110568 0.996153 0.500001
O O2 0.165374 0.957367 0.751955
O O3 0.037181 0.952625 0.724580
O O4 0.090596 0.055542 0.755079
O O5 0.590593 0.555531 0.755092
O O6 0.507896 0.648889 0.796086
O O7 0.512113 0.563589 0.000008
O O8 0.537180 0.452612 0.724553
O O9 0.492105 0.351102 0.796096
O O10 0.334629 0.957359 0.748051
O O11 0.624152 0.346470 0.240912
O O12 0.547953 0.250006 0.250025
O O13 0.572070 0.300889 0.000014
O O14 0.249999 0.869822 0.749997
O O15 0.182728 0.895755 0.999998
O O16 0.375846 0.846460 0.740895
#
# Coordination Sequence:
#
# PCOD8227873 Si02
#       8
#     8   8   8   8   8   8   8   8
#     4  10  17  26  43  65  83 106 138 176 219 262
#     4   9  16  28  43  61  84 110 138 175 219 260
#     4   9  16  28  43  61  84 110 138 175 219 260
#     4  10  17  26  43  65  83 106 138 176 219 262
#     4   9  19  31  44  61  85 116 149 182 217 252
#     4  10  20  33  45  61  85 116 149 183 218 256
#     4   9  19  31  44  61  85 116 149 182 217 252
#     4  10  20  33  45  61  85 116 149 183 218 256
#
# _framework density 16.009588999999998
#
# number of rings (size 3 to 8) (size 9 to 14) (size 15 to 20)
#    0.000    2.500    0.000    6.750    0.000    6.500 
#    0.000    2.500    0.000    0.000    0.000    0.000 
#    0.000    1.000    0.000   10.500    0.000    6.250 
#
# Total GULP energy -792930.165231 kJ/mol
# GULP energy per Si atom -12389.533832 kJ/mol
# Density = 1.597315 g / cm^3
# Si number density = 16.009589 Si / 1000 Ang^3
#
#
#
# Elastic Constant Matrix: (Units=GPa)
#
#
# Indices 1 2 3 4 5 6 
#
# 1 15.8226 38.8891 14.7025 0.0000 0.0000 0.0000
# 2 38.8891 117.9054 43.8591 0.0000 0.0000 0.0000
# 3 14.7025 43.8591 77.7326 0.0000 0.0000 0.0000
# 4 0.0000 0.0000 0.0000 28.2930 0.0000 0.0000
# 5 0.0000 0.0000 0.0000 0.0000 31.0066 0.0000
# 6 0.0000 0.0000 0.0000 0.0000 0.0000 18.6255
#
#
#
# Elastic Compliance Matrix: (Units=1/GPa)
#
#
# Indices 1 2 3 4 5 6 
#
# 1 0.333913 -0.109658 -0.001285 0.000000 0.000000 0.000000
# 2 -0.109658 0.046746 -0.005635 0.000000 0.000000 0.000000
# 3 -0.001285 -0.005635 0.016287 0.000000 0.000000 0.000000
# 4 0.000000 0.000000 0.000000 0.035344 0.000000 0.000000
# 5 0.000000 0.000000 0.000000 0.000000 0.032251 0.000000
# 6 0.000000 0.000000 0.000000 0.000000 0.000000 0.053690
#
#
# Mechanical properties :
#
#
# Convention : Reuss Voigt Hill
#
# Bulk Modulus (GPa) = 6.10531 45.15133 25.62832
# Shear Modulus (GPa) = 6.20360 23.18567 14.69463
#
# Velocity S-wave (km/s) = 1.97062 3.80970 3.03291
# Velocity P-wave (km/s) = 2.99993 6.90041 5.32049
#
# Compressibility (1/GPa) = 0.16379174
#
# Stress axis : x y z
#
# Youngs Moduli (GPa) = 2.99479 21.39212 61.39901
#
# Poissons Ratio (x) = 2.34581 0.07888
# Poissons Ratio (y) = 0.32840 0.34597
# Poissons Ratio (z) = 0.00385 0.12054
#
# Static dielectric constant tensor:
#      x y z
#    x 3.075270 0.000000 0.000000 
#    y 0.000000 3.467670 0.000000 
#    z 0.000000 0.000000 3.046820 
# 
# 
# High freq. dielectric constant tensor:
#      x y z
#    x 1.572020 0.000000 0.000000 
#    y 0.000000 1.602320 0.000000 
#    z 0.000000 0.000000 1.628410 
# 
# From -- ./inp_files/4631.got.cif
#   From: 2010.03.12/outbox.cif.g09.slc.cpg/sg56_3_cif.got.tgz:4631.got - 2010.04.16 15:33:40.
