data_PCOD8227097
_publ_section_title
;
Structure prediction by ZEFSAII (Michael W. Deem and Ramdas Pophale) SiO2 
 PCOD8227097
Probable space group: P B A M
;
_chemical_formula_sum "Si O2"
_cell_formula_units_Z 40
_cell_length_a 11.591255
_cell_length_b 13.237319
_cell_length_c 12.716122
_cell_angle_alpha 90.000000
_cell_angle_beta 90.000000
_cell_angle_gamma 90.000000
_cell_volume 1951.125392
_symmetry_space_group_name_H-M "P B A M"
_symmetry_group_IT_number 55
_symmetry_cell_setting 'orthorhombic'
loop_
_space_group_symop_operation_xyz
x,y,z
-x,-y,z
1/2+x,1/2-y,-z
1/2-x,1/2+y,-z
-x,-y,-z
x,y,-z
1/2-x,1/2+y,z
1/2+x,1/2-y,z
loop_
_atom_site_type_symbol
_atom_site_label
_atom_site_fract_x
_atom_site_fract_y
_atom_site_fract_z
Si Si1 0.234009 0.059473 0.381707
Si Si2 0.907983 0.076342 0.780667
Si Si3 0.792040 0.256939 0.121930
Si Si4 0.098249 0.221541 0.285154
Si Si5 0.049126 0.601997 0.257342
O O1 0.221532 0.018197 0.500000
O O2 0.178804 0.172553 0.374836
O O3 0.367490 0.070306 0.352449
O O4 0.171369 0.984561 0.300726
O O5 0.828658 0.138974 0.862006
O O6 0.980888 0.157678 0.716351
O O7 0.000000 0.000000 0.837104
O O8 0.669292 0.280258 0.175459
O O9 0.888862 0.332661 0.167061
O O10 0.777001 0.279334 0.000000
O O11 0.058512 0.336004 0.308360
O O12 0.000000 0.500000 0.204396
#
# Coordination Sequence:
#
# PCOD8227097 Si02
#       5
#     8   8   8   8   8
#     4  10  21  38  61  86 113 150 192 233 283 342
#     4   9  19  37  58  85 117 146 186 238 284 337
#     4  10  21  38  60  85 115 153 194 235 283 339
#     4   9  20  37  56  83 118 149 186 234 281 337
#     4  10  21  39  58  83 119 150 188 240 285 335
#
# _framework density 20.500990000000002
#
# number of rings (size 3 to 8) (size 9 to 14) (size 15 to 20)
#    0.000    2.400    0.000    1.200    0.000    8.800 
#    0.000   28.000    0.000    0.000    0.000    0.000 
#    0.000    0.000    0.000    0.000    0.000    0.000 
#
# Total GULP energy -495691.464777 kJ/mol
# GULP energy per Si atom -12392.286619 kJ/mol
# Density = 2.045433 g / cm^3
# Si number density = 20.500990 Si / 1000 Ang^3
#
#
#
# Elastic Constant Matrix: (Units=GPa)
#
#
# Indices 1 2 3 4 5 6 
#
# 1 95.0819 47.5849 35.0336 0.0000 0.0000 0.0000
# 2 47.5849 131.2342 29.8927 0.0000 0.0000 0.0000
# 3 35.0336 29.8927 90.5180 0.0000 0.0000 0.0000
# 4 0.0000 0.0000 0.0000 20.8615 0.0000 0.0000
# 5 0.0000 0.0000 0.0000 0.0000 11.6849 0.0000
# 6 0.0000 0.0000 0.0000 0.0000 0.0000 38.9957
#
#
#
# Elastic Compliance Matrix: (Units=1/GPa)
#
#
# Indices 1 2 3 4 5 6 
#
# 1 0.014117 -0.004189 -0.004080 0.000000 0.000000 0.000000
# 2 -0.004189 0.009483 -0.001510 0.000000 0.000000 0.000000
# 3 -0.004080 -0.001510 0.013126 0.000000 0.000000 0.000000
# 4 0.000000 0.000000 0.000000 0.047935 0.000000 0.000000
# 5 0.000000 0.000000 0.000000 0.000000 0.085580 0.000000
# 6 0.000000 0.000000 0.000000 0.000000 0.000000 0.025644
#
#
# Mechanical properties :
#
#
# Convention : Reuss Voigt Hill
#
# Bulk Modulus (GPa) = 58.25536 60.20628 59.23082
# Shear Modulus (GPa) = 22.60730 27.92995 25.26863
#
# Velocity S-wave (km/s) = 3.32436 3.69504 3.51459
# Velocity P-wave (km/s) = 6.57364 6.90186 6.73975
#
# Compressibility (1/GPa) = 0.01716580
#
# Stress axis : x y z
#
# Youngs Moduli (GPa) = 70.83477 105.45144 76.18753
#
# Poissons Ratio (x) = 0.44178 0.31087
# Poissons Ratio (y) = 0.29676 0.11506
# Poissons Ratio (z) = 0.28903 0.15925
#
# Static dielectric constant tensor:
#      x y z
#    x 3.968140 0.000000 0.000000 
#    y 0.000000 4.224310 0.000000 
#    z 0.000000 0.000000 3.118960 
# 
# 
# High freq. dielectric constant tensor:
#      x y z
#    x 1.820590 0.000000 0.000000 
#    y 0.000000 1.819290 0.000000 
#    z 0.000000 0.000000 1.746370 
# 
# From -- ./inp_files/12997.got.cif
#   From: 2010.03.12/outbox.cif.g09.slc.cpg/sg55_7_cif.got.tgz:12997.got - 2010.04.16 15:19:21.
