data_PCOD8227290
_publ_section_title
;
Structure prediction by ZEFSAII (Michael W. Deem and Ramdas Pophale) SiO2 
 PCOD8227290
Probable space group: P B A M
;
_chemical_formula_sum "Si O2"
_cell_formula_units_Z 48
_cell_length_a 14.837862
_cell_length_b 18.537331
_cell_length_c 8.413650
_cell_angle_alpha 90.000000
_cell_angle_beta 90.000000
_cell_angle_gamma 90.000000
_cell_volume 2314.211110
_symmetry_space_group_name_H-M "P B A M"
_symmetry_group_IT_number 55
_symmetry_cell_setting 'orthorhombic'
loop_
_space_group_symop_operation_xyz
x,y,z
-x,-y,z
1/2+x,1/2-y,-z
1/2-x,1/2+y,-z
-x,-y,-z
x,y,-z
1/2-x,1/2+y,z
1/2+x,1/2-y,z
loop_
_atom_site_type_symbol
_atom_site_label
_atom_site_fract_x
_atom_site_fract_y
_atom_site_fract_z
Si Si1 0.371361 0.682327 0.181931
Si Si2 0.739026 0.577873 0.184403
Si Si3 0.712309 0.730919 0.318871
Si Si4 0.531889 0.786144 0.814542
Si Si5 0.903434 0.971039 0.316035
Si Si6 0.557568 0.066850 0.811143
O O1 0.296038 0.716126 0.294143
O O2 0.467241 0.718524 0.219577
O O3 0.378140 0.597625 0.211342
O O4 0.343401 0.696634 0.000000
O O5 0.718838 0.662376 0.203761
O O6 0.670326 0.532585 0.289902
O O7 0.839516 0.560399 0.247379
O O8 0.727465 0.557428 0.000000
O O9 0.711274 0.704161 0.500000
O O10 0.622746 0.775796 0.282770
O O11 0.484789 0.858607 0.748649
O O12 0.555181 0.793493 0.000000
O O13 0.906520 0.948717 0.500000
O O14 0.000000 0.000000 0.258492
O O15 0.500000 0.000000 0.742405
O O16 0.556414 0.067011 0.000000
#
# Coordination Sequence:
#
# PCOD8227290 Si02
#       6
#     8   8   8   8   8   8
#     4  11  23  42  66  93 124 166 218 266 311 373
#     4  11  22  41  67  95 125 167 216 259 312 379
#     4  12  25  40  62  93 130 168 206 260 325 379
#     4  10  21  40  66  93 124 161 212 266 312 375
#     4  11  25  43  63  93 132 169 206 259 327 385
#     4   9  19  37  62  93 124 158 204 261 314 365
#
# _framework density 20.741408
#
# number of rings (size 3 to 8) (size 9 to 14) (size 15 to 20)
#    0.000    1.333    1.667    4.000    2.333    5.333 
#    0.000    0.000    0.000    2.500    0.000    0.000 
#    0.000    0.000    0.000    0.000    0.000    0.000 
#
# Total GULP energy -595553.779834 kJ/mol
# GULP energy per Si atom -12407.370413 kJ/mol
# Density = 2.069420 g / cm^3
# Si number density = 20.741408 Si / 1000 Ang^3
#
#
#
# Elastic Constant Matrix: (Units=GPa)
#
#
# Indices 1 2 3 4 5 6 
#
# 1 106.6591 42.3282 25.8612 0.0000 0.0000 0.0000
# 2 42.3282 120.1961 6.1689 0.0000 0.0000 0.0000
# 3 25.8612 6.1689 54.0328 0.0000 0.0000 0.0000
# 4 0.0000 0.0000 0.0000 23.8150 0.0000 0.0000
# 5 0.0000 0.0000 0.0000 0.0000 14.9949 0.0000
# 6 0.0000 0.0000 0.0000 0.0000 0.0000 41.6540
#
#
#
# Elastic Compliance Matrix: (Units=1/GPa)
#
#
# Indices 1 2 3 4 5 6 
#
# 1 0.012299 -0.004053 -0.005424 0.000000 0.000000 0.000000
# 2 -0.004053 0.009704 0.000832 0.000000 0.000000 0.000000
# 3 -0.005424 0.000832 0.021008 0.000000 0.000000 0.000000
# 4 0.000000 0.000000 0.000000 0.041990 0.000000 0.000000
# 5 0.000000 0.000000 0.000000 0.000000 0.066689 0.000000
# 6 0.000000 0.000000 0.000000 0.000000 0.000000 0.024007
#
#
# Mechanical properties :
#
#
# Convention : Reuss Voigt Hill
#
# Bulk Modulus (GPa) = 38.87743 47.73386 43.30564
# Shear Modulus (GPa) = 24.80619 29.86144 27.33381
#
# Velocity S-wave (km/s) = 3.46204 3.79846 3.63414
# Velocity P-wave (km/s) = 5.89623 6.50396 6.20753
#
# Compressibility (1/GPa) = 0.02572187
#
# Stress axis : x y z
#
# Youngs Moduli (GPa) = 81.30610 103.04693 47.60024
#
# Poissons Ratio (x) = 0.41764 0.25818
# Poissons Ratio (y) = 0.32953 -0.03960
# Poissons Ratio (z) = 0.44100 -0.08572
#
# Static dielectric constant tensor:
#      x y z
#    x 3.918270 0.000000 0.000000 
#    y 0.000000 3.755990 0.000000 
#    z 0.000000 0.000000 3.466230 
# 
# 
# High freq. dielectric constant tensor:
#      x y z
#    x 1.826280 0.000000 0.000000 
#    y 0.000000 1.819480 0.000000 
#    z 0.000000 0.000000 1.793820 
# 
# From -- ./inp_files/5654.got.cif
#   From: 2010.03.12/outbox.cif.g09.slc.cpg/sg55_3_cif.got.tgz:5654.got - 2010.04.16 15:19:21.
