data_PCOD8227012
_publ_section_title
;
Structure prediction by ZEFSAII (Michael W. Deem and Ramdas Pophale) SiO2 
 PCOD8227012
Probable space group: P B A M
;
_chemical_formula_sum "Si O2"
_cell_formula_units_Z 48
_cell_length_a 20.069155
_cell_length_b 13.740042
_cell_length_c 9.191350
_cell_angle_alpha 90.000000
_cell_angle_beta 90.000000
_cell_angle_gamma 90.000000
_cell_volume 2534.524254
_symmetry_space_group_name_H-M "P B A M"
_symmetry_group_IT_number 55
_symmetry_cell_setting 'orthorhombic'
loop_
_space_group_symop_operation_xyz
x,y,z
-x,-y,z
1/2+x,1/2-y,-z
1/2-x,1/2+y,-z
-x,-y,-z
x,y,-z
1/2-x,1/2+y,z
1/2+x,1/2-y,z
loop_
_atom_site_type_symbol
_atom_site_label
_atom_site_fract_x
_atom_site_fract_y
_atom_site_fract_z
Si Si1 0.073590 0.038685 0.667686
Si Si2 0.935212 0.558098 0.170610
Si Si3 0.697898 0.949397 0.164288
Si Si4 0.609537 0.244292 0.329812
Si Si5 0.237854 0.738606 0.328391
Si Si6 0.679462 0.588487 0.165172
O O1 0.095137 0.025600 0.500000
O O2 0.077991 0.151700 0.712559
O O3 0.122782 0.977881 0.767003
O O4 0.000000 0.000000 0.696434
O O5 0.872608 0.492051 0.214056
O O6 0.932755 0.662271 0.248469
O O7 0.000000 0.500000 0.224172
O O8 0.937260 0.579203 0.000000
O O9 0.718803 0.868908 0.279283
O O10 0.749931 0.036316 0.172752
O O11 0.694899 0.906535 0.000000
O O12 0.603534 0.224528 0.500000
O O13 0.686463 0.240252 0.279431
O O14 0.229662 0.746444 0.500000
O O15 0.186025 0.811792 0.253934
O O16 0.659270 0.612825 0.000000
#
# Coordination Sequence:
#
# PCOD8227012 Si02
#       6
#     8   8   8   8   8   8
#     4  10  22  41  62  87 123 159 198 247 297 354
#     4  10  22  40  61  86 119 157 194 240 295 353
#     4  10  21  37  58  86 116 150 195 242 292 346
#     4  10  21  37  59  86 115 153 197 242 296 355
#     4  11  22  36  60  89 118 154 199 247 296 349
#     4  11  22  37  60  88 119 154 197 245 293 351
#
# _framework density 18.938465999999998
#
# number of rings (size 3 to 8) (size 9 to 14) (size 15 to 20)
#    0.000    1.667    3.333    1.000    0.000    4.667 
#    0.000    3.333    0.000    0.000    0.000    0.000 
#    0.000    0.000    0.000    0.000    0.000    0.000 
#
# Total GULP energy -595433.743701 kJ/mol
# GULP energy per Si atom -12404.869660 kJ/mol
# Density = 1.889536 g / cm^3
# Si number density = 18.938466 Si / 1000 Ang^3
#
#
#
# Elastic Constant Matrix: (Units=GPa)
#
#
# Indices 1 2 3 4 5 6 
#
# 1 80.3712 24.0409 40.4094 0.0000 0.0000 0.0000
# 2 24.0409 96.3552 49.7981 0.0000 0.0000 0.0000
# 3 40.4094 49.7981 79.4053 0.0000 0.0000 0.0000
# 4 0.0000 0.0000 0.0000 34.7318 0.0000 0.0000
# 5 0.0000 0.0000 0.0000 0.0000 54.7720 0.0000
# 6 0.0000 0.0000 0.0000 0.0000 0.0000 32.5278
#
#
#
# Elastic Compliance Matrix: (Units=1/GPa)
#
#
# Indices 1 2 3 4 5 6 
#
# 1 0.016728 0.000334 -0.008722 0.000000 0.000000 0.000000
# 2 0.000334 0.015362 -0.009804 0.000000 0.000000 0.000000
# 3 -0.008722 -0.009804 0.023181 0.000000 0.000000 0.000000
# 4 0.000000 0.000000 0.000000 0.028792 0.000000 0.000000
# 5 0.000000 0.000000 0.000000 0.000000 0.018258 0.000000
# 6 0.000000 0.000000 0.000000 0.000000 0.000000 0.030743
#
#
# Mechanical properties :
#
#
# Convention : Reuss Voigt Hill
#
# Bulk Modulus (GPa) = 52.94900 53.84763 53.39832
# Shear Modulus (GPa) = 28.45065 33.86520 31.15793
#
# Velocity S-wave (km/s) = 3.88012 4.23326 4.06053
# Velocity P-wave (km/s) = 6.93490 7.23800 7.08807
#
# Compressibility (1/GPa) = 0.01888610
#
# Stress axis : x y z
#
# Youngs Moduli (GPa) = 59.78082 65.09656 43.13880
#
# Poissons Ratio (x) = -0.02176 0.37627
# Poissons Ratio (y) = -0.01998 0.42294
# Poissons Ratio (z) = 0.52143 0.63821
#
# Static dielectric constant tensor:
#      x y z
#    x 3.596720 0.000000 0.000000 
#    y 0.000000 4.134180 0.000000 
#    z 0.000000 0.000000 3.462330 
# 
# 
# High freq. dielectric constant tensor:
#      x y z
#    x 1.734620 0.000000 0.000000 
#    y 0.000000 1.744530 0.000000 
#    z 0.000000 0.000000 1.736340 
# 
# From -- ./inp_files/5553.got.cif
#   From: 2010.03.12/outbox.cif.g09.slc.cpg/sg55_3_cif.got.tgz:5553.got - 2010.04.16 15:19:21.
