data_PCOD8227392
_publ_section_title
;
Structure prediction by ZEFSAII (Michael W. Deem and Ramdas Pophale) SiO2 
 PCOD8227392
Probable space group: P B A M
;
_chemical_formula_sum "Si O2"
_cell_formula_units_Z 60
_cell_length_a 25.648160
_cell_length_b 5.132097
_cell_length_c 21.779075
_cell_angle_alpha 90.000000
_cell_angle_beta 90.000000
_cell_angle_gamma 90.000000
_cell_volume 2866.754487
_symmetry_space_group_name_H-M "P B A M"
_symmetry_group_IT_number 55
_symmetry_cell_setting 'orthorhombic'
loop_
_space_group_symop_operation_xyz
x,y,z
-x,-y,z
1/2+x,1/2-y,-z
1/2-x,1/2+y,-z
-x,-y,-z
x,y,-z
1/2-x,1/2+y,z
1/2+x,1/2-y,z
loop_
_atom_site_type_symbol
_atom_site_label
_atom_site_fract_x
_atom_site_fract_y
_atom_site_fract_z
Si Si1 0.866765 0.515584 0.236440
Si Si2 0.781667 0.533501 0.000000
Si Si3 0.285553 0.877471 0.132700
Si Si4 0.034402 0.751415 0.744824
Si Si5 0.154761 0.787575 0.430993
Si Si6 0.717398 0.883552 0.672707
Si Si7 0.899978 0.921352 0.664649
Si Si8 0.941397 0.581637 0.434853
O O1 0.833956 0.601450 0.177943
O O2 0.917427 0.350719 0.212082
O O3 0.832855 0.336462 0.283366
O O4 0.883159 0.775484 0.273286
O O5 0.810834 0.601955 0.063916
O O6 0.768891 0.225730 0.000000
O O7 0.257144 0.602649 0.143502
O O8 0.000000 0.500000 0.730380
O O9 0.064731 0.829254 0.682467
O O10 0.000000 0.000000 0.770301
O O11 0.172002 0.870288 0.500000
O O12 0.199991 0.612803 0.399317
O O13 0.098234 0.659487 0.430438
O O14 0.149204 0.025913 0.381556
O O15 0.758922 0.662532 0.689005
O O16 0.939651 0.750907 0.625621
O O17 0.926591 0.728097 0.500000
O O18 0.000000 0.500000 0.441429
#
# Coordination Sequence:
#
# PCOD8227392 Si02
#       8
#     8   4   8   8   8   8   8   8
#     4  12  25  41  64  98 128 170 206 264 319 383
#     4   8  16  36  60  96 136 179 216 259 304 360
#     4  10  22  38  66  99 141 179 218 258 309 371
#     4  12  27  42  65  94 125 165 207 260 327 387
#     4  11  25  42  60  85 117 157 206 262 318 386
#     4  12  26  43  63  86 117 155 204 254 308 372
#     4  12  23  40  65  87 126 155 204 260 327 384
#     4  10  23  40  62  90 116 152 199 259 334 402
#
# _framework density 20.929590999999999
#
# number of rings (size 3 to 8) (size 9 to 14) (size 15 to 20)
#    0.000    0.933    4.000    2.000    5.600    0.533 
#    0.000    2.000    0.000    1.200    0.000    0.933 
#    0.000    0.133    0.000    0.000    0.000    0.000 
#
# Total GULP energy -743296.248120 kJ/mol
# GULP energy per Si atom -12388.270802 kJ/mol
# Density = 2.088195 g / cm^3
# Si number density = 20.929591 Si / 1000 Ang^3
#
#
#
# Elastic Constant Matrix: (Units=GPa)
#
#
# Indices 1 2 3 4 5 6 
#
# 1 95.4327 34.5821 45.5686 0.0000 0.0000 0.0000
# 2 34.5821 97.1807 27.2215 0.0000 0.0000 0.0000
# 3 45.5686 27.2215 130.1858 0.0000 0.0000 0.0000
# 4 0.0000 0.0000 0.0000 18.9495 0.0000 0.0000
# 5 0.0000 0.0000 0.0000 0.0000 21.1774 0.0000
# 6 0.0000 0.0000 0.0000 0.0000 0.0000 32.1946
#
#
#
# Elastic Compliance Matrix: (Units=1/GPa)
#
#
# Indices 1 2 3 4 5 6 
#
# 1 0.013770 -0.003771 -0.004031 0.000000 0.000000 0.000000
# 2 -0.003771 0.011963 -0.001182 0.000000 0.000000 0.000000
# 3 -0.004031 -0.001182 0.009339 0.000000 0.000000 0.000000
# 4 0.000000 0.000000 0.000000 0.052772 0.000000 0.000000
# 5 0.000000 0.000000 0.000000 0.000000 0.047220 0.000000
# 6 0.000000 0.000000 0.000000 0.000000 0.000000 0.031061
#
#
# Mechanical properties :
#
#
# Convention : Reuss Voigt Hill
#
# Bulk Modulus (GPa) = 58.46286 59.72706 59.09496
# Shear Modulus (GPa) = 26.34424 28.82609 27.58516
#
# Velocity S-wave (km/s) = 3.55168 3.71521 3.63436
# Velocity P-wave (km/s) = 6.69425 6.85586 6.77554
#
# Compressibility (1/GPa) = 0.01710488
#
# Stress axis : x y z
#
# Youngs Moduli (GPa) = 72.62147 83.59146 107.07227
#
# Poissons Ratio (x) = 0.31521 0.43165
# Poissons Ratio (y) = 0.27385 0.12651
# Poissons Ratio (z) = 0.29277 0.09876
#
# Static dielectric constant tensor:
#      x y z
#    x 3.971610 0.000000 0.000000 
#    y 0.000000 3.963380 0.000000 
#    z 0.000000 0.000000 3.897530 
# 
# 
# High freq. dielectric constant tensor:
#      x y z
#    x 1.814100 0.000000 0.000000 
#    y 0.000000 1.830740 0.000000 
#    z 0.000000 0.000000 1.787200 
# 
# From -- ./inp_files/23177.got.cif
#   From: 2010.03.12/outbox.cif.g09.slc.cpg/sg55_12_cif.got.tgz:23177.got - 2010.04.16 15:19:21.
