data_PCOD8227313
_publ_section_title
;
Structure prediction by ZEFSAII (Michael W. Deem and Ramdas Pophale) SiO2 
 PCOD8227313
Probable space group: P B A M
;
_chemical_formula_sum "Si O2"
_cell_formula_units_Z 56
_cell_length_a 14.430649
_cell_length_b 21.383134
_cell_length_c 8.878872
_cell_angle_alpha 90.000000
_cell_angle_beta 90.000000
_cell_angle_gamma 90.000000
_cell_volume 2739.775742
_symmetry_space_group_name_H-M "P B A M"
_symmetry_group_IT_number 55
_symmetry_cell_setting 'orthorhombic'
loop_
_space_group_symop_operation_xyz
x,y,z
-x,-y,z
1/2+x,1/2-y,-z
1/2-x,1/2+y,-z
-x,-y,-z
x,y,-z
1/2-x,1/2+y,z
1/2+x,1/2-y,z
loop_
_atom_site_type_symbol
_atom_site_label
_atom_site_fract_x
_atom_site_fract_y
_atom_site_fract_z
Si Si1 0.598289 0.888635 0.827073
Si Si2 0.426163 0.677949 0.176624
Si Si3 0.581194 0.453058 0.327399
Si Si4 0.787347 0.491891 0.327063
Si Si5 0.387210 0.895188 0.826207
Si Si6 0.885838 0.244224 0.823634
Si Si7 0.302471 0.776874 0.677492
O O1 0.667347 0.926372 0.720443
O O2 0.494194 0.913549 0.802215
O O3 0.604114 0.816539 0.779975
O O4 0.628768 0.898217 0.000000
O O5 0.425374 0.605587 0.217751
O O6 0.522117 0.708716 0.229870
O O7 0.340946 0.711716 0.258581
O O8 0.411146 0.686472 0.000000
O O9 0.500000 0.500000 0.280785
O O10 0.570576 0.430614 0.500000
O O11 0.677629 0.488740 0.303067
O O12 0.812679 0.505857 0.500000
O O13 0.824573 0.547191 0.223485
O O14 0.365932 0.833855 0.730580
O O15 0.367334 0.879494 0.000000
O O16 0.801689 0.212705 0.734764
O O17 0.868770 0.235121 0.000000
O O18 0.302930 0.774058 0.500000
#
# Coordination Sequence:
#
# PCOD8227313 Si02
#       7
#     8   8   8   8   8   8   8
#     4  10  21  41  65  91 124 166 208 253 314 377
#     4  11  23  43  68  96 127 165 215 264 314 374
#     4  10  24  45  65  90 130 172 213 263 320 380
#     4  11  24  40  61  93 128 166 211 261 319 374
#     4  11  23  42  65  91 125 165 213 262 316 375
#     4  10  22  41  65  93 127 166 209 259 312 375
#     4  12  25  40  63  96 131 168 210 260 323 380
#
# _framework density 20.439629
#
# number of rings (size 3 to 8) (size 9 to 14) (size 15 to 20)
#    0.000    1.286    1.429    3.857    2.000    8.286 
#    0.000    0.000    0.000    0.000    0.000    0.000 
#    0.000    0.000    0.000    0.000    0.000    0.000 
#
# Total GULP energy -694863.107764 kJ/mol
# GULP energy per Si atom -12408.269782 kJ/mol
# Density = 2.039311 g / cm^3
# Si number density = 20.439629 Si / 1000 Ang^3
#
#
#
# Elastic Constant Matrix: (Units=GPa)
#
#
# Indices 1 2 3 4 5 6 
#
# 1 92.7461 7.6140 32.2223 0.0000 0.0000 0.0000
# 2 7.6140 59.5773 8.0192 0.0000 0.0000 0.0000
# 3 32.2223 8.0192 72.5766 0.0000 0.0000 0.0000
# 4 0.0000 0.0000 0.0000 36.4507 0.0000 0.0000
# 5 0.0000 0.0000 0.0000 0.0000 28.3682 0.0000
# 6 0.0000 0.0000 0.0000 0.0000 0.0000 30.7426
#
#
#
# Elastic Compliance Matrix: (Units=1/GPa)
#
#
# Indices 1 2 3 4 5 6 
#
# 1 0.012794 -0.000884 -0.005583 0.000000 0.000000 0.000000
# 2 -0.000884 0.017099 -0.001497 0.000000 0.000000 0.000000
# 3 -0.005583 -0.001497 0.016423 0.000000 0.000000 0.000000
# 4 0.000000 0.000000 0.000000 0.027434 0.000000 0.000000
# 5 0.000000 0.000000 0.000000 0.000000 0.035251 0.000000
# 6 0.000000 0.000000 0.000000 0.000000 0.000000 0.032528
#
#
# Mechanical properties :
#
#
# Convention : Reuss Voigt Hill
#
# Bulk Modulus (GPa) = 32.90627 35.62344 34.26485
# Shear Modulus (GPa) = 29.83544 30.91526 30.37535
#
# Velocity S-wave (km/s) = 3.82473 3.89333 3.85918
# Velocity P-wave (km/s) = 5.96984 6.13817 6.05459
#
# Compressibility (1/GPa) = 0.03038934
#
# Stress axis : x y z
#
# Youngs Moduli (GPa) = 78.16022 58.48175 60.89193
#
# Poissons Ratio (x) = 0.05168 0.33994
# Poissons Ratio (y) = 0.06907 0.09116
# Poissons Ratio (z) = 0.43634 0.08755
#
# Static dielectric constant tensor:
#      x y z
#    x 3.880940 0.000000 0.000000 
#    y 0.000000 3.650900 0.000000 
#    z 0.000000 0.000000 3.654880 
# 
# 
# High freq. dielectric constant tensor:
#      x y z
#    x 1.813810 0.000000 0.000000 
#    y 0.000000 1.803360 0.000000 
#    z 0.000000 0.000000 1.798630 
# 
# From -- ./inp_files/6114.got.cif
#   From: 2010.03.12/outbox.cif.g09.slc.cpg/sg55_4_cif.got.tgz:6114.got - 2010.04.16 15:19:21.
