data_PCOD8227082
_publ_section_title
;
Structure prediction by ZEFSAII (Michael W. Deem and Ramdas Pophale) SiO2 
 PCOD8227082
Probable space group: P B A M
;
_chemical_formula_sum "Si O2"
_cell_formula_units_Z 64
_cell_length_a 26.144036
_cell_length_b 9.419206
_cell_length_c 13.754678
_cell_angle_alpha 90.000000
_cell_angle_beta 90.000000
_cell_angle_gamma 90.000000
_cell_volume 3387.172821
_symmetry_space_group_name_H-M "P B A M"
_symmetry_group_IT_number 55
_symmetry_cell_setting 'orthorhombic'
loop_
_space_group_symop_operation_xyz
x,y,z
-x,-y,z
1/2+x,1/2-y,-z
1/2-x,1/2+y,-z
-x,-y,-z
x,y,-z
1/2-x,1/2+y,z
1/2+x,1/2-y,z
loop_
_atom_site_type_symbol
_atom_site_label
_atom_site_fract_x
_atom_site_fract_y
_atom_site_fract_z
Si Si1 0.946729 0.674265 0.612543
Si Si2 0.558973 0.012227 0.205141
Si Si3 0.280339 0.986123 0.110207
Si Si4 0.533526 0.637410 0.610975
Si Si5 0.634026 0.789125 0.887587
Si Si6 0.170782 0.999475 0.802650
Si Si7 0.623041 0.451567 0.388230
Si Si8 0.866652 0.720022 0.113371
O O1 0.949550 0.626015 0.500000
O O2 0.933356 0.537126 0.678045
O O3 0.906061 0.801964 0.623013
O O4 0.002288 0.729414 0.656764
O O5 0.581691 0.155751 0.157857
O O6 0.500000 0.000000 0.173756
O O7 0.589791 0.874591 0.169272
O O8 0.230382 0.997907 0.175006
O O9 0.316032 0.861053 0.152620
O O10 0.311663 0.131941 0.115427
O O11 0.262657 0.953854 0.000000
O O12 0.500000 0.500000 0.624848
O O13 0.537182 0.680323 0.500000
O O14 0.589438 0.589681 0.646599
O O15 0.641889 0.643621 0.831051
O O16 0.617237 0.766484 0.000000
O O17 0.169416 0.039263 0.687736
O O18 0.138962 0.115630 0.862897
O O19 0.641561 0.469012 0.500000
O O20 0.870126 0.690777 0.000000
#
# Coordination Sequence:
#
# PCOD8227082 Si02
#       8
#     8   8   8   8   8   8   8   8
#     4   9  17  34  57  81 107 146 200 245 280 325
#     4  11  23  38  56  79 116 162 192 223 290 349
#     4   9  19  37  61  85 114 145 183 240 296 336
#     4   7  12  25  48  73 101 135 175 228 278 313
#     4  10  23  40  57  85 120 150 187 238 290 337
#     4  12  20  33  62  91 110 145 190 244 284 332
#     4   9  18  32  53  84 119 147 180 236 293 338
#     4  10  21  38  59  84 111 148 199 237 279 342
#
# _framework density 18.894812999999999
#
# number of rings (size 3 to 8) (size 9 to 14) (size 15 to 20)
#    0.000    2.375    1.250    4.500    1.750    3.250 
#    0.000    1.250    0.000    7.500    0.000    0.000 
#    0.000    0.000    0.000    0.000    0.000    0.000 
#
# Total GULP energy -792915.963673 kJ/mol
# GULP energy per Si atom -12389.311932 kJ/mol
# Density = 1.885181 g / cm^3
# Si number density = 18.894813 Si / 1000 Ang^3
#
#
#
# Elastic Constant Matrix: (Units=GPa)
#
#
# Indices 1 2 3 4 5 6 
#
# 1 115.5235 35.5013 56.8408 0.0000 0.0000 0.0000
# 2 35.5013 89.7252 30.5451 0.0000 0.0000 0.0000
# 3 56.8408 30.5451 98.6113 0.0000 0.0000 0.0000
# 4 0.0000 0.0000 0.0000 28.1703 0.0000 0.0000
# 5 0.0000 0.0000 0.0000 0.0000 28.4954 0.0000
# 6 0.0000 0.0000 0.0000 0.0000 0.0000 8.4437
#
#
#
# Elastic Compliance Matrix: (Units=1/GPa)
#
#
# Indices 1 2 3 4 5 6 
#
# 1 0.012695 -0.002830 -0.006441 0.000000 0.000000 0.000000
# 2 -0.002830 0.013090 -0.002423 0.000000 0.000000 0.000000
# 3 -0.006441 -0.002423 0.014604 0.000000 0.000000 0.000000
# 4 0.000000 0.000000 0.000000 0.035498 0.000000 0.000000
# 5 0.000000 0.000000 0.000000 0.000000 0.035093 0.000000
# 6 0.000000 0.000000 0.000000 0.000000 0.000000 0.118432
#
#
# Mechanical properties :
#
#
# Convention : Reuss Voigt Hill
#
# Bulk Modulus (GPa) = 58.82292 61.07049 59.94671
# Shear Modulus (GPa) = 19.34472 25.08672 22.21572
#
# Velocity S-wave (km/s) = 3.20318 3.64772 3.43265
# Velocity P-wave (km/s) = 6.69924 7.08044 6.89248
#
# Compressibility (1/GPa) = 0.01700018
#
# Stress axis : x y z
#
# Youngs Moduli (GPa) = 78.77005 76.39453 68.47415
#
# Poissons Ratio (x) = 0.21623 0.44104
# Poissons Ratio (y) = 0.22295 0.16592
# Poissons Ratio (z) = 0.50735 0.18512
#
# Static dielectric constant tensor:
#      x y z
#    x 3.410760 0.000000 0.000000 
#    y 0.000000 3.540010 0.000000 
#    z 0.000000 0.000000 3.417100 
# 
# 
# High freq. dielectric constant tensor:
#      x y z
#    x 1.716620 0.000000 0.000000 
#    y 0.000000 1.739120 0.000000 
#    z 0.000000 0.000000 1.725890 
# 
# From -- ./inp_files/19964.got.cif
#   From: 2010.03.12/outbox.cif.g09.slc.cpg/sg55_10_cif.got.tgz:19964.got - 2010.04.16 15:19:21.
