data_PCOD8227856
_publ_section_title
;
Structure prediction by ZEFSAII (Michael W. Deem and Ramdas Pophale) SiO2 
 PCOD8227856
Probable space group: P C C N
;
_chemical_formula_sum "Si O2"
_cell_formula_units_Z 60
_cell_length_a 26.604621
_cell_length_b 12.667013
_cell_length_c 8.519736
_cell_angle_alpha 90.000000
_cell_angle_beta 90.000000
_cell_angle_gamma 90.000000
_cell_volume 2871.160234
_symmetry_space_group_name_H-M "P C C N"
_symmetry_group_IT_number 56
_symmetry_cell_setting 'orthorhombic'
loop_
_space_group_symop_operation_xyz
x,y,z
1/2-x,1/2-y,z
1/2+x,-y,1/2-z
-x,1/2+y,1/2-z
-x,-y,-z
1/2+x,1/2+y,-z
1/2-x,y,1/2+z
x,1/2-y,1/2+z
loop_
_atom_site_type_symbol
_atom_site_label
_atom_site_fract_x
_atom_site_fract_y
_atom_site_fract_z
Si Si1 0.250000 0.250000 0.085791
Si Si2 0.070197 0.666781 0.410263
Si Si3 0.481677 0.177820 0.157955
Si Si4 0.338877 0.603815 0.332877
Si Si5 0.310073 0.129207 0.838690
Si Si6 0.576298 0.826874 0.155212
Si Si7 0.942098 0.465710 0.308078
Si Si8 0.360879 0.791069 0.138248
O O1 0.206684 0.194067 0.186278
O O2 0.273525 0.156488 0.982051
O O3 0.020530 0.723869 0.346503
O O4 0.057868 0.559205 0.505036
O O5 0.111385 0.641754 0.275290
O O6 0.093945 0.741551 0.540929
O O7 0.436799 0.212385 0.275255
O O8 0.506358 0.073555 0.229952
O O9 0.458082 0.145917 0.993063
O O10 0.307671 0.496691 0.301337
O O11 0.397658 0.588264 0.294014
O O12 0.323645 0.702324 0.217888
O O13 0.330385 0.633967 0.517286
O O14 0.365382 0.166228 0.889502
O O15 0.563005 0.909242 0.293614
#
# Coordination Sequence:
#
# PCOD8227856 Si02
#       8
#     4   8   8   8   8   8   8   8
#     4  10  22  46  78  80 112 146 186 258 330 384
#     4  10  16  30  51  72 112 165 214 213 272 317
#     4  12  19  35  50  74 121 165 192 240 276 321
#     4   9  18  33  60  90 123 152 205 236 281 360
#     4  10  22  44  65  94 107 147 200 253 318 363
#     4  11  24  35  55  82 119 146 203 253 279 341
#     4  10  20  35  49  77 115 169 205 239 273 328
#     4   9  15  30  55  84 119 163 187 240 271 334
#
# _framework density 20.897475
#
# number of rings (size 3 to 8) (size 9 to 14) (size 15 to 20)
#    0.000    1.867    5.333    1.200    0.000    0.533 
#    0.000   12.000    0.000    2.400    0.000    0.000 
#    0.000    0.000    0.000    0.000    0.000    0.000 
#
# Total GULP energy -743715.540246 kJ/mol
# GULP energy per Si atom -12395.259004 kJ/mol
# Density = 2.084991 g / cm^3
# Si number density = 20.897475 Si / 1000 Ang^3
#
#
#
# Elastic Constant Matrix: (Units=GPa)
#
#
# Indices 1 2 3 4 5 6 
#
# 1 45.3037 29.6709 10.9176 0.0000 0.0000 0.0000
# 2 29.6709 55.1451 16.6764 0.0000 0.0000 0.0000
# 3 10.9176 16.6764 87.7232 0.0000 0.0000 0.0000
# 4 0.0000 0.0000 0.0000 29.0802 0.0000 0.0000
# 5 0.0000 0.0000 0.0000 0.0000 14.6040 0.0000
# 6 0.0000 0.0000 0.0000 0.0000 0.0000 29.1809
#
#
#
# Elastic Compliance Matrix: (Units=1/GPa)
#
#
# Indices 1 2 3 4 5 6 
#
# 1 0.034137 -0.018125 -0.000803 0.000000 0.000000 0.000000
# 2 -0.018125 0.028863 -0.003231 0.000000 0.000000 0.000000
# 3 -0.000803 -0.003231 0.012114 0.000000 0.000000 0.000000
# 4 0.000000 0.000000 0.000000 0.034388 0.000000 0.000000
# 5 0.000000 0.000000 0.000000 0.000000 0.068474 0.000000
# 6 0.000000 0.000000 0.000000 0.000000 0.000000 0.034269
#
#
# Mechanical properties :
#
#
# Convention : Reuss Voigt Hill
#
# Bulk Modulus (GPa) = 32.47160 33.63353 33.05257
# Shear Modulus (GPa) = 18.73862 23.30017 21.01939
#
# Velocity S-wave (km/s) = 2.99773 3.34275 3.17493
# Velocity P-wave (km/s) = 5.24920 5.57029 5.41213
#
# Compressibility (1/GPa) = 0.03079614
#
# Stress axis : x y z
#
# Youngs Moduli (GPa) = 29.29344 34.64616 82.55118
#
# Poissons Ratio (x) = 0.62796 0.06629
# Poissons Ratio (y) = 0.53094 0.26674
# Poissons Ratio (z) = 0.02352 0.11195
#
# Static dielectric constant tensor:
#      x y z
#    x 3.468930 0.000000 0.000000 
#    y 0.000000 3.890480 0.000000 
#    z 0.000000 0.000000 4.034230 
# 
# 
# High freq. dielectric constant tensor:
#      x y z
#    x 1.783610 0.000000 0.000000 
#    y 0.000000 1.807210 0.000000 
#    z 0.000000 0.000000 1.829270 
# 
# From -- ./inp_files/5198.got.cif
#   From: 2010.03.12/outbox.cif.g09.slc.cpg/sg56_3_cif.got.tgz:5198.got - 2010.04.16 15:33:40.
