data_PCOD8227383
_publ_section_title
;
Structure prediction by ZEFSAII (Michael W. Deem and Ramdas Pophale) SiO2 
 PCOD8227383
Probable space group: P B A M
;
_chemical_formula_sum "Si O2"
_cell_formula_units_Z 48
_cell_length_a 5.176302
_cell_length_b 16.068101
_cell_length_c 26.453016
_cell_angle_alpha 90.000000
_cell_angle_beta 90.000000
_cell_angle_gamma 90.000000
_cell_volume 2200.185782
_symmetry_space_group_name_H-M "P B A M"
_symmetry_group_IT_number 55
_symmetry_cell_setting 'orthorhombic'
loop_
_space_group_symop_operation_xyz
x,y,z
-x,-y,z
1/2+x,1/2-y,-z
1/2-x,1/2+y,-z
-x,-y,-z
x,y,-z
1/2-x,1/2+y,z
1/2+x,1/2-y,z
loop_
_atom_site_type_symbol
_atom_site_label
_atom_site_fract_x
_atom_site_fract_y
_atom_site_fract_z
Si Si1 0.270934 0.693075 0.000000
Si Si2 0.155698 0.922415 0.255979
Si Si3 0.865871 0.693567 0.662446
Si Si4 0.282162 0.802812 0.446127
Si Si5 0.958546 0.197167 0.177797
Si Si6 0.000000 0.500000 0.829020
Si Si7 0.141799 0.084635 0.904508
O O1 0.241826 0.632892 0.047926
O O2 0.546218 0.738720 0.000000
O O3 0.339774 0.882325 0.298348
O O4 0.974158 0.852904 0.230045
O O5 0.304355 0.952104 0.206485
O O6 0.000000 0.000000 0.280322
O O7 0.644081 0.763570 0.669613
O O8 0.838547 0.649603 0.606677
O O9 0.325190 0.852406 0.500000
O O10 0.484915 0.726312 0.445493
O O11 0.669695 0.231482 0.178388
O O12 0.948908 0.143840 0.126213
O O13 0.868901 0.432436 0.864937
O O14 0.000000 0.000000 0.922295
#
# Coordination Sequence:
#
# PCOD8227383 Si02
#       7
#     4   8   8   8   8   4   8
#     4  12  31  53  76 110 138 168 212 270 327 374
#     4  12  25  41  61  93 130 177 219 264 317 395
#     4  10  22  38  59  92 127 166 216 273 328 376
#     4   8  14  28  52  82 117 157 207 266 324 380
#     4  12  24  41  66  95 128 166 209 265 317 368
#     4  12  24  45  72  94 133 174 230 248 320 382
#     4  12  26  48  74 103 134 175 215 260 319 395
#
# _framework density 21.816337999999998
#
# number of rings (size 3 to 8) (size 9 to 14) (size 15 to 20)
#    0.000    1.000    3.333    3.250    4.667    0.333 
#    0.000    0.000    0.000    0.500    0.000    0.583 
#    0.000    0.000    0.000    0.000    0.000    0.000 
#
# Total GULP energy -594774.191318 kJ/mol
# GULP energy per Si atom -12391.128986 kJ/mol
# Density = 2.176668 g / cm^3
# Si number density = 21.816338 Si / 1000 Ang^3
#
#
#
# Elastic Constant Matrix: (Units=GPa)
#
#
# Indices 1 2 3 4 5 6 
#
# 1 74.9755 8.4182 -2.3345 0.0000 0.0000 0.0000
# 2 8.4182 73.1142 26.6441 0.0000 0.0000 0.0000
# 3 -2.3345 26.6441 128.6885 0.0000 0.0000 0.0000
# 4 0.0000 0.0000 0.0000 -33.9684 0.0000 0.0000
# 5 0.0000 0.0000 0.0000 0.0000 235.3559 0.0000
# 6 0.0000 0.0000 0.0000 0.0000 0.0000 12.0760
#
#
#
# Elastic Compliance Matrix: (Units=1/GPa)
#
#
# Indices 1 2 3 4 5 6 
#
# 1 0.013557 -0.001785 0.000616 0.000000 0.000000 0.000000
# 2 -0.001785 0.015028 -0.003144 0.000000 0.000000 0.000000
# 3 0.000616 -0.003144 0.008433 0.000000 0.000000 0.000000
# 4 0.000000 0.000000 0.000000 -0.029439 0.000000 0.000000
# 5 0.000000 0.000000 0.000000 0.000000 0.004249 0.000000
# 6 0.000000 0.000000 0.000000 0.000000 0.000000 0.082809
#
#
# Mechanical properties :
#
#
# Convention : Reuss Voigt Hill
#
# Bulk Modulus (GPa) = 35.22206 38.02599 36.62402
# Shear Modulus (GPa) = 44.35435 58.96271 51.65853
#
# Velocity S-wave (km/s) = 4.51386 5.20438 4.87137
# Velocity P-wave (km/s) = 6.58380 7.31997 6.96162
#
# Compressibility (1/GPa) = 0.02839130
#
# Stress axis : x y z
#
# Youngs Moduli (GPa) = 73.76094 66.54028 118.58457
#
# Poissons Ratio (x) = 0.11879 -0.07300
# Poissons Ratio (y) = 0.13168 0.37282
# Poissons Ratio (z) = -0.04540 0.20920
#
# Static dielectric constant tensor:
#      x y z
#    x 4.006380 0.000000 0.000000 
#    y 0.000000 4.370590 0.000000 
#    z 0.000000 0.000000 4.467680 
# 
# 
# High freq. dielectric constant tensor:
#      x y z
#    x 1.866770 0.000000 0.000000 
#    y 0.000000 1.825040 0.000000 
#    z 0.000000 0.000000 1.877050 
# 
# From -- ./inp_files/23822.got.cif
#   From: 2010.03.12/outbox.cif.g09.slc.cpg/sg55_12_cif.got.tgz:23822.got - 2010.04.16 15:19:21.
