data_PCOD8227738
_publ_section_title
;
Structure prediction by ZEFSAII (Michael W. Deem and Ramdas Pophale) SiO2 
 PCOD8227738
Probable space group: P B A M
;
_chemical_formula_sum "Si O2"
_cell_formula_units_Z 56
_cell_length_a 13.543757
_cell_length_b 22.831727
_cell_length_c 9.523906
_cell_angle_alpha 90.000000
_cell_angle_beta 90.000000
_cell_angle_gamma 90.000000
_cell_volume 2945.052332
_symmetry_space_group_name_H-M "P B A M"
_symmetry_group_IT_number 55
_symmetry_cell_setting 'orthorhombic'
loop_
_space_group_symop_operation_xyz
x,y,z
-x,-y,z
1/2+x,1/2-y,-z
1/2-x,1/2+y,-z
-x,-y,-z
x,y,-z
1/2-x,1/2+y,z
1/2+x,1/2-y,z
loop_
_atom_site_type_symbol
_atom_site_label
_atom_site_fract_x
_atom_site_fract_y
_atom_site_fract_z
Si Si1 0.701753 0.465208 0.161682
Si Si2 0.793474 0.239562 0.663737
Si Si3 0.183428 0.374805 0.654873
Si Si4 0.387552 0.442674 0.654963
Si Si5 0.183541 0.169964 0.166268
Si Si6 0.401801 0.968504 0.163379
Si Si7 0.492806 0.327521 0.335539
O O1 0.616584 0.500555 0.245220
O O2 0.700302 0.397667 0.204029
O O3 0.810071 0.489491 0.198541
O O4 0.676397 0.474639 0.000000
O O5 0.784556 0.256856 0.500000
O O6 0.711048 0.190738 0.702796
O O7 0.774282 0.294916 0.764092
O O8 0.902598 0.215979 0.696751
O O9 0.134952 0.373481 0.500000
O O10 0.282638 0.411800 0.649801
O O11 0.107398 0.405471 0.761107
O O12 0.416600 0.464862 0.500000
O O13 0.465722 0.394274 0.708254
O O14 0.083227 0.192658 0.238853
O O15 0.179930 0.181229 0.000000
O O16 0.500000 0.000000 0.219747
O O17 0.410264 0.954535 0.000000
O O18 0.521012 0.324591 0.500000
#
# Coordination Sequence:
#
# PCOD8227738 Si02
#       7
#     8   8   8   8   8   8   8
#     4   9  19  34  49  72 109 144 171 213 269 319
#     4   9  19  38  59  76 102 139 180 228 273 318
#     4   8  15  30  52  75  98 126 166 218 265 306
#     4   8  15  30  54  79 100 129 169 213 261 314
#     4  11  23  36  52  78 113 147 179 222 272 324
#     4   9  17  31  51  74 103 140 177 213 260 319
#     4   9  19  37  59  80 104 138 181 227 273 323
#
# _framework density 19.014942999999999
#
# number of rings (size 3 to 8) (size 9 to 14) (size 15 to 20)
#    0.000    3.000    0.000    2.143    0.000    3.714 
#    2.571    5.714    0.000    0.000    0.000    0.000 
#    0.000    0.000    0.000    0.000    0.000    0.000 
#
# Total GULP energy -694254.627322 kJ/mol
# GULP energy per Si atom -12397.404059 kJ/mol
# Density = 1.897166 g / cm^3
# Si number density = 19.014943 Si / 1000 Ang^3
#
#
#
# Elastic Constant Matrix: (Units=GPa)
#
#
# Indices 1 2 3 4 5 6 
#
# 1 53.5222 23.0373 31.4267 0.0000 0.0000 0.0000
# 2 23.0373 98.5121 52.0634 0.0000 0.0000 0.0000
# 3 31.4267 52.0634 75.4129 0.0000 0.0000 0.0000
# 4 0.0000 0.0000 0.0000 32.6597 0.0000 0.0000
# 5 0.0000 0.0000 0.0000 0.0000 21.9731 0.0000
# 6 0.0000 0.0000 0.0000 0.0000 0.0000 26.5540
#
#
#
# Elastic Compliance Matrix: (Units=1/GPa)
#
#
# Indices 1 2 3 4 5 6 
#
# 1 0.024754 -0.000531 -0.009950 0.000000 0.000000 0.000000
# 2 -0.000531 0.015994 -0.010821 0.000000 0.000000 0.000000
# 3 -0.009950 -0.010821 0.024877 0.000000 0.000000 0.000000
# 4 0.000000 0.000000 0.000000 0.030619 0.000000 0.000000
# 5 0.000000 0.000000 0.000000 0.000000 0.045510 0.000000
# 6 0.000000 0.000000 0.000000 0.000000 0.000000 0.037659
#
#
# Mechanical properties :
#
#
# Convention : Reuss Voigt Hill
#
# Bulk Modulus (GPa) = 43.43388 48.94467 46.18928
# Shear Modulus (GPa) = 21.76854 24.29866 23.03360
#
# Velocity S-wave (km/s) = 3.38718 3.57861 3.48421
# Velocity P-wave (km/s) = 6.17971 6.54762 6.36632
#
# Compressibility (1/GPa) = 0.02302350
#
# Stress axis : x y z
#
# Youngs Moduli (GPa) = 40.39708 62.52417 40.19785
#
# Poissons Ratio (x) = 0.03317 0.39995
# Poissons Ratio (y) = 0.02143 0.43497
# Poissons Ratio (z) = 0.40193 0.67655
#
# Static dielectric constant tensor:
#      x y z
#    x 3.336710 0.000000 0.000000 
#    y 0.000000 3.560910 0.000000 
#    z 0.000000 0.000000 3.527130 
# 
# 
# High freq. dielectric constant tensor:
#      x y z
#    x 1.726050 0.000000 0.000000 
#    y 0.000000 1.737370 0.000000 
#    z 0.000000 0.000000 1.732050 
# 
# From -- ./inp_files/5989.got.cif
#   From: 2010.03.12/outbox.cif.g09.slc.cpg/sg55_3_cif.got.tgz:5989.got - 2010.04.16 15:19:21.
