data_PCOD8227833
_publ_section_title
;
Structure prediction by ZEFSAII (Michael W. Deem and Ramdas Pophale) SiO2 
 PCOD8227833
Probable space group: P B A M
;
_chemical_formula_sum "Si O2"
_cell_formula_units_Z 48
_cell_length_a 15.387260
_cell_length_b 8.898237
_cell_length_c 17.107912
_cell_angle_alpha 90.000000
_cell_angle_beta 90.000000
_cell_angle_gamma 90.000000
_cell_volume 2342.406522
_symmetry_space_group_name_H-M "P B A M"
_symmetry_group_IT_number 55
_symmetry_cell_setting 'orthorhombic'
loop_
_space_group_symop_operation_xyz
x,y,z
-x,-y,z
1/2+x,1/2-y,-z
1/2-x,1/2+y,-z
-x,-y,-z
x,y,-z
1/2-x,1/2+y,z
1/2+x,1/2-y,z
loop_
_atom_site_type_symbol
_atom_site_label
_atom_site_fract_x
_atom_site_fract_y
_atom_site_fract_z
Si Si1 0.868698 0.697481 0.153152
Si Si2 0.782445 0.007183 0.150532
Si Si3 0.191006 0.925341 0.320798
Si Si4 0.039830 0.233257 0.000000
Si Si5 0.367489 0.755703 0.673271
Si Si6 0.370478 0.412301 0.000000
Si Si7 0.031249 0.829826 0.588817
O O1 0.820598 0.536891 0.156669
O O2 0.908100 0.733099 0.238716
O O3 0.798962 0.831284 0.138239
O O4 0.935285 0.684843 0.081183
O O5 0.827118 0.078043 0.227775
O O6 0.813477 0.103911 0.076937
O O7 0.290533 0.877002 0.341140
O O8 0.120759 0.814544 0.361790
O O9 0.177870 0.097014 0.347558
O O10 0.936346 0.226743 0.000000
O O11 0.079332 0.068690 0.000000
O O12 0.452900 0.778282 0.619196
O O13 0.051938 0.784810 0.500000
O O14 0.000000 0.000000 0.596929
#
# Coordination Sequence:
#
# PCOD8227833 Si02
#       7
#     8   8   8   4   8   4   8
#     4   9  17  29  46  66  89 119 152 188 228 270
#     4   9  17  29  46  66  89 119 152 188 228 270
#     4   9  18  32  51  73  97 126 160 197 237 282
#     4   9  17  26  41  67  92 115 150 192 226 261
#     4   9  18  32  51  73  97 126 160 197 237 282
#     4   9  17  26  41  67  92 115 150 192 226 261
#     4   9  18  32  51  74  98 126 159 195 237 287
#
# _framework density 20.491745000000002
#
# number of rings (size 3 to 8) (size 9 to 14) (size 15 to 20)
#    0.000    3.000    0.000    0.500    2.333    0.667 
#    0.000    0.833    0.000    3.000    0.000    0.000 
#    0.000    0.000    0.000    0.000    0.000    0.000 
#
# Total GULP energy -594633.012813 kJ/mol
# GULP energy per Si atom -12388.187767 kJ/mol
# Density = 2.044511 g / cm^3
# Si number density = 20.491745 Si / 1000 Ang^3
#
#
#
# Elastic Constant Matrix: (Units=GPa)
#
#
# Indices 1 2 3 4 5 6 
#
# 1 39.1208 -6.0414 19.2328 0.0000 0.0000 0.0000
# 2 -6.0414 16.6012 0.3027 0.0000 0.0000 0.0000
# 3 19.2328 0.3027 101.9781 0.0000 0.0000 0.0000
# 4 0.0000 0.0000 0.0000 14.2436 0.0000 0.0000
# 5 0.0000 0.0000 0.0000 0.0000 33.6438 0.0000
# 6 0.0000 0.0000 0.0000 0.0000 0.0000 20.8939
#
#
#
# Elastic Compliance Matrix: (Units=1/GPa)
#
#
# Indices 1 2 3 4 5 6 
#
# 1 0.030072 0.011048 -0.005704 0.000000 0.000000 0.000000
# 2 0.011048 0.064298 -0.002274 0.000000 0.000000 0.000000
# 3 -0.005704 -0.002274 0.010889 0.000000 0.000000 0.000000
# 4 0.000000 0.000000 0.000000 0.070207 0.000000 0.000000
# 5 0.000000 0.000000 0.000000 0.000000 0.029723 0.000000
# 6 0.000000 0.000000 0.000000 0.000000 0.000000 0.047861
#
#
# Mechanical properties :
#
#
# Convention : Reuss Voigt Hill
#
# Bulk Modulus (GPa) = 8.97691 20.52092 14.74892
# Shear Modulus (GPa) = 17.60286 23.37000 20.48643
#
# Velocity S-wave (km/s) = 2.93409 3.38073 3.16530
# Velocity P-wave (km/s) = 3.98356 5.02744 4.53563
#
# Compressibility (1/GPa) = 0.11139692
#
# Stress axis : x y z
#
# Youngs Moduli (GPa) = 33.25322 15.55252 91.83918
#
# Poissons Ratio (x) = -0.17182 0.52388
# Poissons Ratio (y) = -0.36737 0.20888
# Poissons Ratio (z) = 0.18969 0.03537
#
# Static dielectric constant tensor:
#      x y z
#    x 3.624120 0.000000 0.000000 
#    y 0.000000 3.329630 0.000000 
#    z 0.000000 0.000000 3.902020 
# 
# 
# High freq. dielectric constant tensor:
#      x y z
#    x 1.783870 0.000000 0.000000 
#    y 0.000000 1.763680 0.000000 
#    z 0.000000 0.000000 1.806570 
# 
# From -- ./inp_files/19377.got.cif
#   From: 2010.03.12/outbox.cif.g09.slc.cpg/sg55_10_cif.got.tgz:19377.got - 2010.04.16 15:19:21.
