data_PCOD8227271
_publ_section_title
;
Structure prediction by ZEFSAII (Michael W. Deem and Ramdas Pophale) SiO2 
 PCOD8227271
Probable space group: P B A M
;
_chemical_formula_sum "Si O2"
_cell_formula_units_Z 48
_cell_length_a 19.769413
_cell_length_b 9.229215
_cell_length_c 12.804848
_cell_angle_alpha 90.000000
_cell_angle_beta 90.000000
_cell_angle_gamma 90.000000
_cell_volume 2336.323434
_symmetry_space_group_name_H-M "P B A M"
_symmetry_group_IT_number 55
_symmetry_cell_setting 'orthorhombic'
loop_
_space_group_symop_operation_xyz
x,y,z
-x,-y,z
1/2+x,1/2-y,-z
1/2-x,1/2+y,-z
-x,-y,-z
x,y,-z
1/2-x,1/2+y,z
1/2+x,1/2-y,z
loop_
_atom_site_type_symbol
_atom_site_label
_atom_site_fract_x
_atom_site_fract_y
_atom_site_fract_z
Si Si1 0.796242 0.446307 0.618538
Si Si2 0.937341 0.598272 0.382511
Si Si3 0.610717 0.302704 0.792964
Si Si4 0.257862 0.308538 0.752734
Si Si5 0.883288 0.118375 0.875770
Si Si6 0.006225 0.656970 0.116282
O O1 0.768618 0.458212 0.500000
O O2 0.873180 0.494407 0.625234
O O3 0.751145 0.536122 0.699674
O O4 0.789093 0.283272 0.657917
O O5 0.948139 0.655718 0.500000
O O6 0.926486 0.742192 0.312078
O O7 0.000000 0.500000 0.345690
O O8 0.688385 0.254953 0.798698
O O9 0.604011 0.474801 0.806844
O O10 0.567989 0.229556 0.886163
O O11 0.308877 0.319750 0.850305
O O12 0.938118 0.235119 0.833807
O O13 0.889466 0.086958 0.000000
O O14 0.000000 0.500000 0.174192
O O15 0.032252 0.627845 0.000000
#
# Coordination Sequence:
#
# PCOD8227271 Si02
#       6
#     8   8   8   8   8   8
#     4  10  21  40  64  89 125 161 200 255 309 378
#     4   9  20  38  64  98 128 159 203 261 320 374
#     4  11  22  39  64  90 124 166 206 256 315 378
#     4  11  23  40  60  97 121 163 211 251 316 370
#     4  11  25  43  61  89 131 168 211 266 314 371
#     4  10  23  41  65  91 116 160 212 258 313 374
#
# _framework density 20.545100000000001
#
# number of rings (size 3 to 8) (size 9 to 14) (size 15 to 20)
#    0.000    1.667    1.667    2.000    7.000    3.333 
#    0.000    0.000    0.000    2.000    0.000    0.000 
#    0.000    0.000    0.000    0.000    0.000    0.000 
#
# Total GULP energy -594954.171324 kJ/mol
# GULP energy per Si atom -12394.878569 kJ/mol
# Density = 2.049834 g / cm^3
# Si number density = 20.545100 Si / 1000 Ang^3
#
#
#
# Elastic Constant Matrix: (Units=GPa)
#
#
# Indices 1 2 3 4 5 6 
#
# 1 119.6764 68.0506 52.1920 0.0000 0.0000 0.0000
# 2 68.0506 137.8070 36.2514 0.0000 0.0000 0.0000
# 3 52.1920 36.2514 82.7209 0.0000 0.0000 0.0000
# 4 0.0000 0.0000 0.0000 126.2722 0.0000 0.0000
# 5 0.0000 0.0000 0.0000 0.0000 37.2582 0.0000
# 6 0.0000 0.0000 0.0000 0.0000 0.0000 26.5714
#
#
#
# Elastic Compliance Matrix: (Units=1/GPa)
#
#
# Indices 1 2 3 4 5 6 
#
# 1 0.014285 -0.005293 -0.006693 0.000000 0.000000 0.000000
# 2 -0.005293 0.010164 -0.001114 0.000000 0.000000 0.000000
# 3 -0.006693 -0.001114 0.016800 0.000000 0.000000 0.000000
# 4 0.000000 0.000000 0.000000 0.007919 0.000000 0.000000
# 5 0.000000 0.000000 0.000000 0.000000 0.026840 0.000000
# 6 0.000000 0.000000 0.000000 0.000000 0.000000 0.037634
#
#
# Mechanical properties :
#
#
# Convention : Reuss Voigt Hill
#
# Bulk Modulus (GPa) = 66.45833 72.57691 69.51762
# Shear Modulus (GPa) = 34.51642 50.26772 42.39207
#
# Velocity S-wave (km/s) = 4.10327 4.95178 4.54736
# Velocity P-wave (km/s) = 7.40721 8.25202 7.84100
#
# Compressibility (1/GPa) = 0.01504702
#
# Stress axis : x y z
#
# Youngs Moduli (GPa) = 70.00541 98.39125 59.52351
#
# Poissons Ratio (x) = 0.52081 0.39839
# Poissons Ratio (y) = 0.37055 0.06633
# Poissons Ratio (z) = 0.46855 0.10964
#
# Static dielectric constant tensor:
#      x y z
#    x 3.799090 0.000000 0.000000 
#    y 0.000000 3.835690 0.000000 
#    z 0.000000 0.000000 3.701710 
# 
# 
# High freq. dielectric constant tensor:
#      x y z
#    x 1.809800 0.000000 0.000000 
#    y 0.000000 1.805930 0.000000 
#    z 0.000000 0.000000 1.800940 
# 
# From -- ./inp_files/17361.got.cif
#   From: 2010.03.12/outbox.cif.g09.slc.cpg/sg55_9_cif.got.tgz:17361.got - 2010.04.16 15:19:21.
