data_PCOD8227277
_publ_section_title
;
Structure prediction by ZEFSAII (Michael W. Deem and Ramdas Pophale) SiO2 
 PCOD8227277
Probable space group: P B A M
;
_chemical_formula_sum "Si O2"
_cell_formula_units_Z 64
_cell_length_a 23.823072
_cell_length_b 15.366656
_cell_length_c 8.443727
_cell_angle_alpha 90.000000
_cell_angle_beta 90.000000
_cell_angle_gamma 90.000000
_cell_volume 3091.087621
_symmetry_space_group_name_H-M "P B A M"
_symmetry_group_IT_number 55
_symmetry_cell_setting 'orthorhombic'
loop_
_space_group_symop_operation_xyz
x,y,z
-x,-y,z
1/2+x,1/2-y,-z
1/2-x,1/2+y,-z
-x,-y,-z
x,y,-z
1/2-x,1/2+y,z
1/2+x,1/2-y,z
loop_
_atom_site_type_symbol
_atom_site_label
_atom_site_fract_x
_atom_site_fract_y
_atom_site_fract_z
Si Si1 0.248012 0.836486 0.181665
Si Si2 0.630555 0.583900 0.814937
Si Si3 0.859788 0.596798 0.682463
Si Si4 0.135073 0.584162 0.815522
Si Si5 0.871330 0.900030 0.315875
Si Si6 0.062557 0.256940 0.815241
Si Si7 0.565249 0.752157 0.187818
Si Si8 0.752907 0.349883 0.317322
O O1 0.195961 0.898934 0.220060
O O2 0.304668 0.889524 0.211496
O O3 0.245327 0.753398 0.294490
O O4 0.245592 0.804488 0.000000
O O5 0.611043 0.498739 0.720351
O O6 0.594260 0.664431 0.747536
O O7 0.619297 0.568743 0.000000
O O8 0.842409 0.601793 0.500000
O O9 0.884872 0.502476 0.724729
O O10 0.905848 0.669619 0.716525
O O11 0.098609 0.664103 0.745908
O O12 0.200730 0.602327 0.788085
O O13 0.123520 0.570601 0.000000
O O14 0.879193 0.878356 0.500000
O O15 0.910866 0.837151 0.214700
O O16 0.807353 0.885083 0.261579
O O17 0.998666 0.255709 0.754489
O O18 0.066250 0.279831 0.000000
O O19 0.570152 0.751712 0.000000
O O20 0.764345 0.372193 0.500000
#
# Coordination Sequence:
#
# PCOD8227277 Si02
#       8
#     8   8   8   8   8   8   8   8
#     4  11  21  37  65  94 122 160 206 248 299 366
#     4  10  21  40  64  92 122 157 202 253 300 356
#     4  12  25  41  60  91 131 161 198 252 312 370
#     4  11  22  41  66  92 123 160 208 254 300 366
#     4  11  24  40  59  90 128 163 198 247 305 364
#     4  11  23  42  67  88 114 160 212 257 306 361
#     4   9  21  42  65  90 118 154 208 266 304 347
#     4  11  22  37  60  91 130 165 196 245 310 364
#
# _framework density 20.704687
#
# number of rings (size 3 to 8) (size 9 to 14) (size 15 to 20)
#    0.000    1.250    2.500    3.750    0.000    5.500 
#    0.000    8.750    0.000    0.000    0.000    0.000 
#    0.000    0.000    0.000    0.000    0.000    0.000 
#
# Total GULP energy -794042.010824 kJ/mol
# GULP energy per Si atom -12406.906419 kJ/mol
# Density = 2.065756 g / cm^3
# Si number density = 20.704687 Si / 1000 Ang^3
#
#
#
# Elastic Constant Matrix: (Units=GPa)
#
#
# Indices 1 2 3 4 5 6 
#
# 1 128.3687 46.7822 19.8848 0.0000 0.0000 0.0000
# 2 46.7822 144.0176 14.0026 0.0000 0.0000 0.0000
# 3 19.8848 14.0026 46.7148 0.0000 0.0000 0.0000
# 4 0.0000 0.0000 0.0000 28.9647 0.0000 0.0000
# 5 0.0000 0.0000 0.0000 0.0000 11.4741 0.0000
# 6 0.0000 0.0000 0.0000 0.0000 0.0000 9.5622
#
#
#
# Elastic Compliance Matrix: (Units=1/GPa)
#
#
# Indices 1 2 3 4 5 6 
#
# 1 0.009260 -0.002704 -0.003131 0.000000 0.000000 0.000000
# 2 -0.002704 0.007941 -0.001230 0.000000 0.000000 0.000000
# 3 -0.003131 -0.001230 0.023108 0.000000 0.000000 0.000000
# 4 0.000000 0.000000 0.000000 0.034525 0.000000 0.000000
# 5 0.000000 0.000000 0.000000 0.000000 0.087153 0.000000
# 6 0.000000 0.000000 0.000000 0.000000 0.000000 0.104579
#
#
# Mechanical properties :
#
#
# Convention : Reuss Voigt Hill
#
# Bulk Modulus (GPa) = 38.19629 53.38224 45.78927
# Shear Modulus (GPa) = 17.27580 25.89562 21.58571
#
# Velocity S-wave (km/s) = 2.89172 3.54038 3.23236
# Velocity P-wave (km/s) = 5.44404 6.52312 6.00785
#
# Compressibility (1/GPa) = 0.02618055
#
# Stress axis : x y z
#
# Youngs Moduli (GPa) = 107.98620 125.92249 43.27506
#
# Poissons Ratio (x) = 0.34045 0.13551
# Poissons Ratio (y) = 0.29196 0.05321
# Poissons Ratio (z) = 0.33815 0.15483
#
# Static dielectric constant tensor:
#      x y z
#    x 3.781620 0.000000 0.000000 
#    y 0.000000 3.855770 0.000000 
#    z 0.000000 0.000000 3.527410 
# 
# 
# High freq. dielectric constant tensor:
#      x y z
#    x 1.805080 0.000000 0.000000 
#    y 0.000000 1.823950 0.000000 
#    z 0.000000 0.000000 1.798720 
# 
# From -- ./inp_files/6646.got.cif
#   From: 2010.03.12/outbox.cif.g09.slc.cpg/sg55_4_cif.got.tgz:6646.got - 2010.04.16 15:19:21.
