data_PCOD8227521
_publ_section_title
;
Structure prediction by ZEFSAII (Michael W. Deem and Ramdas Pophale) SiO2 
 PCOD8227521
Probable space group: P B A M
;
_chemical_formula_sum "Si O2"
_cell_formula_units_Z 64
_cell_length_a 15.145691
_cell_length_b 11.122310
_cell_length_c 18.214929
_cell_angle_alpha 90.000000
_cell_angle_beta 90.000000
_cell_angle_gamma 90.000000
_cell_volume 3068.397148
_symmetry_space_group_name_H-M "P B A M"
_symmetry_group_IT_number 55
_symmetry_cell_setting 'orthorhombic'
loop_
_space_group_symop_operation_xyz
x,y,z
-x,-y,z
1/2+x,1/2-y,-z
1/2-x,1/2+y,-z
-x,-y,-z
x,y,-z
1/2-x,1/2+y,z
1/2+x,1/2-y,z
loop_
_atom_site_type_symbol
_atom_site_label
_atom_site_fract_x
_atom_site_fract_y
_atom_site_fract_z
Si Si1 0.387024 0.373269 0.582097
Si Si2 0.309633 0.884518 0.082722
Si Si3 0.637255 0.225855 0.277768
Si Si4 0.120556 0.900464 0.137128
Si Si5 0.904565 0.858312 0.418873
Si Si6 0.664436 0.739169 0.270423
Si Si7 0.929229 0.829331 0.137357
Si Si8 0.899993 0.486141 0.790736
O O1 0.355176 0.334965 0.500000
O O2 0.360655 0.511880 0.597688
O O3 0.491222 0.365058 0.586939
O O4 0.344178 0.286179 0.642702
O O5 0.206578 0.849436 0.095026
O O6 0.372558 0.769169 0.093955
O O7 0.337176 0.990930 0.138742
O O8 0.321949 0.931197 0.000000
O O9 0.628910 0.259889 0.362209
O O10 0.734207 0.259652 0.249291
O O11 0.570188 0.297710 0.224484
O O12 0.621318 0.083295 0.272432
O O13 0.128877 0.874784 0.224386
O O14 0.030995 0.833696 0.109176
O O15 0.114967 0.042086 0.123805
O O16 0.876321 0.815242 0.500000
O O17 0.611739 0.856845 0.245526
O O18 0.000000 0.500000 0.818606
#
# Coordination Sequence:
#
# PCOD8227521 Si02
#       8
#     8   8   8   8   8   8   8   8
#     4   9  19  35  59  90 120 161 211 262 316 370
#     4  11  25  44  65  94 129 164 206 260 322 382
#     4  11  22  36  60  90 123 165 212 258 311 370
#     4  11  22  41  68  96 122 164 210 265 312 372
#     4   9  18  35  58  86 122 161 209 262 317 373
#     4  12  22  36  65  88 128 164 210 262 310 370
#     4  10  22  42  67  93 124 159 216 260 315 375
#     4  11  24  43  62  92 127 166 213 255 309 385
#
# _framework density 20.857793999999998
#
# number of rings (size 3 to 8) (size 9 to 14) (size 15 to 20)
#    0.000    1.500    2.500    5.250    1.750    3.750 
#    0.000    1.875    0.000    2.250    0.000    0.000 
#    0.000    0.000    0.000    0.000    0.000    0.000 
#
# Total GULP energy -793493.432425 kJ/mol
# GULP energy per Si atom -12398.334882 kJ/mol
# Density = 2.081032 g / cm^3
# Si number density = 20.857794 Si / 1000 Ang^3
#
#
#
# Elastic Constant Matrix: (Units=GPa)
#
#
# Indices 1 2 3 4 5 6 
#
# 1 104.7326 25.1193 35.5490 0.0000 0.0000 0.0000
# 2 25.1193 72.8103 60.6910 0.0000 0.0000 0.0000
# 3 35.5490 60.6910 132.5964 0.0000 0.0000 0.0000
# 4 0.0000 0.0000 0.0000 24.8499 0.0000 0.0000
# 5 0.0000 0.0000 0.0000 0.0000 17.9787 0.0000
# 6 0.0000 0.0000 0.0000 0.0000 0.0000 27.1695
#
#
#
# Elastic Compliance Matrix: (Units=1/GPa)
#
#
# Indices 1 2 3 4 5 6 
#
# 1 0.010699 -0.002102 -0.001906 0.000000 0.000000 0.000000
# 2 -0.002102 0.022620 -0.009790 0.000000 0.000000 0.000000
# 3 -0.001906 -0.009790 0.012534 0.000000 0.000000 0.000000
# 4 0.000000 0.000000 0.000000 0.040242 0.000000 0.000000
# 5 0.000000 0.000000 0.000000 0.000000 0.055621 0.000000
# 6 0.000000 0.000000 0.000000 0.000000 0.000000 0.036806
#
#
# Mechanical properties :
#
#
# Convention : Reuss Voigt Hill
#
# Bulk Modulus (GPa) = 54.77572 61.42866 58.10219
# Shear Modulus (GPa) = 23.56226 26.58496 25.07361
#
# Velocity S-wave (km/s) = 3.36469 3.57400 3.47092
# Velocity P-wave (km/s) = 6.43532 6.82249 6.63173
#
# Compressibility (1/GPa) = 0.01825626
#
# Stress axis : x y z
#
# Youngs Moduli (GPa) = 93.46346 44.20892 79.78521
#
# Poissons Ratio (x) = 0.09294 0.15209
# Poissons Ratio (y) = 0.19649 0.78108
# Poissons Ratio (z) = 0.17816 0.43280
#
# Static dielectric constant tensor:
#      x y z
#    x 3.870810 0.000000 0.000000 
#    y 0.000000 3.721580 0.000000 
#    z 0.000000 0.000000 3.968520 
# 
# 
# High freq. dielectric constant tensor:
#      x y z
#    x 1.825140 0.000000 0.000000 
#    y 0.000000 1.804480 0.000000 
#    z 0.000000 0.000000 1.806560 
# 
# From -- ./inp_files/21658.got.cif
#   From: 2010.03.12/outbox.cif.g09.slc.cpg/sg55_11_cif.got.tgz:21658.got - 2010.04.16 15:19:21.
