data_PCOD8227819
_publ_section_title
;
Structure prediction by ZEFSAII (Michael W. Deem and Ramdas Pophale) SiO2 
 PCOD8227819
Probable space group: P B A M
;
_chemical_formula_sum "Si O2"
_cell_formula_units_Z 64
_cell_length_a 18.121674
_cell_length_b 22.916392
_cell_length_c 9.414026
_cell_angle_alpha 90.000000
_cell_angle_beta 90.000000
_cell_angle_gamma 90.000000
_cell_volume 3909.488585
_symmetry_space_group_name_H-M "P B A M"
_symmetry_group_IT_number 55
_symmetry_cell_setting 'orthorhombic'
loop_
_space_group_symop_operation_xyz
x,y,z
-x,-y,z
1/2+x,1/2-y,-z
1/2-x,1/2+y,-z
-x,-y,-z
x,y,-z
1/2-x,1/2+y,z
1/2+x,1/2-y,z
loop_
_atom_site_type_symbol
_atom_site_label
_atom_site_fract_x
_atom_site_fract_y
_atom_site_fract_z
Si Si1 0.664413 0.127088 0.164867
Si Si2 0.028757 0.939180 0.830779
Si Si3 0.895035 0.728606 0.341153
Si Si4 0.948428 0.333783 0.659415
Si Si5 0.890287 0.237939 0.841981
Si Si6 0.985214 0.566194 0.834354
Si Si7 0.453401 0.676696 0.157409
Si Si8 0.327081 0.380040 0.832950
O O1 0.658434 0.186073 0.254581
O O2 0.600085 0.081137 0.202369
O O3 0.744090 0.098375 0.202459
O O4 0.660491 0.144944 0.000000
O O5 0.972342 0.888003 0.784542
O O6 0.111365 0.924708 0.770762
O O7 0.031135 0.943270 0.000000
O O8 0.000000 0.000000 0.764345
O O9 0.863960 0.737006 0.500000
O O10 0.975649 0.701006 0.345569
O O11 0.896717 0.791727 0.264425
O O12 0.920870 0.347844 0.500000
O O13 0.887152 0.294202 0.738855
O O14 0.959116 0.393911 0.744857
O O15 0.973045 0.214541 0.852799
O O16 0.839417 0.186242 0.776243
O O17 0.863753 0.256866 0.000000
O O18 0.000000 0.500000 0.789407
O O19 0.001713 0.576886 0.000000
O O20 0.417564 0.673019 0.000000
O O21 0.341515 0.376203 0.000000
#
# Coordination Sequence:
#
# PCOD8227819 Si02
#       8
#     8   8   8   8   8   8   8   8
#     4   9  16  27  43  61  82 107 137 175 215 254
#     4   8  13  22  39  64  89 110 137 174 211 247
#     4   9  16  25  38  58  82 105 131 165 205 247
#     4   9  16  25  39  60  82 103 131 168 207 245
#     4   8  13  23  39  58  80 103 127 159 203 251
#     4   9  17  28  42  60  82 112 148 180 211 247
#     4   8  13  22  38  59  81 105 131 161 200 243
#     4   8  14  24  40  62  84 107 136 172 214 255
#
# _framework density 16.370428
#
# number of rings (size 3 to 8) (size 9 to 14) (size 15 to 20)
#    0.000    3.500    0.000    2.250    0.000    3.250 
#    0.000    0.625    0.000    2.625    0.000    7.000 
#    0.000    0.000    0.000    0.000    0.000    0.000 
#
# Total GULP energy -793052.005690 kJ/mol
# GULP energy per Si atom -12391.437589 kJ/mol
# Density = 1.633317 g / cm^3
# Si number density = 16.370428 Si / 1000 Ang^3
#
#
#
# Elastic Constant Matrix: (Units=GPa)
#
#
# Indices 1 2 3 4 5 6 
#
# 1 62.9275 45.4791 22.9941 0.0000 0.0000 0.0000
# 2 45.4791 129.8223 47.3101 0.0000 0.0000 0.0000
# 3 22.9941 47.3101 64.8164 0.0000 0.0000 0.0000
# 4 0.0000 0.0000 0.0000 7.9726 0.0000 0.0000
# 5 0.0000 0.0000 0.0000 0.0000 6.9895 0.0000
# 6 0.0000 0.0000 0.0000 0.0000 0.0000 15.8398
#
#
#
# Elastic Compliance Matrix: (Units=1/GPa)
#
#
# Indices 1 2 3 4 5 6 
#
# 1 0.021678 -0.006528 -0.002926 0.000000 0.000000 0.000000
# 2 -0.006528 0.012460 -0.006779 0.000000 0.000000 0.000000
# 3 -0.002926 -0.006779 0.021414 0.000000 0.000000 0.000000
# 4 0.000000 0.000000 0.000000 0.125429 0.000000 0.000000
# 5 0.000000 0.000000 0.000000 0.000000 0.143072 0.000000
# 6 0.000000 0.000000 0.000000 0.000000 0.000000 0.063132
#
#
# Mechanical properties :
#
#
# Convention : Reuss Voigt Hill
#
# Bulk Modulus (GPa) = 43.31382 54.34808 48.83095
# Shear Modulus (GPa) = 11.70010 15.61258 13.65634
#
# Velocity S-wave (km/s) = 2.67631 3.09156 2.89140
# Velocity P-wave (km/s) = 6.00551 6.78341 6.40628
#
# Compressibility (1/GPa) = 0.02308732
#
# Stress axis : x y z
#
# Youngs Moduli (GPa) = 46.12885 80.25582 46.69838
#
# Poissons Ratio (x) = 0.52393 0.13662
# Poissons Ratio (y) = 0.30114 0.31656
# Poissons Ratio (z) = 0.13495 0.54404
#
# Static dielectric constant tensor:
#      x y z
#    x 2.880570 0.000000 0.000000 
#    y 0.000000 3.158330 0.000000 
#    z 0.000000 0.000000 3.086870 
# 
# 
# High freq. dielectric constant tensor:
#      x y z
#    x 1.592920 0.000000 0.000000 
#    y 0.000000 1.617140 0.000000 
#    z 0.000000 0.000000 1.606370 
# 
# From -- ./inp_files/9183.got.cif
#   From: 2010.03.12/outbox.cif.g09.slc.cpg/sg55_5_cif.got.tgz:9183.got - 2010.04.16 15:19:21.
