data_PCOD8227768
_publ_section_title
;
Structure prediction by ZEFSAII (Michael W. Deem and Ramdas Pophale) SiO2 
 PCOD8227768
Probable space group: P B A M
;
_chemical_formula_sum "Si O2"
_cell_formula_units_Z 56
_cell_length_a 8.399952
_cell_length_b 13.390956
_cell_length_c 21.055332
_cell_angle_alpha 90.000000
_cell_angle_beta 90.000000
_cell_angle_gamma 90.000000
_cell_volume 2368.375071
_symmetry_space_group_name_H-M "P B A M"
_symmetry_group_IT_number 55
_symmetry_cell_setting 'orthorhombic'
loop_
_space_group_symop_operation_xyz
x,y,z
-x,-y,z
1/2+x,1/2-y,-z
1/2-x,1/2+y,-z
-x,-y,-z
x,y,-z
1/2-x,1/2+y,z
1/2+x,1/2-y,z
loop_
_atom_site_type_symbol
_atom_site_label
_atom_site_fract_x
_atom_site_fract_y
_atom_site_fract_z
Si Si1 0.858543 0.434871 0.636488
Si Si2 0.394306 0.224577 0.741705
Si Si3 0.363437 0.681721 0.830489
Si Si4 0.740754 0.452805 0.070623
Si Si5 0.613632 0.297625 0.573442
Si Si6 0.708507 0.637623 0.359484
Si Si7 0.925887 0.650382 0.070237
O O1 0.933876 0.370009 0.695102
O O2 0.774619 0.361511 0.586303
O O3 0.729382 0.520334 0.656037
O O4 0.000000 0.500000 0.605090
O O5 0.532418 0.299500 0.767032
O O6 0.315927 0.177491 0.804127
O O7 0.273980 0.299015 0.705181
O O8 0.385338 0.581648 0.874127
O O9 0.383680 0.771533 0.877540
O O10 0.805399 0.561302 0.086207
O O11 0.890019 0.378149 0.072376
O O12 0.661945 0.449081 0.000000
O O13 0.568390 0.302183 0.500000
O O14 0.653690 0.183177 0.593740
O O15 0.467895 0.343181 0.612690
O O16 0.886875 0.692385 0.000000
#
# Coordination Sequence:
#
# PCOD8227768 Si02
#       7
#     8   8   8   8   8   8   8
#     4  11  24  44  67  92 131 182 221 270 340 390
#     4  11  25  40  61  92 126 166 222 270 317 393
#     4  12  21  39  62  92 123 165 219 268 327 388
#     4   9  19  37  61  89 122 165 211 263 330 397
#     4  11  24  42  70 105 134 170 224 275 325 400
#     4  11  23  45  66  93 138 179 215 271 337 392
#     4   9  19  38  61  89 125 163 210 266 331 401
#
# _framework density 23.644902999999999
#
# number of rings (size 3 to 8) (size 9 to 14) (size 15 to 20)
#    0.000    1.429    1.429    6.429    0.000    4.286 
#    0.000    2.143    0.000    1.714    0.000    0.000 
#    0.000    0.000    0.000    0.000    0.000    0.000 
#
# Total GULP energy -693784.940204 kJ/mol
# GULP energy per Si atom -12389.016789 kJ/mol
# Density = 2.359109 g / cm^3
# Si number density = 23.644903 Si / 1000 Ang^3
#
#
#
# Elastic Constant Matrix: (Units=GPa)
#
#
# Indices 1 2 3 4 5 6 
#
# 1 51.3199 -7.5512 -7.6199 0.0000 0.0000 0.0000
# 2 -7.5512 70.0729 -5.6850 0.0000 0.0000 0.0000
# 3 -7.6199 -5.6850 43.4074 0.0000 0.0000 0.0000
# 4 0.0000 0.0000 0.0000 26.4210 0.0000 0.0000
# 5 0.0000 0.0000 0.0000 0.0000 26.0283 0.0000
# 6 0.0000 0.0000 0.0000 0.0000 0.0000 42.4635
#
#
#
# Elastic Compliance Matrix: (Units=1/GPa)
#
#
# Indices 1 2 3 4 5 6 
#
# 1 0.020438 0.002520 0.003918 0.000000 0.000000 0.000000
# 2 0.002520 0.014735 0.002372 0.000000 0.000000 0.000000
# 3 0.003918 0.002372 0.024036 0.000000 0.000000 0.000000
# 4 0.000000 0.000000 0.000000 0.037849 0.000000 0.000000
# 5 0.000000 0.000000 0.000000 0.000000 0.038420 0.000000
# 6 0.000000 0.000000 0.000000 0.000000 0.000000 0.023550
#
#
# Mechanical properties :
#
#
# Convention : Reuss Voigt Hill
#
# Bulk Modulus (GPa) = 13.01576 13.67645 13.34611
# Shear Modulus (GPa) = 29.93720 31.35964 30.64842
#
# Velocity S-wave (km/s) = 3.56211 3.64576 3.60418
# Velocity P-wave (km/s) = 4.73654 4.84961 4.79341
#
# Compressibility (1/GPa) = 0.07682992
#
# Stress axis : x y z
#
# Youngs Moduli (GPa) = 48.92806 67.86608 41.60425
#
# Poissons Ratio (x) = -0.17104 -0.16300
# Poissons Ratio (y) = -0.12331 -0.09869
# Poissons Ratio (z) = -0.19169 -0.16099
#
# Static dielectric constant tensor:
#      x y z
#    x 4.305990 0.000000 0.000000 
#    y 0.000000 4.386080 0.000000 
#    z 0.000000 0.000000 4.049580 
# 
# 
# High freq. dielectric constant tensor:
#      x y z
#    x 1.935510 0.000000 0.000000 
#    y 0.000000 1.934770 0.000000 
#    z 0.000000 0.000000 1.933870 
# 
# From -- ./inp_files/22609.got.cif
#   From: 2010.03.12/outbox.cif.g09.slc.cpg/sg55_12_cif.got.tgz:22609.got - 2010.04.16 15:19:21.
