data_PCOD8227318
_publ_section_title
;
Structure prediction by ZEFSAII (Michael W. Deem and Ramdas Pophale) SiO2 
 PCOD8227318
Probable space group: P B A M
;
_chemical_formula_sum "Si O2"
_cell_formula_units_Z 48
_cell_length_a 30.655555
_cell_length_b 9.269367
_cell_length_c 8.088877
_cell_angle_alpha 90.000000
_cell_angle_beta 90.000000
_cell_angle_gamma 90.000000
_cell_volume 2298.515793
_symmetry_space_group_name_H-M "P B A M"
_symmetry_group_IT_number 55
_symmetry_cell_setting 'orthorhombic'
loop_
_space_group_symop_operation_xyz
x,y,z
-x,-y,z
1/2+x,1/2-y,-z
1/2-x,1/2+y,-z
-x,-y,-z
x,y,-z
1/2-x,1/2+y,z
1/2+x,1/2-y,z
loop_
_atom_site_type_symbol
_atom_site_label
_atom_site_fract_x
_atom_site_fract_y
_atom_site_fract_z
Si Si1 0.778365 0.651074 0.813937
Si Si2 0.295850 0.538318 0.684004
Si Si3 0.923858 0.512351 0.500000
Si Si4 0.507879 0.794551 0.500000
Si Si5 0.372673 0.357461 0.810436
Si Si6 0.972481 0.139110 0.820857
Si Si7 0.634391 0.976413 0.807808
O O1 0.739126 0.590011 0.704576
O O2 0.786506 0.821830 0.795336
O O3 0.821080 0.559000 0.773345
O O4 0.763365 0.624162 0.000000
O O5 0.293562 0.598609 0.500000
O O6 0.343510 0.470395 0.710312
O O7 0.941985 0.349595 0.500000
O O8 0.898400 0.543185 0.328722
O O9 0.968531 0.596745 0.500000
O O10 0.501666 0.711860 0.328207
O O11 0.422788 0.391457 0.766291
O O12 0.359855 0.192511 0.767826
O O13 0.362478 0.388474 0.000000
O O14 0.971322 0.225224 0.000000
O O15 0.000000 0.000000 0.858580
O O16 0.618532 0.999210 0.000000
#
# Coordination Sequence:
#
# PCOD8227318 Si02
#       7
#     8   8   4   4   8   8   8
#     4  11  24  45  67  92 130 172 213 259 316 385
#     4  12  26  40  65  99 130 165 209 264 319 384
#     4  11  24  38  66  91 131 164 214 259 325 385
#     4  11  23  40  60  97 126 169 204 271 322 382
#     4  10  21  41  66  92 124 170 217 262 322 385
#     4  10  22  41  65  91 126 170 218 269 323 387
#     4  10  23  42  68  94 126 172 217 265 320 384
#
# _framework density 20.883042
#
# number of rings (size 3 to 8) (size 9 to 14) (size 15 to 20)
#    0.000    1.333    1.667    3.250    4.667    3.333 
#    0.000    5.000    0.000    0.000    0.000    0.000 
#    0.000    0.000    0.000    0.000    0.000    0.000 
#
# Total GULP energy -594883.796540 kJ/mol
# GULP energy per Si atom -12393.412428 kJ/mol
# Density = 2.083551 g / cm^3
# Si number density = 20.883042 Si / 1000 Ang^3
#
#
#
# Elastic Constant Matrix: (Units=GPa)
#
#
# Indices 1 2 3 4 5 6 
#
# 1 100.7606 48.9058 38.7896 0.0000 0.0000 0.0000
# 2 48.9058 84.7227 19.3691 0.0000 0.0000 0.0000
# 3 38.7896 19.3691 119.7760 0.0000 0.0000 0.0000
# 4 0.0000 0.0000 0.0000 36.8531 0.0000 0.0000
# 5 0.0000 0.0000 0.0000 0.0000 22.5936 0.0000
# 6 0.0000 0.0000 0.0000 0.0000 0.0000 31.4070
#
#
#
# Elastic Compliance Matrix: (Units=1/GPa)
#
#
# Indices 1 2 3 4 5 6 
#
# 1 0.015170 -0.007926 -0.003631 0.000000 0.000000 0.000000
# 2 -0.007926 0.016398 -0.000085 0.000000 0.000000 0.000000
# 3 -0.003631 -0.000085 0.009538 0.000000 0.000000 0.000000
# 4 0.000000 0.000000 0.000000 0.027135 0.000000 0.000000
# 5 0.000000 0.000000 0.000000 0.000000 0.044260 0.000000
# 6 0.000000 0.000000 0.000000 0.000000 0.000000 0.031840
#
#
# Mechanical properties :
#
#
# Convention : Reuss Voigt Hill
#
# Bulk Modulus (GPa) = 56.11066 57.70981 56.91023
# Shear Modulus (GPa) = 28.80750 31.38374 30.09562
#
# Velocity S-wave (km/s) = 3.71815 3.88085 3.80037
# Velocity P-wave (km/s) = 6.73500 6.91202 6.82408
#
# Compressibility (1/GPa) = 0.01782193
#
# Stress axis : x y z
#
# Youngs Moduli (GPa) = 65.92170 60.98272 104.83844
#
# Poissons Ratio (x) = 0.48338 0.38065
# Poissons Ratio (y) = 0.52252 0.00889
# Poissons Ratio (z) = 0.23935 0.00517
#
# Static dielectric constant tensor:
#      x y z
#    x 3.782930 0.000000 0.000000 
#    y 0.000000 3.643570 0.000000 
#    z 0.000000 0.000000 4.413220 
# 
# 
# High freq. dielectric constant tensor:
#      x y z
#    x 1.823780 0.000000 0.000000 
#    y 0.000000 1.803410 0.000000 
#    z 0.000000 0.000000 1.835440 
# 
# From -- ./inp_files/2968.got.cif
#   From: 2010.03.12/outbox.cif.g09.slc.cpg/sg55_2_cif.got.tgz:2968.got - 2010.04.16 15:19:21.
