data_PCOD8227766
_publ_section_title
;
Structure prediction by ZEFSAII (Michael W. Deem and Ramdas Pophale) SiO2 
 PCOD8227766
Probable space group: P B A M
;
_chemical_formula_sum "Si O2"
_cell_formula_units_Z 40
_cell_length_a 9.391789
_cell_length_b 18.204884
_cell_length_c 10.971909
_cell_angle_alpha 90.000000
_cell_angle_beta 90.000000
_cell_angle_gamma 90.000000
_cell_volume 1875.937823
_symmetry_space_group_name_H-M "P B A M"
_symmetry_group_IT_number 55
_symmetry_cell_setting 'orthorhombic'
loop_
_space_group_symop_operation_xyz
x,y,z
-x,-y,z
1/2+x,1/2-y,-z
1/2-x,1/2+y,-z
-x,-y,-z
x,y,-z
1/2-x,1/2+y,z
1/2+x,1/2-y,z
loop_
_atom_site_type_symbol
_atom_site_label
_atom_site_fract_x
_atom_site_fract_y
_atom_site_fract_z
Si Si1 0.192838 0.684427 0.138836
Si Si2 0.551254 0.281635 0.500000
Si Si3 0.141748 0.953794 0.135794
Si Si4 0.011722 0.810750 0.763102
Si Si5 0.860190 0.453413 0.269491
Si Si6 0.152770 0.651352 0.500000
O O1 0.355699 0.691807 0.179356
O O2 0.089847 0.733341 0.221078
O O3 0.136438 0.600859 0.153007
O O4 0.178867 0.709106 0.000000
O O5 0.495647 0.325122 0.381461
O O6 0.723871 0.286031 0.500000
O O7 0.497519 0.196099 0.500000
O O8 0.108246 0.870721 0.171569
O O9 0.239043 0.986965 0.242052
O O10 0.212277 0.954016 0.000000
O O11 0.000000 0.000000 0.131394
O O12 0.828146 0.402148 0.384947
O O13 0.000000 0.500000 0.291450
#
# Coordination Sequence:
#
# PCOD8227766 Si02
#       6
#     8   4   8   8   8   4
#     4  12  25  45  69 103 143 182 236 292 351 423
#     4  12  22  45  77  99 141 178 233 293 353 411
#     4  11  23  44  69  99 142 188 233 288 354 422
#     4  12  25  44  71 105 136 186 237 291 355 419
#     4  12  27  45  69 102 143 186 235 289 356 417
#     4  12  25  49  71 105 142 182 235 297 349 424
#
# _framework density 21.322668
#
# number of rings (size 3 to 8) (size 9 to 14) (size 15 to 20)
#    0.000    0.200    6.000    2.700    2.800    4.000 
#    0.000    2.000    0.000    0.000    0.000    0.000 
#    0.000    0.000    0.000    0.000    0.000    0.000 
#
# Total GULP energy -496016.980557 kJ/mol
# GULP energy per Si atom -12400.424514 kJ/mol
# Density = 2.127414 g / cm^3
# Si number density = 21.322668 Si / 1000 Ang^3
#
#
#
# Elastic Constant Matrix: (Units=GPa)
#
#
# Indices 1 2 3 4 5 6 
#
# 1 98.2807 53.3339 51.3365 0.0000 0.0000 0.0000
# 2 53.3339 90.8101 24.5561 0.0000 0.0000 0.0000
# 3 51.3365 24.5561 123.9915 0.0000 0.0000 0.0000
# 4 0.0000 0.0000 0.0000 36.6165 0.0000 0.0000
# 5 0.0000 0.0000 0.0000 0.0000 27.4164 0.0000
# 6 0.0000 0.0000 0.0000 0.0000 0.0000 50.1871
#
#
#
# Elastic Compliance Matrix: (Units=1/GPa)
#
#
# Indices 1 2 3 4 5 6 
#
# 1 0.018068 -0.009075 -0.005684 0.000000 0.000000 0.000000
# 2 -0.009075 0.016193 0.000550 0.000000 0.000000 0.000000
# 3 -0.005684 0.000550 0.010309 0.000000 0.000000 0.000000
# 4 0.000000 0.000000 0.000000 0.027310 0.000000 0.000000
# 5 0.000000 0.000000 0.000000 0.000000 0.036474 0.000000
# 6 0.000000 0.000000 0.000000 0.000000 0.000000 0.019925
#
#
# Mechanical properties :
#
#
# Convention : Reuss Voigt Hill
#
# Bulk Modulus (GPa) = 61.90315 63.50391 62.70353
# Shear Modulus (GPa) = 30.84859 35.10106 32.97483
#
# Velocity S-wave (km/s) = 3.80774 4.06172 3.93678
# Velocity P-wave (km/s) = 6.95892 7.20026 7.08062
#
# Compressibility (1/GPa) = 0.01615427
#
# Stress axis : x y z
#
# Youngs Moduli (GPa) = 55.34506 61.75519 96.99979
#
# Poissons Ratio (x) = 0.56042 0.55132
# Poissons Ratio (y) = 0.50225 -0.05338
# Poissons Ratio (z) = 0.31456 -0.03399
#
# Static dielectric constant tensor:
#      x y z
#    x 3.845340 0.000000 0.000000 
#    y 0.000000 3.893470 0.000000 
#    z 0.000000 0.000000 4.168720 
# 
# 
# High freq. dielectric constant tensor:
#      x y z
#    x 1.832360 0.000000 0.000000 
#    y 0.000000 1.841790 0.000000 
#    z 0.000000 0.000000 1.854500 
# 
# From -- ./inp_files/11931.got.cif
#   From: 2010.03.12/outbox.cif.g09.slc.cpg/sg55_6_cif.got.tgz:11931.got - 2010.04.16 15:19:21.
