data_PCOD8227629
_publ_section_title
;
Structure prediction by ZEFSAII (Michael W. Deem and Ramdas Pophale) SiO2 
 PCOD8227629
Probable space group: P B A M
;
_chemical_formula_sum "Si O2"
_cell_formula_units_Z 48
_cell_length_a 12.686336
_cell_length_b 12.760207
_cell_length_c 13.550847
_cell_angle_alpha 90.000000
_cell_angle_beta 90.000000
_cell_angle_gamma 90.000000
_cell_volume 2193.614818
_symmetry_space_group_name_H-M "P B A M"
_symmetry_group_IT_number 55
_symmetry_cell_setting 'orthorhombic'
loop_
_space_group_symop_operation_xyz
x,y,z
-x,-y,z
1/2+x,1/2-y,-z
1/2-x,1/2+y,-z
-x,-y,-z
x,y,-z
1/2-x,1/2+y,z
1/2+x,1/2-y,z
loop_
_atom_site_type_symbol
_atom_site_label
_atom_site_fract_x
_atom_site_fract_y
_atom_site_fract_z
Si Si1 0.490526 0.668706 0.385642
Si Si2 0.276270 0.323965 0.612670
Si Si3 0.843790 0.440120 0.884665
Si Si4 0.675783 0.332024 0.242948
Si Si5 0.560899 0.160602 0.114205
Si Si6 0.058767 0.402813 0.612551
O O1 0.456969 0.655610 0.500000
O O2 0.391409 0.373279 0.367943
O O3 0.407831 0.607320 0.315335
O O4 0.480472 0.790176 0.348404
O O5 0.271302 0.280158 0.500000
O O6 0.258209 0.228922 0.687486
O O7 0.185461 0.412229 0.626925
O O8 0.739639 0.414093 0.822496
O O9 0.880195 0.555186 0.850653
O O10 0.936015 0.354621 0.865861
O O11 0.814431 0.440925 0.000000
O O12 0.608975 0.257163 0.171947
O O13 0.581892 0.181257 0.000000
O O14 0.023807 0.407143 0.500000
O O15 0.000000 0.500000 0.667976
#
# Coordination Sequence:
#
# PCOD8227629 Si02
#       6
#     8   8   8   8   8   8
#     4   9  18  32  50  75 113 150 183 225 277 325
#     4   9  18  32  47  73 113 149 183 229 276 318
#     4   9  19  36  57  83 115 145 179 228 283 339
#     4  11  18  31  55  85 107 146 193 228 271 335
#     4   9  19  36  56  82 113 142 178 229 284 337
#     4   8  14  27  47  72  98 130 180 228 263 308
#
# _framework density 21.881689999999999
#
# number of rings (size 3 to 8) (size 9 to 14) (size 15 to 20)
#    0.000    2.833    0.000    4.000    0.000    0.000 
#   18.000    0.000    0.000    6.000    0.000   17.500 
#    0.000    0.000    0.000    0.000    0.000    0.000 
#
# Total GULP energy -594801.460655 kJ/mol
# GULP energy per Si atom -12391.697097 kJ/mol
# Density = 2.183189 g / cm^3
# Si number density = 21.881690 Si / 1000 Ang^3
#
#
#
# Elastic Constant Matrix: (Units=GPa)
#
#
# Indices 1 2 3 4 5 6 
#
# 1 164.4878 33.0856 53.6392 0.0000 0.0000 0.0000
# 2 33.0856 38.7853 7.5611 0.0000 0.0000 0.0000
# 3 53.6392 7.5611 65.1708 0.0000 0.0000 0.0000
# 4 0.0000 0.0000 0.0000 9.9635 0.0000 0.0000
# 5 0.0000 0.0000 0.0000 0.0000 41.7954 0.0000
# 6 0.0000 0.0000 0.0000 0.0000 0.0000 25.5696
#
#
#
# Elastic Compliance Matrix: (Units=1/GPa)
#
#
# Indices 1 2 3 4 5 6 
#
# 1 0.009871 -0.006995 -0.007313 0.000000 0.000000 0.000000
# 2 -0.006995 0.031336 0.002122 0.000000 0.000000 0.000000
# 3 -0.007313 0.002122 0.021117 0.000000 0.000000 0.000000
# 4 0.000000 0.000000 0.000000 0.100367 0.000000 0.000000
# 5 0.000000 0.000000 0.000000 0.000000 0.023926 0.000000
# 6 0.000000 0.000000 0.000000 0.000000 0.000000 0.039109
#
#
# Mechanical properties :
#
#
# Convention : Reuss Voigt Hill
#
# Bulk Modulus (GPa) = 26.34902 50.77951 38.56427
# Shear Modulus (GPa) = 19.02951 27.07624 23.05288
#
# Velocity S-wave (km/s) = 2.95219 3.52148 3.24932
# Velocity P-wave (km/s) = 4.86706 6.30802 5.63380
#
# Compressibility (1/GPa) = 0.03795208
#
# Stress axis : x y z
#
# Youngs Moduli (GPa) = 101.30449 31.91176 47.35486
#
# Poissons Ratio (x) = 0.22322 0.34631
# Poissons Ratio (y) = 0.70862 -0.10047
# Poissons Ratio (z) = 0.74084 -0.06770
#
# Static dielectric constant tensor:
#      x y z
#    x 4.276540 0.000000 0.000000 
#    y 0.000000 3.541470 0.000000 
#    z 0.000000 0.000000 4.117790 
# 
# 
# High freq. dielectric constant tensor:
#      x y z
#    x 1.864160 0.000000 0.000000 
#    y 0.000000 1.810280 0.000000 
#    z 0.000000 0.000000 1.877500 
# 
# From -- ./inp_files/18868.got.cif
#   From: 2010.03.12/outbox.cif.g09.slc.cpg/sg55_10_cif.got.tgz:18868.got - 2010.04.16 15:19:21.
