data_PCOD8227331
_publ_section_title
;
Structure prediction by ZEFSAII (Michael W. Deem and Ramdas Pophale) SiO2 
 PCOD8227331
Probable space group: P B A M
;
_chemical_formula_sum "Si O2"
_cell_formula_units_Z 48
_cell_length_a 8.848428
_cell_length_b 22.734110
_cell_length_c 11.292206
_cell_angle_alpha 90.000000
_cell_angle_beta 90.000000
_cell_angle_gamma 90.000000
_cell_volume 2271.552981
_symmetry_space_group_name_H-M "P B A M"
_symmetry_group_IT_number 55
_symmetry_cell_setting 'orthorhombic'
loop_
_space_group_symop_operation_xyz
x,y,z
-x,-y,z
1/2+x,1/2-y,-z
1/2-x,1/2+y,-z
-x,-y,-z
x,y,-z
1/2-x,1/2+y,z
1/2+x,1/2-y,z
loop_
_atom_site_type_symbol
_atom_site_label
_atom_site_fract_x
_atom_site_fract_y
_atom_site_fract_z
Si Si1 0.240420 0.787186 0.000000
Si Si2 0.084256 0.667191 0.000000
Si Si3 0.743706 0.113335 0.363395
Si Si4 0.461067 0.316999 0.217171
Si Si5 0.825017 0.986070 0.636692
Si Si6 0.976532 0.301390 0.361463
Si Si7 0.234935 0.626671 0.222422
O O1 0.212665 0.717584 0.000000
O O2 0.163334 0.814144 0.884570
O O3 0.419066 0.802106 0.000000
O O4 0.109547 0.627105 0.882898
O O5 0.764407 0.123136 0.500000
O O6 0.899846 0.137133 0.312189
O O7 0.601549 0.151301 0.320272
O O8 0.725510 0.044230 0.334898
O O9 0.497080 0.254878 0.278436
O O10 0.614535 0.344729 0.167377
O O11 0.801764 0.965944 0.500000
O O12 0.762239 0.938363 0.728217
O O13 0.000000 0.000000 0.660721
O O14 0.984085 0.284270 0.500000
O O15 0.817097 0.332059 0.332147
#
# Coordination Sequence:
#
# PCOD8227331 Si02
#       7
#     4   4   8   8   8   8   8
#     4  12  26  46  69  95 135 181 219 268 341 412
#     4  12  26  46  66  96 132 175 226 275 335 399
#     4  10  22  41  65  97 137 178 217 268 331 395
#     4  12  23  40  67  98 131 173 220 272 332 399
#     4  10  21  42  69  97 133 179 227 273 330 398
#     4  11  24  38  60  99 138 170 211 272 337 399
#     4  12  24  41  68  98 128 176 228 278 325 394
#
# _framework density 21.130918000000001
#
# number of rings (size 3 to 8) (size 9 to 14) (size 15 to 20)
#    0.000    0.833    3.333    4.500    0.000    4.000 
#    0.000    3.750    0.000    2.000    0.000    0.000 
#    0.000    0.000    0.000    0.000    0.000    0.000 
#
# Total GULP energy -595150.696736 kJ/mol
# GULP energy per Si atom -12398.972849 kJ/mol
# Density = 2.108282 g / cm^3
# Si number density = 21.130918 Si / 1000 Ang^3
#
#
#
# Elastic Constant Matrix: (Units=GPa)
#
#
# Indices 1 2 3 4 5 6 
#
# 1 103.6065 38.1011 60.0033 0.0000 0.0000 0.0000
# 2 38.1011 95.2779 77.9330 0.0000 0.0000 0.0000
# 3 60.0033 77.9330 93.2846 0.0000 0.0000 0.0000
# 4 0.0000 0.0000 0.0000 23.6802 0.0000 0.0000
# 5 0.0000 0.0000 0.0000 0.0000 35.5885 0.0000
# 6 0.0000 0.0000 0.0000 0.0000 0.0000 35.6825
#
#
#
# Elastic Compliance Matrix: (Units=1/GPa)
#
#
# Indices 1 2 3 4 5 6 
#
# 1 0.016607 0.006620 -0.016213 0.000000 0.000000 0.000000
# 2 0.006620 0.035785 -0.034154 0.000000 0.000000 0.000000
# 3 -0.016213 -0.034154 0.049682 0.000000 0.000000 0.000000
# 4 0.000000 0.000000 0.000000 0.042229 0.000000 0.000000
# 5 0.000000 0.000000 0.000000 0.000000 0.028099 0.000000
# 6 0.000000 0.000000 0.000000 0.000000 0.000000 0.028025
#
#
# Mechanical properties :
#
#
# Convention : Reuss Voigt Hill
#
# Bulk Modulus (GPa) = 68.58579 71.58262 70.08421
# Shear Modulus (GPa) = 17.07766 26.73235 21.90501
#
# Velocity S-wave (km/s) = 2.84594 3.56066 3.22317
# Velocity P-wave (km/s) = 6.58234 7.13118 6.86225
#
# Compressibility (1/GPa) = 0.01458028
#
# Stress axis : x y z
#
# Youngs Moduli (GPa) = 60.21584 27.94497 20.12803
#
# Poissons Ratio (x) = -0.18501 0.32634
# Poissons Ratio (y) = -0.39866 0.68745
# Poissons Ratio (z) = 0.97628 0.95444
#
# Static dielectric constant tensor:
#      x y z
#    x 4.039130 0.000000 0.000000 
#    y 0.000000 4.021420 0.000000 
#    z 0.000000 0.000000 3.872730 
# 
# 
# High freq. dielectric constant tensor:
#      x y z
#    x 1.836660 0.000000 0.000000 
#    y 0.000000 1.822940 0.000000 
#    z 0.000000 0.000000 1.830520 
# 
# From -- ./inp_files/12257.got.cif
#   From: 2010.03.12/outbox.cif.g09.slc.cpg/sg55_7_cif.got.tgz:12257.got - 2010.04.16 15:19:21.
