data_PCOD8227622
_publ_section_title
;
Structure prediction by ZEFSAII (Michael W. Deem and Ramdas Pophale) SiO2 
 PCOD8227622
Probable space group: P B A M
;
_chemical_formula_sum "Si O2"
_cell_formula_units_Z 32
_cell_length_a 10.131080
_cell_length_b 8.843774
_cell_length_c 13.397191
_cell_angle_alpha 90.000000
_cell_angle_beta 90.000000
_cell_angle_gamma 90.000000
_cell_volume 1200.347879
_symmetry_space_group_name_H-M "P B A M"
_symmetry_group_IT_number 55
_symmetry_cell_setting 'orthorhombic'
loop_
_space_group_symop_operation_xyz
x,y,z
-x,-y,z
1/2+x,1/2-y,-z
1/2-x,1/2+y,-z
-x,-y,-z
x,y,-z
1/2-x,1/2+y,z
1/2+x,1/2-y,z
loop_
_atom_site_type_symbol
_atom_site_label
_atom_site_fract_x
_atom_site_fract_y
_atom_site_fract_z
Si Si1 0.633555 0.079013 0.800437
Si Si2 0.667335 0.899837 0.613846
Si Si3 0.461917 0.659820 0.386107
Si Si4 0.628582 0.403229 0.886886
O O1 0.666049 0.047506 0.683546
O O2 0.747046 0.010587 0.869754
O O3 0.500000 0.000000 0.837944
O O4 0.628076 0.261249 0.810913
O O5 0.639570 0.953953 0.500000
O O6 0.805590 0.811447 0.620806
O O7 0.550276 0.794738 0.660604
O O8 0.500000 0.500000 0.333998
O O9 0.512459 0.652088 0.500000
O O10 0.500000 0.500000 0.865474
O O11 0.631128 0.341408 0.000000
#
# Coordination Sequence:
#
# PCOD8227622 Si02
#       4
#     8   8   8   8
#     4  12  28  46  79 123 159 211 263 330 403 484
#     4  10  24  44  71 111 163 219 274 335 395 469
#     4   9  20  40  68 100 147 214 278 334 394 454
#     4  11  27  55  87 118 157 203 264 339 412 485
#
# _framework density 26.658937000000002
#
# number of rings (size 3 to 8) (size 9 to 14) (size 15 to 20)
#    0.000    1.500    0.000    2.250    7.000    5.500 
#    0.000    0.000    0.000    5.250    0.000    0.000 
#    0.000    0.000    0.000    0.000    0.000    0.000 
#
# Total GULP energy -396976.838158 kJ/mol
# GULP energy per Si atom -12405.526192 kJ/mol
# Density = 2.659826 g / cm^3
# Si number density = 26.658937 Si / 1000 Ang^3
#
#
#
# Elastic Constant Matrix: (Units=GPa)
#
#
# Indices 1 2 3 4 5 6 
#
# 1 204.5864 55.8292 32.3786 0.0000 0.0000 0.0000
# 2 55.8292 169.0162 64.7673 0.0000 0.0000 0.0000
# 3 32.3786 64.7673 143.3052 0.0000 0.0000 0.0000
# 4 0.0000 0.0000 0.0000 41.9678 0.0000 0.0000
# 5 0.0000 0.0000 0.0000 0.0000 14.0630 0.0000
# 6 0.0000 0.0000 0.0000 0.0000 0.0000 47.0968
#
#
#
# Elastic Compliance Matrix: (Units=1/GPa)
#
#
# Indices 1 2 3 4 5 6 
#
# 1 0.005402 -0.001592 -0.000501 0.000000 0.000000 0.000000
# 2 -0.001592 0.007625 -0.003087 0.000000 0.000000 0.000000
# 3 -0.000501 -0.003087 0.008486 0.000000 0.000000 0.000000
# 4 0.000000 0.000000 0.000000 0.023828 0.000000 0.000000
# 5 0.000000 0.000000 0.000000 0.000000 0.071109 0.000000
# 6 0.000000 0.000000 0.000000 0.000000 0.000000 0.021233
#
#
# Mechanical properties :
#
#
# Convention : Reuss Voigt Hill
#
# Bulk Modulus (GPa) = 89.65469 91.42866 90.54168
# Shear Modulus (GPa) = 32.94679 44.88769 38.91724
#
# Velocity S-wave (km/s) = 3.51930 4.10784 3.82490
# Velocity P-wave (km/s) = 7.08641 7.54117 7.31732
#
# Compressibility (1/GPa) = 0.01115391
#
# Stress axis : x y z
#
# Youngs Moduli (GPa) = 185.12656 131.14157 117.83805
#
# Poissons Ratio (x) = 0.20883 0.05901
# Poissons Ratio (y) = 0.29479 0.36371
# Poissons Ratio (z) = 0.09271 0.40477
#
# Static dielectric constant tensor:
#      x y z
#    x 5.089790 0.000000 0.000000 
#    y 0.000000 4.753790 0.000000 
#    z 0.000000 0.000000 4.854110 
# 
# 
# High freq. dielectric constant tensor:
#      x y z
#    x 2.093180 0.000000 0.000000 
#    y 0.000000 2.076200 0.000000 
#    z 0.000000 0.000000 2.070480 
# 
# From -- ./inp_files/18040.got.cif
#   From: 2010.03.12/outbox.cif.g09.slc.cpg/sg55_10_cif.got.tgz:18040.got - 2010.04.16 15:19:21.
