data_PCOD8227489
_publ_section_title
;
Structure prediction by ZEFSAII (Michael W. Deem and Ramdas Pophale) SiO2 
 PCOD8227489
Probable space group: P B A M
;
_chemical_formula_sum "Si O2"
_cell_formula_units_Z 40
_cell_length_a 20.374622
_cell_length_b 10.588229
_cell_length_c 8.511015
_cell_angle_alpha 90.000000
_cell_angle_beta 90.000000
_cell_angle_gamma 90.000000
_cell_volume 1836.091169
_symmetry_space_group_name_H-M "P B A M"
_symmetry_group_IT_number 55
_symmetry_cell_setting 'orthorhombic'
loop_
_space_group_symop_operation_xyz
x,y,z
-x,-y,z
1/2+x,1/2-y,-z
1/2-x,1/2+y,-z
-x,-y,-z
x,y,-z
1/2-x,1/2+y,z
1/2+x,1/2-y,z
loop_
_atom_site_type_symbol
_atom_site_label
_atom_site_fract_x
_atom_site_fract_y
_atom_site_fract_z
Si Si1 0.956852 0.880230 0.328704
Si Si2 0.483209 0.162215 0.819728
Si Si3 0.896255 0.518993 0.317812
Si Si4 0.729607 0.146128 0.816259
Si Si5 0.807988 0.912104 0.314391
O O1 0.949089 0.811573 0.500000
O O2 0.883935 0.902973 0.260139
O O3 0.002201 0.808692 0.201821
O O4 0.000000 0.000000 0.360236
O O5 0.538071 0.096916 0.711767
O O6 0.411664 0.121954 0.750346
O O7 0.488373 0.120938 0.000000
O O8 0.875951 0.513080 0.500000
O O9 0.840808 0.586914 0.218449
O O10 0.732992 0.289221 0.746147
O O11 0.782523 0.047085 0.748663
O O12 0.741439 0.159300 0.000000
O O13 0.800806 0.914730 0.500000
#
# Coordination Sequence:
#
# PCOD8227489 Si02
#       5
#     8   8   8   8   8
#     4  10  22  41  65  92 126 169 215 262 318 388
#     4  11  21  35  59  92 127 161 205 258 319 376
#     4  11  21  37  62  90 122 163 211 258 315 381
#     4  12  25  43  67  97 135 173 221 280 337 392
#     4  11  24  44  69  96 131 177 226 270 330 402
#
# _framework density 21.785411
#
# number of rings (size 3 to 8) (size 9 to 14) (size 15 to 20)
#    0.000    1.000    2.000    7.200    0.000    2.800 
#    0.000    6.000    0.000    0.000    0.000    0.000 
#    0.000    0.000    0.000    0.000    0.000    0.000 
#
# Total GULP energy -495587.447552 kJ/mol
# GULP energy per Si atom -12389.686189 kJ/mol
# Density = 2.173583 g / cm^3
# Si number density = 21.785411 Si / 1000 Ang^3
#
#
#
# Elastic Constant Matrix: (Units=GPa)
#
#
# Indices 1 2 3 4 5 6 
#
# 1 43.6097 28.5059 10.1622 0.0000 0.0000 0.0000
# 2 28.5059 103.4659 42.3734 0.0000 0.0000 0.0000
# 3 10.1622 42.3734 119.8620 0.0000 0.0000 0.0000
# 4 0.0000 0.0000 0.0000 21.0499 0.0000 0.0000
# 5 0.0000 0.0000 0.0000 0.0000 28.9244 0.0000
# 6 0.0000 0.0000 0.0000 0.0000 0.0000 36.4543
#
#
#
# Elastic Compliance Matrix: (Units=1/GPa)
#
#
# Indices 1 2 3 4 5 6 
#
# 1 0.027985 -0.007879 0.000413 0.000000 0.000000 0.000000
# 2 -0.007879 0.013520 -0.004111 0.000000 0.000000 0.000000
# 3 0.000413 -0.004111 0.009761 0.000000 0.000000 0.000000
# 4 0.000000 0.000000 0.000000 0.047506 0.000000 0.000000
# 5 0.000000 0.000000 0.000000 0.000000 0.034573 0.000000
# 6 0.000000 0.000000 0.000000 0.000000 0.000000 0.027432
#
#
# Mechanical properties :
#
#
# Convention : Reuss Voigt Hill
#
# Bulk Modulus (GPa) = 35.57422 47.66896 41.62159
# Shear Modulus (GPa) = 25.86625 29.67878 27.77252
#
# Velocity S-wave (km/s) = 3.44949 3.69497 3.57434
# Velocity P-wave (km/s) = 5.67716 6.33501 6.01509
#
# Compressibility (1/GPa) = 0.02811025
#
# Stress axis : x y z
#
# Youngs Moduli (GPa) = 35.73373 73.96670 102.44446
#
# Poissons Ratio (x) = 0.58279 -0.04229
# Poissons Ratio (y) = 0.28155 0.42119
# Poissons Ratio (z) = -0.01475 0.30411
#
# Static dielectric constant tensor:
#      x y z
#    x 2.916480 0.000000 0.000000 
#    y 0.000000 -1.226710 0.000000 
#    z 0.000000 0.000000 3.948960 
# 
# 
# High freq. dielectric constant tensor:
#      x y z
#    x 1.846160 0.000000 0.000000 
#    y 0.000000 1.863880 0.000000 
#    z 0.000000 0.000000 1.862410 
# 
# From -- ./inp_files/8476.got.cif
#   From: 2010.03.12/outbox.cif.g09.slc.cpg/sg55_5_cif.got.tgz:8476.got - 2010.04.16 15:19:21.
