data_PCOD8227720
_publ_section_title
;
Structure prediction by ZEFSAII (Michael W. Deem and Ramdas Pophale) SiO2 
 PCOD8227720
Probable space group: P B A M
;
_chemical_formula_sum "Si O2"
_cell_formula_units_Z 40
_cell_length_a 15.245854
_cell_length_b 15.241766
_cell_length_c 8.331142
_cell_angle_alpha 90.000000
_cell_angle_beta 90.000000
_cell_angle_gamma 90.000000
_cell_volume 1935.938618
_symmetry_space_group_name_H-M "P B A M"
_symmetry_group_IT_number 55
_symmetry_cell_setting 'orthorhombic'
loop_
_space_group_symop_operation_xyz
x,y,z
-x,-y,z
1/2+x,1/2-y,-z
1/2-x,1/2+y,-z
-x,-y,-z
x,y,-z
1/2-x,1/2+y,z
1/2+x,1/2-y,z
loop_
_atom_site_type_symbol
_atom_site_label
_atom_site_fract_x
_atom_site_fract_y
_atom_site_fract_z
Si Si1 0.176348 0.197866 0.186562
Si Si2 0.509529 0.746653 0.687155
Si Si3 0.176600 0.836641 0.813463
Si Si4 0.571298 0.934110 0.309247
Si Si5 0.237880 0.018962 0.687324
O O1 0.247265 0.269989 0.249725
O O2 0.182484 0.107048 0.283706
O O3 0.078446 0.232003 0.213325
O O4 0.191738 0.179427 0.000000
O O5 0.485258 0.748657 0.500000
O O6 0.585018 0.675409 0.719746
O O7 0.549608 0.837398 0.751788
O O8 0.202071 0.937089 0.785769
O O9 0.160235 0.820494 0.000000
O O10 0.571232 0.936658 0.500000
O O11 0.665356 0.962941 0.243994
O O12 0.500000 0.000000 0.236273
O O13 0.236956 0.995207 0.500000
#
# Coordination Sequence:
#
# PCOD8227720 Si02
#       5
#     8   8   8   8   8
#     4  11  24  42  63  91 131 171 209 257 320 385
#     4  11  22  39  65  93 125 165 214 264 314 371
#     4  11  24  42  63  91 131 171 209 257 320 385
#     4   9  18  34  59  93 125 154 199 262 317 363
#     4  11  22  39  65  93 125 165 214 264 314 371
#
# _framework density 20.661812999999999
#
# number of rings (size 3 to 8) (size 9 to 14) (size 15 to 20)
#    0.000    1.400    2.000    3.600    0.000    4.800 
#    0.000    4.000    0.000    4.800    0.000    0.000 
#    0.000    0.000    0.000    0.000    0.000    0.000 
#
# Total GULP energy -496160.903707 kJ/mol
# GULP energy per Si atom -12404.022593 kJ/mol
# Density = 2.061479 g / cm^3
# Si number density = 20.661813 Si / 1000 Ang^3
#
#
#
# Elastic Constant Matrix: (Units=GPa)
#
#
# Indices 1 2 3 4 5 6 
#
# 1 77.2431 -15.0392 16.2845 0.0000 0.0000 0.0000
# 2 -15.0392 74.8162 13.6014 0.0000 0.0000 0.0000
# 3 16.2845 13.6014 43.5492 0.0000 0.0000 0.0000
# 4 0.0000 0.0000 0.0000 21.7858 0.0000 0.0000
# 5 0.0000 0.0000 0.0000 0.0000 27.0261 0.0000
# 6 0.0000 0.0000 0.0000 0.0000 0.0000 42.9800
#
#
#
# Elastic Compliance Matrix: (Units=1/GPa)
#
#
# Indices 1 2 3 4 5 6 
#
# 1 0.015287 0.004360 -0.007078 0.000000 0.000000 0.000000
# 2 0.004360 0.015414 -0.006444 0.000000 0.000000 0.000000
# 3 -0.007078 -0.006444 0.027622 0.000000 0.000000 0.000000
# 4 0.000000 0.000000 0.000000 0.045901 0.000000 0.000000
# 5 0.000000 0.000000 0.000000 0.000000 0.037001 0.000000
# 6 0.000000 0.000000 0.000000 0.000000 0.000000 0.023267
#
#
# Mechanical properties :
#
#
# Convention : Reuss Voigt Hill
#
# Bulk Modulus (GPa) = 25.00138 25.03354 25.01746
# Shear Modulus (GPa) = 25.49063 30.40918 27.94991
#
# Velocity S-wave (km/s) = 3.51623 3.84051 3.68194
# Velocity P-wave (km/s) = 5.34899 5.63987 5.49636
#
# Compressibility (1/GPa) = 0.03999780
#
# Stress axis : x y z
#
# Youngs Moduli (GPa) = 65.41429 64.87594 36.20307
#
# Poissons Ratio (x) = -0.28284 0.25625
# Poissons Ratio (y) = -0.28519 0.23331
# Poissons Ratio (z) = 0.46300 0.41809
#
# Static dielectric constant tensor:
#      x y z
#    x 3.844590 0.000000 0.000000 
#    y 0.000000 3.792230 0.000000 
#    z 0.000000 0.000000 3.445730 
# 
# 
# High freq. dielectric constant tensor:
#      x y z
#    x 1.818830 0.000000 0.000000 
#    y 0.000000 1.816880 0.000000 
#    z 0.000000 0.000000 1.794140 
# 
# From -- ./inp_files/5186.got.cif
#   From: 2010.03.12/outbox.cif.g09.slc.cpg/sg55_3_cif.got.tgz:5186.got - 2010.04.16 15:19:21.
