data_PCOD8227484
_publ_section_title
;
Structure prediction by ZEFSAII (Michael W. Deem and Ramdas Pophale) SiO2 
 PCOD8227484
Probable space group: P B A M
;
_chemical_formula_sum "Si O2"
_cell_formula_units_Z 36
_cell_length_a 5.073439
_cell_length_b 12.512677
_cell_length_c 23.715685
_cell_angle_alpha 90.000000
_cell_angle_beta 90.000000
_cell_angle_gamma 90.000000
_cell_volume 1505.526313
_symmetry_space_group_name_H-M "P B A M"
_symmetry_group_IT_number 55
_symmetry_cell_setting 'orthorhombic'
loop_
_space_group_symop_operation_xyz
x,y,z
-x,-y,z
1/2+x,1/2-y,-z
1/2-x,1/2+y,-z
-x,-y,-z
x,y,-z
1/2-x,1/2+y,z
1/2+x,1/2-y,z
loop_
_atom_site_type_symbol
_atom_site_label
_atom_site_fract_x
_atom_site_fract_y
_atom_site_fract_z
Si Si1 0.747873 0.315815 0.000000
Si Si2 0.000000 0.000000 0.797118
Si Si3 0.258501 0.930316 0.383754
Si Si4 0.226850 0.817391 0.727350
Si Si5 0.129015 0.318770 0.500000
Si Si6 0.847210 0.823769 0.121660
O O1 0.678169 0.375830 0.058574
O O2 0.558990 0.210519 0.000000
O O3 0.804745 0.068257 0.757525
O O4 0.179174 0.077800 0.835447
O O5 0.214176 0.833266 0.340228
O O6 0.327302 0.888953 0.445242
O O7 0.500000 0.000000 0.360030
O O8 0.000000 0.000000 0.388008
O O9 0.499035 0.764240 0.746475
O O10 0.327041 0.219012 0.500000
O O11 0.627584 0.733414 0.131466
#
# Coordination Sequence:
#
# PCOD8227484 Si02
#       6
#     4   4   8   8   4   8
#     4   8  16  35  62  89 128 166 210 271 335 396
#     4  12  26  43  68  95 134 178 230 276 332 402
#     4  12  24  45  70 100 132 176 227 277 335 404
#     4  12  27  46  68  97 134 179 226 279 336 398
#     4  12  24  42  68 102 138 174 218 273 339 404
#     4  10  22  41  64  96 130 171 219 276 336 397
#
# _framework density 23.911905000000001
#
# number of rings (size 3 to 8) (size 9 to 14) (size 15 to 20)
#    0.000    0.889    1.111    6.000    0.000    3.111 
#    0.000    0.000    0.000    8.000    0.000    0.000 
#    0.000    0.000    0.000    0.000    0.000    0.000 
#
# Total GULP energy -446507.213843 kJ/mol
# GULP energy per Si atom -12402.978162 kJ/mol
# Density = 2.385748 g / cm^3
# Si number density = 23.911905 Si / 1000 Ang^3
#
#
#
# Elastic Constant Matrix: (Units=GPa)
#
#
# Indices 1 2 3 4 5 6 
#
# 1 104.0500 28.5794 19.9913 0.0000 0.0000 0.0000
# 2 28.5794 94.7343 54.9297 0.0000 0.0000 0.0000
# 3 19.9913 54.9297 146.6129 0.0000 0.0000 0.0000
# 4 0.0000 0.0000 0.0000 52.6163 0.0000 0.0000
# 5 0.0000 0.0000 0.0000 0.0000 26.1269 0.0000
# 6 0.0000 0.0000 0.0000 0.0000 0.0000 27.4204
#
#
#
# Elastic Compliance Matrix: (Units=1/GPa)
#
#
# Indices 1 2 3 4 5 6 
#
# 1 0.010490 -0.002983 -0.000313 0.000000 0.000000 0.000000
# 2 -0.002983 0.014334 -0.004963 0.000000 0.000000 0.000000
# 3 -0.000313 -0.004963 0.008723 0.000000 0.000000 0.000000
# 4 0.000000 0.000000 0.000000 0.019006 0.000000 0.000000
# 5 0.000000 0.000000 0.000000 0.000000 0.038275 0.000000
# 6 0.000000 0.000000 0.000000 0.000000 0.000000 0.036469
#
#
# Mechanical properties :
#
#
# Convention : Reuss Voigt Hill
#
# Bulk Modulus (GPa) = 58.72694 61.37756 60.05225
# Shear Modulus (GPa) = 33.44672 37.35920 35.40296
#
# Velocity S-wave (km/s) = 3.74404 3.95697 3.85198
# Velocity P-wave (km/s) = 6.58054 6.82647 6.70463
#
# Compressibility (1/GPa) = 0.01702796
#
# Stress axis : x y z
#
# Youngs Moduli (GPa) = 95.32623 69.76490 114.64049
#
# Poissons Ratio (x) = 0.20814 0.03584
# Poissons Ratio (y) = 0.28440 0.56902
# Poissons Ratio (z) = 0.02980 0.34628
#
# Static dielectric constant tensor:
#      x y z
#    x 4.343080 0.000000 0.000000 
#    y 0.000000 4.073790 0.000000 
#    z 0.000000 0.000000 4.969550 
# 
# 
# High freq. dielectric constant tensor:
#      x y z
#    x 1.955990 0.000000 0.000000 
#    y 0.000000 1.923830 0.000000 
#    z 0.000000 0.000000 1.982630 
# 
# From -- ./inp_files/23261.got.cif
#   From: 2010.03.12/outbox.cif.g09.slc.cpg/sg55_12_cif.got.tgz:23261.got - 2010.04.16 15:19:21.
