data_PCOD8227776
_publ_section_title
;
Structure prediction by ZEFSAII (Michael W. Deem and Ramdas Pophale) SiO2 
 PCOD8227776
Probable space group: P B A M
;
_chemical_formula_sum "Si O2"
_cell_formula_units_Z 48
_cell_length_a 9.153405
_cell_length_b 9.500434
_cell_length_c 26.231379
_cell_angle_alpha 90.000000
_cell_angle_beta 90.000000
_cell_angle_gamma 90.000000
_cell_volume 2281.115345
_symmetry_space_group_name_H-M "P B A M"
_symmetry_group_IT_number 55
_symmetry_cell_setting 'orthorhombic'
loop_
_space_group_symop_operation_xyz
x,y,z
-x,-y,z
1/2+x,1/2-y,-z
1/2-x,1/2+y,-z
-x,-y,-z
x,y,-z
1/2-x,1/2+y,z
1/2+x,1/2-y,z
loop_
_atom_site_type_symbol
_atom_site_label
_atom_site_fract_x
_atom_site_fract_y
_atom_site_fract_z
Si Si1 0.856718 0.590039 0.556250
Si Si2 0.915034 0.356151 0.109516
Si Si3 0.129999 0.103600 0.607211
Si Si4 0.085943 0.643369 0.222795
Si Si5 0.897984 0.872626 0.059240
Si Si6 0.101794 0.129321 0.725889
O O1 0.783784 0.608038 0.500000
O O2 0.881033 0.747287 0.578250
O O3 0.768306 0.490308 0.593891
O O4 0.000000 0.500000 0.549226
O O5 0.907029 0.287969 0.166174
O O6 0.750694 0.377680 0.090613
O O7 0.000000 0.500000 0.112696
O O8 0.007696 0.264883 0.070206
O O9 0.139145 0.136013 0.666663
O O10 0.000000 0.000000 0.591663
O O11 0.250110 0.621200 0.242196
O O12 0.000000 0.500000 0.219388
O O13 0.993506 0.735027 0.261805
O O14 0.857457 0.879555 0.000000
O O15 0.000000 0.000000 0.076713
O O16 0.000000 0.000000 0.740991
#
# Coordination Sequence:
#
# PCOD8227776 Si02
#       6
#     8   8   8   8   8   8
#     4  11  25  44  69  98 136 179 223 280 339 405
#     4  11  24  42  65  95 129 175 221 274 336 397
#     4  11  26  42  68 101 133 176 226 279 340 412
#     4  11  25  43  67  94 134 173 222 280 331 403
#     4  11  24  41  65  96 132 172 220 276 333 402
#     4  11  26  42  66 100 129 175 221 275 341 399
#
# _framework density 21.042338999999998
#
# number of rings (size 3 to 8) (size 9 to 14) (size 15 to 20)
#    0.000    1.000    0.000    5.000    9.333   10.667 
#    0.000    0.000    0.000    0.000    0.000    0.000 
#    0.000    0.000    0.000    0.000    0.000    0.000 
#
# Total GULP energy -595142.212894 kJ/mol
# GULP energy per Si atom -12398.796102 kJ/mol
# Density = 2.099445 g / cm^3
# Si number density = 21.042339 Si / 1000 Ang^3
#
#
#
# Elastic Constant Matrix: (Units=GPa)
#
#
# Indices 1 2 3 4 5 6 
#
# 1 141.2192 39.6587 57.4475 0.0000 0.0000 0.0000
# 2 39.6587 121.0430 50.6938 0.0000 0.0000 0.0000
# 3 57.4475 50.6938 107.3785 0.0000 0.0000 0.0000
# 4 0.0000 0.0000 0.0000 37.8342 0.0000 0.0000
# 5 0.0000 0.0000 0.0000 0.0000 43.5422 0.0000
# 6 0.0000 0.0000 0.0000 0.0000 0.0000 37.4268
#
#
#
# Elastic Compliance Matrix: (Units=1/GPa)
#
#
# Indices 1 2 3 4 5 6 
#
# 1 0.009186 -0.001186 -0.004354 0.000000 0.000000 0.000000
# 2 -0.001186 0.010451 -0.004299 0.000000 0.000000 0.000000
# 3 -0.004354 -0.004299 0.013672 0.000000 0.000000 0.000000
# 4 0.000000 0.000000 0.000000 0.026431 0.000000 0.000000
# 5 0.000000 0.000000 0.000000 0.000000 0.022966 0.000000
# 6 0.000000 0.000000 0.000000 0.000000 0.000000 0.026719
#
#
# Mechanical properties :
#
#
# Convention : Reuss Voigt Hill
#
# Bulk Modulus (GPa) = 73.37226 73.91562 73.64394
# Shear Modulus (GPa) = 37.41198 38.55002 37.98100
#
# Velocity S-wave (km/s) = 4.22113 4.28486 4.25311
# Velocity P-wave (km/s) = 7.66171 7.72550 7.69367
#
# Compressibility (1/GPa) = 0.01362913
#
# Stress axis : x y z
#
# Youngs Moduli (GPa) = 108.86608 95.68751 73.14106
#
# Poissons Ratio (x) = 0.11348 0.31849
# Poissons Ratio (y) = 0.12911 0.31446
# Poissons Ratio (z) = 0.47405 0.41139
#
# Static dielectric constant tensor:
#      x y z
#    x 3.896870 0.000000 0.000000 
#    y 0.000000 3.910660 0.000000 
#    z 0.000000 0.000000 4.074070 
# 
# 
# High freq. dielectric constant tensor:
#      x y z
#    x 1.840950 0.000000 0.000000 
#    y 0.000000 1.836590 0.000000 
#    z 0.000000 0.000000 1.843090 
# 
# From -- ./inp_files/24140.got.cif
#   From: 2010.03.12/outbox.cif.g09.slc.cpg/sg55_13_cif.got.tgz:24140.got - 2010.04.16 15:19:21.
