data_PCOD8227605
_publ_section_title
;
Structure prediction by ZEFSAII (Michael W. Deem and Ramdas Pophale) SiO2 
 PCOD8227605
Probable space group: P B A M
;
_chemical_formula_sum "Si O2"
_cell_formula_units_Z 48
_cell_length_a 26.794245
_cell_length_b 9.019540
_cell_length_c 9.373981
_cell_angle_alpha 90.000000
_cell_angle_beta 90.000000
_cell_angle_gamma 90.000000
_cell_volume 2265.426529
_symmetry_space_group_name_H-M "P B A M"
_symmetry_group_IT_number 55
_symmetry_cell_setting 'orthorhombic'
loop_
_space_group_symop_operation_xyz
x,y,z
-x,-y,z
1/2+x,1/2-y,-z
1/2-x,1/2+y,-z
-x,-y,-z
x,y,-z
1/2-x,1/2+y,z
1/2+x,1/2-y,z
loop_
_atom_site_type_symbol
_atom_site_label
_atom_site_fract_x
_atom_site_fract_y
_atom_site_fract_z
Si Si1 0.591705 0.140534 0.834500
Si Si2 0.255206 0.506727 0.250224
Si Si3 0.818805 0.731542 0.653053
Si Si4 0.181317 0.744535 0.153208
Si Si5 0.006285 0.827653 0.838055
Si Si6 0.410733 0.162786 0.329794
O O1 0.642219 0.220028 0.782382
O O2 0.546735 0.252598 0.810615
O O3 0.580871 0.996513 0.740730
O O4 0.598097 0.096491 0.000000
O O5 0.290106 0.612589 0.344320
O O6 0.220311 0.403705 0.347308
O O7 0.220720 0.610092 0.152060
O O8 0.290463 0.401096 0.157011
O O9 0.846821 0.722843 0.500000
O O10 0.142452 0.729739 0.282593
O O11 0.153285 0.737432 0.000000
O O12 0.045740 0.769612 0.723897
O O13 0.024562 0.795519 0.000000
O O14 0.000000 0.000000 0.810295
O O15 0.412084 0.150194 0.500000
#
# Coordination Sequence:
#
# PCOD8227605 Si02
#       6
#     8   8   8   8   8   8
#     4  11  24  43  69  98 129 170 220 267 322 388
#     4  10  24  40  64  97 131 175 221 270 319 381
#     4  11  23  41  65  95 135 176 218 266 322 383
#     4  11  23  42  67  96 131 173 223 272 320 381
#     4  10  24  47  72  99 129 166 210 269 330 389
#     4  12  26  43  67  99 133 173 216 265 329 393
#
# _framework density 21.188061999999999
#
# number of rings (size 3 to 8) (size 9 to 14) (size 15 to 20)
#    0.000    1.167    1.667    3.500    2.333   10.333 
#    0.000    0.000    0.000    0.000    0.000    0.000 
#    0.000    0.000    0.000    0.000    0.000    0.000 
#
# Total GULP energy -595209.633479 kJ/mol
# GULP energy per Si atom -12400.200697 kJ/mol
# Density = 2.113984 g / cm^3
# Si number density = 21.188062 Si / 1000 Ang^3
#
#
#
# Elastic Constant Matrix: (Units=GPa)
#
#
# Indices 1 2 3 4 5 6 
#
# 1 119.2435 73.8677 67.3358 0.0000 0.0000 0.0000
# 2 73.8677 145.4373 65.6345 0.0000 0.0000 0.0000
# 3 67.3358 65.6345 179.7187 0.0000 0.0000 0.0000
# 4 0.0000 0.0000 0.0000 13.4779 0.0000 0.0000
# 5 0.0000 0.0000 0.0000 0.0000 30.6885 0.0000
# 6 0.0000 0.0000 0.0000 0.0000 0.0000 22.9103
#
#
#
# Elastic Compliance Matrix: (Units=1/GPa)
#
#
# Indices 1 2 3 4 5 6 
#
# 1 0.013509 -0.005480 -0.003060 0.000000 0.000000 0.000000
# 2 -0.005480 0.010456 -0.001765 0.000000 0.000000 0.000000
# 3 -0.003060 -0.001765 0.007355 0.000000 0.000000 0.000000
# 4 0.000000 0.000000 0.000000 0.074195 0.000000 0.000000
# 5 0.000000 0.000000 0.000000 0.000000 0.032585 0.000000
# 6 0.000000 0.000000 0.000000 0.000000 0.000000 0.043649
#
#
# Mechanical properties :
#
#
# Convention : Reuss Voigt Hill
#
# Bulk Modulus (GPa) = 93.37730 95.34173 94.35951
# Shear Modulus (GPa) = 24.28003 29.25278 26.76640
#
# Velocity S-wave (km/s) = 3.38883 3.71971 3.55812
# Velocity P-wave (km/s) = 7.71224 7.97144 7.84291
#
# Compressibility (1/GPa) = 0.01070924
#
# Stress axis : x y z
#
# Youngs Moduli (GPa) = 74.02444 95.63981 135.95357
#
# Poissons Ratio (x) = 0.52413 0.41602
# Poissons Ratio (y) = 0.40568 0.23999
# Poissons Ratio (z) = 0.22652 0.16883
#
# Static dielectric constant tensor:
#      x y z
#    x 3.840360 0.000000 0.000000 
#    y 0.000000 4.008220 0.000000 
#    z 0.000000 0.000000 3.760570 
# 
# 
# High freq. dielectric constant tensor:
#      x y z
#    x 1.830330 0.000000 0.000000 
#    y 0.000000 1.846300 0.000000 
#    z 0.000000 0.000000 1.830750 
# 
# From -- ./inp_files/10502.got.cif
#   From: 2010.03.12/outbox.cif.g09.slc.cpg/sg55_6_cif.got.tgz:10502.got - 2010.04.16 15:19:21.
