data_PCOD8227415
_publ_section_title
;
Structure prediction by ZEFSAII (Michael W. Deem and Ramdas Pophale) SiO2 
 PCOD8227415
Probable space group: P B A M
;
_chemical_formula_sum "Si O2"
_cell_formula_units_Z 40
_cell_length_a 17.328965
_cell_length_b 9.182213
_cell_length_c 12.313482
_cell_angle_alpha 90.000000
_cell_angle_beta 90.000000
_cell_angle_gamma 90.000000
_cell_volume 1959.299679
_symmetry_space_group_name_H-M "P B A M"
_symmetry_group_IT_number 55
_symmetry_cell_setting 'orthorhombic'
loop_
_space_group_symop_operation_xyz
x,y,z
-x,-y,z
1/2+x,1/2-y,-z
1/2-x,1/2+y,-z
-x,-y,-z
x,y,-z
1/2-x,1/2+y,z
1/2+x,1/2-y,z
loop_
_atom_site_type_symbol
_atom_site_label
_atom_site_fract_x
_atom_site_fract_y
_atom_site_fract_z
Si Si1 0.908457 0.665888 0.874263
Si Si2 0.150154 0.637454 0.882500
Si Si3 0.276216 0.716651 0.271095
Si Si4 0.460141 0.354836 0.200290
Si Si5 0.840233 0.063186 0.626302
O O1 0.913232 0.490585 0.869718
O O2 0.826532 0.712225 0.824237
O O3 0.973961 0.731586 0.795507
O O4 0.916230 0.720089 0.000000
O O5 0.212468 0.618482 0.788810
O O6 0.107328 0.794258 0.877662
O O7 0.190678 0.625464 0.000000
O O8 0.324996 0.606282 0.345652
O O9 0.234158 0.839423 0.342997
O O10 0.500000 0.500000 0.152371
O O11 0.419844 0.385304 0.316347
O O12 0.856108 0.079344 0.500000
#
# Coordination Sequence:
#
# PCOD8227415 Si02
#       5
#     8   8   8   8   8
#     4  11  22  39  61  91 129 169 197 241 312 373
#     4  10  22  39  62  89 128 168 198 243 306 372
#     4  11  21  42  63  93 122 153 211 259 303 370
#     4  11  23  40  60  92 125 160 206 254 292 365
#     4  11  24  43  66  87 118 162 209 262 313 353
#
# _framework density 20.415457
#
# number of rings (size 3 to 8) (size 9 to 14) (size 15 to 20)
#    0.000    1.200    4.000    2.400    0.000    3.600 
#    0.000    0.000    0.000    2.400    0.000    0.000 
#    0.000    0.000    0.000    0.000    0.000    0.000 
#
# Total GULP energy -495801.229280 kJ/mol
# GULP energy per Si atom -12395.030732 kJ/mol
# Density = 2.036899 g / cm^3
# Si number density = 20.415457 Si / 1000 Ang^3
#
#
#
# Elastic Constant Matrix: (Units=GPa)
#
#
# Indices 1 2 3 4 5 6 
#
# 1 79.4107 29.7214 36.5727 0.0000 0.0000 0.0000
# 2 29.7214 100.0616 55.4432 0.0000 0.0000 0.0000
# 3 36.5727 55.4432 101.6602 0.0000 0.0000 0.0000
# 4 0.0000 0.0000 0.0000 22.4907 0.0000 0.0000
# 5 0.0000 0.0000 0.0000 0.0000 25.1679 0.0000
# 6 0.0000 0.0000 0.0000 0.0000 0.0000 36.9739
#
#
#
# Elastic Compliance Matrix: (Units=1/GPa)
#
#
# Indices 1 2 3 4 5 6 
#
# 1 0.015412 -0.002158 -0.004368 0.000000 0.000000 0.000000
# 2 -0.002158 0.014624 -0.007199 0.000000 0.000000 0.000000
# 3 -0.004368 -0.007199 0.015334 0.000000 0.000000 0.000000
# 4 0.000000 0.000000 0.000000 0.044463 0.000000 0.000000
# 5 0.000000 0.000000 0.000000 0.000000 0.039733 0.000000
# 6 0.000000 0.000000 0.000000 0.000000 0.000000 0.027046
#
#
# Mechanical properties :
#
#
# Convention : Reuss Voigt Hill
#
# Bulk Modulus (GPa) = 55.80158 58.28968 57.04563
# Shear Modulus (GPa) = 26.31092 27.55282 26.93187
#
# Velocity S-wave (km/s) = 3.59385 3.67768 3.63601
# Velocity P-wave (km/s) = 6.67932 6.82990 6.75503
#
# Compressibility (1/GPa) = 0.01792064
#
# Stress axis : x y z
#
# Youngs Moduli (GPa) = 64.88487 68.38172 65.21315
#
# Poissons Ratio (x) = 0.14755 0.28484
# Poissons Ratio (y) = 0.14000 0.46949
# Poissons Ratio (z) = 0.28340 0.49230
#
# Static dielectric constant tensor:
#      x y z
#    x 3.755580 0.000000 0.000000 
#    y 0.000000 3.846910 0.000000 
#    z 0.000000 0.000000 3.436970 
# 
# 
# High freq. dielectric constant tensor:
#      x y z
#    x 1.802690 0.000000 0.000000 
#    y 0.000000 1.809910 0.000000 
#    z 0.000000 0.000000 1.773860 
# 
# From -- ./inp_files/11851.got.cif
#   From: 2010.03.12/outbox.cif.g09.slc.cpg/sg55_6_cif.got.tgz:11851.got - 2010.04.16 15:19:21.
