data_PCOD8227850
_publ_section_title
;
Structure prediction by ZEFSAII (Michael W. Deem and Ramdas Pophale) SiO2 
 PCOD8227850
Probable space group: P C C N
;
_chemical_formula_sum "Si O2"
_cell_formula_units_Z 44
_cell_length_a 14.822146
_cell_length_b 23.568992
_cell_length_c 8.417859
_cell_angle_alpha 90.000000
_cell_angle_beta 90.000000
_cell_angle_gamma 90.000000
_cell_volume 2940.720458
_symmetry_space_group_name_H-M "P C C N"
_symmetry_group_IT_number 56
_symmetry_cell_setting 'orthorhombic'
loop_
_space_group_symop_operation_xyz
x,y,z
1/2-x,1/2-y,z
1/2+x,-y,1/2-z
-x,1/2+y,1/2-z
-x,-y,-z
1/2+x,1/2+y,-z
1/2-x,y,1/2+z
x,1/2-y,1/2+z
loop_
_atom_site_type_symbol
_atom_site_label
_atom_site_fract_x
_atom_site_fract_y
_atom_site_fract_z
Si Si1 0.750000 0.750000 0.829974
Si Si2 0.128420 0.535510 0.913939
Si Si3 0.684929 0.668923 0.585870
Si Si4 0.676885 0.574549 0.175080
Si Si5 0.792382 0.497184 0.398097
Si Si6 0.444992 0.082736 0.039065
O O1 0.677781 0.714371 0.726694
O O2 0.807454 0.704681 0.925750
O O3 0.219622 0.544723 0.016642
O O4 0.090538 0.474007 0.957149
O O5 0.146077 0.539122 0.723089
O O6 0.054106 0.583072 0.958518
O O7 0.774324 0.629787 0.602623
O O8 0.592529 0.633328 0.571456
O O9 0.746428 0.546246 0.295874
O O10 0.588484 0.589635 0.277999
O O11 0.650745 0.529948 0.035166
#
# Coordination Sequence:
#
# PCOD8227850 Si02
#       6
#     4   8   8   8   8   8
#     4  10  22  26  46  64  86 126 162 166 224 270
#     4   9  18  28  44  65  85 123 152 187 219 275
#     4  11  17  31  42  64  88 124 150 184 212 266
#     4  10  15  26  45  57  87 127 142 183 217 256
#     4   9  15  27  43  61  88 117 152 174 229 262
#     4  10  18  28  44  64  89 117 161 183 220 260
#
# _framework density 14.962319000000001
#
# number of rings (size 3 to 8) (size 9 to 14) (size 15 to 20)
#    0.000    2.182    7.273    0.000    0.000    0.727 
#    0.000    0.000    0.000    0.000    0.000    0.000 
#    0.000    4.364    0.000    0.000    0.000    0.000 
#
# Total GULP energy -545176.565205 kJ/mol
# GULP energy per Si atom -12390.376482 kJ/mol
# Density = 1.492826 g / cm^3
# Si number density = 14.962319 Si / 1000 Ang^3
#
#
#
# Elastic Constant Matrix: (Units=GPa)
#
#
# Indices 1 2 3 4 5 6 
#
# 1 57.4459 32.8278 26.9259 0.0000 0.0000 0.0000
# 2 32.8278 55.6047 23.4929 0.0000 0.0000 0.0000
# 3 26.9259 23.4929 85.9716 0.0000 0.0000 0.0000
# 4 0.0000 0.0000 0.0000 43.4191 0.0000 0.0000
# 5 0.0000 0.0000 0.0000 0.0000 16.9793 0.0000
# 6 0.0000 0.0000 0.0000 0.0000 0.0000 20.4981
#
#
#
# Elastic Compliance Matrix: (Units=1/GPa)
#
#
# Indices 1 2 3 4 5 6 
#
# 1 0.027915 -0.014455 -0.004793 0.000000 0.000000 0.000000
# 2 -0.014455 0.027817 -0.003074 0.000000 0.000000 0.000000
# 3 -0.004793 -0.003074 0.013973 0.000000 0.000000 0.000000
# 4 0.000000 0.000000 0.000000 0.023031 0.000000 0.000000
# 5 0.000000 0.000000 0.000000 0.000000 0.058895 0.000000
# 6 0.000000 0.000000 0.000000 0.000000 0.000000 0.048785
#
#
# Mechanical properties :
#
#
# Convention : Reuss Voigt Hill
#
# Bulk Modulus (GPa) = 39.90347 40.61282 40.25814
# Shear Modulus (GPa) = 19.73062 23.89768 21.81415
#
# Velocity S-wave (km/s) = 3.63531 4.00082 3.82244
# Velocity P-wave (km/s) = 6.65942 6.96738 6.81514
#
# Compressibility (1/GPa) = 0.02506047
#
# Stress axis : x y z
#
# Youngs Moduli (GPa) = 35.82353 35.94935 71.56770
#
# Poissons Ratio (x) = 0.51966 0.34300
# Poissons Ratio (y) = 0.51784 0.22000
# Poissons Ratio (z) = 0.17169 0.11051
#
# Static dielectric constant tensor:
#      x y z
#    x 3.002450 0.000000 0.000000 
#    y 0.000000 2.665930 0.000000 
#    z 0.000000 0.000000 3.370640 
# 
# 
# High freq. dielectric constant tensor:
#      x y z
#    x 1.533510 0.000000 0.000000 
#    y 0.000000 1.535250 0.000000 
#    z 0.000000 0.000000 1.594870 
# 
# From -- ./inp_files/3334.got.cif
#   From: 2010.03.12/outbox.cif.g09.slc.cpg/sg56_2_cif.got.tgz:3334.got - 2010.04.16 15:33:40.
