data_PCOD8227127
_publ_section_title
;
Structure prediction by ZEFSAII (Michael W. Deem and Ramdas Pophale) SiO2 
 PCOD8227127
Probable space group: P B A M
;
_chemical_formula_sum "Si O2"
_cell_formula_units_Z 56
_cell_length_a 19.508684
_cell_length_b 9.632536
_cell_length_c 14.936446
_cell_angle_alpha 90.000000
_cell_angle_beta 90.000000
_cell_angle_gamma 90.000000
_cell_volume 2806.828567
_symmetry_space_group_name_H-M "P B A M"
_symmetry_group_IT_number 55
_symmetry_cell_setting 'orthorhombic'
loop_
_space_group_symop_operation_xyz
x,y,z
-x,-y,z
1/2+x,1/2-y,-z
1/2-x,1/2+y,-z
-x,-y,-z
x,y,-z
1/2-x,1/2+y,z
1/2+x,1/2-y,z
loop_
_atom_site_type_symbol
_atom_site_label
_atom_site_fract_x
_atom_site_fract_y
_atom_site_fract_z
Si Si1 0.877442 0.148732 0.839102
Si Si2 0.994635 0.851888 0.723255
Si Si3 0.635800 0.334221 0.163941
Si Si4 0.915251 0.334935 0.000000
Si Si5 0.753893 0.226858 0.283312
Si Si6 0.700556 0.970235 0.606013
Si Si7 0.552695 0.878464 0.596877
Si Si8 0.577816 0.163875 0.000000
O O1 0.956247 0.140390 0.809134
O O2 0.828809 0.195107 0.757350
O O3 0.856375 0.993183 0.871717
O O4 0.876399 0.264396 0.916399
O O5 0.019409 0.733300 0.659385
O O6 0.917395 0.823734 0.754057
O O7 0.000000 0.000000 0.672242
O O8 0.707990 0.279598 0.200883
O O9 0.611956 0.232214 0.086138
O O10 0.903904 0.500380 0.000000
O O11 0.996620 0.306076 0.000000
O O12 0.755990 0.337454 0.363720
O O13 0.723978 0.093762 0.331367
O O14 0.710702 0.999647 0.500000
O O15 0.622474 0.942023 0.634408
O O16 0.567352 0.809505 0.500000
O O17 0.500000 0.000000 0.586017
#
# Coordination Sequence:
#
# PCOD8227127 Si02
#       8
#     8   8   8   4   8   8   8   4
#     4  11  23  42  66  93 131 170 214 267 322 383
#     4  10  21  38  63  92 123 169 214 264 321 384
#     4  11  24  42  67  94 131 172 214 263 326 389
#     4  11  25  42  67 102 129 163 215 268 321 388
#     4  12  24  43  65  99 131 174 223 266 325 391
#     4  11  24  43  67  93 132 177 221 274 325 388
#     4  10  21  38  61  93 129 168 215 271 330 379
#     4  11  25  42  67 102 127 165 215 266 323 392
#
# _framework density 19.951343999999999
#
# number of rings (size 3 to 8) (size 9 to 14) (size 15 to 20)
#    0.000    1.143    4.286    1.714    2.000    2.571 
#    0.000    0.714    0.000    0.000    0.000    0.000 
#    0.000    0.000    0.000    0.000    0.000    0.000 
#
# Total GULP energy -694322.725164 kJ/mol
# GULP energy per Si atom -12398.620092 kJ/mol
# Density = 1.990593 g / cm^3
# Si number density = 19.951344 Si / 1000 Ang^3
#
#
#
# Elastic Constant Matrix: (Units=GPa)
#
#
# Indices 1 2 3 4 5 6 
#
# 1 74.8875 27.0189 19.9654 0.0000 0.0000 0.0000
# 2 27.0189 130.4866 53.9700 0.0000 0.0000 0.0000
# 3 19.9654 53.9700 80.2302 0.0000 0.0000 0.0000
# 4 0.0000 0.0000 0.0000 35.6401 0.0000 0.0000
# 5 0.0000 0.0000 0.0000 0.0000 37.1750 0.0000
# 6 0.0000 0.0000 0.0000 0.0000 0.0000 28.1946
#
#
#
# Elastic Compliance Matrix: (Units=1/GPa)
#
#
# Indices 1 2 3 4 5 6 
#
# 1 0.014715 -0.002123 -0.002234 0.000000 0.000000 0.000000
# 2 -0.002123 0.010924 -0.006820 0.000000 0.000000 0.000000
# 3 -0.002234 -0.006820 0.017608 0.000000 0.000000 0.000000
# 4 0.000000 0.000000 0.000000 0.028058 0.000000 0.000000
# 5 0.000000 0.000000 0.000000 0.000000 0.026900 0.000000
# 6 0.000000 0.000000 0.000000 0.000000 0.000000 0.035468
#
#
# Mechanical properties :
#
#
# Convention : Reuss Voigt Hill
#
# Bulk Modulus (GPa) = 47.86296 54.16813 51.01555
# Shear Modulus (GPa) = 30.67658 32.51194 31.59426
#
# Velocity S-wave (km/s) = 3.92544 4.04116 3.98372
# Velocity P-wave (km/s) = 6.67738 6.99884 6.84000
#
# Compressibility (1/GPa) = 0.02089298
#
# Stress axis : x y z
#
# Youngs Moduli (GPa) = 67.95859 91.54078 56.79286
#
# Poissons Ratio (x) = 0.19434 0.12686
# Poissons Ratio (y) = 0.14428 0.38734
# Poissons Ratio (z) = 0.15180 0.62433
#
# Static dielectric constant tensor:
#      x y z
#    x 3.709000 0.000000 0.000000 
#    y 0.000000 3.781350 0.000000 
#    z 0.000000 0.000000 3.702470 
# 
# 
# High freq. dielectric constant tensor:
#      x y z
#    x 1.786300 0.000000 0.000000 
#    y 0.000000 1.794400 0.000000 
#    z 0.000000 0.000000 1.770940 
# 
# From -- ./inp_files/19773.got.cif
#   From: 2010.03.12/outbox.cif.g09.slc.cpg/sg55_10_cif.got.tgz:19773.got - 2010.04.16 15:19:21.
