data_PCOD8227877
_publ_section_title
;
Structure prediction by ZEFSAII (Michael W. Deem and Ramdas Pophale) SiO2 
 PCOD8227877
Probable space group: P C C N
;
_chemical_formula_sum "Si O2"
_cell_formula_units_Z 60
_cell_length_a 16.279273
_cell_length_b 5.468178
_cell_length_c 30.743909
_cell_angle_alpha 90.000000
_cell_angle_beta 90.000000
_cell_angle_gamma 90.000000
_cell_volume 2736.760138
_symmetry_space_group_name_H-M "P C C N"
_symmetry_group_IT_number 56
_symmetry_cell_setting 'orthorhombic'
loop_
_space_group_symop_operation_xyz
x,y,z
1/2-x,1/2-y,z
1/2+x,-y,1/2-z
-x,1/2+y,1/2-z
-x,-y,-z
1/2+x,1/2+y,-z
1/2-x,y,1/2+z
x,1/2-y,1/2+z
loop_
_atom_site_type_symbol
_atom_site_label
_atom_site_fract_x
_atom_site_fract_y
_atom_site_fract_z
Si Si1 0.750000 0.250000 0.204979
Si Si2 0.096861 0.503102 0.761387
Si Si3 0.087108 0.755850 0.060837
Si Si4 0.911894 0.222954 0.041848
Si Si5 0.083820 0.257411 0.090389
Si Si6 0.515914 0.696529 0.818224
Si Si7 0.861872 0.621700 0.670610
Si Si8 0.102001 0.221118 0.419694
O O1 0.828891 0.303217 0.235166
O O2 0.725277 0.478620 0.174114
O O3 0.014809 0.586890 0.786764
O O4 0.125812 0.252768 0.783333
O O5 0.075344 0.475020 0.710665
O O6 0.133221 0.499925 0.073807
O O7 0.996700 0.721892 0.081557
O O8 0.130828 0.996989 0.082179
O O9 0.082577 0.786527 0.009628
O O10 0.865829 0.474706 0.056057
O O11 0.003063 0.225489 0.060872
O O12 0.865817 0.974545 0.058057
O O13 0.067014 0.299722 0.141378
O O14 0.436978 0.562626 0.838200
O O15 0.861525 0.801006 0.629139
#
# Coordination Sequence:
#
# PCOD8227877 Si02
#       8
#     4   8   8   8   8   8   8   8
#     4  10  26  40  58  80 116 160 202 246 314 370
#     4  11  22  39  58  85 111 160 196 257 309 374
#     4  10  17  28  45  71 117 152 183 226 296 347
#     4  10  17  28  44  75 111 155 182 229 287 352
#     4  10  18  28  44  75 108 153 181 235 281 356
#     4  11  21  33  58  83 114 148 205 245 309 360
#     4  11  21  39  55  81 115 156 193 250 300 369
#     4  10  18  28  49  72 108 149 193 224 282 348
#
# _framework density 21.923734
#
# number of rings (size 3 to 8) (size 9 to 14) (size 15 to 20)
#    0.000    1.600    4.000    6.000    1.867    0.000 
#    0.000    0.000    0.000    0.000    0.000    0.000 
#    0.000   11.733    0.000    0.000    0.000    0.000 
#
# Total GULP energy -743643.945055 kJ/mol
# GULP energy per Si atom -12394.065751 kJ/mol
# Density = 2.187384 g / cm^3
# Si number density = 21.923734 Si / 1000 Ang^3
#
#
#
# Elastic Constant Matrix: (Units=GPa)
#
#
# Indices 1 2 3 4 5 6 
#
# 1 37.0797 6.7308 17.6396 0.0000 0.0000 0.0000
# 2 6.7308 166.8285 29.7288 0.0000 0.0000 0.0000
# 3 17.6396 29.7288 119.7091 0.0000 0.0000 0.0000
# 4 0.0000 0.0000 0.0000 33.2542 0.0000 0.0000
# 5 0.0000 0.0000 0.0000 0.0000 9.3114 0.0000
# 6 0.0000 0.0000 0.0000 0.0000 0.0000 14.8997
#
#
#
# Elastic Compliance Matrix: (Units=1/GPa)
#
#
# Indices 1 2 3 4 5 6 
#
# 1 0.029031 -0.000428 -0.004172 0.000000 0.000000 0.000000
# 2 -0.000428 0.006278 -0.001496 0.000000 0.000000 0.000000
# 3 -0.004172 -0.001496 0.009340 0.000000 0.000000 0.000000
# 4 0.000000 0.000000 0.000000 0.030071 0.000000 0.000000
# 5 0.000000 0.000000 0.000000 0.000000 0.107395 0.000000
# 6 0.000000 0.000000 0.000000 0.000000 0.000000 0.067116
#
#
# Mechanical properties :
#
#
# Convention : Reuss Voigt Hill
#
# Bulk Modulus (GPa) = 30.80913 47.97950 39.39431
# Shear Modulus (GPa) = 18.36606 29.46094 23.91350
#
# Velocity S-wave (km/s) = 2.89749 3.66975 3.30625
# Velocity P-wave (km/s) = 5.02765 6.31572 5.70814
#
# Compressibility (1/GPa) = 0.03245792
#
# Stress axis : x y z
#
# Youngs Moduli (GPa) = 34.44582 159.28542 107.06852
#
# Poissons Ratio (x) = 0.06816 0.44664
# Poissons Ratio (y) = 0.01474 0.16018
# Poissons Ratio (z) = 0.14369 0.23830
#
# Static dielectric constant tensor:
#      x y z
#    x 3.299470 0.000000 0.000000 
#    y 0.000000 5.203470 0.000000 
#    z 0.000000 0.000000 3.829700 
# 
# 
# High freq. dielectric constant tensor:
#      x y z
#    x 1.779790 0.000000 0.000000 
#    y 0.000000 1.893890 0.000000 
#    z 0.000000 0.000000 1.860870 
# 
# From -- ./inp_files/22517.got.cif
#   From: 2010.03.12/outbox.cif.g09.slc.cpg/sg56_12_cif.got.tgz:22517.got - 2010.04.16 15:33:40.
