data_PCOD8227780
_publ_section_title
;
Structure prediction by ZEFSAII (Michael W. Deem and Ramdas Pophale) SiO2 
 PCOD8227780
Probable space group: P B A M
;
_chemical_formula_sum "Si O2"
_cell_formula_units_Z 40
_cell_length_a 8.911866
_cell_length_b 10.061163
_cell_length_c 20.736583
_cell_angle_alpha 90.000000
_cell_angle_beta 90.000000
_cell_angle_gamma 90.000000
_cell_volume 1859.319513
_symmetry_space_group_name_H-M "P B A M"
_symmetry_group_IT_number 55
_symmetry_cell_setting 'orthorhombic'
loop_
_space_group_symop_operation_xyz
x,y,z
-x,-y,z
1/2+x,1/2-y,-z
1/2-x,1/2+y,-z
-x,-y,-z
x,y,-z
1/2-x,1/2+y,z
1/2+x,1/2-y,z
loop_
_atom_site_type_symbol
_atom_site_label
_atom_site_fract_x
_atom_site_fract_y
_atom_site_fract_z
Si Si1 0.698803 0.221815 0.850672
Si Si2 0.177991 0.018463 0.924942
Si Si3 0.102687 0.380405 0.573589
Si Si4 0.042130 0.847889 0.769533
Si Si5 0.568622 0.640253 0.377650
O O1 0.719328 0.105375 0.902922
O O2 0.745788 0.356375 0.887067
O O3 0.787096 0.181678 0.786050
O O4 0.536780 0.245153 0.818941
O O5 0.205105 0.041375 0.000000
O O6 0.000000 0.000000 0.910448
O O7 0.150708 0.409358 0.500000
O O8 0.251543 0.365443 0.616582
O O9 0.000000 0.500000 0.600926
O O10 0.002195 0.248219 0.574921
O O11 0.017651 0.818903 0.694357
O O12 0.000000 0.000000 0.785769
O O13 0.500000 0.500000 0.397904
#
# Coordination Sequence:
#
# PCOD8227780 Si02
#       5
#     8   8   8   8   8
#     4  12  20  45  64  92 126 172 208 268 325 382
#     4  11  24  43  65  94 131 166 211 269 325 388
#     4  11  24  43  67 101 137 172 220 276 335 394
#     4  11  24  43  64  92 133 164 216 267 321 382
#     4  11  24  43  67  96 131 181 224 272 331 398
#
# _framework density 21.513245000000001
#
# number of rings (size 3 to 8) (size 9 to 14) (size 15 to 20)
#    0.000    0.800    4.000    3.600    0.000    5.600 
#    3.600    1.000    0.000    0.000    0.000    0.000 
#    0.000    0.000    0.000    0.000    0.000    0.000 
#
# Total GULP energy -495845.732448 kJ/mol
# GULP energy per Si atom -12396.143311 kJ/mol
# Density = 2.146428 g / cm^3
# Si number density = 21.513245 Si / 1000 Ang^3
#
#
#
# Elastic Constant Matrix: (Units=GPa)
#
#
# Indices 1 2 3 4 5 6 
#
# 1 96.1500 42.3303 26.5435 0.0000 0.0000 0.0000
# 2 42.3303 137.0499 36.3060 0.0000 0.0000 0.0000
# 3 26.5435 36.3060 88.3727 0.0000 0.0000 0.0000
# 4 0.0000 0.0000 0.0000 21.5718 0.0000 0.0000
# 5 0.0000 0.0000 0.0000 0.0000 171.3123 0.0000
# 6 0.0000 0.0000 0.0000 0.0000 0.0000 39.8006
#
#
#
# Elastic Compliance Matrix: (Units=1/GPa)
#
#
# Indices 1 2 3 4 5 6 
#
# 1 0.012486 -0.003213 -0.002430 0.000000 0.000000 0.000000
# 2 -0.003213 0.009014 -0.002738 0.000000 0.000000 0.000000
# 3 -0.002430 -0.002738 0.013171 0.000000 0.000000 0.000000
# 4 0.000000 0.000000 0.000000 0.046357 0.000000 0.000000
# 5 0.000000 0.000000 0.000000 0.000000 0.005837 0.000000
# 6 0.000000 0.000000 0.000000 0.000000 0.000000 0.025125
#
#
# Mechanical properties :
#
#
# Convention : Reuss Voigt Hill
#
# Bulk Modulus (GPa) = 55.84096 59.10355 57.47226
# Shear Modulus (GPa) = 37.11345 60.96313 49.03829
#
# Velocity S-wave (km/s) = 4.15799 5.32907 4.77953
# Velocity P-wave (km/s) = 7.00462 8.08691 7.56515
#
# Compressibility (1/GPa) = 0.01790800
#
# Stress axis : x y z
#
# Youngs Moduli (GPa) = 80.09155 110.93472 75.92613
#
# Poissons Ratio (x) = 0.35639 0.18453
# Poissons Ratio (y) = 0.25730 0.20792
# Poissons Ratio (z) = 0.19465 0.30378
#
# Static dielectric constant tensor:
#      x y z
#    x 3.745070 0.000000 0.000000 
#    y 0.000000 4.101330 0.000000 
#    z 0.000000 0.000000 3.847500 
# 
# 
# High freq. dielectric constant tensor:
#      x y z
#    x 1.836930 0.000000 0.000000 
#    y 0.000000 1.850330 0.000000 
#    z 0.000000 0.000000 1.858960 
# 
# From -- ./inp_files/23401.got.cif
#   From: 2010.03.12/outbox.cif.g09.slc.cpg/sg55_12_cif.got.tgz:23401.got - 2010.04.16 15:19:21.
