data_PCOD8227414
_publ_section_title
;
Structure prediction by ZEFSAII (Michael W. Deem and Ramdas Pophale) SiO2 
 PCOD8227414
Probable space group: P B A M
;
_chemical_formula_sum "Si O2"
_cell_formula_units_Z 48
_cell_length_a 9.638192
_cell_length_b 16.736895
_cell_length_c 14.149706
_cell_angle_alpha 90.000000
_cell_angle_beta 90.000000
_cell_angle_gamma 90.000000
_cell_volume 2282.537290
_symmetry_space_group_name_H-M "P B A M"
_symmetry_group_IT_number 55
_symmetry_cell_setting 'orthorhombic'
loop_
_space_group_symop_operation_xyz
x,y,z
-x,-y,z
1/2+x,1/2-y,-z
1/2-x,1/2+y,-z
-x,-y,-z
x,y,-z
1/2-x,1/2+y,z
1/2+x,1/2-y,z
loop_
_atom_site_type_symbol
_atom_site_label
_atom_site_fract_x
_atom_site_fract_y
_atom_site_fract_z
Si Si1 0.345950 0.855172 0.500000
Si Si2 0.694084 0.080477 0.303219
Si Si3 0.714321 0.976536 0.000000
Si Si4 0.996581 0.306814 0.194935
Si Si5 0.506811 0.643037 0.702119
Si Si6 0.557239 0.130563 0.000000
Si Si7 0.246995 0.572941 0.797102
Si Si8 0.456773 0.288920 0.500000
O O1 0.342045 0.917267 0.413663
O O2 0.487359 0.802515 0.500000
O O3 0.212051 0.794533 0.500000
O O4 0.610421 0.153645 0.260761
O O5 0.857152 0.090380 0.286708
O O6 0.654921 0.997085 0.252315
O O7 0.570329 0.929783 0.000000
O O8 0.794151 0.952050 0.096393
O O9 0.691952 0.072688 0.000000
O O10 0.978329 0.216536 0.226422
O O11 0.847173 0.348456 0.201836
O O12 0.055752 0.310533 0.088974
O O13 0.379461 0.588262 0.732628
O O14 0.483388 0.669073 0.593652
#
# Coordination Sequence:
#
# PCOD8227414 Si02
#       8
#     4   8   4   8   8   4   8   4
#     4  10  22  39  63  91 123 160 206 252 306 365
#     4  11  22  40  61  90 123 159 207 254 303 364
#     4   9  18  37  61  90 119 163 199 249 312 363
#     4  11  21  39  64  90 116 163 211 252 297 367
#     4  11  24  40  60  90 128 162 200 253 316 367
#     4   9  18  35  62  89 123 154 203 253 310 351
#     4  11  23  40  64  91 123 165 207 252 308 367
#     4  10  22  39  62  86 124 167 198 248 318 365
#
# _framework density 21.029229999999998
#
# number of rings (size 3 to 8) (size 9 to 14) (size 15 to 20)
#    0.000    1.500    3.333    2.000    2.333    1.333 
#    0.000   10.833    0.000    0.000    0.000    0.000 
#    0.000    0.000    0.000    0.000    0.000    0.000 
#
# Total GULP energy -595241.550044 kJ/mol
# GULP energy per Si atom -12400.865626 kJ/mol
# Density = 2.098137 g / cm^3
# Si number density = 21.029230 Si / 1000 Ang^3
#
#
#
# Elastic Constant Matrix: (Units=GPa)
#
#
# Indices 1 2 3 4 5 6 
#
# 1 36.9202 -17.1178 9.7837 0.0000 0.0000 0.0000
# 2 -17.1178 64.9943 24.9362 0.0000 0.0000 0.0000
# 3 9.7837 24.9362 158.5573 0.0000 0.0000 0.0000
# 4 0.0000 0.0000 0.0000 29.8017 0.0000 0.0000
# 5 0.0000 0.0000 0.0000 0.0000 27.6453 0.0000
# 6 0.0000 0.0000 0.0000 0.0000 0.0000 19.3954
#
#
#
# Elastic Compliance Matrix: (Units=1/GPa)
#
#
# Indices 1 2 3 4 5 6 
#
# 1 0.032661 0.009977 -0.003584 0.000000 0.000000 0.000000
# 2 0.009977 0.019422 -0.003670 0.000000 0.000000 0.000000
# 3 -0.003584 -0.003670 0.007105 0.000000 0.000000 0.000000
# 4 0.000000 0.000000 0.000000 0.033555 0.000000 0.000000
# 5 0.000000 0.000000 0.000000 0.000000 0.036173 0.000000
# 6 0.000000 0.000000 0.000000 0.000000 0.000000 0.051559
#
#
# Mechanical properties :
#
#
# Convention : Reuss Voigt Hill
#
# Bulk Modulus (GPa) = 15.47173 32.85286 24.16229
# Shear Modulus (GPa) = 25.43575 31.55980 28.49777
#
# Velocity S-wave (km/s) = 3.48162 3.87817 3.68523
# Velocity P-wave (km/s) = 4.85134 5.97578 5.44267
#
# Compressibility (1/GPa) = 0.06463403
#
# Stress axis : x y z
#
# Youngs Moduli (GPa) = 30.61726 51.48840 140.74115
#
# Poissons Ratio (x) = -0.51372 0.50448
# Poissons Ratio (y) = -0.30548 0.51654
# Poissons Ratio (z) = 0.10975 0.18897
#
# Static dielectric constant tensor:
#      x y z
#    x 3.656180 0.000000 0.000000 
#    y 0.000000 3.547830 0.000000 
#    z 0.000000 0.000000 4.351550 
# 
# 
# High freq. dielectric constant tensor:
#      x y z
#    x 1.811150 0.000000 0.000000 
#    y 0.000000 1.813140 0.000000 
#    z 0.000000 0.000000 1.843130 
# 
# From -- ./inp_files/17428.got.cif
#   From: 2010.03.12/outbox.cif.g09.slc.cpg/sg55_9_cif.got.tgz:17428.got - 2010.04.16 15:19:21.
