data_PCOD8227500
_publ_section_title
;
Structure prediction by ZEFSAII (Michael W. Deem and Ramdas Pophale) SiO2 
 PCOD8227500
Probable space group: P B A M
;
_chemical_formula_sum "Si O2"
_cell_formula_units_Z 56
_cell_length_a 14.893956
_cell_length_b 22.601584
_cell_length_c 7.763314
_cell_angle_alpha 90.000000
_cell_angle_beta 90.000000
_cell_angle_gamma 90.000000
_cell_volume 2613.341083
_symmetry_space_group_name_H-M "P B A M"
_symmetry_group_IT_number 55
_symmetry_cell_setting 'orthorhombic'
loop_
_space_group_symop_operation_xyz
x,y,z
-x,-y,z
1/2+x,1/2-y,-z
1/2-x,1/2+y,-z
-x,-y,-z
x,y,-z
1/2-x,1/2+y,z
1/2+x,1/2-y,z
loop_
_atom_site_type_symbol
_atom_site_label
_atom_site_fract_x
_atom_site_fract_y
_atom_site_fract_z
Si Si1 0.665608 0.221604 0.299400
Si Si2 0.479653 0.596799 0.500000
Si Si3 0.417087 0.901143 0.295522
Si Si4 0.146801 0.986212 0.500000
Si Si5 0.719724 0.003236 0.190373
Si Si6 0.853756 0.264132 0.798644
Si Si7 0.380514 0.105921 0.304279
Si Si8 0.024560 0.188129 0.195712
O O1 0.644657 0.229173 0.500000
O O2 0.630844 0.158636 0.231087
O O3 0.770904 0.223977 0.260263
O O4 0.615812 0.274141 0.199057
O O5 0.576858 0.567146 0.500000
O O6 0.400467 0.549347 0.500000
O O7 0.468066 0.633618 0.674620
O O8 0.412813 0.906200 0.500000
O O9 0.519288 0.900201 0.227908
O O10 0.368618 0.957003 0.212453
O O11 0.206084 0.979017 0.329367
O O12 0.689267 0.934967 0.202293
O O13 0.760960 0.013072 0.000000
O O14 0.848471 0.326511 0.702207
O O15 0.943144 0.229734 0.742093
O O16 0.852714 0.276499 0.000000
O O17 0.378915 0.083563 0.500000
O O18 0.009610 0.164816 0.000000
#
# Coordination Sequence:
#
# PCOD8227500 Si02
#       8
#     8   4   8   4   8   8   8   8
#     4  11  23  40  68  99 137 184 226 278 341 406
#     4  11  28  50  78  92 134 181 224 282 358 395
#     4  10  22  41  66  97 136 180 227 277 333 403
#     4  11  28  54  69 102 130 172 233 294 334 405
#     4  12  26  43  71 100 134 180 229 282 342 403
#     4  11  25  40  62 100 141 179 225 282 340 405
#     4  11  22  41  67  96 137 181 226 278 333 402
#     4  11  25  45  72 108 141 175 228 283 340 414
#
# _framework density 21.428508999999998
#
# number of rings (size 3 to 8) (size 9 to 14) (size 15 to 20)
#    0.000    1.000    3.571    1.714    6.000    5.143 
#    0.000    1.429    0.000    0.000    0.000    0.000 
#    0.000    0.000    0.000    0.000    0.000    0.000 
#
# Total GULP energy -694803.489640 kJ/mol
# GULP energy per Si atom -12407.205172 kJ/mol
# Density = 2.137974 g / cm^3
# Si number density = 21.428509 Si / 1000 Ang^3
#
#
#
# Elastic Constant Matrix: (Units=GPa)
#
#
# Indices 1 2 3 4 5 6 
#
# 1 74.1698 -2.4173 14.6357 0.0000 0.0000 0.0000
# 2 -2.4173 71.1305 14.5308 0.0000 0.0000 0.0000
# 3 14.6357 14.5308 99.6736 0.0000 0.0000 0.0000
# 4 0.0000 0.0000 0.0000 5.9840 0.0000 0.0000
# 5 0.0000 0.0000 0.0000 0.0000 13.8031 0.0000
# 6 0.0000 0.0000 0.0000 0.0000 0.0000 25.4160
#
#
#
# Elastic Compliance Matrix: (Units=1/GPa)
#
#
# Indices 1 2 3 4 5 6 
#
# 1 0.013943 0.000919 -0.002181 0.000000 0.000000 0.000000
# 2 0.000919 0.014551 -0.002256 0.000000 0.000000 0.000000
# 3 -0.002181 -0.002256 0.010682 0.000000 0.000000 0.000000
# 4 0.000000 0.000000 0.000000 0.167112 0.000000 0.000000
# 5 0.000000 0.000000 0.000000 0.000000 0.072448 0.000000
# 6 0.000000 0.000000 0.000000 0.000000 0.000000 0.039345
#
#
# Mechanical properties :
#
#
# Convention : Reuss Voigt Hill
#
# Bulk Modulus (GPa) = 31.11448 33.16361 32.13905
# Shear Modulus (GPa) = 14.88849 23.58894 19.23871
#
# Velocity S-wave (km/s) = 2.63876 3.32146 2.99960
# Velocity P-wave (km/s) = 4.88219 5.49722 5.19881
#
# Compressibility (1/GPa) = 0.03213937
#
# Stress axis : x y z
#
# Youngs Moduli (GPa) = 71.72063 68.72461 93.61555
#
# Poissons Ratio (x) = -0.06319 0.20421
# Poissons Ratio (y) = -0.06594 0.21122
# Poissons Ratio (z) = 0.15645 0.15506
#
# Static dielectric constant tensor:
#      x y z
#    x 3.915850 0.000000 0.000000 
#    y 0.000000 3.826360 0.000000 
#    z 0.000000 0.000000 3.859660 
# 
# 
# High freq. dielectric constant tensor:
#      x y z
#    x 1.844340 0.000000 0.000000 
#    y 0.000000 1.843420 0.000000 
#    z 0.000000 0.000000 1.845170 
# 
# From -- ./inp_files/6232.got.cif
#   From: 2010.03.12/outbox.cif.g09.slc.cpg/sg55_4_cif.got.tgz:6232.got - 2010.04.16 15:19:21.
