data_PCOD8227823
_publ_section_title
;
Structure prediction by ZEFSAII (Michael W. Deem and Ramdas Pophale) SiO2 
 PCOD8227823
Probable space group: P B A M
;
_chemical_formula_sum "Si O2"
_cell_formula_units_Z 64
_cell_length_a 21.963610
_cell_length_b 21.251332
_cell_length_c 9.205678
_cell_angle_alpha 90.000000
_cell_angle_beta 90.000000
_cell_angle_gamma 90.000000
_cell_volume 4296.805146
_symmetry_space_group_name_H-M "P B A M"
_symmetry_group_IT_number 55
_symmetry_cell_setting 'orthorhombic'
loop_
_space_group_symop_operation_xyz
x,y,z
-x,-y,z
1/2+x,1/2-y,-z
1/2-x,1/2+y,-z
-x,-y,-z
x,y,-z
1/2-x,1/2+y,z
1/2+x,1/2-y,z
loop_
_atom_site_type_symbol
_atom_site_label
_atom_site_fract_x
_atom_site_fract_y
_atom_site_fract_z
Si Si1 0.244038 0.343785 0.829173
Si Si2 0.164540 0.429517 0.670245
Si Si3 0.334421 0.073742 0.331680
Si Si4 0.333270 0.739551 0.669049
Si Si5 0.431396 0.176336 0.670992
Si Si6 0.846753 0.241443 0.160497
Si Si7 0.755635 0.847776 0.163935
Si Si8 0.065961 0.331009 0.331670
O O1 0.225494 0.411816 0.763184
O O2 0.205765 0.296089 0.732320
O O3 0.315911 0.326880 0.806291
O O4 0.227369 0.338609 0.000000
O O5 0.177009 0.416776 0.500000
O O6 0.148558 0.501876 0.700217
O O7 0.107830 0.387794 0.730321
O O8 0.320074 0.085821 0.500000
O O9 0.392065 0.115632 0.281562
O O10 0.273818 0.092056 0.242979
O O11 0.317608 0.730169 0.500000
O O12 0.317344 0.674824 0.753596
O O13 0.403326 0.761969 0.691472
O O14 0.435000 0.183885 0.500000
O O15 0.400186 0.240458 0.729028
O O16 0.498826 0.169102 0.740479
O O17 0.791850 0.290975 0.169736
O O18 0.875543 0.241887 0.000000
O O19 0.772846 0.866497 0.000000
O O20 0.057597 0.345809 0.500000
#
# Coordination Sequence:
#
# PCOD8227823 Si02
#       8
#     8   8   8   8   8   8   8   8
#     4   9  16  26  40  57  76  99 129 165 205 243
#     4   9  17  28  40  56  80 108 138 169 198 229
#     4   9  17  27  40  58  79 107 140 169 196 229
#     4   9  15  25  41  58  77  99 126 163 204 240
#     4   9  16  26  40  57  78 106 138 165 193 231
#     4   8  15  26  38  54  75  97 124 162 204 238
#     4   9  16  26  40  57  77 100 128 164 204 242
#     4   8  15  26  39  57  80 106 135 167 197 226
#
# _framework density 14.894787000000001
#
# number of rings (size 3 to 8) (size 9 to 14) (size 15 to 20)
#    0.000    3.250    0.000    2.625    0.000    4.500 
#    0.000    5.625    0.000    0.000    0.000    7.000 
#    0.000    1.000    0.000   11.250    0.000    6.375 
#
# Total GULP energy -792921.812451 kJ/mol
# GULP energy per Si atom -12389.403320 kJ/mol
# Density = 1.486089 g / cm^3
# Si number density = 14.894787 Si / 1000 Ang^3
#
#
#
# Elastic Constant Matrix: (Units=GPa)
#
#
# Indices 1 2 3 4 5 6 
#
# 1 80.1094 59.0770 39.1802 0.0000 0.0000 0.0000
# 2 59.0770 51.0537 32.1768 0.0000 0.0000 0.0000
# 3 39.1802 32.1768 61.2197 0.0000 0.0000 0.0000
# 4 0.0000 0.0000 0.0000 17.1711 0.0000 0.0000
# 5 0.0000 0.0000 0.0000 0.0000 11.1096 0.0000
# 6 0.0000 0.0000 0.0000 0.0000 0.0000 17.2247
#
#
#
# Elastic Compliance Matrix: (Units=1/GPa)
#
#
# Indices 1 2 3 4 5 6 
#
# 1 0.085796 -0.096708 -0.004079 0.000000 0.000000 0.000000
# 2 -0.096708 0.138298 -0.010796 0.000000 0.000000 0.000000
# 3 -0.004079 -0.010796 0.024620 0.000000 0.000000 0.000000
# 4 0.000000 0.000000 0.000000 0.058237 0.000000 0.000000
# 5 0.000000 0.000000 0.000000 0.000000 0.090012 0.000000
# 6 0.000000 0.000000 0.000000 0.000000 0.000000 0.058056
#
#
# Mechanical properties :
#
#
# Convention : Reuss Voigt Hill
#
# Bulk Modulus (GPa) = 39.14494 50.36120 44.75307
# Shear Modulus (GPa) = 7.28118 13.23100 10.25609
#
# Velocity S-wave (km/s) = 2.21337 2.98366 2.62691
# Velocity P-wave (km/s) = 5.73324 6.76420 6.26994
#
# Compressibility (1/GPa) = 0.02554609
#
# Stress axis : x y z
#
# Youngs Moduli (GPa) = 11.65559 7.23077 40.61754
#
# Poissons Ratio (x) = 0.69927 0.16569
# Poissons Ratio (y) = 1.12719 0.43852
# Poissons Ratio (z) = 0.04755 0.07807
#
# Static dielectric constant tensor:
#      x y z
#    x 3.041750 0.000000 0.000000 
#    y 0.000000 2.870520 0.000000 
#    z 0.000000 0.000000 2.912670 
# 
# 
# High freq. dielectric constant tensor:
#      x y z
#    x 1.544950 0.000000 0.000000 
#    y 0.000000 1.540460 0.000000 
#    z 0.000000 0.000000 1.569070 
# 
# From -- ./inp_files/8166.got.cif
#   From: 2010.03.12/outbox.cif.g09.slc.cpg/sg55_5_cif.got.tgz:8166.got - 2010.04.16 15:19:21.
