data_PCOD8227864
_publ_section_title
;
Structure prediction by ZEFSAII (Michael W. Deem and Ramdas Pophale) SiO2 
 PCOD8227864
Probable space group: P C C N
;
_chemical_formula_sum "Si O2"
_cell_formula_units_Z 52
_cell_length_a 14.558559
_cell_length_b 9.048984
_cell_length_c 18.324927
_cell_angle_alpha 90.000000
_cell_angle_beta 90.000000
_cell_angle_gamma 90.000000
_cell_volume 2414.128952
_symmetry_space_group_name_H-M "P C C N"
_symmetry_group_IT_number 56
_symmetry_cell_setting 'orthorhombic'
loop_
_space_group_symop_operation_xyz
x,y,z
1/2-x,1/2-y,z
1/2+x,-y,1/2-z
-x,1/2+y,1/2-z
-x,-y,-z
1/2+x,1/2+y,-z
1/2-x,y,1/2+z
x,1/2-y,1/2+z
loop_
_atom_site_type_symbol
_atom_site_label
_atom_site_fract_x
_atom_site_fract_y
_atom_site_fract_z
Si Si1 0.411448 0.134355 0.135947
Si Si2 0.985779 0.319651 0.865939
Si Si3 0.250000 0.250000 0.534042
Si Si4 0.845009 0.672215 0.234802
Si Si5 0.984698 0.293286 0.528546
Si Si6 0.352121 0.991015 0.524376
Si Si7 0.824734 0.373715 0.322915
O O1 0.328350 0.182313 0.084520
O O2 0.400780 0.221590 0.210767
O O3 0.418480 0.959663 0.147155
O O4 0.506536 0.177150 0.094235
O O5 0.086956 0.345421 0.833498
O O6 0.003071 0.284241 0.950816
O O7 0.928988 0.188887 0.826208
O O8 0.211615 0.385151 0.484834
O O9 0.750000 0.750000 0.210931
O O10 0.821611 0.511068 0.267422
O O11 0.053102 0.428669 0.547688
O O12 0.879737 0.356788 0.529125
O O13 0.299370 0.933517 0.596234
O O14 0.750000 0.250000 0.299564
#
# Coordination Sequence:
#
# PCOD8227864 Si02
#       7
#     8   8   4   8   8   8   8
#     4  11  20  40  65  90 121 166 213 260 308 383
#     4  11  24  37  62  97 125 163 208 265 326 377
#     4  10  16  32  62  86 118 158 202 256 302 366
#     4  12  23  42  61  88 126 171 211 263 317 380
#     4   9  19  36  60  87 123 156 201 260 315 376
#     4   9  17  33  57  90 117 152 199 254 309 360
#     4  11  21  37  65  95 120 159 220 265 305 380
#
# _framework density 21.539860999999998
#
# number of rings (size 3 to 8) (size 9 to 14) (size 15 to 20)
#    0.000    1.538    3.846    3.231    0.000    0.000 
#    5.538    0.000    0.000    0.000    0.000    0.000 
#    0.000    0.000    0.000    0.000    0.000    0.000 
#
# Total GULP energy -644226.049276 kJ/mol
# GULP energy per Si atom -12388.962486 kJ/mol
# Density = 2.149084 g / cm^3
# Si number density = 21.539861 Si / 1000 Ang^3
#
#
#
# Elastic Constant Matrix: (Units=GPa)
#
#
# Indices 1 2 3 4 5 6 
#
# 1 94.1031 47.4862 27.8432 0.0000 0.0000 0.0000
# 2 47.4862 127.9983 25.3942 0.0000 0.0000 0.0000
# 3 27.8432 25.3942 43.0831 0.0000 0.0000 0.0000
# 4 0.0000 0.0000 0.0000 9.3930 0.0000 0.0000
# 5 0.0000 0.0000 0.0000 0.0000 16.6912 0.0000
# 6 0.0000 0.0000 0.0000 0.0000 0.0000 58.4279
#
#
#
# Elastic Compliance Matrix: (Units=1/GPa)
#
#
# Indices 1 2 3 4 5 6 
#
# 1 0.014800 -0.004069 -0.007167 0.000000 0.000000 0.000000
# 2 -0.004069 0.009966 -0.003244 0.000000 0.000000 0.000000
# 3 -0.007167 -0.003244 0.029755 0.000000 0.000000 0.000000
# 4 0.000000 0.000000 0.000000 0.106462 0.000000 0.000000
# 5 0.000000 0.000000 0.000000 0.000000 0.059912 0.000000
# 6 0.000000 0.000000 0.000000 0.000000 0.000000 0.017115
#
#
# Mechanical properties :
#
#
# Convention : Reuss Voigt Hill
#
# Bulk Modulus (GPa) = 39.12218 51.84796 45.48507
# Shear Modulus (GPa) = 18.14941 27.86647 23.00794
#
# Velocity S-wave (km/s) = 2.90590 3.60073 3.27181
# Velocity P-wave (km/s) = 5.42781 6.43506 5.95278
#
# Compressibility (1/GPa) = 0.02556095
#
# Stress axis : x y z
#
# Youngs Moduli (GPa) = 67.56571 100.34270 33.60793
#
# Poissons Ratio (x) = 0.40829 0.24086
# Poissons Ratio (y) = 0.27492 0.10904
# Poissons Ratio (z) = 0.48422 0.32556
#
# Static dielectric constant tensor:
#      x y z
#    x 4.311990 0.000000 0.000000 
#    y 0.000000 4.017930 0.000000 
#    z 0.000000 0.000000 3.555510 
# 
# 
# High freq. dielectric constant tensor:
#      x y z
#    x 1.843180 0.000000 0.000000 
#    y 0.000000 1.870440 0.000000 
#    z 0.000000 0.000000 1.798110 
# 
# From -- ./inp_files/19059.got.cif
#   From: 2010.03.12/outbox.cif.g09.slc.cpg/sg56_10_cif.got.tgz:19059.got - 2010.04.16 15:33:40.
