data_PCOD8227366
_publ_section_title
;
Structure prediction by ZEFSAII (Michael W. Deem and Ramdas Pophale) SiO2 
 PCOD8227366
Probable space group: P B A M
;
_chemical_formula_sum "Si O2"
_cell_formula_units_Z 40
_cell_length_a 11.512343
_cell_length_b 14.071375
_cell_length_c 9.433840
_cell_angle_alpha 90.000000
_cell_angle_beta 90.000000
_cell_angle_gamma 90.000000
_cell_volume 1528.230151
_symmetry_space_group_name_H-M "P B A M"
_symmetry_group_IT_number 55
_symmetry_cell_setting 'orthorhombic'
loop_
_space_group_symop_operation_xyz
x,y,z
-x,-y,z
1/2+x,1/2-y,-z
1/2-x,1/2+y,-z
-x,-y,-z
x,y,-z
1/2-x,1/2+y,z
1/2+x,1/2-y,z
loop_
_atom_site_type_symbol
_atom_site_label
_atom_site_fract_x
_atom_site_fract_y
_atom_site_fract_z
Si Si1 0.177936 0.019409 0.155526
Si Si2 0.523810 0.645758 0.214761
Si Si3 0.122518 0.569451 0.663914
Si Si4 0.224906 0.774208 0.347546
Si Si5 0.571470 0.157717 0.158201
O O1 0.297420 0.996167 0.242901
O O2 0.098846 0.094054 0.246259
O O3 0.104995 0.924257 0.123269
O O4 0.207848 0.063060 0.000000
O O5 0.601450 0.668947 0.353898
O O6 0.504057 0.746374 0.137316
O O7 0.108507 0.537040 0.500000
O O8 0.196817 0.664573 0.678530
O O9 0.994360 0.583395 0.734974
O O10 0.286760 0.787544 0.500000
O O11 0.305596 0.812788 0.223323
O O12 0.589174 0.113300 0.000000
#
# Coordination Sequence:
#
# PCOD8227366 Si02
#       5
#     8   8   8   8   8
#     4  11  21  38  62  91 124 154 194 245 296 350
#     4  10  22  37  60  92 123 154 192 244 299 349
#     4  10  22  38  57  84 121 159 198 242 294 354
#     4  10  22  39  59  85 120 160 200 243 291 351
#     4  11  21  37  63  90 117 155 201 247 296 349
#
# _framework density 26.174067999999998
#
# number of rings (size 3 to 8) (size 9 to 14) (size 15 to 20)
#    0.000    1.600    2.000    3.600    0.000    7.200 
#    0.000    3.000    0.000    4.800    0.000    0.000 
#    0.000    0.000    0.000    0.000    0.000    0.000 
#
# Total GULP energy -495605.697320 kJ/mol
# GULP energy per Si atom -12390.142433 kJ/mol
# Density = 2.611450 g / cm^3
# Si number density = 26.174068 Si / 1000 Ang^3
#
#
#
# Elastic Constant Matrix: (Units=GPa)
#
#
# Indices 1 2 3 4 5 6 
#
# 1 147.7955 -9.0137 49.4532 0.0000 0.0000 0.0000
# 2 -9.0137 31.4977 -16.8833 0.0000 0.0000 0.0000
# 3 49.4532 -16.8833 144.2716 0.0000 0.0000 0.0000
# 4 0.0000 0.0000 0.0000 16.3713 0.0000 0.0000
# 5 0.0000 0.0000 0.0000 0.0000 4.5968 0.0000
# 6 0.0000 0.0000 0.0000 0.0000 0.0000 37.9665
#
#
#
# Elastic Compliance Matrix: (Units=1/GPa)
#
#
# Indices 1 2 3 4 5 6 
#
# 1 0.007663 0.000838 -0.002529 0.000000 0.000000 0.000000
# 2 0.000838 0.033965 0.003688 0.000000 0.000000 0.000000
# 3 -0.002529 0.003688 0.008230 0.000000 0.000000 0.000000
# 4 0.000000 0.000000 0.000000 0.061082 0.000000 0.000000
# 5 0.000000 0.000000 0.000000 0.000000 0.217544 0.000000
# 6 0.000000 0.000000 0.000000 0.000000 0.000000 0.026339
#
#
# Mechanical properties :
#
#
# Convention : Reuss Voigt Hill
#
# Bulk Modulus (GPa) = 18.56999 41.18635 29.87817
# Shear Modulus (GPa) = 13.55819 31.78750 22.67285
#
# Velocity S-wave (km/s) = 2.27843 3.48870 2.94638
# Velocity P-wave (km/s) = 3.74592 5.65665 4.79738
#
# Compressibility (1/GPa) = 0.05385032
#
# Stress axis : x y z
#
# Youngs Moduli (GPa) = 130.49135 29.44241 121.51059
#
# Poissons Ratio (x) = -0.02466 0.30728
# Poissons Ratio (y) = -0.10929 -0.44808
# Poissons Ratio (z) = 0.32999 -0.10857
#
# Static dielectric constant tensor:
#      x y z
#    x 4.838550 0.000000 0.000000 
#    y 0.000000 5.030540 0.000000 
#    z 0.000000 0.000000 4.306000 
# 
# 
# High freq. dielectric constant tensor:
#      x y z
#    x 2.066300 0.000000 0.000000 
#    y 0.000000 2.070460 0.000000 
#    z 0.000000 0.000000 2.020640 
# 
# From -- ./inp_files/3636.got.cif
#   From: 2010.03.12/outbox.cif.g09.slc.cpg/sg55_2_cif.got.tgz:3636.got - 2010.04.16 15:19:21.
