data_PCOD8227832
_publ_section_title
;
Structure prediction by ZEFSAII (Michael W. Deem and Ramdas Pophale) SiO2 
 PCOD8227832
Probable space group: P B A M
;
_chemical_formula_sum "Si O2"
_cell_formula_units_Z 56
_cell_length_a 18.755319
_cell_length_b 18.150311
_cell_length_c 9.256748
_cell_angle_alpha 90.000000
_cell_angle_beta 90.000000
_cell_angle_gamma 90.000000
_cell_volume 3151.134693
_symmetry_space_group_name_H-M "P B A M"
_symmetry_group_IT_number 55
_symmetry_cell_setting 'orthorhombic'
loop_
_space_group_symop_operation_xyz
x,y,z
-x,-y,z
1/2+x,1/2-y,-z
1/2-x,1/2+y,-z
-x,-y,-z
x,y,-z
1/2-x,1/2+y,z
1/2+x,1/2-y,z
loop_
_atom_site_type_symbol
_atom_site_label
_atom_site_fract_x
_atom_site_fract_y
_atom_site_fract_z
Si Si1 0.210679 0.489405 0.163076
Si Si2 0.458038 0.337912 0.329888
Si Si3 0.753693 0.841156 0.837102
Si Si4 0.113028 0.122026 0.331717
Si Si5 0.619585 0.808387 0.667934
Si Si6 0.344861 0.455275 0.331792
Si Si7 0.577236 0.972461 0.331557
O O1 0.232506 0.574028 0.165893
O O2 0.271150 0.443233 0.246076
O O3 0.135287 0.480224 0.243854
O O4 0.203449 0.459677 0.000000
O O5 0.461648 0.349780 0.500000
O O6 0.536461 0.354187 0.267261
O O7 0.435734 0.255227 0.287423
O O8 0.400799 0.396167 0.268532
O O9 0.828149 0.830722 0.753972
O O10 0.692139 0.795412 0.756646
O O11 0.761635 0.811590 0.000000
O O12 0.121186 0.141538 0.500000
O O13 0.121845 0.035344 0.304671
O O14 0.640060 0.803602 0.500000
O O15 0.582677 0.885934 0.705250
O O16 0.328175 0.442453 0.500000
O O17 0.590746 0.987275 0.500000
O O18 0.500000 0.000000 0.282034
#
# Coordination Sequence:
#
# PCOD8227832 Si02
#       7
#     8   8   8   8   8   8   8
#     4   9  17  29  46  68  92 118 150 187 226 271
#     4   9  17  29  47  71  95 119 151 191 231 272
#     4   9  17  30  47  66  89 118 153 189 224 268
#     4   9  16  28  48  71  93 119 152 188 226 270
#     4   9  17  31  49  67  89 119 154 190 230 274
#     4   9  16  28  47  69  93 121 152 186 225 271
#     4   9  17  30  49  70  90 116 153 196 237 274
#
# _framework density 17.771377000000001
#
# number of rings (size 3 to 8) (size 9 to 14) (size 15 to 20)
#    0.000    3.000    0.000    1.286    0.000    5.429 
#    0.000    3.571    0.000    8.571    0.000    0.000 
#    0.000    0.000    0.000    0.000    0.000    0.000 
#
# Total GULP energy -694371.421027 kJ/mol
# GULP energy per Si atom -12399.489661 kJ/mol
# Density = 1.773093 g / cm^3
# Si number density = 17.771377 Si / 1000 Ang^3
#
#
#
# Elastic Constant Matrix: (Units=GPa)
#
#
# Indices 1 2 3 4 5 6 
#
# 1 189.5251 54.4392 72.3487 0.0000 0.0000 0.0000
# 2 54.4392 53.5156 29.5018 0.0000 0.0000 0.0000
# 3 72.3487 29.5018 78.8635 0.0000 0.0000 0.0000
# 4 0.0000 0.0000 0.0000 10.2250 0.0000 0.0000
# 5 0.0000 0.0000 0.0000 0.0000 10.1186 0.0000
# 6 0.0000 0.0000 0.0000 0.0000 0.0000 19.8239
#
#
#
# Elastic Compliance Matrix: (Units=1/GPa)
#
#
# Indices 1 2 3 4 5 6 
#
# 1 0.009478 -0.006108 -0.006410 0.000000 0.000000 0.000000
# 2 -0.006108 0.027477 -0.004676 0.000000 0.000000 0.000000
# 3 -0.006410 -0.004676 0.020310 0.000000 0.000000 0.000000
# 4 0.000000 0.000000 0.000000 0.097799 0.000000 0.000000
# 5 0.000000 0.000000 0.000000 0.000000 0.098828 0.000000
# 6 0.000000 0.000000 0.000000 0.000000 0.000000 0.050444
#
#
# Mechanical properties :
#
#
# Convention : Reuss Voigt Hill
#
# Bulk Modulus (GPa) = 43.71073 70.49819 57.10446
# Shear Modulus (GPa) = 14.43636 19.07445 16.75541
#
# Velocity S-wave (km/s) = 2.85325 3.27972 3.07389
# Velocity P-wave (km/s) = 5.95854 7.35511 6.69335
#
# Compressibility (1/GPa) = 0.02287768
#
# Stress axis : x y z
#
# Youngs Moduli (GPa) = 105.51234 36.39452 49.23773
#
# Poissons Ratio (x) = 0.22228 0.31561
# Poissons Ratio (y) = 0.64442 0.23022
# Poissons Ratio (z) = 0.67632 0.17017
#
# Static dielectric constant tensor:
#      x y z
#    x 3.489950 0.000000 0.000000 
#    y 0.000000 3.013250 0.000000 
#    z 0.000000 0.000000 3.211980 
# 
# 
# High freq. dielectric constant tensor:
#      x y z
#    x 1.697620 0.000000 0.000000 
#    y 0.000000 1.654950 0.000000 
#    z 0.000000 0.000000 1.669210 
# 
# From -- ./inp_files/7856.got.cif
#   From: 2010.03.12/outbox.cif.g09.slc.cpg/sg55_4_cif.got.tgz:7856.got - 2010.04.16 15:19:21.
