data_PCOD8227109
_publ_section_title
;
Structure prediction by ZEFSAII (Michael W. Deem and Ramdas Pophale) SiO2 
 PCOD8227109
Probable space group: P B A M
;
_chemical_formula_sum "Si O2"
_cell_formula_units_Z 40
_cell_length_a 9.800435
_cell_length_b 16.174115
_cell_length_c 13.834541
_cell_angle_alpha 90.000000
_cell_angle_beta 90.000000
_cell_angle_gamma 90.000000
_cell_volume 2192.959616
_symmetry_space_group_name_H-M "P B A M"
_symmetry_group_IT_number 55
_symmetry_cell_setting 'orthorhombic'
loop_
_space_group_symop_operation_xyz
x,y,z
-x,-y,z
1/2+x,1/2-y,-z
1/2-x,1/2+y,-z
-x,-y,-z
x,y,-z
1/2-x,1/2+y,z
1/2+x,1/2-y,z
loop_
_atom_site_type_symbol
_atom_site_label
_atom_site_fract_x
_atom_site_fract_y
_atom_site_fract_z
Si Si1 0.042963 0.247117 0.716659
Si Si2 0.781824 0.183328 0.386176
Si Si3 0.593676 0.072837 0.719983
Si Si4 0.718838 0.528266 0.890034
Si Si5 0.045063 0.131229 0.889964
O O1 0.928625 0.195494 0.661407
O O2 0.074766 0.208134 0.820721
O O3 0.180370 0.244169 0.651227
O O4 0.002802 0.343721 0.733631
O O5 0.797643 0.187135 0.500000
O O6 0.719172 0.094142 0.353277
O O7 0.500000 0.000000 0.675782
O O8 0.651334 0.043125 0.822741
O O9 0.610537 0.601994 0.876218
O O10 0.647819 0.442122 0.862528
O O11 0.771203 0.526110 0.000000
O O12 0.069406 0.160228 0.000000
#
# Coordination Sequence:
#
# PCOD8227109 Si02
#       5
#     8   8   8   8   8
#     4  10  21  38  61  87 113 156 196 244 289 350
#     4  10  22  40  60  84 113 151 198 247 297 345
#     4  10  23  36  58  84 119 152 191 243 296 349
#     4   9  18  35  56  83 119 153 186 234 290 349
#     4   9  17  33  61  86 111 150 193 236 288 346
#
# _framework density 18.240189999999998
#
# number of rings (size 3 to 8) (size 9 to 14) (size 15 to 20)
#    1.200    1.200    2.000    1.800    2.800    1.600 
#    0.000    1.000    0.000    1.200    0.000    0.000 
#    0.000    0.000    0.000    0.000    0.000    0.000 
#
# Total GULP energy -495748.481338 kJ/mol
# GULP energy per Si atom -12393.712033 kJ/mol
# Density = 1.819867 g / cm^3
# Si number density = 18.240190 Si / 1000 Ang^3
#
#
#
# Elastic Constant Matrix: (Units=GPa)
#
#
# Indices 1 2 3 4 5 6 
#
# 1 44.8059 -0.4681 28.1217 0.0000 0.0000 0.0000
# 2 -0.4681 75.6952 39.8805 0.0000 0.0000 0.0000
# 3 28.1217 39.8805 113.9189 0.0000 0.0000 0.0000
# 4 0.0000 0.0000 0.0000 17.3308 0.0000 0.0000
# 5 0.0000 0.0000 0.0000 0.0000 25.6700 0.0000
# 6 0.0000 0.0000 0.0000 0.0000 0.0000 26.5050
#
#
#
# Elastic Compliance Matrix: (Units=1/GPa)
#
#
# Indices 1 2 3 4 5 6 
#
# 1 0.027669 0.004622 -0.008449 0.000000 0.000000 0.000000
# 2 0.004622 0.016971 -0.007082 0.000000 0.000000 0.000000
# 3 -0.008449 -0.007082 0.013343 0.000000 0.000000 0.000000
# 4 0.000000 0.000000 0.000000 0.057701 0.000000 0.000000
# 5 0.000000 0.000000 0.000000 0.000000 0.038956 0.000000
# 6 0.000000 0.000000 0.000000 0.000000 0.000000 0.037729
#
#
# Mechanical properties :
#
#
# Convention : Reuss Voigt Hill
#
# Bulk Modulus (GPa) = 27.65002 41.05423 34.35213
# Shear Modulus (GPa) = 22.10037 25.02690 23.56363
#
# Velocity S-wave (km/s) = 3.48462 3.70817 3.59813
# Velocity P-wave (km/s) = 5.60195 6.39457 6.01134
#
# Compressibility (1/GPa) = 0.03616634
#
# Stress axis : x y z
#
# Youngs Moduli (GPa) = 36.14110 58.92509 74.94542
#
# Poissons Ratio (x) = -0.27237 0.63318
# Poissons Ratio (y) = -0.16705 0.53077
# Poissons Ratio (z) = 0.30534 0.41731
#
# Static dielectric constant tensor:
#      x y z
#    x 3.185670 0.000000 0.000000 
#    y 0.000000 3.189010 0.000000 
#    z 0.000000 0.000000 3.210350 
# 
# 
# High freq. dielectric constant tensor:
#      x y z
#    x 1.697560 0.000000 0.000000 
#    y 0.000000 1.691150 0.000000 
#    z 0.000000 0.000000 1.703960 
# 
# From -- ./inp_files/17039.got.cif
#   From: 2010.03.12/outbox.cif.g09.slc.cpg/sg55_9_cif.got.tgz:17039.got - 2010.04.16 15:19:21.
