data_PCOD8227104
_publ_section_title
;
Structure prediction by ZEFSAII (Michael W. Deem and Ramdas Pophale) SiO2 
 PCOD8227104
Probable space group: P B A M
;
_chemical_formula_sum "Si O2"
_cell_formula_units_Z 48
_cell_length_a 11.833577
_cell_length_b 23.083504
_cell_length_c 9.037863
_cell_angle_alpha 90.000000
_cell_angle_beta 90.000000
_cell_angle_gamma 90.000000
_cell_volume 2468.786471
_symmetry_space_group_name_H-M "P B A M"
_symmetry_group_IT_number 55
_symmetry_cell_setting 'orthorhombic'
loop_
_space_group_symop_operation_xyz
x,y,z
-x,-y,z
1/2+x,1/2-y,-z
1/2-x,1/2+y,-z
-x,-y,-z
x,y,-z
1/2-x,1/2+y,z
1/2+x,1/2-y,z
loop_
_atom_site_type_symbol
_atom_site_label
_atom_site_fract_x
_atom_site_fract_y
_atom_site_fract_z
Si Si1 0.002533 0.127485 0.671712
Si Si2 0.159929 0.215228 0.171577
Si Si3 0.300563 0.540369 0.668405
Si Si4 0.349863 0.148890 0.671748
Si Si5 0.209137 0.921470 0.170987
Si Si6 0.418265 0.842896 0.168165
O O1 0.993305 0.143140 0.500000
O O2 0.055596 0.182735 0.752224
O O3 0.079111 0.070725 0.696409
O O4 0.879550 0.115510 0.735521
O O5 0.279855 0.197241 0.240155
O O6 0.146621 0.283230 0.198872
O O7 0.160153 0.198728 0.000000
O O8 0.293510 0.517423 0.500000
O O9 0.200752 0.585459 0.702765
O O10 0.287479 0.487870 0.780334
O O11 0.340203 0.164553 0.500000
O O12 0.478837 0.149357 0.720565
O O13 0.332425 0.895111 0.198612
O O14 0.174014 0.917971 0.000000
O O15 0.463785 0.844582 0.000000
#
# Coordination Sequence:
#
# PCOD8227104 Si02
#       6
#     8   8   8   8   8   8
#     4  10  21  38  60  88 119 153 194 244 296 344
#     4  10  21  39  62  84 115 155 193 238 294 349
#     4   9  20  39  59  83 118 154 190 241 298 345
#     4  10  22  40  62  87 115 150 196 242 290 348
#     4  11  23  37  57  88 120 154 199 241 288 348
#     4  10  24  41  57  83 119 157 193 237 290 346
#
# _framework density 19.442751000000001
#
# number of rings (size 3 to 8) (size 9 to 14) (size 15 to 20)
#    0.000    2.000    0.000    3.500    2.333    9.333 
#    0.000    3.333    0.000    0.000    0.000    0.000 
#    0.000    0.000    0.000    0.000    0.000    0.000 
#
# Total GULP energy -595475.905597 kJ/mol
# GULP energy per Si atom -12405.748033 kJ/mol
# Density = 1.939850 g / cm^3
# Si number density = 19.442751 Si / 1000 Ang^3
#
#
#
# Elastic Constant Matrix: (Units=GPa)
#
#
# Indices 1 2 3 4 5 6 
#
# 1 87.9782 9.4262 45.7358 0.0000 0.0000 0.0000
# 2 9.4262 42.7629 31.8372 0.0000 0.0000 0.0000
# 3 45.7358 31.8372 113.3956 0.0000 0.0000 0.0000
# 4 0.0000 0.0000 0.0000 16.7419 0.0000 0.0000
# 5 0.0000 0.0000 0.0000 0.0000 39.1309 0.0000
# 6 0.0000 0.0000 0.0000 0.0000 0.0000 17.0568
#
#
#
# Elastic Compliance Matrix: (Units=1/GPa)
#
#
# Indices 1 2 3 4 5 6 
#
# 1 0.014454 0.001459 -0.006239 0.000000 0.000000 0.000000
# 2 0.001459 0.029712 -0.008930 0.000000 0.000000 0.000000
# 3 -0.006239 -0.008930 0.013842 0.000000 0.000000 0.000000
# 4 0.000000 0.000000 0.000000 0.059730 0.000000 0.000000
# 5 0.000000 0.000000 0.000000 0.000000 0.025555 0.000000
# 6 0.000000 0.000000 0.000000 0.000000 0.000000 0.058628
#
#
# Mechanical properties :
#
#
# Convention : Reuss Voigt Hill
#
# Bulk Modulus (GPa) = 32.69380 46.45945 39.57662
# Shear Modulus (GPa) = 20.87351 25.06176 22.96763
#
# Velocity S-wave (km/s) = 3.28012 3.59416 3.44073
# Velocity P-wave (km/s) = 5.58547 6.41649 6.01535
#
# Compressibility (1/GPa) = 0.03058684
#
# Stress axis : x y z
#
# Youngs Moduli (GPa) = 69.18693 33.65655 72.24136
#
# Poissons Ratio (x) = -0.04911 0.45073
# Poissons Ratio (y) = -0.10095 0.64515
# Poissons Ratio (z) = 0.43167 0.30057
#
# Static dielectric constant tensor:
#      x y z
#    x 3.536540 0.000000 0.000000 
#    y 0.000000 3.489240 0.000000 
#    z 0.000000 0.000000 3.644090 
# 
# 
# High freq. dielectric constant tensor:
#      x y z
#    x 1.758610 0.000000 0.000000 
#    y 0.000000 1.758500 0.000000 
#    z 0.000000 0.000000 1.768440 
# 
# From -- ./inp_files/4076.got.cif
#   From: 2010.03.12/outbox.cif.g09.slc.cpg/sg55_3_cif.got.tgz:4076.got - 2010.04.16 15:19:21.
