data_PCOD8227775
_publ_section_title
;
Structure prediction by ZEFSAII (Michael W. Deem and Ramdas Pophale) SiO2 
 PCOD8227775
Probable space group: P B A M
;
_chemical_formula_sum "Si O2"
_cell_formula_units_Z 40
_cell_length_a 10.067714
_cell_length_b 9.149216
_cell_length_c 20.553825
_cell_angle_alpha 90.000000
_cell_angle_beta 90.000000
_cell_angle_gamma 90.000000
_cell_volume 1893.247557
_symmetry_space_group_name_H-M "P B A M"
_symmetry_group_IT_number 55
_symmetry_cell_setting 'orthorhombic'
loop_
_space_group_symop_operation_xyz
x,y,z
-x,-y,z
1/2+x,1/2-y,-z
1/2-x,1/2+y,-z
-x,-y,-z
x,y,-z
1/2-x,1/2+y,z
1/2+x,1/2-y,z
loop_
_atom_site_type_symbol
_atom_site_label
_atom_site_fract_x
_atom_site_fract_y
_atom_site_fract_z
Si Si1 0.995219 0.327653 0.072717
Si Si2 0.252725 0.785605 0.150049
Si Si3 0.651023 0.461740 0.230322
Si Si4 0.618499 0.102212 0.574315
Si Si5 0.360353 0.569982 0.620870
O O1 0.141461 0.272582 0.092029
O O2 0.000000 0.500000 0.074639
O O3 0.888187 0.267588 0.123190
O O4 0.964081 0.269663 0.000000
O O5 0.308436 0.701064 0.212501
O O6 0.241110 0.945311 0.180849
O O7 0.500000 0.500000 0.215001
O O8 0.680229 0.479693 0.306481
O O9 0.586916 0.145472 0.500000
O O10 0.633445 0.253621 0.614338
O O11 0.500000 0.000000 0.602880
O O12 0.750703 0.003603 0.575114
O O13 0.500000 0.500000 0.600603
#
# Coordination Sequence:
#
# PCOD8227775 Si02
#       5
#     8   8   8   8   8
#     4  11  24  41  64  96 128 165 213 265 325 386
#     4  12  22  43  64  92 125 170 209 267 319 382
#     4  11  24  41  64  92 129 162 216 261 319 378
#     4  11  24  43  68 100 135 172 217 269 331 389
#     4  11  24  43  65  97 131 176 222 272 322 393
#
# _framework density 21.127718999999999
#
# number of rings (size 3 to 8) (size 9 to 14) (size 15 to 20)
#    0.000    0.800    4.000    3.600    0.000    4.800 
#    3.600    1.000    0.000    0.000    0.000    0.000 
#    0.000    0.000    0.000    0.000    0.000    0.000 
#
# Total GULP energy -495994.917824 kJ/mol
# GULP energy per Si atom -12399.872946 kJ/mol
# Density = 2.107963 g / cm^3
# Si number density = 21.127719 Si / 1000 Ang^3
#
#
#
# Elastic Constant Matrix: (Units=GPa)
#
#
# Indices 1 2 3 4 5 6 
#
# 1 115.8021 38.1592 33.2300 0.0000 0.0000 0.0000
# 2 38.1592 105.1610 21.4203 0.0000 0.0000 0.0000
# 3 33.2300 21.4203 81.1321 0.0000 0.0000 0.0000
# 4 0.0000 0.0000 0.0000 24.0628 0.0000 0.0000
# 5 0.0000 0.0000 0.0000 0.0000 28.2765 0.0000
# 6 0.0000 0.0000 0.0000 0.0000 0.0000 35.4116
#
#
#
# Elastic Compliance Matrix: (Units=1/GPa)
#
#
# Indices 1 2 3 4 5 6 
#
# 1 0.010694 -0.003158 -0.003546 0.000000 0.000000 0.000000
# 2 -0.003158 0.010982 -0.001606 0.000000 0.000000 0.000000
# 3 -0.003546 -0.001606 0.014202 0.000000 0.000000 0.000000
# 4 0.000000 0.000000 0.000000 0.041558 0.000000 0.000000
# 5 0.000000 0.000000 0.000000 0.000000 0.035365 0.000000
# 6 0.000000 0.000000 0.000000 0.000000 0.000000 0.028239
#
#
# Mechanical properties :
#
#
# Convention : Reuss Voigt Hill
#
# Bulk Modulus (GPa) = 51.92767 54.19047 53.05907
# Shear Modulus (GPa) = 30.47297 31.50257 30.98777
#
# Velocity S-wave (km/s) = 3.80191 3.86561 3.83389
# Velocity P-wave (km/s) = 6.62601 6.75489 6.69076
#
# Compressibility (1/GPa) = 0.01925756
#
# Stress axis : x y z
#
# Youngs Moduli (GPa) = 93.51360 91.05563 70.41252
#
# Poissons Ratio (x) = 0.28756 0.24969
# Poissons Ratio (y) = 0.29532 0.11309
# Poissons Ratio (z) = 0.33161 0.14624
#
# Static dielectric constant tensor:
#      x y z
#    x 4.448160 0.000000 0.000000 
#    y 0.000000 3.798790 0.000000 
#    z 0.000000 0.000000 3.746610 
# 
# 
# High freq. dielectric constant tensor:
#      x y z
#    x 1.837880 0.000000 0.000000 
#    y 0.000000 1.833810 0.000000 
#    z 0.000000 0.000000 1.830660 
# 
# From -- ./inp_files/23402.got.cif
#   From: 2010.03.12/outbox.cif.g09.slc.cpg/sg55_12_cif.got.tgz:23402.got - 2010.04.16 15:19:21.
