data_PCOD8227614
_publ_section_title
;
Structure prediction by ZEFSAII (Michael W. Deem and Ramdas Pophale) SiO2 
 PCOD8227614
Probable space group: P B A M
;
_chemical_formula_sum "Si O2"
_cell_formula_units_Z 48
_cell_length_a 11.670154
_cell_length_b 23.246126
_cell_length_c 9.254617
_cell_angle_alpha 90.000000
_cell_angle_beta 90.000000
_cell_angle_gamma 90.000000
_cell_volume 2510.646827
_symmetry_space_group_name_H-M "P B A M"
_symmetry_group_IT_number 55
_symmetry_cell_setting 'orthorhombic'
loop_
_space_group_symop_operation_xyz
x,y,z
-x,-y,z
1/2+x,1/2-y,-z
1/2-x,1/2+y,-z
-x,-y,-z
x,y,-z
1/2-x,1/2+y,z
1/2+x,1/2-y,z
loop_
_atom_site_type_symbol
_atom_site_label
_atom_site_fract_x
_atom_site_fract_y
_atom_site_fract_z
Si Si1 0.552539 0.943187 0.328149
Si Si2 0.399930 0.843443 0.338010
Si Si3 0.118939 0.728596 0.661808
Si Si4 0.727434 0.381211 0.670126
Si Si5 0.330280 0.338046 0.169229
Si Si6 0.988528 0.933208 0.169982
O O1 0.542426 0.942303 0.500000
O O2 0.470964 0.894553 0.265690
O O3 0.684462 0.932404 0.286561
O O4 0.500000 0.000000 0.257749
O O5 0.354816 0.856828 0.500000
O O6 0.487213 0.790625 0.342668
O O7 0.295296 0.834438 0.233365
O O8 0.156463 0.747685 0.500000
O O9 0.210865 0.679482 0.713111
O O10 0.107784 0.782264 0.767701
O O11 0.700437 0.381222 0.500000
O O12 0.612442 0.396577 0.755213
O O13 0.395529 0.397846 0.207870
O O14 0.322636 0.330558 0.000000
O O15 0.963282 0.933186 0.000000
O O16 0.000000 0.000000 0.224756
#
# Coordination Sequence:
#
# PCOD8227614 Si02
#       6
#     8   8   8   8   8   8
#     4   8  15  30  55  85 113 138 172 226 282 329
#     4   9  19  36  58  84 113 144 180 229 287 338
#     4   9  20  39  60  86 116 145 182 235 296 345
#     4   9  19  36  60  88 112 142 188 236 282 339
#     4  11  24  38  57  83 113 151 193 236 281 339
#     4  10  24  43  57  77 118 164 197 233 286 339
#
# _framework density 19.118579
#
# number of rings (size 3 to 8) (size 9 to 14) (size 15 to 20)
#    0.000    2.667    0.000    2.500    4.667    3.000 
#    0.000    2.500    0.000    1.000    0.000    0.000 
#    0.000    0.000    0.000    0.000    0.000    0.000 
#
# Total GULP energy -594662.820094 kJ/mol
# GULP energy per Si atom -12388.808752 kJ/mol
# Density = 1.907506 g / cm^3
# Si number density = 19.118579 Si / 1000 Ang^3
#
#
#
# Elastic Constant Matrix: (Units=GPa)
#
#
# Indices 1 2 3 4 5 6 
#
# 1 94.2441 45.5727 42.1433 0.0000 0.0000 0.0000
# 2 45.5727 102.4132 43.5263 0.0000 0.0000 0.0000
# 3 42.1433 43.5263 62.1483 0.0000 0.0000 0.0000
# 4 0.0000 0.0000 0.0000 24.9637 0.0000 0.0000
# 5 0.0000 0.0000 0.0000 0.0000 144.7143 0.0000
# 6 0.0000 0.0000 0.0000 0.0000 0.0000 20.4470
#
#
#
# Elastic Compliance Matrix: (Units=1/GPa)
#
#
# Indices 1 2 3 4 5 6 
#
# 1 0.016108 -0.003596 -0.008404 0.000000 0.000000 0.000000
# 2 -0.003596 0.014705 -0.007861 0.000000 0.000000 0.000000
# 3 -0.008404 -0.007861 0.027295 0.000000 0.000000 0.000000
# 4 0.000000 0.000000 0.000000 0.040058 0.000000 0.000000
# 5 0.000000 0.000000 0.000000 0.000000 0.006910 0.000000
# 6 0.000000 0.000000 0.000000 0.000000 0.000000 0.048907
#
#
# Mechanical properties :
#
#
# Convention : Reuss Voigt Hill
#
# Bulk Modulus (GPa) = 54.38866 57.92110 56.15488
# Shear Modulus (GPa) = 25.02078 46.52921 35.77500
#
# Velocity S-wave (km/s) = 3.62154 4.93862 4.33045
# Velocity P-wave (km/s) = 6.78213 7.92978 7.37830
#
# Compressibility (1/GPa) = 0.01838619
#
# Stress axis : x y z
#
# Youngs Moduli (GPa) = 62.08184 68.00267 36.63683
#
# Poissons Ratio (x) = 0.24453 0.30791
# Poissons Ratio (y) = 0.22324 0.28799
# Poissons Ratio (z) = 0.52176 0.53455
#
# Static dielectric constant tensor:
#      x y z
#    x 3.501100 0.000000 0.000000 
#    y 0.000000 3.881250 0.000000 
#    z 0.000000 0.000000 3.410120 
# 
# 
# High freq. dielectric constant tensor:
#      x y z
#    x 1.750690 0.000000 0.000000 
#    y 0.000000 1.750600 0.000000 
#    z 0.000000 0.000000 1.714310 
# 
# From -- ./inp_files/4072.got.cif
#   From: 2010.03.12/outbox.cif.g09.slc.cpg/sg55_3_cif.got.tgz:4072.got - 2010.04.16 15:19:21.
