data_PCOD8227068
_publ_section_title
;
Structure prediction by ZEFSAII (Michael W. Deem and Ramdas Pophale) SiO2 
 PCOD8227068
Probable space group: P B A M
;
_chemical_formula_sum "Si O2"
_cell_formula_units_Z 64
_cell_length_a 13.403164
_cell_length_b 18.439485
_cell_length_c 13.995272
_cell_angle_alpha 90.000000
_cell_angle_beta 90.000000
_cell_angle_gamma 90.000000
_cell_volume 3458.895668
_symmetry_space_group_name_H-M "P B A M"
_symmetry_group_IT_number 55
_symmetry_cell_setting 'orthorhombic'
loop_
_space_group_symop_operation_xyz
x,y,z
-x,-y,z
1/2+x,1/2-y,-z
1/2-x,1/2+y,-z
-x,-y,-z
x,y,-z
1/2-x,1/2+y,z
1/2+x,1/2-y,z
loop_
_atom_site_type_symbol
_atom_site_label
_atom_site_fract_x
_atom_site_fract_y
_atom_site_fract_z
Si Si1 0.112545 0.985917 0.754395
Si Si2 0.685287 0.167524 0.891596
Si Si3 0.799706 0.753759 0.611597
Si Si4 0.852005 0.180762 0.256124
Si Si5 0.772983 0.921847 0.611726
Si Si6 0.526792 0.210925 0.253534
Si Si7 0.081820 0.560473 0.269240
Si Si8 0.209859 0.500775 0.108817
O O1 0.128261 0.903118 0.724862
O O2 0.181344 0.008390 0.843983
O O3 0.138211 0.034063 0.662009
O O4 0.000000 0.000000 0.786987
O O5 0.784946 0.193325 0.837896
O O6 0.588680 0.203478 0.844064
O O7 0.671690 0.081395 0.884954
O O8 0.693292 0.194765 0.000000
O O9 0.805944 0.738924 0.500000
O O10 0.703291 0.712003 0.651066
O O11 0.788307 0.837948 0.636381
O O12 0.900301 0.722768 0.657323
O O13 0.956384 0.220220 0.239704
O O14 0.777938 0.937750 0.500000
O O15 0.666855 0.949226 0.650973
O O16 0.463338 0.139918 0.276145
O O17 0.129469 0.549887 0.164123
O O18 0.000000 0.500000 0.291663
O O19 0.216466 0.528168 0.000000
#
# Coordination Sequence:
#
# PCOD8227068 Si02
#       8
#     8   8   8   8   8   8   8   8
#     4  10  21  38  61  84 115 152 194 240 281 335
#     4   9  19  36  57  83 115 150 191 235 282 338
#     4  10  22  39  59  83 112 149 192 236 287 348
#     4  10  21  38  58  82 117 154 184 234 290 336
#     4  10  22  40  60  85 117 149 190 243 289 340
#     4  11  21  36  60  83 113 153 192 233 286 344
#     4  11  21  36  58  87 117 150 191 238 289 340
#     4   9  19  36  58  85 116 150 191 238 284 339
#
# _framework density 18.503017
#
# number of rings (size 3 to 8) (size 9 to 14) (size 15 to 20)
#    0.000    2.000    2.500    0.750    1.750    3.500 
#    0.000    0.000    0.000    0.000    0.000    0.000 
#    0.000    0.000    0.000    0.000    0.000    0.000 
#
# Total GULP energy -793902.726372 kJ/mol
# GULP energy per Si atom -12404.730100 kJ/mol
# Density = 1.846090 g / cm^3
# Si number density = 18.503017 Si / 1000 Ang^3
#
#
#
# Elastic Constant Matrix: (Units=GPa)
#
#
# Indices 1 2 3 4 5 6 
#
# 1 118.3101 37.0217 50.6913 0.0000 0.0000 0.0000
# 2 37.0217 76.1205 46.3710 0.0000 0.0000 0.0000
# 3 50.6913 46.3710 120.9605 0.0000 0.0000 0.0000
# 4 0.0000 0.0000 0.0000 27.0440 0.0000 0.0000
# 5 0.0000 0.0000 0.0000 0.0000 15.4161 0.0000
# 6 0.0000 0.0000 0.0000 0.0000 0.0000 38.2032
#
#
#
# Elastic Compliance Matrix: (Units=1/GPa)
#
#
# Indices 1 2 3 4 5 6 
#
# 1 0.010897 -0.003285 -0.003307 0.000000 0.000000 0.000000
# 2 -0.003285 0.018130 -0.005574 0.000000 0.000000 0.000000
# 3 -0.003307 -0.005574 0.011790 0.000000 0.000000 0.000000
# 4 0.000000 0.000000 0.000000 0.036977 0.000000 0.000000
# 5 0.000000 0.000000 0.000000 0.000000 0.064867 0.000000
# 6 0.000000 0.000000 0.000000 0.000000 0.000000 0.026176
#
#
# Mechanical properties :
#
#
# Convention : Reuss Voigt Hill
#
# Bulk Modulus (GPa) = 60.66099 64.83991 62.75045
# Shear Modulus (GPa) = 25.16804 28.21980 26.69392
#
# Velocity S-wave (km/s) = 3.69211 3.90955 3.80238
# Velocity P-wave (km/s) = 7.14360 7.44972 7.29827
#
# Compressibility (1/GPa) = 0.01648506
#
# Stress axis : x y z
#
# Youngs Moduli (GPa) = 91.76430 55.15673 84.81853
#
# Poissons Ratio (x) = 0.18120 0.28053
# Poissons Ratio (y) = 0.30147 0.47274
# Poissons Ratio (z) = 0.30350 0.30742
#
# Static dielectric constant tensor:
#      x y z
#    x 3.531080 0.000000 0.000000 
#    y 0.000000 3.449010 0.000000 
#    z 0.000000 0.000000 3.363880 
# 
# 
# High freq. dielectric constant tensor:
#      x y z
#    x 1.728550 0.000000 0.000000 
#    y 0.000000 1.721020 0.000000 
#    z 0.000000 0.000000 1.713810 
# 
# From -- ./inp_files/18560.got.cif
#   From: 2010.03.12/outbox.cif.g09.slc.cpg/sg55_10_cif.got.tgz:18560.got - 2010.04.16 15:19:21.
