data_PCOD8227721
_publ_section_title
;
Structure prediction by ZEFSAII (Michael W. Deem and Ramdas Pophale) SiO2 
 PCOD8227721
Probable space group: P B A M
;
_chemical_formula_sum "Si O2"
_cell_formula_units_Z 48
_cell_length_a 14.548740
_cell_length_b 9.324607
_cell_length_c 16.828026
_cell_angle_alpha 90.000000
_cell_angle_beta 90.000000
_cell_angle_gamma 90.000000
_cell_volume 2282.911595
_symmetry_space_group_name_H-M "P B A M"
_symmetry_group_IT_number 55
_symmetry_cell_setting 'orthorhombic'
loop_
_space_group_symop_operation_xyz
x,y,z
-x,-y,z
1/2+x,1/2-y,-z
1/2-x,1/2+y,-z
-x,-y,-z
x,y,-z
1/2-x,1/2+y,z
1/2+x,1/2-y,z
loop_
_atom_site_type_symbol
_atom_site_label
_atom_site_fract_x
_atom_site_fract_y
_atom_site_fract_z
Si Si1 0.584542 0.090889 0.657153
Si Si2 0.464849 0.350872 0.658548
Si Si3 0.329388 0.028940 0.500000
Si Si4 0.854641 0.143258 0.500000
Si Si5 0.866450 0.248462 0.810384
Si Si6 0.968829 0.663102 0.089038
Si Si7 0.193360 0.431888 0.809832
O O1 0.552546 0.252119 0.638707
O O2 0.612385 0.014107 0.576459
O O3 0.669499 0.097249 0.717672
O O4 0.500000 0.000000 0.696225
O O5 0.500000 0.500000 0.696866
O O6 0.413570 0.388726 0.577644
O O7 0.398337 0.266740 0.719195
O O8 0.229676 0.963514 0.500000
O O9 0.314909 0.197773 0.500000
O O10 0.814503 0.398720 0.825881
O O11 0.796584 0.118853 0.829417
O O12 0.955222 0.237867 0.867528
O O13 0.873493 0.666642 0.136683
O O14 0.000000 0.500000 0.087128
O O15 0.954258 0.722788 0.000000
#
# Coordination Sequence:
#
# PCOD8227721 Si02
#       7
#     8   8   4   4   8   8   8
#     4  12  21  43  64  86 121 174 215 263 326 388
#     4  12  26  41  65  90 128 168 223 271 326 383
#     4  12  26  39  64  87 129 166 221 268 331 383
#     4  12  26  44  58  95 125 169 217 274 323 387
#     4  11  23  40  64  97 128 168 212 265 321 387
#     4   9  19  40  66  93 128 170 212 260 319 387
#     4  11  22  39  65  93 129 166 215 263 322 387
#
# _framework density 21.025780000000001
#
# number of rings (size 3 to 8) (size 9 to 14) (size 15 to 20)
#    0.000    0.833    5.000    2.500    4.667    0.667 
#    0.000    0.000    0.000    3.500    0.000    0.000 
#    0.000    0.000    0.000    0.000    0.000    0.000 
#
# Total GULP energy -595405.626444 kJ/mol
# GULP energy per Si atom -12404.283884 kJ/mol
# Density = 2.097792 g / cm^3
# Si number density = 21.025780 Si / 1000 Ang^3
#
#
#
# Elastic Constant Matrix: (Units=GPa)
#
#
# Indices 1 2 3 4 5 6 
#
# 1 60.8800 25.2844 29.3681 0.0000 0.0000 0.0000
# 2 25.2844 92.7237 7.2080 0.0000 0.0000 0.0000
# 3 29.3681 7.2080 123.0216 0.0000 0.0000 0.0000
# 4 0.0000 0.0000 0.0000 35.0285 0.0000 0.0000
# 5 0.0000 0.0000 0.0000 0.0000 7.5086 0.0000
# 6 0.0000 0.0000 0.0000 0.0000 0.0000 47.5740
#
#
#
# Elastic Compliance Matrix: (Units=1/GPa)
#
#
# Indices 1 2 3 4 5 6 
#
# 1 0.020897 -0.005335 -0.004676 0.000000 0.000000 0.000000
# 2 -0.005335 0.012196 0.000559 0.000000 0.000000 0.000000
# 3 -0.004676 0.000559 0.009212 0.000000 0.000000 0.000000
# 4 0.000000 0.000000 0.000000 0.028548 0.000000 0.000000
# 5 0.000000 0.000000 0.000000 0.000000 0.133181 0.000000
# 6 0.000000 0.000000 0.000000 0.000000 0.000000 0.021020
#
#
# Mechanical properties :
#
#
# Convention : Reuss Voigt Hill
#
# Bulk Modulus (GPa) = 42.73236 44.48291 43.60763
# Shear Modulus (GPa) = 19.86026 32.33986 26.10006
#
# Velocity S-wave (km/s) = 3.07671 3.92612 3.52708
# Velocity P-wave (km/s) = 5.74365 6.46180 6.11328
#
# Compressibility (1/GPa) = 0.02340147
#
# Stress axis : x y z
#
# Youngs Moduli (GPa) = 47.85355 81.99405 108.55190
#
# Poissons Ratio (x) = 0.43742 0.50759
# Poissons Ratio (y) = 0.25529 -0.06068
# Poissons Ratio (z) = 0.22377 -0.04583
#
# Static dielectric constant tensor:
#      x y z
#    x 3.784430 0.000000 0.000000 
#    y 0.000000 3.748480 0.000000 
#    z 0.000000 0.000000 3.593250 
# 
# 
# High freq. dielectric constant tensor:
#      x y z
#    x 1.821440 0.000000 0.000000 
#    y 0.000000 1.818650 0.000000 
#    z 0.000000 0.000000 1.820030 
# 
# From -- ./inp_files/21535.got.cif
#   From: 2010.03.12/outbox.cif.g09.slc.cpg/sg55_11_cif.got.tgz:21535.got - 2010.04.16 15:19:21.
