data_PCOD8227435
_publ_section_title
;
Structure prediction by ZEFSAII (Michael W. Deem and Ramdas Pophale) SiO2 
 PCOD8227435
Probable space group: P B A M
;
_chemical_formula_sum "Si O2"
_cell_formula_units_Z 40
_cell_length_a 9.697224
_cell_length_b 13.116247
_cell_length_c 14.604650
_cell_angle_alpha 90.000000
_cell_angle_beta 90.000000
_cell_angle_gamma 90.000000
_cell_volume 1857.582743
_symmetry_space_group_name_H-M "P B A M"
_symmetry_group_IT_number 55
_symmetry_cell_setting 'orthorhombic'
loop_
_space_group_symop_operation_xyz
x,y,z
-x,-y,z
1/2+x,1/2-y,-z
1/2-x,1/2+y,-z
-x,-y,-z
x,y,-z
1/2-x,1/2+y,z
1/2+x,1/2-y,z
loop_
_atom_site_type_symbol
_atom_site_label
_atom_site_fract_x
_atom_site_fract_y
_atom_site_fract_z
Si Si1 0.403034 0.281732 0.728806
Si Si2 0.845843 0.037461 0.602999
Si Si3 0.779797 0.436682 0.000000
Si Si4 0.660480 0.303278 0.848126
Si Si5 0.904891 0.406525 0.606002
Si Si6 0.086853 0.353224 0.000000
O O1 0.323810 0.369127 0.672113
O O2 0.537907 0.329823 0.777487
O O3 0.299454 0.232861 0.800451
O O4 0.452143 0.192804 0.660670
O O5 0.804539 0.073399 0.500000
O O6 0.750890 0.941112 0.630914
O O7 0.000000 0.000000 0.606031
O O8 0.695264 0.402450 0.090367
O O9 0.797916 0.557877 0.000000
O O10 0.930560 0.388640 0.000000
O O11 0.608864 0.210674 0.909323
O O12 0.922720 0.379276 0.500000
O O13 0.000000 0.500000 0.636111
#
# Coordination Sequence:
#
# PCOD8227435 Si02
#       6
#     8   8   4   8   8   4
#     4  12  23  39  63  95 131 161 207 273 315 364
#     4  10  22  40  60  87 127 171 211 254 308 369
#     4  10  22  45  68  87 120 169 202 249 324 386
#     4  11  24  40  64  97 124 155 209 260 315 383
#     4  10  22  40  62  90 126 173 218 251 307 379
#     4  10  22  45  68  87 122 167 201 252 320 386
#
# _framework density 21.533362
#
# number of rings (size 3 to 8) (size 9 to 14) (size 15 to 20)
#    0.000    1.400    2.000    3.000    0.000    4.800 
#    0.000    9.000    0.000    0.000    0.000    0.000 
#    0.000    0.000    0.000    0.000    0.000    0.000 
#
# Total GULP energy -496147.345469 kJ/mol
# GULP energy per Si atom -12403.683637 kJ/mol
# Density = 2.148435 g / cm^3
# Si number density = 21.533362 Si / 1000 Ang^3
#
#
#
# Elastic Constant Matrix: (Units=GPa)
#
#
# Indices 1 2 3 4 5 6 
#
# 1 92.0519 -2.5727 21.0483 0.0000 0.0000 0.0000
# 2 -2.5727 75.4580 35.0375 0.0000 0.0000 0.0000
# 3 21.0483 35.0375 91.2123 0.0000 0.0000 0.0000
# 4 0.0000 0.0000 0.0000 -114.8177 0.0000 0.0000
# 5 0.0000 0.0000 0.0000 0.0000 35.0050 0.0000
# 6 0.0000 0.0000 0.0000 0.0000 0.0000 29.1424
#
#
#
# Elastic Compliance Matrix: (Units=1/GPa)
#
#
# Indices 1 2 3 4 5 6 
#
# 1 0.011715 0.002014 -0.003477 0.000000 0.000000 0.000000
# 2 0.002014 0.016475 -0.006793 0.000000 0.000000 0.000000
# 3 -0.003477 -0.006793 0.014375 0.000000 0.000000 0.000000
# 4 0.000000 0.000000 0.000000 -0.008709 0.000000 0.000000
# 5 0.000000 0.000000 0.000000 0.000000 0.028567 0.000000
# 6 0.000000 0.000000 0.000000 0.000000 0.000000 0.034314
#
#
# Mechanical properties :
#
#
# Convention : Reuss Voigt Hill
#
# Bulk Modulus (GPa) = 38.38397 40.63869 39.51133
# Shear Modulus (GPa) = 41.00548 3.54655 22.27601
#
# Velocity S-wave (km/s) = 4.36854 1.28475 3.21984
# Velocity P-wave (km/s) = 6.58100 4.59502 5.67555
#
# Compressibility (1/GPa) = 0.02605254
#
# Stress axis : x y z
#
# Youngs Moduli (GPa) = 85.36260 60.69626 69.56354
#
# Poissons Ratio (x) = -0.12223 0.24186
# Poissons Ratio (y) = -0.17191 0.47258
# Poissons Ratio (z) = 0.29680 0.41234
#
# Static dielectric constant tensor:
#      x y z
#    x 3.978990 0.000000 0.000000 
#    y 0.000000 3.897100 0.000000 
#    z 0.000000 0.000000 4.150720 
# 
# 
# High freq. dielectric constant tensor:
#      x y z
#    x 1.856580 0.000000 0.000000 
#    y 0.000000 1.836180 0.000000 
#    z 0.000000 0.000000 1.856040 
# 
# From -- ./inp_files/17126.got.cif
#   From: 2010.03.12/outbox.cif.g09.slc.cpg/sg55_9_cif.got.tgz:17126.got - 2010.04.16 15:19:21.
