data_PCOD8227680
_publ_section_title
;
Structure prediction by ZEFSAII (Michael W. Deem and Ramdas Pophale) SiO2 
 PCOD8227680
Probable space group: P B A M
;
_chemical_formula_sum "Si O2"
_cell_formula_units_Z 48
_cell_length_a 14.824928
_cell_length_b 8.136988
_cell_length_c 18.137919
_cell_angle_alpha 90.000000
_cell_angle_beta 90.000000
_cell_angle_gamma 90.000000
_cell_volume 2187.981907
_symmetry_space_group_name_H-M "P B A M"
_symmetry_group_IT_number 55
_symmetry_cell_setting 'orthorhombic'
loop_
_space_group_symop_operation_xyz
x,y,z
-x,-y,z
1/2+x,1/2-y,-z
1/2-x,1/2+y,-z
-x,-y,-z
x,y,-z
1/2-x,1/2+y,z
1/2+x,1/2-y,z
loop_
_atom_site_type_symbol
_atom_site_label
_atom_site_fract_x
_atom_site_fract_y
_atom_site_fract_z
Si Si1 0.692158 0.341150 0.916021
Si Si2 0.642629 0.675035 0.151535
Si Si3 0.960140 0.681481 0.157281
Si Si4 0.129089 0.285726 0.692255
Si Si5 0.825050 0.333169 0.691854
Si Si6 0.020954 0.691480 0.417813
O O1 0.792937 0.284093 0.899747
O O2 0.666888 0.485300 0.859310
O O3 0.622289 0.190111 0.901282
O O4 0.685445 0.401983 0.000000
O O5 0.540104 0.704029 0.126305
O O6 0.651434 0.726374 0.236533
O O7 0.923142 0.759527 0.233116
O O8 0.000000 0.500000 0.168714
O O9 0.152178 0.476961 0.702423
O O10 0.219013 0.182460 0.676453
O O11 0.063886 0.232901 0.625545
O O12 0.885029 0.267727 0.623535
O O13 0.026929 0.766891 0.500000
O O14 0.000000 0.500000 0.421576
#
# Coordination Sequence:
#
# PCOD8227680 Si02
#       6
#     8   8   8   8   8   8
#     4  12  28  45  66  97 132 169 216 276 338 397
#     4  12  23  43  67  94 128 172 218 271 327 396
#     4  12  23  42  69  94 127 169 224 274 327 393
#     4  11  21  39  63  98 126 169 222 269 319 390
#     4  11  21  38  67  95 127 170 224 264 319 391
#     4   9  19  38  64  95 134 172 210 264 328 389
#
# _framework density 21.938023999999999
#
# number of rings (size 3 to 8) (size 9 to 14) (size 15 to 20)
#    0.000    0.833    5.000    3.500    0.000    3.000 
#    0.000    0.833    0.000    1.000    0.000    0.000 
#    0.000    0.000    0.000    0.000    0.000    0.000 
#
# Total GULP energy -595190.285229 kJ/mol
# GULP energy per Si atom -12399.797609 kJ/mol
# Density = 2.188809 g / cm^3
# Si number density = 21.938024 Si / 1000 Ang^3
#
#
#
# Elastic Constant Matrix: (Units=GPa)
#
#
# Indices 1 2 3 4 5 6 
#
# 1 178.3456 30.1087 60.1649 0.0000 0.0000 0.0000
# 2 30.1087 50.2800 23.9833 0.0000 0.0000 0.0000
# 3 60.1649 23.9833 138.3292 0.0000 0.0000 0.0000
# 4 0.0000 0.0000 0.0000 21.4354 0.0000 0.0000
# 5 0.0000 0.0000 0.0000 0.0000 29.8817 0.0000
# 6 0.0000 0.0000 0.0000 0.0000 0.0000 38.1226
#
#
#
# Elastic Compliance Matrix: (Units=1/GPa)
#
#
# Indices 1 2 3 4 5 6 
#
# 1 0.006955 -0.002967 -0.002511 0.000000 0.000000 0.000000
# 2 -0.002967 0.022948 -0.002688 0.000000 0.000000 0.000000
# 3 -0.002511 -0.002688 0.008787 0.000000 0.000000 0.000000
# 4 0.000000 0.000000 0.000000 0.046652 0.000000 0.000000
# 5 0.000000 0.000000 0.000000 0.000000 0.033465 0.000000
# 6 0.000000 0.000000 0.000000 0.000000 0.000000 0.026231
#
#
# Mechanical properties :
#
#
# Convention : Reuss Voigt Hill
#
# Bulk Modulus (GPa) = 44.72662 66.16318 55.44490
# Shear Modulus (GPa) = 29.61693 34.73447 32.17570
#
# Velocity S-wave (km/s) = 3.67826 3.98339 3.83386
# Velocity P-wave (km/s) = 6.20253 7.16806 6.70271
#
# Compressibility (1/GPa) = 0.02235805
#
# Stress axis : x y z
#
# Youngs Moduli (GPa) = 143.78226 43.57741 113.80301
#
# Poissons Ratio (x) = 0.12931 0.28571
# Poissons Ratio (y) = 0.42664 0.30591
# Poissons Ratio (z) = 0.36097 0.11714
#
# Static dielectric constant tensor:
#      x y z
#    x 4.526480 0.000000 0.000000 
#    y 0.000000 3.761450 0.000000 
#    z 0.000000 0.000000 4.000040 
# 
# 
# High freq. dielectric constant tensor:
#      x y z
#    x 1.887480 0.000000 0.000000 
#    y 0.000000 1.844660 0.000000 
#    z 0.000000 0.000000 1.850790 
# 
# From -- ./inp_files/21497.got.cif
#   From: 2010.03.12/outbox.cif.g09.slc.cpg/sg55_11_cif.got.tgz:21497.got - 2010.04.16 15:19:21.
