data_PCOD8227990
_publ_section_title
;
Structure prediction by ZEFSAII (Michael W. Deem and Ramdas Pophale) SiO2 
 PCOD8227990
Probable space group: P C C N
;
_chemical_formula_sum "Si O2"
_cell_formula_units_Z 64
_cell_length_a 12.233779
_cell_length_b 15.723195
_cell_length_c 18.033724
_cell_angle_alpha 90.000000
_cell_angle_beta 90.000000
_cell_angle_gamma 90.000000
_cell_volume 3468.860620
_symmetry_space_group_name_H-M "P C C N"
_symmetry_group_IT_number 56
_symmetry_cell_setting 'orthorhombic'
loop_
_space_group_symop_operation_xyz
x,y,z
1/2-x,1/2-y,z
1/2+x,-y,1/2-z
-x,1/2+y,1/2-z
-x,-y,-z
1/2+x,1/2+y,-z
1/2-x,y,1/2+z
x,1/2-y,1/2+z
loop_
_atom_site_type_symbol
_atom_site_label
_atom_site_fract_x
_atom_site_fract_y
_atom_site_fract_z
Si Si1 0.013564 0.002251 0.414282
Si Si2 0.770662 0.560833 0.141827
Si Si3 0.027532 0.832077 0.333671
Si Si4 0.851011 0.310876 0.610789
Si Si5 0.269798 0.894020 0.765331
Si Si6 0.374247 0.978952 0.480729
Si Si7 0.769224 0.007827 0.371974
Si Si8 0.289744 0.342632 0.720400
O O1 0.050203 0.908430 0.390344
O O2 0.898034 0.024181 0.378872
O O3 0.109033 0.071092 0.395352
O O4 0.000000 0.000000 0.500000
O O5 0.785458 0.485668 0.199304
O O6 0.675398 0.543453 0.081000
O O7 0.740410 0.642138 0.192893
O O8 0.037704 0.744702 0.381244
O O9 0.126083 0.832952 0.274622
O O10 0.919572 0.841425 0.286321
O O11 0.750000 0.250000 0.586866
O O12 0.832691 0.351642 0.692538
O O13 0.867795 0.382508 0.548669
O O14 0.260281 0.910653 0.678037
O O15 0.500000 0.000000 0.500000
O O16 0.298443 0.987569 0.552657
O O17 0.743376 0.915799 0.334581
O O18 0.250000 0.250000 0.694362
#
# Coordination Sequence:
#
# PCOD8227990 Si02
#       8
#     8   8   8   8   8   8   8   8
#     4  10  18  35  60  82 110 151 196 228 281 358
#     4   9  19  38  56  80 109 147 192 233 285 343
#     4   9  19  34  59  79 112 150 189 240 285 345
#     4   9  19  38  60  82 114 156 194 240 302 347
#     4   8  17  35  58  81 105 140 192 240 281 341
#     4  11  23  36  60  88 120 153 189 243 304 356
#     4  10  21  36  59  88 111 148 197 238 287 351
#     4  10  22  37  56  82 113 153 196 237 283 346
#
# _framework density 18.449863000000001
#
# number of rings (size 3 to 8) (size 9 to 14) (size 15 to 20)
#    0.000    2.500    1.250    0.750    3.500    1.000 
#    4.500    3.750    0.000    0.000    0.000    0.000 
#    0.000    0.000    0.000    0.000    0.000    0.000 
#
# Total GULP energy -792938.979284 kJ/mol
# GULP energy per Si atom -12389.671551 kJ/mol
# Density = 1.840787 g / cm^3
# Si number density = 18.449863 Si / 1000 Ang^3
#
#
#
# Elastic Constant Matrix: (Units=GPa)
#
#
# Indices 1 2 3 4 5 6 
#
# 1 96.7278 40.5347 42.1426 0.0000 0.0000 0.0000
# 2 40.5347 90.2589 48.7561 0.0000 0.0000 0.0000
# 3 42.1426 48.7561 111.9217 0.0000 0.0000 0.0000
# 4 0.0000 0.0000 0.0000 26.1596 0.0000 0.0000
# 5 0.0000 0.0000 0.0000 0.0000 27.8296 0.0000
# 6 0.0000 0.0000 0.0000 0.0000 0.0000 25.2528
#
#
#
# Elastic Compliance Matrix: (Units=1/GPa)
#
#
# Indices 1 2 3 4 5 6 
#
# 1 0.013562 -0.004358 -0.003208 0.000000 0.000000 0.000000
# 2 -0.004358 0.015889 -0.005281 0.000000 0.000000 0.000000
# 3 -0.003208 -0.005281 0.012443 0.000000 0.000000 0.000000
# 4 0.000000 0.000000 0.000000 0.038227 0.000000 0.000000
# 5 0.000000 0.000000 0.000000 0.000000 0.035933 0.000000
# 6 0.000000 0.000000 0.000000 0.000000 0.000000 0.039600
#
#
# Mechanical properties :
#
#
# Convention : Reuss Voigt Hill
#
# Bulk Modulus (GPa) = 61.72528 62.41945 62.07237
# Shear Modulus (GPa) = 26.77410 27.01339 26.89374
#
# Velocity S-wave (km/s) = 3.81357 3.83057 3.82208
# Velocity P-wave (km/s) = 7.27457 7.31230 7.29346
#
# Compressibility (1/GPa) = 0.01620082
#
# Stress axis : x y z
#
# Youngs Moduli (GPa) = 73.73426 62.93741 80.36421
#
# Poissons Ratio (x) = 0.27426 0.25784
# Poissons Ratio (y) = 0.32130 0.42439
# Poissons Ratio (z) = 0.23657 0.33236
#
# Static dielectric constant tensor:
#      x y z
#    x 3.587480 0.000000 0.000000 
#    y 0.000000 3.596200 0.000000 
#    z 0.000000 0.000000 3.426790 
# 
# 
# High freq. dielectric constant tensor:
#      x y z
#    x 1.718450 0.000000 0.000000 
#    y 0.000000 1.703860 0.000000 
#    z 0.000000 0.000000 1.709140 
# 
# From -- ./inp_files/15866.got.cif
#   From: 2010.03.12/outbox.cif.g09.slc.cpg/sg56_8_cif.got.tgz:15866.got - 2010.04.16 15:33:40.
