data_PCOD8227371
_publ_section_title
;
Structure prediction by ZEFSAII (Michael W. Deem and Ramdas Pophale) SiO2 
 PCOD8227371
Probable space group: P B A M
;
_chemical_formula_sum "Si O2"
_cell_formula_units_Z 32
_cell_length_a 5.086682
_cell_length_b 32.913598
_cell_length_c 7.956392
_cell_angle_alpha 90.000000
_cell_angle_beta 90.000000
_cell_angle_gamma 90.000000
_cell_volume 1332.067157
_symmetry_space_group_name_H-M "P B A M"
_symmetry_group_IT_number 55
_symmetry_cell_setting 'orthorhombic'
loop_
_space_group_symop_operation_xyz
x,y,z
-x,-y,z
1/2+x,1/2-y,-z
1/2-x,1/2+y,-z
-x,-y,-z
x,y,-z
1/2-x,1/2+y,z
1/2+x,1/2-y,z
loop_
_atom_site_type_symbol
_atom_site_label
_atom_site_fract_x
_atom_site_fract_y
_atom_site_fract_z
Si Si1 0.547857 0.047732 0.320381
Si Si2 0.195983 0.119739 0.307023
Si Si3 0.293765 0.836182 0.808782
Si Si4 0.793511 0.223313 0.500000
Si Si5 0.255615 0.471605 0.000000
O O1 0.672032 0.062628 0.500000
O O2 0.274793 0.071987 0.290439
O O3 0.500000 0.000000 0.332068
O O4 0.748271 0.056549 0.166904
O O5 0.182892 0.133950 0.500000
O O6 0.915655 0.127453 0.220704
O O7 0.416011 0.146159 0.213253
O O8 0.242630 0.801390 0.672441
O O9 0.266548 0.819334 0.000000
O O10 0.089427 0.239752 0.500000
O O11 0.500000 0.500000 0.000000
O O12 0.000000 0.500000 0.000000
#
# Coordination Sequence:
#
# PCOD8227371 Si02
#       5
#     8   8   8   4   4
#     4   9  21  40  63  93 130 180 236 290 339 393
#     4  11  22  44  70  97 142 189 234 287 347 402
#     4  12  26  45  72 107 141 182 227 276 341 415
#     4  12  26  48  78 106 143 176 217 276 340 412
#     4  10  22  38  56  84 122 162 216 282 338 386
#
# _framework density 24.022811000000001
#
# number of rings (size 3 to 8) (size 9 to 14) (size 15 to 20)
#    0.000    1.250    2.500    2.250    3.500    5.500 
#    0.000    7.500    0.000    0.000    0.000    0.000 
#    0.000    0.000    0.000    0.000    0.000    0.000 
#
# Total GULP energy -396603.026003 kJ/mol
# GULP energy per Si atom -12393.844563 kJ/mol
# Density = 2.396813 g / cm^3
# Si number density = 24.022811 Si / 1000 Ang^3
#
#
#
# Elastic Constant Matrix: (Units=GPa)
#
#
# Indices 1 2 3 4 5 6 
#
# 1 76.4496 -2.7958 11.3409 0.0000 0.0000 0.0000
# 2 -2.7958 80.5603 20.8067 0.0000 0.0000 0.0000
# 3 11.3409 20.8067 214.9750 0.0000 0.0000 0.0000
# 4 0.0000 0.0000 0.0000 18.4287 0.0000 0.0000
# 5 0.0000 0.0000 0.0000 0.0000 21.2575 0.0000
# 6 0.0000 0.0000 0.0000 0.0000 0.0000 38.8030
#
#
#
# Elastic Compliance Matrix: (Units=1/GPa)
#
#
# Indices 1 2 3 4 5 6 
#
# 1 0.013217 0.000655 -0.000761 0.000000 0.000000 0.000000
# 2 0.000655 0.012764 -0.001270 0.000000 0.000000 0.000000
# 3 -0.000761 -0.001270 0.004815 0.000000 0.000000 0.000000
# 4 0.000000 0.000000 0.000000 0.054263 0.000000 0.000000
# 5 0.000000 0.000000 0.000000 0.000000 0.047042 0.000000
# 6 0.000000 0.000000 0.000000 0.000000 0.000000 0.025771
#
#
# Mechanical properties :
#
#
# Convention : Reuss Voigt Hill
#
# Bulk Modulus (GPa) = 35.65704 47.85427 41.75566
# Shear Modulus (GPa) = 29.41669 38.54007 33.97838
#
# Velocity S-wave (km/s) = 3.50313 4.00973 3.76496
# Velocity P-wave (km/s) = 5.58907 6.43435 6.02655
#
# Compressibility (1/GPa) = 0.02804495
#
# Stress axis : x y z
#
# Youngs Moduli (GPa) = 75.65835 78.34668 207.69528
#
# Poissons Ratio (x) = -0.05133 0.15799
# Poissons Ratio (y) = -0.04957 0.26376
# Poissons Ratio (z) = 0.05755 0.09949
#
# Static dielectric constant tensor:
#      x y z
#    x 4.180100 0.000000 0.000000 
#    y 0.000000 4.116960 0.000000 
#    z 0.000000 0.000000 5.274090 
# 
# 
# High freq. dielectric constant tensor:
#      x y z
#    x 1.947640 0.000000 0.000000 
#    y 0.000000 1.937060 0.000000 
#    z 0.000000 0.000000 1.981750 
# 
# From -- ./inp_files/1377.got.cif
#   From: 2010.03.12/outbox.cif.g09.slc.cpg/sg55_1_cif.got.tgz:1377.got - 2010.04.16 15:19:21.
