data_PCOD8227393
_publ_section_title
;
Structure prediction by ZEFSAII (Michael W. Deem and Ramdas Pophale) SiO2 
 PCOD8227393
Probable space group: P B A M
;
_chemical_formula_sum "Si O2"
_cell_formula_units_Z 64
_cell_length_a 10.855597
_cell_length_b 32.657192
_cell_length_c 9.179199
_cell_angle_alpha 90.000000
_cell_angle_beta 90.000000
_cell_angle_gamma 90.000000
_cell_volume 3254.148271
_symmetry_space_group_name_H-M "P B A M"
_symmetry_group_IT_number 55
_symmetry_cell_setting 'orthorhombic'
loop_
_space_group_symop_operation_xyz
x,y,z
-x,-y,z
1/2+x,1/2-y,-z
1/2-x,1/2+y,-z
-x,-y,-z
x,y,-z
1/2-x,1/2+y,z
1/2+x,1/2-y,z
loop_
_atom_site_type_symbol
_atom_site_label
_atom_site_fract_x
_atom_site_fract_y
_atom_site_fract_z
Si Si1 0.643879 0.118990 0.172490
Si Si2 0.492698 0.197386 0.172450
Si Si3 0.399019 0.345008 0.168483
Si Si4 0.115432 0.472677 0.173903
Si Si5 0.978876 0.776228 0.337096
Si Si6 0.867431 0.986737 0.828210
Si Si7 0.767564 0.326952 0.661617
Si Si8 0.147108 0.106634 0.166798
O O1 0.551340 0.154486 0.225542
O O2 0.779741 0.131101 0.228741
O O3 0.602112 0.074282 0.231316
O O4 0.645762 0.116877 0.000000
O O5 0.559608 0.236058 0.245976
O O6 0.354513 0.199069 0.232771
O O7 0.497406 0.202475 0.000000
O O8 0.415444 0.302710 0.256836
O O9 0.510863 0.376107 0.190982
O O10 0.382959 0.332509 0.000000
O O11 0.247955 0.488986 0.233344
O O12 0.000000 0.500000 0.232853
O O13 0.114960 0.474499 0.000000
O O14 0.024962 0.764533 0.500000
O O15 0.859598 0.803691 0.346634
O O16 0.849000 0.939973 0.785434
O O17 0.873609 0.993741 0.000000
O O18 0.000000 0.000000 0.760141
O O19 0.824354 0.332079 0.500000
O O20 0.746846 0.371365 0.732015
O O21 0.189105 0.112521 0.000000
#
# Coordination Sequence:
#
# PCOD8227393 Si02
#       8
#     8   8   8   8   8   8   8   8
#     4   9  19  33  50  78 113 145 178 221 273 328
#     4  11  23  36  56  81 109 141 182 226 271 328
#     4   9  17  33  55  81 113 145 177 221 274 324
#     4   9  17  28  45  72 111 148 177 217 276 332
#     4  10  22  39  57  80 108 140 181 226 275 326
#     4   9  16  26  46  78 111 142 178 227 281 331
#     4  10  22  39  56  77 109 145 182 224 271 326
#     4   9  17  30  54  83 111 142 181 226 273 325
#
# _framework density 19.667204999999999
#
# number of rings (size 3 to 8) (size 9 to 14) (size 15 to 20)
#    0.000    2.500    0.000    1.875    3.500    4.500 
#    0.000    0.625    0.000    0.375    0.000    3.500 
#    0.000    0.000    0.000    0.000    0.000    0.000 
#
# Total GULP energy -793375.962722 kJ/mol
# GULP energy per Si atom -12396.499418 kJ/mol
# Density = 1.962244 g / cm^3
# Si number density = 19.667205 Si / 1000 Ang^3
#
#
#
# Elastic Constant Matrix: (Units=GPa)
#
#
# Indices 1 2 3 4 5 6 
#
# 1 66.5037 40.9085 20.4832 0.0000 0.0000 0.0000
# 2 40.9085 152.9791 44.5347 0.0000 0.0000 0.0000
# 3 20.4832 44.5347 66.8823 0.0000 0.0000 0.0000
# 4 0.0000 0.0000 0.0000 5.4297 0.0000 0.0000
# 5 0.0000 0.0000 0.0000 0.0000 13.9315 0.0000
# 6 0.0000 0.0000 0.0000 0.0000 0.0000 22.9380
#
#
#
# Elastic Compliance Matrix: (Units=1/GPa)
#
#
# Indices 1 2 3 4 5 6 
#
# 1 0.018450 -0.004080 -0.002934 0.000000 0.000000 0.000000
# 2 -0.004080 0.009011 -0.004751 0.000000 0.000000 0.000000
# 3 -0.002934 -0.004751 0.019013 0.000000 0.000000 0.000000
# 4 0.000000 0.000000 0.000000 0.184171 0.000000 0.000000
# 5 0.000000 0.000000 0.000000 0.000000 0.071780 0.000000
# 6 0.000000 0.000000 0.000000 0.000000 0.000000 0.043596
#
#
# Mechanical properties :
#
#
# Convention : Reuss Voigt Hill
#
# Bulk Modulus (GPa) = 43.58086 55.35756 49.46921
# Shear Modulus (GPa) = 13.25568 20.48910 16.87239
#
# Velocity S-wave (km/s) = 2.59897 3.23118 2.93216
# Velocity P-wave (km/s) = 5.58690 6.49068 6.05567
#
# Compressibility (1/GPa) = 0.02294585
#
# Stress axis : x y z
#
# Youngs Moduli (GPa) = 54.20076 110.97872 52.59447
#
# Poissons Ratio (x) = 0.45275 0.15431
# Poissons Ratio (y) = 0.22112 0.24985
# Poissons Ratio (z) = 0.15902 0.52721
#
# Static dielectric constant tensor:
#      x y z
#    x 3.649640 0.000000 0.000000 
#    y 0.000000 3.817690 0.000000 
#    z 0.000000 0.000000 3.367000 
# 
# 
# High freq. dielectric constant tensor:
#      x y z
#    x 1.768240 0.000000 0.000000 
#    y 0.000000 1.778440 0.000000 
#    z 0.000000 0.000000 1.718580 
# 
# From -- ./inp_files/4686.got.cif
#   From: 2010.03.12/outbox.cif.g09.slc.cpg/sg55_3_cif.got.tgz:4686.got - 2010.04.16 15:19:21.
