data_PCOD8227742
_publ_section_title
;
Structure prediction by ZEFSAII (Michael W. Deem and Ramdas Pophale) SiO2 
 PCOD8227742
Probable space group: P B A M
;
_chemical_formula_sum "Si O2"
_cell_formula_units_Z 64
_cell_length_a 28.059407
_cell_length_b 12.654549
_cell_length_c 8.928620
_cell_angle_alpha 90.000000
_cell_angle_beta 90.000000
_cell_angle_gamma 90.000000
_cell_volume 3170.366718
_symmetry_space_group_name_H-M "P B A M"
_symmetry_group_IT_number 55
_symmetry_cell_setting 'orthorhombic'
loop_
_space_group_symop_operation_xyz
x,y,z
-x,-y,z
1/2+x,1/2-y,-z
1/2-x,1/2+y,-z
-x,-y,-z
x,y,-z
1/2-x,1/2+y,z
1/2+x,1/2-y,z
loop_
_atom_site_type_symbol
_atom_site_label
_atom_site_fract_x
_atom_site_fract_y
_atom_site_fract_z
Si Si1 0.568899 0.601248 0.332927
Si Si2 0.400240 0.624393 0.676183
Si Si3 0.677636 0.668302 0.664823
Si Si4 0.066123 0.335855 0.172340
Si Si5 0.388414 0.036184 0.322799
Si Si6 0.299448 0.127191 0.826207
Si Si7 0.958011 0.300660 0.171402
Si Si8 0.205956 0.061127 0.671791
O O1 0.547325 0.612237 0.500000
O O2 0.567419 0.478375 0.281984
O O3 0.623239 0.635590 0.332554
O O4 0.539517 0.678250 0.223688
O O5 0.404425 0.647946 0.500000
O O6 0.419493 0.721031 0.771214
O O7 0.345420 0.605172 0.721244
O O8 0.689677 0.716309 0.500000
O O9 0.687742 0.751376 0.794583
O O10 0.709258 0.564841 0.693419
O O11 0.092165 0.424580 0.267920
O O12 0.009692 0.352410 0.190994
O O13 0.081243 0.348001 0.000000
O O14 0.388090 0.037187 0.500000
O O15 0.334630 0.049811 0.264273
O O16 0.420569 0.133646 0.268457
O O17 0.245100 0.111671 0.778563
O O18 0.305711 0.103189 0.000000
O O19 0.941118 0.304986 0.000000
O O20 0.216169 0.092038 0.500000
#
# Coordination Sequence:
#
# PCOD8227742 Si02
#       8
#     8   8   8   8   8   8   8   8
#     4   9  18  35  62  90 117 154 203 251 290 347
#     4   9  20  40  63  89 121 162 208 251 299 354
#     4   9  18  36  60  84 112 151 196 243 294 347
#     4  11  25  42  60  87 127 166 200 248 311 369
#     4  12  25  42  64  87 116 157 207 256 303 361
#     4  12  24  37  59  91 122 154 195 245 304 365
#     4  11  23  39  61  91 124 159 199 250 311 367
#     4   9  20  39  62  87 118 157 201 247 296 353
#
# _framework density 20.18694
#
# number of rings (size 3 to 8) (size 9 to 14) (size 15 to 20)
#    0.000    1.750    1.250    4.875    0.000    6.500 
#    0.000    6.250    0.000    0.000    0.000    0.000 
#    0.000    0.000    0.000    0.000    0.000    0.000 
#
# Total GULP energy -793728.167015 kJ/mol
# GULP energy per Si atom -12402.002610 kJ/mol
# Density = 2.014099 g / cm^3
# Si number density = 20.186940 Si / 1000 Ang^3
#
#
#
# Elastic Constant Matrix: (Units=GPa)
#
#
# Indices 1 2 3 4 5 6 
#
# 1 37.4287 6.5930 24.4698 0.0000 0.0000 0.0000
# 2 6.5930 90.3341 38.9400 0.0000 0.0000 0.0000
# 3 24.4698 38.9400 123.0861 0.0000 0.0000 0.0000
# 4 0.0000 0.0000 0.0000 19.7056 0.0000 0.0000
# 5 0.0000 0.0000 0.0000 0.0000 27.6445 0.0000
# 6 0.0000 0.0000 0.0000 0.0000 0.0000 15.6489
#
#
#
# Elastic Compliance Matrix: (Units=1/GPa)
#
#
# Indices 1 2 3 4 5 6 
#
# 1 0.030725 0.000452 -0.006251 0.000000 0.000000 0.000000
# 2 0.000452 0.012825 -0.004147 0.000000 0.000000 0.000000
# 3 -0.006251 -0.004147 0.010679 0.000000 0.000000 0.000000
# 4 0.000000 0.000000 0.000000 0.050747 0.000000 0.000000
# 5 0.000000 0.000000 0.000000 0.000000 0.036174 0.000000
# 6 0.000000 0.000000 0.000000 0.000000 0.000000 0.063902
#
#
# Mechanical properties :
#
#
# Convention : Reuss Voigt Hill
#
# Bulk Modulus (GPa) = 29.12371 43.42826 36.27598
# Shear Modulus (GPa) = 21.15157 24.65622 22.90389
#
# Velocity S-wave (km/s) = 3.24046 3.49864 3.37202
# Velocity P-wave (km/s) = 5.33471 6.15470 5.75932
#
# Compressibility (1/GPa) = 0.03433629
#
# Stress axis : x y z
#
# Youngs Moduli (GPa) = 32.54714 77.97444 93.64023
#
# Poissons Ratio (x) = -0.03527 0.58537
# Poissons Ratio (y) = -0.01472 0.38834
# Poissons Ratio (z) = 0.20346 0.32337
#
# Static dielectric constant tensor:
#      x y z
#    x 3.615740 0.000000 0.000000 
#    y 0.000000 3.938540 0.000000 
#    z 0.000000 0.000000 3.764910 
# 
# 
# High freq. dielectric constant tensor:
#      x y z
#    x 1.786970 0.000000 0.000000 
#    y 0.000000 1.795370 0.000000 
#    z 0.000000 0.000000 1.783960 
# 
# From -- ./inp_files/10724.got.cif
#   From: 2010.03.12/outbox.cif.g09.slc.cpg/sg55_6_cif.got.tgz:10724.got - 2010.04.16 15:19:21.
