data_PCOD8227889
_publ_section_title
;
Structure prediction by ZEFSAII (Michael W. Deem and Ramdas Pophale) SiO2 
 PCOD8227889
Probable space group: P C C N
;
_chemical_formula_sum "Si O2"
_cell_formula_units_Z 52
_cell_length_a 14.917444
_cell_length_b 19.008610
_cell_length_c 8.850280
_cell_angle_alpha 90.000000
_cell_angle_beta 90.000000
_cell_angle_gamma 90.000000
_cell_volume 2509.584292
_symmetry_space_group_name_H-M "P C C N"
_symmetry_group_IT_number 56
_symmetry_cell_setting 'orthorhombic'
loop_
_space_group_symop_operation_xyz
x,y,z
1/2-x,1/2-y,z
1/2+x,-y,1/2-z
-x,1/2+y,1/2-z
-x,-y,-z
1/2+x,1/2+y,-z
1/2-x,y,1/2+z
x,1/2-y,1/2+z
loop_
_atom_site_type_symbol
_atom_site_label
_atom_site_fract_x
_atom_site_fract_y
_atom_site_fract_z
Si Si1 0.733450 0.540509 0.484496
Si Si2 0.695827 0.443488 0.731456
Si Si3 0.050453 0.647422 0.624920
Si Si4 0.126364 0.796722 0.641505
Si Si5 0.623325 0.921753 0.715657
Si Si6 0.897905 0.080591 0.184287
Si Si7 0.750000 0.250000 0.599346
O O1 0.667163 0.496970 0.596971
O O2 0.793253 0.486631 0.386492
O O3 0.803351 0.586537 0.582405
O O4 0.672890 0.589639 0.376667
O O5 0.624921 0.380895 0.756672
O O6 0.790221 0.411144 0.678412
O O7 0.063411 0.730680 0.600460
O O8 0.054168 0.605968 0.467901
O O9 0.952634 0.636767 0.697280
O O10 0.071104 0.869134 0.673205
O O11 0.172936 0.785614 0.804196
O O12 0.202300 0.807226 0.512779
O O13 0.577069 0.999382 0.714119
#
# Coordination Sequence:
#
# PCOD8227889 Si02
#       7
#     8   8   8   8   8   8   4
#     4   8  18  35  55  79 112 150 183 236 285 334
#     4  10  17  32  53  80 119 153 188 208 271 340
#     4  12  22  34  56  87 115 151 194 235 267 339
#     4  11  22  32  53  79 118 156 191 210 269 334
#     4  10  21  37  62  82 114 143 196 237 293 325
#     4  10  21  36  53  80 118 164 175 224 276 346
#     4  10  20  36  52  78 120 170 180 202 260 362
#
# _framework density 20.720562000000001
#
# number of rings (size 3 to 8) (size 9 to 14) (size 15 to 20)
#    0.000    2.154    4.615    2.308    0.000    3.077 
#    0.000    0.000    0.000    0.000    0.000    3.231 
#    0.000    0.000    0.000    0.000    0.000    0.000 
#
# Total GULP energy -644400.254614 kJ/mol
# GULP energy per Si atom -12392.312589 kJ/mol
# Density = 2.067340 g / cm^3
# Si number density = 20.720562 Si / 1000 Ang^3
#
#
#
# Elastic Constant Matrix: (Units=GPa)
#
#
# Indices 1 2 3 4 5 6 
#
# 1 44.6959 16.8315 2.7231 0.0000 0.0000 0.0000
# 2 16.8315 46.9797 3.0130 0.0000 0.0000 0.0000
# 3 2.7231 3.0130 92.7302 0.0000 0.0000 0.0000
# 4 0.0000 0.0000 0.0000 16.9268 0.0000 0.0000
# 5 0.0000 0.0000 0.0000 0.0000 26.0318 0.0000
# 6 0.0000 0.0000 0.0000 0.0000 0.0000 13.5009
#
#
#
# Elastic Compliance Matrix: (Units=1/GPa)
#
#
# Indices 1 2 3 4 5 6 
#
# 1 0.025882 -0.009243 -0.000460 0.000000 0.000000 0.000000
# 2 -0.009243 0.024631 -0.000529 0.000000 0.000000 0.000000
# 3 -0.000460 -0.000529 0.010815 0.000000 0.000000 0.000000
# 4 0.000000 0.000000 0.000000 0.059078 0.000000 0.000000
# 5 0.000000 0.000000 0.000000 0.000000 0.038415 0.000000
# 6 0.000000 0.000000 0.000000 0.000000 0.000000 0.074069
#
#
# Mechanical properties :
#
#
# Convention : Reuss Voigt Hill
#
# Bulk Modulus (GPa) = 24.47126 25.50456 24.98791
# Shear Modulus (GPa) = 18.72831 22.08111 20.40471
#
# Velocity S-wave (km/s) = 3.00967 3.26799 3.14149
# Velocity P-wave (km/s) = 4.89012 5.15511 5.02437
#
# Compressibility (1/GPa) = 0.04086427
#
# Stress axis : x y z
#
# Youngs Moduli (GPa) = 38.63639 40.59861 92.46704
#
# Poissons Ratio (x) = 0.37527 0.04251
# Poissons Ratio (y) = 0.35713 0.04890
# Poissons Ratio (z) = 0.01776 0.02147
#
# Static dielectric constant tensor:
#      x y z
#    x 3.269500 0.000000 0.000000 
#    y 0.000000 3.587840 0.000000 
#    z 0.000000 0.000000 4.017090 
# 
# 
# High freq. dielectric constant tensor:
#      x y z
#    x 1.756440 0.000000 0.000000 
#    y 0.000000 1.777620 0.000000 
#    z 0.000000 0.000000 1.834240 
# 
# From -- ./inp_files/3528.got.cif
#   From: 2010.03.12/outbox.cif.g09.slc.cpg/sg56_2_cif.got.tgz:3528.got - 2010.04.16 15:33:40.
