data_PCOD8227324
_publ_section_title
;
Structure prediction by ZEFSAII (Michael W. Deem and Ramdas Pophale) SiO2 
 PCOD8227324
Probable space group: P B A M
;
_chemical_formula_sum "Si O2"
_cell_formula_units_Z 64
_cell_length_a 22.312115
_cell_length_b 9.283749
_cell_length_c 13.877436
_cell_angle_alpha 90.000000
_cell_angle_beta 90.000000
_cell_angle_gamma 90.000000
_cell_volume 2874.573138
_symmetry_space_group_name_H-M "P B A M"
_symmetry_group_IT_number 55
_symmetry_cell_setting 'orthorhombic'
loop_
_space_group_symop_operation_xyz
x,y,z
-x,-y,z
1/2+x,1/2-y,-z
1/2-x,1/2+y,-z
-x,-y,-z
x,y,-z
1/2-x,1/2+y,z
1/2+x,1/2-y,z
loop_
_atom_site_type_symbol
_atom_site_label
_atom_site_fract_x
_atom_site_fract_y
_atom_site_fract_z
Si Si1 0.924423 0.064971 0.606854
Si Si2 0.210283 0.940921 0.605071
Si Si3 0.364662 0.479550 0.112470
Si Si4 0.552243 0.749192 0.781341
Si Si5 0.234569 0.354201 0.110064
Si Si6 0.636059 0.008360 0.231898
Si Si7 0.578802 0.302260 0.750073
Si Si8 0.743024 0.824349 0.280066
O O1 0.954372 0.057544 0.500000
O O2 0.856520 0.110299 0.592218
O O3 0.949730 0.195772 0.670278
O O4 0.934383 0.910682 0.660578
O O5 0.241012 0.960748 0.500000
O O6 0.246615 0.829851 0.669399
O O7 0.205622 0.088525 0.664888
O O8 0.407986 0.354629 0.152232
O O9 0.295617 0.440594 0.132578
O O10 0.378862 0.625492 0.169469
O O11 0.377416 0.501378 0.000000
O O12 0.481939 0.742730 0.807949
O O13 0.578547 0.910192 0.794448
O O14 0.176618 0.448950 0.139042
O O15 0.239881 0.203977 0.168870
O O16 0.228714 0.307000 0.000000
O O17 0.612378 0.154543 0.283911
O O18 0.680157 0.909293 0.297564
#
# Coordination Sequence:
#
# PCOD8227324 Si02
#       8
#     8   8   8   8   8   8   8   8
#     4  10  21  41  68  97 127 167 222 275 325 384
#     4  11  23  39  64  97 132 171 213 266 335 400
#     4  10  22  42  69  99 127 167 220 269 325 385
#     4  11  23  44  67  92 131 175 222 270 324 383
#     4  11  25  42  69  99 133 170 215 273 336 402
#     4  12  25  42  66  95 135 173 213 264 337 387
#     4  11  25  42  64  96 131 174 223 270 318 387
#     4  12  22  42  64  93 134 171 212 268 325 400
#
# _framework density 22.264175000000002
#
# number of rings (size 3 to 8) (size 9 to 14) (size 15 to 20)
#    0.000    1.000    3.750    3.750    1.750    3.500 
#    0.000    1.250    0.000    3.750    0.000    0.000 
#    0.000    0.000    0.000    0.000    0.000    0.000 
#
# Total GULP energy -793169.229484 kJ/mol
# GULP energy per Si atom -12393.269211 kJ/mol
# Density = 2.221350 g / cm^3
# Si number density = 22.264175 Si / 1000 Ang^3
#
#
#
# Elastic Constant Matrix: (Units=GPa)
#
#
# Indices 1 2 3 4 5 6 
#
# 1 67.7471 16.7940 13.3714 0.0000 0.0000 0.0000
# 2 16.7940 129.3721 47.3697 0.0000 0.0000 0.0000
# 3 13.3714 47.3697 128.7093 0.0000 0.0000 0.0000
# 4 0.0000 0.0000 0.0000 0.7796 0.0000 0.0000
# 5 0.0000 0.0000 0.0000 0.0000 11.1492 0.0000
# 6 0.0000 0.0000 0.0000 0.0000 0.0000 24.2593
#
#
#
# Elastic Compliance Matrix: (Units=1/GPa)
#
#
# Indices 1 2 3 4 5 6 
#
# 1 0.015361 -0.001629 -0.000996 0.000000 0.000000 0.000000
# 2 -0.001629 0.009106 -0.003182 0.000000 0.000000 0.000000
# 3 -0.000996 -0.003182 0.009044 0.000000 0.000000 0.000000
# 4 0.000000 0.000000 0.000000 1.282744 0.000000 0.000000
# 5 0.000000 0.000000 0.000000 0.000000 0.089692 0.000000
# 6 0.000000 0.000000 0.000000 0.000000 0.000000 0.041221
#
#
# Mechanical properties :
#
#
# Convention : Reuss Voigt Hill
#
# Bulk Modulus (GPa) = 45.66982 53.43317 49.55150
# Shear Modulus (GPa) = 3.41045 23.79050 13.60048
#
# Velocity S-wave (km/s) = 1.23901 3.27242 2.47426
# Velocity P-wave (km/s) = 4.75437 6.19113 5.51970
#
# Compressibility (1/GPa) = 0.02189630
#
# Stress axis : x y z
#
# Youngs Moduli (GPa) = 65.09862 109.81397 110.56929
#
# Poissons Ratio (x) = 0.17892 0.11015
# Poissons Ratio (y) = 0.10607 0.35185
# Poissons Ratio (z) = 0.06485 0.34945
#
# Static dielectric constant tensor:
#      x y z
#    x 4.199610 0.000000 0.000000 
#    y 0.000000 4.092390 0.000000 
#    z 0.000000 0.000000 4.146930 
# 
# 
# High freq. dielectric constant tensor:
#      x y z
#    x 1.890730 0.000000 0.000000 
#    y 0.000000 1.882450 0.000000 
#    z 0.000000 0.000000 1.856360 
# 
# From -- ./inp_files/19972.got.cif
#   From: 2010.03.12/outbox.cif.g09.slc.cpg/sg55_10_cif.got.tgz:19972.got - 2010.04.16 15:19:21.
