data_PCOD8227368
_publ_section_title
;
Structure prediction by ZEFSAII (Michael W. Deem and Ramdas Pophale) SiO2 
 PCOD8227368
Probable space group: P B A M
;
_chemical_formula_sum "Si O2"
_cell_formula_units_Z 56
_cell_length_a 14.665696
_cell_length_b 9.708458
_cell_length_c 18.958538
_cell_angle_alpha 90.000000
_cell_angle_beta 90.000000
_cell_angle_gamma 90.000000
_cell_volume 2699.341166
_symmetry_space_group_name_H-M "P B A M"
_symmetry_group_IT_number 55
_symmetry_cell_setting 'orthorhombic'
loop_
_space_group_symop_operation_xyz
x,y,z
-x,-y,z
1/2+x,1/2-y,-z
1/2-x,1/2+y,-z
-x,-y,-z
x,y,-z
1/2-x,1/2+y,z
1/2+x,1/2-y,z
loop_
_atom_site_type_symbol
_atom_site_label
_atom_site_fract_x
_atom_site_fract_y
_atom_site_fract_z
Si Si1 0.286101 0.324669 0.608884
Si Si2 0.627133 0.129241 0.500000
Si Si3 0.708197 0.267084 0.250126
Si Si4 0.079269 0.894429 0.158386
Si Si5 0.581174 0.811187 0.500000
Si Si6 0.427005 0.113785 0.919631
Si Si7 0.098004 0.008088 0.692258
Si Si8 0.230033 0.491110 0.843073
O O1 0.190709 0.336974 0.567229
O O2 0.268272 0.243328 0.679901
O O3 0.369703 0.253577 0.567932
O O4 0.324776 0.474425 0.633698
O O5 0.530087 0.213781 0.500000
O O6 0.601240 0.971465 0.500000
O O7 0.613313 0.340985 0.273124
O O8 0.763734 0.368433 0.200382
O O9 0.687881 0.125013 0.209493
O O10 0.055053 0.742468 0.131847
O O11 0.098068 0.897162 0.242958
O O12 0.174331 0.942798 0.122964
O O13 0.000000 0.000000 0.136263
O O14 0.333125 0.031130 0.908292
O O15 0.500000 0.000000 0.900455
O O16 0.432585 0.165661 0.000000
O O17 0.000000 0.000000 0.654491
#
# Coordination Sequence:
#
# PCOD8227368 Si02
#       8
#     8   4   8   8   4   8   8   8
#     4  11  21  41  65  88 128 165 212 270 322 384
#     4  10  24  44  57  87 126 174 214 260 316 387
#     4  11  21  40  68  97 128 163 213 271 333 381
#     4  10  22  42  68  93 131 168 210 272 330 385
#     4  10  24  40  61  85 126 172 216 258 318 391
#     4  11  26  43  63  95 132 174 224 264 315 394
#     4  10  22  37  64  99 124 160 214 270 329 395
#     4  11  22  43  66  97 131 168 212 268 326 388
#
# _framework density 20.745804
#
# number of rings (size 3 to 8) (size 9 to 14) (size 15 to 20)
#    0.000    1.429    4.286    0.857    8.000    0.857 
#    0.000    0.714    0.000    0.000    0.000    0.000 
#    0.000    0.000    0.000    0.000    0.000    0.000 
#
# Total GULP energy -693906.830858 kJ/mol
# GULP energy per Si atom -12391.193408 kJ/mol
# Density = 2.069859 g / cm^3
# Si number density = 20.745804 Si / 1000 Ang^3
#
#
#
# Elastic Constant Matrix: (Units=GPa)
#
#
# Indices 1 2 3 4 5 6 
#
# 1 147.0720 34.5531 29.6661 0.0000 0.0000 0.0000
# 2 34.5531 80.1915 42.3342 0.0000 0.0000 0.0000
# 3 29.6661 42.3342 58.8006 0.0000 0.0000 0.0000
# 4 0.0000 0.0000 0.0000 9.0336 0.0000 0.0000
# 5 0.0000 0.0000 0.0000 0.0000 30.7710 0.0000
# 6 0.0000 0.0000 0.0000 0.0000 0.0000 29.8914
#
#
#
# Elastic Compliance Matrix: (Units=1/GPa)
#
#
# Indices 1 2 3 4 5 6 
#
# 1 0.007776 -0.002064 -0.002437 0.000000 0.000000 0.000000
# 2 -0.002064 0.020663 -0.013836 0.000000 0.000000 0.000000
# 3 -0.002437 -0.013836 0.028197 0.000000 0.000000 0.000000
# 4 0.000000 0.000000 0.000000 0.110698 0.000000 0.000000
# 5 0.000000 0.000000 0.000000 0.000000 0.032498 0.000000
# 6 0.000000 0.000000 0.000000 0.000000 0.000000 0.033454
#
#
# Mechanical properties :
#
#
# Convention : Reuss Voigt Hill
#
# Bulk Modulus (GPa) = 50.09187 55.46344 52.77766
# Shear Modulus (GPa) = 18.07563 25.90657 21.99110
#
# Velocity S-wave (km/s) = 2.95497 3.53762 3.25934
# Velocity P-wave (km/s) = 5.98668 6.59387 6.29760
#
# Compressibility (1/GPa) = 0.01996332
#
# Stress axis : x y z
#
# Youngs Moduli (GPa) = 128.60270 48.39457 35.46431
#
# Poissons Ratio (x) = 0.09988 0.08643
# Poissons Ratio (y) = 0.26542 0.49067
# Poissons Ratio (z) = 0.31343 0.66957
#
# Static dielectric constant tensor:
#      x y z
#    x 4.161740 0.000000 0.000000 
#    y 0.000000 3.817190 0.000000 
#    z 0.000000 0.000000 3.601610 
# 
# 
# High freq. dielectric constant tensor:
#      x y z
#    x 1.823060 0.000000 0.000000 
#    y 0.000000 1.813480 0.000000 
#    z 0.000000 0.000000 1.797230 
# 
# From -- ./inp_files/22990.got.cif
#   From: 2010.03.12/outbox.cif.g09.slc.cpg/sg55_12_cif.got.tgz:22990.got - 2010.04.16 15:19:21.
