data_PCOD8227603
_publ_section_title
;
Structure prediction by ZEFSAII (Michael W. Deem and Ramdas Pophale) SiO2 
 PCOD8227603
Probable space group: P B A M
;
_chemical_formula_sum "Si O2"
_cell_formula_units_Z 64
_cell_length_a 15.091791
_cell_length_b 9.572278
_cell_length_c 21.120837
_cell_angle_alpha 90.000000
_cell_angle_beta 90.000000
_cell_angle_gamma 90.000000
_cell_volume 3051.175652
_symmetry_space_group_name_H-M "P B A M"
_symmetry_group_IT_number 55
_symmetry_cell_setting 'orthorhombic'
loop_
_space_group_symop_operation_xyz
x,y,z
-x,-y,z
1/2+x,1/2-y,-z
1/2-x,1/2+y,-z
-x,-y,-z
x,y,-z
1/2-x,1/2+y,z
1/2+x,1/2-y,z
loop_
_atom_site_type_symbol
_atom_site_label
_atom_site_fract_x
_atom_site_fract_y
_atom_site_fract_z
Si Si1 0.934429 0.381497 0.385428
Si Si2 0.276849 0.813576 0.744124
Si Si3 0.009913 0.841434 0.139784
Si Si4 0.017599 0.346666 0.750008
Si Si5 0.168055 0.143940 0.071559
Si Si6 0.701501 0.649203 0.119844
Si Si7 0.246880 0.054386 0.341922
Si Si8 0.090626 0.929619 0.572487
O O1 0.976728 0.332518 0.319368
O O2 0.840623 0.460360 0.378039
O O3 0.918786 0.239305 0.424496
O O4 0.000000 0.500000 0.416689
O O5 0.380566 0.807399 0.754838
O O6 0.226233 0.791293 0.810260
O O7 0.257614 0.710784 0.685123
O O8 0.245044 0.963910 0.721318
O O9 0.030317 0.759975 0.204150
O O10 0.099911 0.818087 0.099983
O O11 0.924253 0.796360 0.099844
O O12 0.000000 0.000000 0.161103
O O13 0.000000 0.500000 0.777280
O O14 0.235447 0.273349 0.070289
O O15 0.211427 0.018721 0.113011
O O16 0.150950 0.092602 0.000000
O O17 0.168801 0.002119 0.387711
O O18 0.109835 0.969193 0.500000
O O19 0.000000 0.000000 0.596445
#
# Coordination Sequence:
#
# PCOD8227603 Si02
#       8
#     8   8   8   8   8   8   8   8
#     4  11  23  43  68 101 135 178 221 276 346 402
#     4  12  23  40  68  99 139 169 220 278 340 406
#     4  10  24  40  60  91 127 172 216 268 332 393
#     4  11  22  38  64  97 137 166 207 272 339 405
#     4  11  24  44  65  91 127 173 228 274 332 405
#     4  11  24  41  65  95 128 172 217 277 336 396
#     4  12  24  43  67 101 133 181 219 275 339 404
#     4  11  27  48  69  97 134 180 233 279 326 401
#
# _framework density 20.975522000000002
#
# number of rings (size 3 to 8) (size 9 to 14) (size 15 to 20)
#    0.000    0.875    5.000    2.625    3.500    4.000 
#    0.000    0.000    0.000    1.875    0.000    0.000 
#    0.000    0.000    0.000    0.000    0.000    0.000 
#
# Total GULP energy -793298.227159 kJ/mol
# GULP energy per Si atom -12395.284799 kJ/mol
# Density = 2.092778 g / cm^3
# Si number density = 20.975522 Si / 1000 Ang^3
#
#
#
# Elastic Constant Matrix: (Units=GPa)
#
#
# Indices 1 2 3 4 5 6 
#
# 1 135.3311 37.9541 22.3241 0.0000 0.0000 0.0000
# 2 37.9541 64.5592 11.0518 0.0000 0.0000 0.0000
# 3 22.3241 11.0518 65.9417 0.0000 0.0000 0.0000
# 4 0.0000 0.0000 0.0000 28.4131 0.0000 0.0000
# 5 0.0000 0.0000 0.0000 0.0000 27.0733 0.0000
# 6 0.0000 0.0000 0.0000 0.0000 0.0000 33.0999
#
#
#
# Elastic Compliance Matrix: (Units=1/GPa)
#
#
# Indices 1 2 3 4 5 6 
#
# 1 0.009165 -0.005001 -0.002265 0.000000 0.000000 0.000000
# 2 -0.005001 0.018675 -0.001437 0.000000 0.000000 0.000000
# 3 -0.002265 -0.001437 0.016172 0.000000 0.000000 0.000000
# 4 0.000000 0.000000 0.000000 0.035195 0.000000 0.000000
# 5 0.000000 0.000000 0.000000 0.000000 0.036937 0.000000
# 6 0.000000 0.000000 0.000000 0.000000 0.000000 0.030212
#
#
# Mechanical properties :
#
#
# Convention : Reuss Voigt Hill
#
# Bulk Modulus (GPa) = 37.58206 45.38801 41.48504
# Shear Modulus (GPa) = 28.96351 30.68404 29.82378
#
# Velocity S-wave (km/s) = 3.71998 3.82887 3.77482
# Velocity P-wave (km/s) = 6.03382 6.42126 6.23055
#
# Compressibility (1/GPa) = 0.02660844
#
# Stress axis : x y z
#
# Youngs Moduli (GPa) = 109.10717 53.54612 61.83342
#
# Poissons Ratio (x) = 0.26776 0.14004
# Poissons Ratio (y) = 0.54560 0.08886
# Poissons Ratio (z) = 0.24710 0.07695
#
# Static dielectric constant tensor:
#      x y z
#    x 4.058220 0.000000 0.000000 
#    y 0.000000 3.928590 0.000000 
#    z 0.000000 0.000000 3.546240 
# 
# 
# High freq. dielectric constant tensor:
#      x y z
#    x 1.840320 0.000000 0.000000 
#    y 0.000000 1.826840 0.000000 
#    z 0.000000 0.000000 1.803250 
# 
# From -- ./inp_files/23607.got.cif
#   From: 2010.03.12/outbox.cif.g09.slc.cpg/sg55_12_cif.got.tgz:23607.got - 2010.04.16 15:19:21.
