data_PCOD8227543
_publ_section_title
;
Structure prediction by ZEFSAII (Michael W. Deem and Ramdas Pophale) SiO2 
 PCOD8227543
Probable space group: P B A M
;
_chemical_formula_sum "Si O2"
_cell_formula_units_Z 48
_cell_length_a 8.529439
_cell_length_b 12.745034
_cell_length_c 19.473426
_cell_angle_alpha 90.000000
_cell_angle_beta 90.000000
_cell_angle_gamma 90.000000
_cell_volume 2116.917000
_symmetry_space_group_name_H-M "P B A M"
_symmetry_group_IT_number 55
_symmetry_cell_setting 'orthorhombic'
loop_
_space_group_symop_operation_xyz
x,y,z
-x,-y,z
1/2+x,1/2-y,-z
1/2-x,1/2+y,-z
-x,-y,-z
x,y,-z
1/2-x,1/2+y,z
1/2+x,1/2-y,z
loop_
_atom_site_type_symbol
_atom_site_label
_atom_site_fract_x
_atom_site_fract_y
_atom_site_fract_z
Si Si1 0.749347 0.464503 0.000000
Si Si2 0.094398 0.660043 0.254290
Si Si3 0.546774 0.617242 0.419581
Si Si4 0.241988 0.521995 0.147796
Si Si5 0.452603 0.333247 0.853416
Si Si6 0.669712 0.223954 0.345757
Si Si7 0.968287 0.165633 0.000000
O O1 0.844759 0.474030 0.072436
O O2 0.655317 0.354819 0.000000
O O3 0.621845 0.556193 0.000000
O O4 0.125880 0.555290 0.209588
O O5 0.028067 0.747087 0.203436
O O6 0.253315 0.699098 0.289897
O O7 0.958770 0.646087 0.311351
O O8 0.500000 0.500000 0.395925
O O9 0.579296 0.620919 0.500000
O O10 0.411031 0.700051 0.401561
O O11 0.706121 0.647311 0.380902
O O12 0.390351 0.598909 0.144214
O O13 0.301585 0.405003 0.164639
O O14 0.426417 0.276027 0.928221
#
# Coordination Sequence:
#
# PCOD8227543 Si02
#       7
#     4   8   8   8   8   8   4
#     4   7  12  25  46  75 100 143 212 268 315 357
#     4  11  20  35  54  85 124 163 199 247 307 378
#     4  10  22  45  75 100 128 171 208 248 309 368
#     4   9  17  31  53  75 110 159 210 265 312 373
#     4   9  17  31  52  75 109 158 210 260 318 368
#     4  10  23  39  61  97 136 160 206 257 299 374
#     4   7  12  25  46  73 100 143 210 269 309 362
#
# _framework density 22.674485000000001
#
# number of rings (size 3 to 8) (size 9 to 14) (size 15 to 20)
#    0.000    2.667    1.667    2.500    0.000    3.333 
#    0.000    7.500    0.000    9.000    0.000    3.500 
#    0.000    0.000    0.000    0.333    0.000    0.000 
#
# Total GULP energy -594749.048449 kJ/mol
# GULP energy per Si atom -12390.605176 kJ/mol
# Density = 2.262288 g / cm^3
# Si number density = 22.674485 Si / 1000 Ang^3
#
#
#
# Elastic Constant Matrix: (Units=GPa)
#
#
# Indices 1 2 3 4 5 6 
#
# 1 90.0152 31.0260 37.0790 0.0000 0.0000 0.0000
# 2 31.0260 58.3682 31.6861 0.0000 0.0000 0.0000
# 3 37.0790 31.6861 110.7944 0.0000 0.0000 0.0000
# 4 0.0000 0.0000 0.0000 28.3943 0.0000 0.0000
# 5 0.0000 0.0000 0.0000 0.0000 5.7175 0.0000
# 6 0.0000 0.0000 0.0000 0.0000 0.0000 24.9075
#
#
#
# Elastic Compliance Matrix: (Units=1/GPa)
#
#
# Indices 1 2 3 4 5 6 
#
# 1 0.014462 -0.005990 -0.003127 0.000000 0.000000 0.000000
# 2 -0.005990 0.022762 -0.004505 0.000000 0.000000 0.000000
# 3 -0.003127 -0.004505 0.011361 0.000000 0.000000 0.000000
# 4 0.000000 0.000000 0.000000 0.035218 0.000000 0.000000
# 5 0.000000 0.000000 0.000000 0.000000 0.174901 0.000000
# 6 0.000000 0.000000 0.000000 0.000000 0.000000 0.040149
#
#
# Mechanical properties :
#
#
# Convention : Reuss Voigt Hill
#
# Bulk Modulus (GPa) = 46.85821 50.97333 48.91577
# Shear Modulus (GPa) = 15.00556 22.42964 18.71760
#
# Velocity S-wave (km/s) = 2.57530 3.14857 2.87625
# Velocity P-wave (km/s) = 5.43630 5.97890 5.71405
#
# Compressibility (1/GPa) = 0.02134098
#
# Stress axis : x y z
#
# Youngs Moduli (GPa) = 69.14784 43.93242 88.02345
#
# Poissons Ratio (x) = 0.26315 0.27523
# Poissons Ratio (y) = 0.41418 0.39656
# Poissons Ratio (z) = 0.21621 0.19792
#
# Static dielectric constant tensor:
#      x y z
#    x 3.892320 0.000000 0.000000 
#    y 0.000000 3.783040 0.000000 
#    z 0.000000 0.000000 4.450790 
# 
# 
# High freq. dielectric constant tensor:
#      x y z
#    x 1.886520 0.000000 0.000000 
#    y 0.000000 1.869220 0.000000 
#    z 0.000000 0.000000 1.904210 
# 
# From -- ./inp_files/20846.got.cif
#   From: 2010.03.12/outbox.cif.g09.slc.cpg/sg55_11_cif.got.tgz:20846.got - 2010.04.16 15:19:21.
