data_PCOD8227959
_publ_section_title
;
Structure prediction by ZEFSAII (Michael W. Deem and Ramdas Pophale) SiO2 
 PCOD8227959
Probable space group: P C C N
;
_chemical_formula_sum "Si O2"
_cell_formula_units_Z 64
_cell_length_a 9.219032
_cell_length_b 22.272968
_cell_length_c 14.342206
_cell_angle_alpha 90.000000
_cell_angle_beta 90.000000
_cell_angle_gamma 90.000000
_cell_volume 2944.959805
_symmetry_space_group_name_H-M "P C C N"
_symmetry_group_IT_number 56
_symmetry_cell_setting 'orthorhombic'
loop_
_space_group_symop_operation_xyz
x,y,z
1/2-x,1/2-y,z
1/2+x,-y,1/2-z
-x,1/2+y,1/2-z
-x,-y,-z
1/2+x,1/2+y,-z
1/2-x,y,1/2+z
x,1/2-y,1/2+z
loop_
_atom_site_type_symbol
_atom_site_label
_atom_site_fract_x
_atom_site_fract_y
_atom_site_fract_z
Si Si1 0.800182 0.946067 0.514369
Si Si2 0.894013 0.431805 0.068872
Si Si3 0.174664 0.142113 0.326026
Si Si4 0.876049 0.202179 0.615415
Si Si5 0.157616 0.056781 0.176092
Si Si6 0.519724 0.674868 0.194474
Si Si7 0.469361 0.042966 0.259704
Si Si8 0.080294 0.238352 0.454724
O O1 0.753829 0.909740 0.606636
O O2 0.698795 0.924686 0.428838
O O3 0.966349 0.926447 0.497599
O O4 0.783417 0.018859 0.524984
O O5 0.825805 0.365330 0.084748
O O6 0.941107 0.462089 0.164907
O O7 0.096063 0.113460 0.235434
O O8 0.307652 0.182152 0.286157
O O9 0.061967 0.182930 0.382311
O O10 0.750000 0.250000 0.600461
O O11 0.928022 0.204656 0.722355
O O12 0.011044 0.222465 0.552891
O O13 0.300720 0.034846 0.232872
O O14 0.027426 0.008988 0.172386
O O15 0.486487 0.604432 0.189028
O O16 0.492012 0.706942 0.094542
O O17 0.250000 0.250000 0.473303
#
# Coordination Sequence:
#
# PCOD8227959 Si02
#       8
#     8   8   8   8   8   8   8   8
#     4  10  18  33  63  92 123 160 211 261 318 381
#     4   9  18  35  60  89 123 163 206 258 320 381
#     4  10  19  37  63  91 123 157 216 260 325 377
#     4  11  23  41  66  92 127 170 214 262 328 395
#     4  10  20  33  57  92 121 162 197 259 312 387
#     4   9  22  41  59  87 126 168 201 266 316 376
#     4   9  18  36  59  81 125 157 201 249 316 373
#     4  10  22  40  64  89 118 164 215 271 311 374
#
# _framework density 21.732043999999998
#
# number of rings (size 3 to 8) (size 9 to 14) (size 15 to 20)
#    0.000    2.250    2.500    0.750    0.000    3.000 
#    2.250    6.250    0.000    0.000    0.000    0.000 
#    0.000    0.000    0.000    0.000    0.000    0.000 
#
# Total GULP energy -793054.821685 kJ/mol
# GULP energy per Si atom -12391.481589 kJ/mol
# Density = 2.168258 g / cm^3
# Si number density = 21.732044 Si / 1000 Ang^3
#
#
#
# Elastic Constant Matrix: (Units=GPa)
#
#
# Indices 1 2 3 4 5 6 
#
# 1 41.7226 15.8929 7.7868 0.0000 0.0000 0.0000
# 2 15.8929 64.5753 -1.5515 0.0000 0.0000 0.0000
# 3 7.7868 -1.5515 56.9467 0.0000 0.0000 0.0000
# 4 0.0000 0.0000 0.0000 29.6978 0.0000 0.0000
# 5 0.0000 0.0000 0.0000 0.0000 21.2431 0.0000
# 6 0.0000 0.0000 0.0000 0.0000 0.0000 32.1291
#
#
#
# Elastic Compliance Matrix: (Units=1/GPa)
#
#
# Indices 1 2 3 4 5 6 
#
# 1 0.027294 -0.006811 -0.003918 0.000000 0.000000 0.000000
# 2 -0.006811 0.017196 0.001400 0.000000 0.000000 0.000000
# 3 -0.003918 0.001400 0.018134 0.000000 0.000000 0.000000
# 4 0.000000 0.000000 0.000000 0.033673 0.000000 0.000000
# 5 0.000000 0.000000 0.000000 0.000000 0.047074 0.000000
# 6 0.000000 0.000000 0.000000 0.000000 0.000000 0.031124
#
#
# Mechanical properties :
#
#
# Convention : Reuss Voigt Hill
#
# Bulk Modulus (GPa) = 22.74535 23.05568 22.90051
# Shear Modulus (GPa) = 24.06067 26.02177 25.04122
#
# Velocity S-wave (km/s) = 3.33100 3.46409 3.39820
# Velocity P-wave (km/s) = 5.02823 5.16062 5.09485
#
# Compressibility (1/GPa) = 0.04396503
#
# Stress axis : x y z
#
# Youngs Moduli (GPa) = 36.63863 58.15365 55.14472
#
# Poissons Ratio (x) = 0.39611 0.21604
# Poissons Ratio (y) = 0.24956 -0.07720
# Poissons Ratio (z) = 0.14354 -0.08141
#
# Static dielectric constant tensor:
#      x y z
#    x 3.460240 0.000000 0.000000 
#    y 0.000000 4.111480 0.000000 
#    z 0.000000 0.000000 3.955150 
# 
# 
# High freq. dielectric constant tensor:
#      x y z
#    x 1.806500 0.000000 0.000000 
#    y 0.000000 1.859210 0.000000 
#    z 0.000000 0.000000 1.857450 
# 
# From -- ./inp_files/11027.got.cif
#   From: 2010.03.12/outbox.cif.g09.slc.cpg/sg56_6_cif.got.tgz:11027.got - 2010.04.16 15:33:40.
