data_PCOD8227853
_publ_section_title
;
Structure prediction by ZEFSAII (Michael W. Deem and Ramdas Pophale) SiO2 
 PCOD8227853
Probable space group: P C C N
;
_chemical_formula_sum "Si O2"
_cell_formula_units_Z 48
_cell_length_a 7.995599
_cell_length_b 15.452533
_cell_length_c 16.850003
_cell_angle_alpha 90.000000
_cell_angle_beta 90.000000
_cell_angle_gamma 90.000000
_cell_volume 2081.855908
_symmetry_space_group_name_H-M "P C C N"
_symmetry_group_IT_number 56
_symmetry_cell_setting 'orthorhombic'
loop_
_space_group_symop_operation_xyz
x,y,z
1/2-x,1/2-y,z
1/2+x,-y,1/2-z
-x,1/2+y,1/2-z
-x,-y,-z
1/2+x,1/2+y,-z
1/2-x,y,1/2+z
x,1/2-y,1/2+z
loop_
_atom_site_type_symbol
_atom_site_label
_atom_site_fract_x
_atom_site_fract_y
_atom_site_fract_z
Si Si1 0.353330 0.926894 0.579555
Si Si2 0.038738 0.200558 0.094609
Si Si3 0.222594 0.088374 0.991290
Si Si4 0.833605 0.587827 0.174659
Si Si5 0.750000 0.750000 0.769914
Si Si6 0.750000 0.250000 0.481338
Si Si7 0.543277 0.036403 0.690052
O O1 0.532747 0.913074 0.539653
O O2 0.256371 0.834519 0.576307
O O3 0.237354 0.996918 0.533300
O O4 0.397548 0.965878 0.666632
O O5 0.085455 0.253241 0.174047
O O6 0.951858 0.111202 0.123433
O O7 0.913527 0.254169 0.038245
O O8 0.216225 0.170376 0.051817
O O9 0.355287 0.104654 0.919772
O O10 0.736565 0.667416 0.213968
O O11 0.008130 0.572174 0.220603
O O12 0.726089 0.502372 0.188094
#
# Coordination Sequence:
#
# PCOD8227853 Si02
#       7
#     8   8   8   8   4   4   8
#     4   8  15  29  50  76  99 125 168 216 252 289
#     4   9  19  35  53  75 103 135 173 213 255 301
#     4   8  15  31  53  69  94 139 173 196 249 316
#     4  10  19  34  54  74 100 135 171 206 254 309
#     4  10  22  34  46  76 114 136 160 212 268 304
#     4  10  16  28  56  80  94 126 182 220 244 288
#     4   9  19  36  53  72 104 140 168 203 256 316
#
# _framework density 23.056353000000001
#
# number of rings (size 3 to 8) (size 9 to 14) (size 15 to 20)
#    0.000    3.000    0.000    3.000    0.000    3.333 
#    0.000   11.667    0.000    8.000    0.000    0.000 
#    0.000    0.000    0.000    0.000    0.000    0.000 
#
# Total GULP energy -594645.902202 kJ/mol
# GULP energy per Si atom -12388.456296 kJ/mol
# Density = 2.300388 g / cm^3
# Si number density = 23.056353 Si / 1000 Ang^3
#
#
#
# Elastic Constant Matrix: (Units=GPa)
#
#
# Indices 1 2 3 4 5 6 
#
# 1 14.7032 -8.9969 -16.9380 0.0000 0.0000 0.0000
# 2 -8.9969 82.0311 -6.6298 0.0000 0.0000 0.0000
# 3 -16.9380 -6.6298 61.5360 0.0000 0.0000 0.0000
# 4 0.0000 0.0000 0.0000 22.0191 0.0000 0.0000
# 5 0.0000 0.0000 0.0000 0.0000 26.3199 0.0000
# 6 0.0000 0.0000 0.0000 0.0000 0.0000 20.3060
#
#
#
# Elastic Compliance Matrix: (Units=1/GPa)
#
#
# Indices 1 2 3 4 5 6 
#
# 1 0.116269 0.015473 0.033671 0.000000 0.000000 0.000000
# 2 0.015473 0.014357 0.005806 0.000000 0.000000 0.000000
# 3 0.033671 0.005806 0.026144 0.000000 0.000000 0.000000
# 4 0.000000 0.000000 0.000000 0.045415 0.000000 0.000000
# 5 0.000000 0.000000 0.000000 0.000000 0.037994 0.000000
# 6 0.000000 0.000000 0.000000 0.000000 0.000000 0.049247
#
#
# Mechanical properties :
#
#
# Convention : Reuss Voigt Hill
#
# Bulk Modulus (GPa) = 3.74996 10.34899 7.04947
# Shear Modulus (GPa) = 18.62778 26.45133 22.53956
#
# Velocity S-wave (km/s) = 2.84548 3.39078 3.13003
# Velocity P-wave (km/s) = 3.52501 4.45288 4.01583
#
# Compressibility (1/GPa) = 0.26666973
#
# Stress axis : x y z
#
# Youngs Moduli (GPa) = 8.60073 69.65349 38.24949
#
# Poissons Ratio (x) = -1.07777 -1.28788
# Poissons Ratio (y) = -0.13308 -0.22207
# Poissons Ratio (z) = -0.28959 -0.40440
#
# Static dielectric constant tensor:
#      x y z
#    x 3.487170 0.000000 0.000000 
#    y 0.000000 4.441580 0.000000 
#    z 0.000000 0.000000 4.624430 
# 
# 
# High freq. dielectric constant tensor:
#      x y z
#    x 1.859270 0.000000 0.000000 
#    y 0.000000 1.916070 0.000000 
#    z 0.000000 0.000000 1.916660 
# 
# From -- ./inp_files/15001.got.cif
#   From: 2010.03.12/outbox.cif.g09.slc.cpg/sg56_8_cif.got.tgz:15001.got - 2010.04.16 15:33:40.
