data_PCOD8227847
_publ_section_title
;
Structure prediction by ZEFSAII (Michael W. Deem and Ramdas Pophale) SiO2 
 PCOD8227847
Probable space group: P C C N
;
_chemical_formula_sum "Si O2"
_cell_formula_units_Z 64
_cell_length_a 30.253397
_cell_length_b 22.254650
_cell_length_c 5.290337
_cell_angle_alpha 90.000000
_cell_angle_beta 90.000000
_cell_angle_gamma 90.000000
_cell_volume 3561.871544
_symmetry_space_group_name_H-M "P C C N"
_symmetry_group_IT_number 56
_symmetry_cell_setting 'orthorhombic'
loop_
_space_group_symop_operation_xyz
x,y,z
1/2-x,1/2-y,z
1/2+x,-y,1/2-z
-x,1/2+y,1/2-z
-x,-y,-z
1/2+x,1/2+y,-z
1/2-x,y,1/2+z
x,1/2-y,1/2+z
loop_
_atom_site_type_symbol
_atom_site_label
_atom_site_fract_x
_atom_site_fract_y
_atom_site_fract_z
Si Si1 0.460496 0.321585 0.989013
Si Si2 0.221213 0.605470 0.479248
Si Si3 0.076169 0.311882 0.988992
Si Si4 0.651753 0.210972 0.484117
Si Si5 0.946268 0.212840 0.030658
Si Si6 0.798085 0.919783 0.514636
Si Si7 0.800560 0.970750 0.014579
Si Si8 0.679567 0.713774 0.508389
O O1 0.451063 0.250074 0.990810
O O2 0.438175 0.349792 0.737619
O O3 0.513347 0.333916 0.989996
O O4 0.437344 0.349621 0.238773
O O5 0.245102 0.611715 0.210639
O O6 0.185135 0.656671 0.498486
O O7 0.195931 0.542289 0.494350
O O8 0.127779 0.299235 0.992090
O O9 0.659748 0.255938 0.717713
O O10 0.602100 0.183254 0.496357
O O11 0.950894 0.263910 0.817053
O O12 0.824024 0.944472 0.267033
O O13 0.750196 0.949869 0.524156
O O14 0.793558 0.848172 0.508067
O O15 0.823927 0.941915 0.766949
O O16 0.693466 0.749954 0.258285
#
# Coordination Sequence:
#
# PCOD8227847 Si02
#       8
#     8   8   8   8   8   8   8   8
#     4  10  14  25  43  61  89 140 169 188 215 280
#     4  12  21  37  63  74  98 137 172 212 252 291
#     4  10  16  25  41  66  94 132 167 188 226 295
#     4  10  23  35  47  82 117 135 158 196 256 314
#     4  10  16  27  44  63  99 140 161 192 226 276
#     4  10  20  35  56  71  96 126 170 223 249 286
#     4  10  19  40  54  74  84 126 188 223 236 283
#     4  12  21  32  45  75 112 136 151 204 266 317
#
# _framework density 17.968084000000001
#
# number of rings (size 3 to 8) (size 9 to 14) (size 15 to 20)
#    0.000    1.500    7.500    1.500    0.000    1.500 
#    0.000    7.500    0.000    0.000    0.000    0.000 
#    0.000    6.000    0.000    0.000    0.000    0.000 
#
# Total GULP energy -793085.730697 kJ/mol
# GULP energy per Si atom -12391.964542 kJ/mol
# Density = 1.792719 g / cm^3
# Si number density = 17.968084 Si / 1000 Ang^3
#
#
#
# Elastic Constant Matrix: (Units=GPa)
#
#
# Indices 1 2 3 4 5 6 
#
# 1 16.6930 15.6973 4.0128 0.0000 0.0000 0.0000
# 2 15.6973 65.2647 19.0634 0.0000 0.0000 0.0000
# 3 4.0128 19.0634 158.9260 0.0000 0.0000 0.0000
# 4 0.0000 0.0000 0.0000 20.6562 0.0000 0.0000
# 5 0.0000 0.0000 0.0000 0.0000 6.1039 0.0000
# 6 0.0000 0.0000 0.0000 0.0000 0.0000 1.7113
#
#
#
# Elastic Compliance Matrix: (Units=1/GPa)
#
#
# Indices 1 2 3 4 5 6 
#
# 1 0.077427 -0.018707 0.000289 0.000000 0.000000 0.000000
# 2 -0.018707 0.020398 -0.001974 0.000000 0.000000 0.000000
# 3 0.000289 -0.001974 0.006522 0.000000 0.000000 0.000000
# 4 0.000000 0.000000 0.000000 0.048412 0.000000 0.000000
# 5 0.000000 0.000000 0.000000 0.000000 0.163830 0.000000
# 6 0.000000 0.000000 0.000000 0.000000 0.000000 0.584336
#
#
# Mechanical properties :
#
#
# Convention : Reuss Voigt Hill
#
# Bulk Modulus (GPa) = 15.73267 35.38120 25.55693
# Shear Modulus (GPa) = 5.19267 19.16830 12.18048
#
# Velocity S-wave (km/s) = 1.70183 3.26973 2.60647
# Velocity P-wave (km/s) = 3.55479 5.82999 4.82831
#
# Compressibility (1/GPa) = 0.06356201
#
# Stress axis : x y z
#
# Youngs Moduli (GPa) = 12.91544 49.02385 153.33230
#
# Poissons Ratio (x) = 0.91708 -0.04430
# Poissons Ratio (y) = 0.24161 0.30275
# Poissons Ratio (z) = -0.00373 0.09680
#
# Static dielectric constant tensor:
#      x y z
#    x 3.250320 0.000000 0.000000 
#    y 0.000000 2.920200 0.000000 
#    z 0.000000 0.000000 7.086640 
# 
# 
# High freq. dielectric constant tensor:
#      x y z
#    x 1.674230 0.000000 0.000000 
#    y 0.000000 1.629120 0.000000 
#    z 0.000000 0.000000 1.743020 
# 
# From -- ./inp_files/1275.got.cif
#   From: 2010.03.12/outbox.cif.g09.slc.cpg/sg56_1_cif.got.tgz:1275.got - 2010.04.16 15:33:40.
