data_PCOD8227323
_publ_section_title
;
Structure prediction by ZEFSAII (Michael W. Deem and Ramdas Pophale) SiO2 
 PCOD8227323
Probable space group: P B A M
;
_chemical_formula_sum "Si O2"
_cell_formula_units_Z 64
_cell_length_a 29.908502
_cell_length_b 11.885683
_cell_length_c 8.932841
_cell_angle_alpha 90.000000
_cell_angle_beta 90.000000
_cell_angle_gamma 90.000000
_cell_volume 3175.472883
_symmetry_space_group_name_H-M "P B A M"
_symmetry_group_IT_number 55
_symmetry_cell_setting 'orthorhombic'
loop_
_space_group_symop_operation_xyz
x,y,z
-x,-y,z
1/2+x,1/2-y,-z
1/2-x,1/2+y,-z
-x,-y,-z
x,y,-z
1/2-x,1/2+y,z
1/2+x,1/2-y,z
loop_
_atom_site_type_symbol
_atom_site_label
_atom_site_fract_x
_atom_site_fract_y
_atom_site_fract_z
Si Si1 0.951972 0.054503 0.328980
Si Si2 0.873622 0.917952 0.176426
Si Si3 0.299837 0.997808 0.826289
Si Si4 0.072705 0.732865 0.169009
Si Si5 0.618143 0.157856 0.824954
Si Si6 0.792501 0.044739 0.675036
Si Si7 0.447990 0.004824 0.324451
Si Si8 0.174323 0.747767 0.166555
O O1 0.935972 0.063593 0.500000
O O2 0.957301 0.179488 0.261182
O O3 0.916617 0.980693 0.239709
O O4 0.000000 0.000000 0.314371
O O5 0.877051 0.787409 0.220552
O O6 0.827712 0.965679 0.241476
O O7 0.872520 0.935681 0.000000
O O8 0.321428 0.117969 0.790437
O O9 0.335874 0.903892 0.779919
O O10 0.256998 0.988342 0.722347
O O11 0.286217 0.985418 0.000000
O O12 0.073328 0.611651 0.244140
O O13 0.122598 0.782508 0.170397
O O14 0.054393 0.722480 0.000000
O O15 0.576263 0.107157 0.734841
O O16 0.608343 0.141329 0.000000
O O17 0.798689 0.027653 0.500000
O O18 0.799307 0.175503 0.716321
O O19 0.439993 0.015799 0.500000
O O20 0.500000 0.000000 0.283600
O O21 0.193872 0.769483 0.000000
#
# Coordination Sequence:
#
# PCOD8227323 Si02
#       8
#     8   8   8   8   8   8   8   8
#     4  11  25  43  64  93 131 169 207 258 322 382
#     4  11  24  43  66  93 126 168 217 262 310 371
#     4  10  22  43  67  91 123 163 210 259 313 371
#     4  11  22  41  69  95 122 162 216 266 309 369
#     4  10  23  44  67  93 123 164 216 265 312 370
#     4  12  26  41  62  95 131 165 207 257 316 378
#     4  11  25  42  63  94 132 171 207 254 321 381
#     4  10  21  41  68  92 120 161 209 262 314 369
#
# _framework density 20.154478000000001
#
# number of rings (size 3 to 8) (size 9 to 14) (size 15 to 20)
#    0.000    1.250    2.500    2.625    3.500    4.500 
#    0.000    0.000    0.000    0.000    0.000    0.000 
#    0.000    0.000    0.000    0.000    0.000    0.000 
#
# Total GULP energy -793975.181880 kJ/mol
# GULP energy per Si atom -12405.862217 kJ/mol
# Density = 2.010861 g / cm^3
# Si number density = 20.154478 Si / 1000 Ang^3
#
#
#
# Elastic Constant Matrix: (Units=GPa)
#
#
# Indices 1 2 3 4 5 6 
#
# 1 93.6923 35.0421 51.1906 0.0000 0.0000 0.0000
# 2 35.0421 118.6182 51.7839 0.0000 0.0000 0.0000
# 3 51.1906 51.7839 113.4817 0.0000 0.0000 0.0000
# 4 0.0000 0.0000 0.0000 21.8788 0.0000 0.0000
# 5 0.0000 0.0000 0.0000 0.0000 -5.8148 0.0000
# 6 0.0000 0.0000 0.0000 0.0000 0.0000 28.4631
#
#
#
# Elastic Compliance Matrix: (Units=1/GPa)
#
#
# Indices 1 2 3 4 5 6 
#
# 1 0.014458 -0.001778 -0.005711 0.000000 0.000000 0.000000
# 2 -0.001778 0.010746 -0.004102 0.000000 0.000000 0.000000
# 3 -0.005711 -0.004102 0.013260 0.000000 0.000000 0.000000
# 4 0.000000 0.000000 0.000000 0.045706 0.000000 0.000000
# 5 0.000000 0.000000 0.000000 0.000000 -0.171975 0.000000
# 6 0.000000 0.000000 0.000000 0.000000 0.000000 0.035133
#
#
# Mechanical properties :
#
#
# Convention : Reuss Voigt Hill
#
# Bulk Modulus (GPa) = 65.43030 66.86949 66.14989
# Shear Modulus (GPa) = -204.95291 21.42380 -91.76455
#
# Velocity S-wave (km/s) = -10.09514 3.26387 -6.75496
# Velocity P-wave (km/s) = 10.16600 6.88871 5.28645
#
# Compressibility (1/GPa) = 0.01528344
#
# Stress axis : x y z
#
# Youngs Moduli (GPa) = 69.16385 93.05491 75.41689
#
# Poissons Ratio (x) = 0.16548 0.43068
# Poissons Ratio (y) = 0.12299 0.30933
# Poissons Ratio (z) = 0.39497 0.38167
#
# Static dielectric constant tensor:
#      x y z
#    x 3.646520 0.000000 0.000000 
#    y 0.000000 3.803590 0.000000 
#    z 0.000000 0.000000 3.711880 
# 
# 
# High freq. dielectric constant tensor:
#      x y z
#    x 1.789840 0.000000 0.000000 
#    y 0.000000 1.801900 0.000000 
#    z 0.000000 0.000000 1.788960 
# 
# From -- ./inp_files/10751.got.cif
#   From: 2010.03.12/outbox.cif.g09.slc.cpg/sg55_6_cif.got.tgz:10751.got - 2010.04.16 15:19:21.
