data_PCOD8227791
_publ_section_title
;
Structure prediction by ZEFSAII (Michael W. Deem and Ramdas Pophale) SiO2 
 PCOD8227791
Probable space group: P B A M
;
_chemical_formula_sum "Si O2"
_cell_formula_units_Z 48
_cell_length_a 18.315372
_cell_length_b 13.787822
_cell_length_c 8.789511
_cell_angle_alpha 90.000000
_cell_angle_beta 90.000000
_cell_angle_gamma 90.000000
_cell_volume 2219.607206
_symmetry_space_group_name_H-M "P B A M"
_symmetry_group_IT_number 55
_symmetry_cell_setting 'orthorhombic'
loop_
_space_group_symop_operation_xyz
x,y,z
-x,-y,z
1/2+x,1/2-y,-z
1/2-x,1/2+y,-z
-x,-y,-z
x,y,-z
1/2-x,1/2+y,z
1/2+x,1/2-y,z
loop_
_atom_site_type_symbol
_atom_site_label
_atom_site_fract_x
_atom_site_fract_y
_atom_site_fract_z
Si Si1 0.513759 0.661442 0.677364
Si Si2 0.356490 0.428983 0.824241
Si Si3 0.041987 0.647102 0.827114
Si Si4 0.772441 0.679852 0.322250
Si Si5 0.856673 0.851056 0.176114
Si Si6 0.113431 0.451700 0.827132
O O1 0.513548 0.639834 0.500000
O O2 0.560769 0.577747 0.760271
O O3 0.553149 0.763855 0.712965
O O4 0.431762 0.665776 0.736497
O O5 0.306969 0.353276 0.732719
O O6 0.328765 0.539083 0.800590
O O7 0.355489 0.399920 0.000000
O O8 0.100140 0.563854 0.783419
O O9 0.960876 0.606770 0.810713
O O10 0.055339 0.682033 0.000000
O O11 0.770879 0.700516 0.500000
O O12 0.794996 0.778948 0.238345
O O13 0.828155 0.592826 0.286973
O O14 0.871062 0.827583 0.000000
O O15 0.143124 0.443795 0.000000
#
# Coordination Sequence:
#
# PCOD8227791 Si02
#       6
#     8   8   8   8   8   8
#     4  12  24  39  64  99 134 167 208 268 328 377
#     4  11  26  46  68  92 123 170 220 264 312 379
#     4   9  18  34  60  91 124 166 214 258 302 366
#     4  12  25  41  65  97 132 168 206 264 333 386
#     4  11  24  45  71  94 123 170 221 261 309 382
#     4   9  18  35  60  89 123 167 214 257 303 367
#
# _framework density 21.625449
#
# number of rings (size 3 to 8) (size 9 to 14) (size 15 to 20)
#    0.000    1.333    1.667    5.500    0.000    6.667 
#    0.000    3.333    0.000    0.000    0.000    0.000 
#    0.000    0.000    0.000    0.000    0.000    0.000 
#
# Total GULP energy -595397.946620 kJ/mol
# GULP energy per Si atom -12404.123888 kJ/mol
# Density = 2.157623 g / cm^3
# Si number density = 21.625449 Si / 1000 Ang^3
#
#
#
# Elastic Constant Matrix: (Units=GPa)
#
#
# Indices 1 2 3 4 5 6 
#
# 1 60.7606 27.4566 14.6015 0.0000 0.0000 0.0000
# 2 27.4566 93.8115 40.5811 0.0000 0.0000 0.0000
# 3 14.6015 40.5811 102.2933 0.0000 0.0000 0.0000
# 4 0.0000 0.0000 0.0000 19.7859 0.0000 0.0000
# 5 0.0000 0.0000 0.0000 0.0000 34.5537 0.0000
# 6 0.0000 0.0000 0.0000 0.0000 0.0000 32.6311
#
#
#
# Elastic Compliance Matrix: (Units=1/GPa)
#
#
# Indices 1 2 3 4 5 6 
#
# 1 0.018998 -0.005296 -0.000611 0.000000 0.000000 0.000000
# 2 -0.005296 0.014344 -0.004935 0.000000 0.000000 0.000000
# 3 -0.000611 -0.004935 0.011821 0.000000 0.000000 0.000000
# 4 0.000000 0.000000 0.000000 0.050541 0.000000 0.000000
# 5 0.000000 0.000000 0.000000 0.000000 0.028940 0.000000
# 6 0.000000 0.000000 0.000000 0.000000 0.000000 0.030646
#
#
# Mechanical properties :
#
#
# Convention : Reuss Voigt Hill
#
# Bulk Modulus (GPa) = 42.58943 46.90488 44.74715
# Shear Modulus (GPa) = 27.05633 29.00924 28.03278
#
# Velocity S-wave (km/s) = 3.54097 3.66654 3.60430
# Velocity P-wave (km/s) = 6.03779 6.29773 6.16913
#
# Compressibility (1/GPa) = 0.02348000
#
# Stress axis : x y z
#
# Youngs Moduli (GPa) = 52.63707 69.71387 84.59790
#
# Poissons Ratio (x) = 0.36921 0.05167
# Poissons Ratio (y) = 0.27877 0.41746
# Poissons Ratio (z) = 0.03215 0.34401
#
# Static dielectric constant tensor:
#      x y z
#    x 3.774050 0.000000 0.000000 
#    y 0.000000 4.179400 0.000000 
#    z 0.000000 0.000000 3.767150 
# 
# 
# High freq. dielectric constant tensor:
#      x y z
#    x 1.842060 0.000000 0.000000 
#    y 0.000000 1.863890 0.000000 
#    z 0.000000 0.000000 1.841420 
# 
# From -- ./inp_files/7437.got.cif
#   From: 2010.03.12/outbox.cif.g09.slc.cpg/sg55_4_cif.got.tgz:7437.got - 2010.04.16 15:19:21.
