data_PCOD8227315
_publ_section_title
;
Structure prediction by ZEFSAII (Michael W. Deem and Ramdas Pophale) SiO2 
 PCOD8227315
Probable space group: P B A M
;
_chemical_formula_sum "Si O2"
_cell_formula_units_Z 56
_cell_length_a 21.630993
_cell_length_b 14.490267
_cell_length_c 8.844111
_cell_angle_alpha 90.000000
_cell_angle_beta 90.000000
_cell_angle_gamma 90.000000
_cell_volume 2772.088105
_symmetry_space_group_name_H-M "P B A M"
_symmetry_group_IT_number 55
_symmetry_cell_setting 'orthorhombic'
loop_
_space_group_symop_operation_xyz
x,y,z
-x,-y,z
1/2+x,1/2-y,-z
1/2-x,1/2+y,-z
-x,-y,-z
x,y,-z
1/2-x,1/2+y,z
1/2+x,1/2-y,z
loop_
_atom_site_type_symbol
_atom_site_label
_atom_site_fract_x
_atom_site_fract_y
_atom_site_fract_z
Si Si1 0.606347 0.926156 0.322948
Si Si2 0.601376 0.117772 0.178234
Si Si3 0.816120 0.063706 0.824931
Si Si4 0.252287 0.101022 0.325245
Si Si5 0.992536 0.275479 0.677569
Si Si6 0.541751 0.586153 0.824994
Si Si7 0.723405 0.190082 0.674980
O O1 0.599903 0.945291 0.500000
O O2 0.676125 0.901000 0.277135
O O3 0.563662 0.841269 0.270987
O O4 0.582621 0.016901 0.237457
O O5 0.555461 0.194414 0.242337
O O6 0.670432 0.141253 0.229254
O O7 0.597811 0.118488 0.000000
O O8 0.888314 0.057761 0.789922
O O9 0.788419 0.147136 0.726711
O O10 0.785921 0.966991 0.779700
O O11 0.802708 0.083009 0.000000
O O12 0.245050 0.072056 0.500000
O O13 0.224513 0.201483 0.295093
O O14 0.003503 0.280658 0.500000
O O15 0.977253 0.171863 0.723060
O O16 0.500000 0.500000 0.777019
O O17 0.531968 0.612384 0.000000
O O18 0.712355 0.167016 0.500000
#
# Coordination Sequence:
#
# PCOD8227315 Si02
#       7
#     8   8   8   8   8   8   8
#     4  10  21  41  65  93 127 164 206 259 314 375
#     4  12  25  40  62  94 129 167 210 260 322 379
#     4  11  23  40  64  95 128 166 208 257 317 374
#     4  10  22  39  64  92 123 164 207 257 312 371
#     4  11  24  42  66  94 124 166 216 263 315 374
#     4  10  24  45  65  91 129 170 212 262 316 373
#     4  11  23  41  64  93 128 168 215 263 316 374
#
# _framework density 20.201377000000001
#
# number of rings (size 3 to 8) (size 9 to 14) (size 15 to 20)
#    0.000    1.286    1.429    3.857    2.000    6.571 
#    0.000    0.000    0.000    0.000    0.000    0.000 
#    0.000    0.000    0.000    0.000    0.000    0.000 
#
# Total GULP energy -694830.224561 kJ/mol
# GULP energy per Si atom -12407.682581 kJ/mol
# Density = 2.015540 g / cm^3
# Si number density = 20.201377 Si / 1000 Ang^3
#
#
#
# Elastic Constant Matrix: (Units=GPa)
#
#
# Indices 1 2 3 4 5 6 
#
# 1 109.2968 38.7641 40.0953 0.0000 0.0000 0.0000
# 2 38.7641 106.6539 47.8399 0.0000 0.0000 0.0000
# 3 40.0953 47.8399 78.1071 0.0000 0.0000 0.0000
# 4 0.0000 0.0000 0.0000 23.9734 0.0000 0.0000
# 5 0.0000 0.0000 0.0000 0.0000 31.4636 0.0000
# 6 0.0000 0.0000 0.0000 0.0000 0.0000 33.8066
#
#
#
# Elastic Compliance Matrix: (Units=1/GPa)
#
#
# Indices 1 2 3 4 5 6 
#
# 1 0.011614 -0.002133 -0.004655 0.000000 0.000000 0.000000
# 2 -0.002133 0.013320 -0.007063 0.000000 0.000000 0.000000
# 3 -0.004655 -0.007063 0.019519 0.000000 0.000000 0.000000
# 4 0.000000 0.000000 0.000000 0.041713 0.000000 0.000000
# 5 0.000000 0.000000 0.000000 0.000000 0.031783 0.000000
# 6 0.000000 0.000000 0.000000 0.000000 0.000000 0.029580
#
#
# Mechanical properties :
#
#
# Convention : Reuss Voigt Hill
#
# Bulk Modulus (GPa) = 59.70446 60.82846 60.26646
# Shear Modulus (GPa) = 27.65277 29.00596 28.32937
#
# Velocity S-wave (km/s) = 3.70382 3.79336 3.74886
# Velocity P-wave (km/s) = 6.92169 7.02585 6.97396
#
# Compressibility (1/GPa) = 0.01674917
#
# Stress axis : x y z
#
# Youngs Moduli (GPa) = 86.10539 75.07758 51.23258
#
# Poissons Ratio (x) = 0.16013 0.23851
# Poissons Ratio (y) = 0.18365 0.36187
# Poissons Ratio (z) = 0.40085 0.53029
#
# Static dielectric constant tensor:
#      x y z
#    x 3.816600 0.000000 0.000000 
#    y 0.000000 3.732240 0.000000 
#    z 0.000000 0.000000 3.637890 
# 
# 
# High freq. dielectric constant tensor:
#      x y z
#    x 1.800900 0.000000 0.000000 
#    y 0.000000 1.800530 0.000000 
#    z 0.000000 0.000000 1.788950 
# 
# From -- ./inp_files/6045.got.cif
#   From: 2010.03.12/outbox.cif.g09.slc.cpg/sg55_4_cif.got.tgz:6045.got - 2010.04.16 15:19:21.
