data_PCOD8227418
_publ_section_title
;
Structure prediction by ZEFSAII (Michael W. Deem and Ramdas Pophale) SiO2 
 PCOD8227418
Probable space group: P B A M
;
_chemical_formula_sum "Si O2"
_cell_formula_units_Z 48
_cell_length_a 7.910048
_cell_length_b 14.316347
_cell_length_c 19.502308
_cell_angle_alpha 90.000000
_cell_angle_beta 90.000000
_cell_angle_gamma 90.000000
_cell_volume 2208.499708
_symmetry_space_group_name_H-M "P B A M"
_symmetry_group_IT_number 55
_symmetry_cell_setting 'orthorhombic'
loop_
_space_group_symop_operation_xyz
x,y,z
-x,-y,z
1/2+x,1/2-y,-z
1/2-x,1/2+y,-z
-x,-y,-z
x,y,-z
1/2-x,1/2+y,z
1/2+x,1/2-y,z
loop_
_atom_site_type_symbol
_atom_site_label
_atom_site_fract_x
_atom_site_fract_y
_atom_site_fract_z
Si Si1 0.550397 0.393727 0.500000
Si Si2 0.553190 0.892695 0.500000
Si Si3 0.194171 0.608026 0.829497
Si Si4 0.810348 0.610720 0.169330
Si Si5 0.954245 0.247154 0.610561
Si Si6 0.498531 0.388914 0.076719
Si Si7 0.704553 0.255460 0.283857
O O1 0.500000 0.500000 0.500000
O O2 0.748257 0.381061 0.500000
O O3 0.472451 0.347053 0.432423
O O4 0.485783 0.838724 0.432295
O O5 0.500000 0.000000 0.500000
O O6 0.212316 0.498359 0.817706
O O7 0.332373 0.646225 0.884005
O O8 0.236657 0.653030 0.756546
O O9 0.003436 0.633638 0.854832
O O10 0.674319 0.646229 0.113083
O O11 0.766538 0.662001 0.240003
O O12 0.758504 0.255010 0.634153
O O13 0.008491 0.239898 0.692645
O O14 0.500000 0.500000 0.074180
O O15 0.501927 0.347278 0.000000
#
# Coordination Sequence:
#
# PCOD8227418 Si02
#       7
#     4   4   8   8   8   8   8
#     4  11  26  44  65  95 125 163 215 259 310 378
#     4  11  26  44  65  91 127 163 207 261 308 376
#     4  10  22  39  62  94 125 163 215 261 315 380
#     4  10  22  39  63  92 126 166 210 263 317 378
#     4  11  25  42  64  90 125 166 206 253 318 377
#     4   9  19  38  63  90 125 167 211 263 318 372
#     4  12  22  41  65  90 127 163 203 261 314 372
#
# _framework density 21.734210999999998
#
# number of rings (size 3 to 8) (size 9 to 14) (size 15 to 20)
#    0.000    1.500    3.333    1.000    2.333    3.333 
#    0.000    4.167    0.000    0.000    0.000    0.000 
#    0.000    0.000    0.000    0.000    0.000    0.000 
#
# Total GULP energy -594801.047914 kJ/mol
# GULP energy per Si atom -12391.688498 kJ/mol
# Density = 2.168474 g / cm^3
# Si number density = 21.734211 Si / 1000 Ang^3
#
#
#
# Elastic Constant Matrix: (Units=GPa)
#
#
# Indices 1 2 3 4 5 6 
#
# 1 111.7584 42.3246 77.0092 0.0000 0.0000 0.0000
# 2 42.3246 96.7188 56.1701 0.0000 0.0000 0.0000
# 3 77.0092 56.1701 169.5711 0.0000 0.0000 0.0000
# 4 0.0000 0.0000 0.0000 27.1513 0.0000 0.0000
# 5 0.0000 0.0000 0.0000 0.0000 42.4204 0.0000
# 6 0.0000 0.0000 0.0000 0.0000 0.0000 29.0394
#
#
#
# Elastic Compliance Matrix: (Units=1/GPa)
#
#
# Indices 1 2 3 4 5 6 
#
# 1 0.013668 -0.002942 -0.005232 0.000000 0.000000 0.000000
# 2 -0.002942 0.013435 -0.003114 0.000000 0.000000 0.000000
# 3 -0.005232 -0.003114 0.009305 0.000000 0.000000 0.000000
# 4 0.000000 0.000000 0.000000 0.036831 0.000000 0.000000
# 5 0.000000 0.000000 0.000000 0.000000 0.023574 0.000000
# 6 0.000000 0.000000 0.000000 0.000000 0.000000 0.034436
#
#
# Mechanical properties :
#
#
# Convention : Reuss Voigt Hill
#
# Bulk Modulus (GPa) = 72.30514 81.00622 76.65568
# Shear Modulus (GPa) = 31.55843 33.22518 32.39181
#
# Velocity S-wave (km/s) = 3.81467 3.91411 3.86471
# Velocity P-wave (km/s) = 7.26239 7.60126 7.43376
#
# Compressibility (1/GPa) = 0.01383028
#
# Stress axis : x y z
#
# Youngs Moduli (GPa) = 73.16544 74.43010 107.46813
#
# Poissons Ratio (x) = 0.21899 0.56232
# Poissons Ratio (y) = 0.21527 0.33468
# Poissons Ratio (z) = 0.38283 0.23179
#
# Static dielectric constant tensor:
#      x y z
#    x 4.507740 0.000000 0.000000 
#    y 0.000000 3.546660 0.000000 
#    z 0.000000 0.000000 3.870590 
# 
# 
# High freq. dielectric constant tensor:
#      x y z
#    x 1.892160 0.000000 0.000000 
#    y 0.000000 1.839550 0.000000 
#    z 0.000000 0.000000 1.852110 
# 
# From -- ./inp_files/20805.got.cif
#   From: 2010.03.12/outbox.cif.g09.slc.cpg/sg55_11_cif.got.tgz:20805.got - 2010.04.16 15:19:21.
