data_PCOD8227608
_publ_section_title
;
Structure prediction by ZEFSAII (Michael W. Deem and Ramdas Pophale) SiO2 
 PCOD8227608
Probable space group: P B A M
;
_chemical_formula_sum "Si O2"
_cell_formula_units_Z 40
_cell_length_a 8.710817
_cell_length_b 10.476390
_cell_length_c 18.641907
_cell_angle_alpha 90.000000
_cell_angle_beta 90.000000
_cell_angle_gamma 90.000000
_cell_volume 1701.221585
_symmetry_space_group_name_H-M "P B A M"
_symmetry_group_IT_number 55
_symmetry_cell_setting 'orthorhombic'
loop_
_space_group_symop_operation_xyz
x,y,z
-x,-y,z
1/2+x,1/2-y,-z
1/2-x,1/2+y,-z
-x,-y,-z
x,y,-z
1/2-x,1/2+y,z
1/2+x,1/2-y,z
loop_
_atom_site_type_symbol
_atom_site_label
_atom_site_fract_x
_atom_site_fract_y
_atom_site_fract_z
Si Si1 0.299056 0.591576 0.079467
Si Si2 0.207623 0.899978 0.800261
Si Si3 0.365854 0.674642 0.583172
Si Si4 0.306070 0.412669 0.362670
Si Si5 0.496533 0.193881 0.137443
O O1 0.361326 0.496205 0.140364
O O2 0.393921 0.722286 0.086380
O O3 0.115250 0.610517 0.087315
O O4 0.327803 0.533899 0.000000
O O5 0.176504 0.950067 0.720709
O O6 0.117466 0.767712 0.808715
O O7 0.390964 0.889219 0.812480
O O8 0.352381 0.708506 0.500000
O O9 0.319447 0.801885 0.626768
O O10 0.538498 0.642200 0.604309
O O11 0.262762 0.548186 0.599920
#
# Coordination Sequence:
#
# PCOD8227608 Si02
#       5
#     8   8   8   8   8
#     4  11  24  42  65  93 130 175 226 283 341 400
#     4  11  24  41  64  94 130 175 221 277 342 405
#     4  11  24  46  72 103 139 183 229 279 345 414
#     4  11  25  42  72 101 143 180 228 286 342 411
#     4  10  24  41  64  89 131 166 233 271 344 397
#
# _framework density 23.512516999999999
#
# number of rings (size 3 to 8) (size 9 to 14) (size 15 to 20)
#    0.000    1.200    0.000    5.400   11.200    7.200 
#    3.600    2.000    0.000    0.000    0.000    0.000 
#    0.000    0.000    0.000    0.000    0.000    0.000 
#
# Total GULP energy -495974.341443 kJ/mol
# GULP energy per Si atom -12399.358536 kJ/mol
# Density = 2.345900 g / cm^3
# Si number density = 23.512517 Si / 1000 Ang^3
#
#
#
# Elastic Constant Matrix: (Units=GPa)
#
#
# Indices 1 2 3 4 5 6 
#
# 1 78.2909 4.1705 -0.3668 0.0000 0.0000 0.0000
# 2 4.1705 68.4513 25.9454 0.0000 0.0000 0.0000
# 3 -0.3668 25.9454 165.9956 0.0000 0.0000 0.0000
# 4 0.0000 0.0000 0.0000 35.3542 0.0000 0.0000
# 5 0.0000 0.0000 0.0000 0.0000 -18.9629 0.0000
# 6 0.0000 0.0000 0.0000 0.0000 0.0000 43.6662
#
#
#
# Elastic Compliance Matrix: (Units=1/GPa)
#
#
# Indices 1 2 3 4 5 6 
#
# 1 0.012818 -0.000842 0.000160 0.000000 0.000000 0.000000
# 2 -0.000842 0.015584 -0.002438 0.000000 0.000000 0.000000
# 3 0.000160 -0.002438 0.006406 0.000000 0.000000 0.000000
# 4 0.000000 0.000000 0.000000 0.028285 0.000000 0.000000
# 5 0.000000 0.000000 0.000000 0.000000 -0.052735 0.000000
# 6 0.000000 0.000000 0.000000 0.000000 0.000000 0.022901
#
#
# Mechanical properties :
#
#
# Convention : Reuss Voigt Hill
#
# Bulk Modulus (GPa) = 35.00242 41.35953 38.18097
# Shear Modulus (GPa) = 101.99538 30.87742 66.43640
#
# Velocity S-wave (km/s) = 6.59343 3.62779 5.32138
# Velocity P-wave (km/s) = 8.53718 5.93097 7.35051
#
# Compressibility (1/GPa) = 0.02856946
#
# Stress axis : x y z
#
# Youngs Moduli (GPa) = 78.01248 64.16772 156.11278
#
# Poissons Ratio (x) = 0.05400 -0.02496
# Poissons Ratio (y) = 0.06565 0.38055
# Poissons Ratio (z) = -0.01247 0.15642
#
# Static dielectric constant tensor:
#      x y z
#    x 4.274120 0.000000 0.000000 
#    y 0.000000 4.443940 0.000000 
#    z 0.000000 0.000000 4.127570 
# 
# 
# High freq. dielectric constant tensor:
#      x y z
#    x 1.938840 0.000000 0.000000 
#    y 0.000000 1.931190 0.000000 
#    z 0.000000 0.000000 1.924320 
# 
# From -- ./inp_files/20597.got.cif
#   From: 2010.03.12/outbox.cif.g09.slc.cpg/sg55_11_cif.got.tgz:20597.got - 2010.04.16 15:19:21.
