data_PCOD8227062
_publ_section_title
;
Structure prediction by ZEFSAII (Michael W. Deem and Ramdas Pophale) SiO2 
 PCOD8227062
Probable space group: P B A M
;
_chemical_formula_sum "Si O2"
_cell_formula_units_Z 64
_cell_length_a 23.459745
_cell_length_b 14.701937
_cell_length_c 9.077480
_cell_angle_alpha 90.000000
_cell_angle_beta 90.000000
_cell_angle_gamma 90.000000
_cell_volume 3130.856375
_symmetry_space_group_name_H-M "P B A M"
_symmetry_group_IT_number 55
_symmetry_cell_setting 'orthorhombic'
loop_
_space_group_symop_operation_xyz
x,y,z
-x,-y,z
1/2+x,1/2-y,-z
1/2-x,1/2+y,-z
-x,-y,-z
x,y,-z
1/2-x,1/2+y,z
1/2+x,1/2-y,z
loop_
_atom_site_type_symbol
_atom_site_label
_atom_site_fract_x
_atom_site_fract_y
_atom_site_fract_z
Si Si1 0.458270 0.084487 0.334114
Si Si2 0.959312 0.085242 0.833776
Si Si3 0.523313 0.236215 0.171854
Si Si4 0.757043 0.259557 0.326056
Si Si5 0.173108 0.561242 0.672566
Si Si6 0.128587 0.205515 0.666723
Si Si7 0.861622 0.999338 0.331276
Si Si8 0.243360 0.931275 0.824762
O O1 0.458934 0.123930 0.500000
O O2 0.481392 0.157548 0.220995
O O3 0.393789 0.060189 0.289089
O O4 0.500000 0.000000 0.321269
O O5 0.906688 0.073657 0.723439
O O6 0.994253 0.170901 0.776455
O O7 0.936094 0.100124 0.000000
O O8 0.000000 0.000000 0.828241
O O9 0.586199 0.230127 0.242067
O O10 0.532607 0.230909 0.000000
O O11 0.762440 0.241933 0.500000
O O12 0.798818 0.342323 0.278397
O O13 0.693064 0.284440 0.277756
O O14 0.772481 0.167777 0.239663
O O15 0.184666 0.544932 0.500000
O O16 0.198632 0.475048 0.760835
O O17 0.123568 0.239224 0.500000
O O18 0.110706 0.100297 0.683605
O O19 0.844228 0.019918 0.500000
O O20 0.806415 0.001348 0.227897
O O21 0.247083 0.926144 0.000000
#
# Coordination Sequence:
#
# PCOD8227062 Si02
#       8
#     8   8   8   8   8   8   8   8
#     4  10  24  45  68  93 123 166 220 273 320 366
#     4  10  21  38  57  87 131 171 202 245 311 373
#     4  11  24  40  62  91 129 169 207 255 313 378
#     4  10  22  42  66  92 123 165 213 263 313 375
#     4  10  22  45  70  94 127 168 218 269 318 375
#     4  10  21  39  64  91 122 159 210 262 309 370
#     4  11  22  39  63  91 123 165 215 259 305 368
#     4  12  26  41  63  95 130 165 203 255 326 394
#
# _framework density 20.441690000000001
#
# number of rings (size 3 to 8) (size 9 to 14) (size 15 to 20)
#    0.000    1.500    2.500    1.875    3.500    3.500 
#    0.000    0.000    0.000    0.000    0.000    0.000 
#    0.000    0.000    0.000    0.000    0.000    0.000 
#
# Total GULP energy -793755.168180 kJ/mol
# GULP energy per Si atom -12402.424503 kJ/mol
# Density = 2.039516 g / cm^3
# Si number density = 20.441690 Si / 1000 Ang^3
#
#
#
# Elastic Constant Matrix: (Units=GPa)
#
#
# Indices 1 2 3 4 5 6 
#
# 1 128.9887 26.9637 44.1655 0.0000 0.0000 0.0000
# 2 26.9637 73.0929 29.5301 0.0000 0.0000 0.0000
# 3 44.1655 29.5301 72.9214 0.0000 0.0000 0.0000
# 4 0.0000 0.0000 0.0000 30.2671 0.0000 0.0000
# 5 0.0000 0.0000 0.0000 0.0000 29.4181 0.0000
# 6 0.0000 0.0000 0.0000 0.0000 0.0000 27.0566
#
#
#
# Elastic Compliance Matrix: (Units=1/GPa)
#
#
# Indices 1 2 3 4 5 6 
#
# 1 0.009912 -0.001472 -0.005407 0.000000 0.000000 0.000000
# 2 -0.001472 0.016576 -0.005821 0.000000 0.000000 0.000000
# 3 -0.005407 -0.005821 0.019346 0.000000 0.000000 0.000000
# 4 0.000000 0.000000 0.000000 0.033039 0.000000 0.000000
# 5 0.000000 0.000000 0.000000 0.000000 0.033993 0.000000
# 6 0.000000 0.000000 0.000000 0.000000 0.000000 0.036960
#
#
# Mechanical properties :
#
#
# Convention : Reuss Voigt Hill
#
# Bulk Modulus (GPa) = 48.94024 52.92464 50.93244
# Shear Modulus (GPa) = 27.46714 28.97127 28.21921
#
# Velocity S-wave (km/s) = 3.66960 3.76874 3.71950
# Velocity P-wave (km/s) = 6.47673 6.69960 6.58911
#
# Compressibility (1/GPa) = 0.02043308
#
# Stress axis : x y z
#
# Youngs Moduli (GPa) = 100.89128 60.32831 51.69153
#
# Poissons Ratio (x) = 0.08880 0.27950
# Poissons Ratio (y) = 0.14850 0.30090
# Poissons Ratio (z) = 0.54552 0.35118
#
# Static dielectric constant tensor:
#      x y z
#    x 3.778040 0.000000 0.000000 
#    y 0.000000 3.605620 0.000000 
#    z 0.000000 0.000000 3.610660 
# 
# 
# High freq. dielectric constant tensor:
#      x y z
#    x 1.808680 0.000000 0.000000 
#    y 0.000000 1.798410 0.000000 
#    z 0.000000 0.000000 1.789480 
# 
# From -- ./inp_files/9785.got.cif
#   From: 2010.03.12/outbox.cif.g09.slc.cpg/sg55_5_cif.got.tgz:9785.got - 2010.04.16 15:19:21.
