data_PCOD8227070
_publ_section_title
;
Structure prediction by ZEFSAII (Michael W. Deem and Ramdas Pophale) SiO2 
 PCOD8227070
Probable space group: P B A M
;
_chemical_formula_sum "Si O2"
_cell_formula_units_Z 56
_cell_length_a 18.584015
_cell_length_b 16.955144
_cell_length_c 9.328120
_cell_angle_alpha 90.000000
_cell_angle_beta 90.000000
_cell_angle_gamma 90.000000
_cell_volume 2939.240711
_symmetry_space_group_name_H-M "P B A M"
_symmetry_group_IT_number 55
_symmetry_cell_setting 'orthorhombic'
loop_
_space_group_symop_operation_xyz
x,y,z
-x,-y,z
1/2+x,1/2-y,-z
1/2-x,1/2+y,-z
-x,-y,-z
x,y,-z
1/2-x,1/2+y,z
1/2+x,1/2-y,z
loop_
_atom_site_type_symbol
_atom_site_label
_atom_site_fract_x
_atom_site_fract_y
_atom_site_fract_z
Si Si1 0.856641 0.453447 0.667404
Si Si2 0.124681 0.825692 0.163826
Si Si3 0.551281 0.832903 0.163078
Si Si4 0.300179 0.602886 0.333701
Si Si5 0.221316 0.261849 0.831918
Si Si6 0.106164 0.391194 0.166567
Si Si7 0.420035 0.479335 0.331088
O O1 0.873524 0.458802 0.500000
O O2 0.895484 0.376966 0.730028
O O3 0.771892 0.446603 0.698694
O O4 0.888351 0.530069 0.742329
O O5 0.062247 0.760690 0.181087
O O6 0.199184 0.786922 0.216629
O O7 0.106024 0.899203 0.260719
O O8 0.132038 0.854416 0.000000
O O9 0.469416 0.850791 0.202506
O O10 0.569396 0.858877 0.000000
O O11 0.305044 0.625319 0.500000
O O12 0.303077 0.682967 0.245971
O O13 0.367375 0.549875 0.284379
O O14 0.168136 0.331547 0.785451
O O15 0.217384 0.244673 0.000000
O O16 0.112807 0.413647 0.000000
O O17 0.500000 0.500000 0.277201
O O18 0.417884 0.465880 0.500000
#
# Coordination Sequence:
#
# PCOD8227070 Si02
#       7
#     8   8   8   8   8   8   8
#     4  11  22  37  58  85 114 149 192 231 277 340
#     4  10  21  38  60  87 115 148 194 239 285 339
#     4  10  21  38  58  84 119 151 183 232 288 339
#     4  10  22  39  58  83 115 151 191 235 286 339
#     4  10  21  38  61  87 113 149 196 239 281 338
#     4  10  22  37  57  84 115 149 185 231 287 337
#     4  10  23  41  60  85 119 157 195 237 289 347
#
# _framework density 19.052538999999999
#
# number of rings (size 3 to 8) (size 9 to 14) (size 15 to 20)
#    0.000    1.857    1.429    1.714    2.000    5.429 
#    0.000    0.000    0.000    0.000    0.000    0.000 
#    0.000    0.000    0.000    0.000    0.000    0.000 
#
# Total GULP energy -694694.880646 kJ/mol
# GULP energy per Si atom -12405.265726 kJ/mol
# Density = 1.900917 g / cm^3
# Si number density = 19.052539 Si / 1000 Ang^3
#
#
#
# Elastic Constant Matrix: (Units=GPa)
#
#
# Indices 1 2 3 4 5 6 
#
# 1 75.6519 30.4170 25.8765 0.0000 0.0000 0.0000
# 2 30.4170 115.1046 45.1668 0.0000 0.0000 0.0000
# 3 25.8765 45.1668 54.3876 0.0000 0.0000 0.0000
# 4 0.0000 0.0000 0.0000 51.8622 0.0000 0.0000
# 5 0.0000 0.0000 0.0000 0.0000 23.4234 0.0000
# 6 0.0000 0.0000 0.0000 0.0000 0.0000 28.0132
#
#
#
# Elastic Compliance Matrix: (Units=1/GPa)
#
#
# Indices 1 2 3 4 5 6 
#
# 1 0.016048 -0.001846 -0.006102 0.000000 0.000000 0.000000
# 2 -0.001846 0.013100 -0.010000 0.000000 0.000000 0.000000
# 3 -0.006102 -0.010000 0.029595 0.000000 0.000000 0.000000
# 4 0.000000 0.000000 0.000000 0.019282 0.000000 0.000000
# 5 0.000000 0.000000 0.000000 0.000000 0.042692 0.000000
# 6 0.000000 0.000000 0.000000 0.000000 0.000000 0.035697
#
#
# Mechanical properties :
#
#
# Convention : Reuss Voigt Hill
#
# Bulk Modulus (GPa) = 43.77331 49.78496 46.77913
# Shear Modulus (GPa) = 25.00918 30.23867 27.62392
#
# Velocity S-wave (km/s) = 3.62697 3.98819 3.81186
# Velocity P-wave (km/s) = 6.36905 6.88438 6.63172
#
# Compressibility (1/GPa) = 0.02284497
#
# Stress axis : x y z
#
# Youngs Moduli (GPa) = 62.31323 76.33706 33.78988
#
# Poissons Ratio (x) = 0.14095 0.20618
# Poissons Ratio (y) = 0.11505 0.33791
# Poissons Ratio (z) = 0.38023 0.76340
#
# Static dielectric constant tensor:
#      x y z
#    x 3.835330 0.000000 0.000000 
#    y 0.000000 3.417740 0.000000 
#    z 0.000000 0.000000 3.434980 
# 
# 
# High freq. dielectric constant tensor:
#      x y z
#    x 1.755320 0.000000 0.000000 
#    y 0.000000 1.747080 0.000000 
#    z 0.000000 0.000000 1.734270 
# 
# From -- ./inp_files/8738.got.cif
#   From: 2010.03.12/outbox.cif.g09.slc.cpg/sg55_5_cif.got.tgz:8738.got - 2010.04.16 15:19:21.
