data_PCOD8227985
_publ_section_title
;
Structure prediction by ZEFSAII (Michael W. Deem and Ramdas Pophale) SiO2 
 PCOD8227985
Probable space group: P C C N
;
_chemical_formula_sum "Si O2"
_cell_formula_units_Z 48
_cell_length_a 15.076411
_cell_length_b 10.223108
_cell_length_c 16.944123
_cell_angle_alpha 90.000000
_cell_angle_beta 90.000000
_cell_angle_gamma 90.000000
_cell_volume 2611.560027
_symmetry_space_group_name_H-M "P C C N"
_symmetry_group_IT_number 56
_symmetry_cell_setting 'orthorhombic'
loop_
_space_group_symop_operation_xyz
x,y,z
1/2-x,1/2-y,z
1/2+x,-y,1/2-z
-x,1/2+y,1/2-z
-x,-y,-z
1/2+x,1/2+y,-z
1/2-x,y,1/2+z
x,1/2-y,1/2+z
loop_
_atom_site_type_symbol
_atom_site_label
_atom_site_fract_x
_atom_site_fract_y
_atom_site_fract_z
Si Si1 0.190486 0.875980 0.196216
Si Si2 0.095420 0.549301 0.016349
Si Si3 0.129376 0.460997 0.456899
Si Si4 0.742639 0.894834 0.904508
Si Si5 0.049675 0.832168 0.072196
Si Si6 0.277566 0.893520 0.876747
O O1 0.250000 0.750000 0.173113
O O2 0.093428 0.871376 0.155897
O O3 0.181614 0.891141 0.289594
O O4 0.234953 0.006738 0.165019
O O5 0.145228 0.439747 0.068129
O O6 0.082590 0.685097 0.061358
O O7 0.145202 0.561300 0.933871
O O8 0.000000 0.500000 0.000000
O O9 0.189280 0.391839 0.522459
O O10 0.083808 0.586204 0.497190
O O11 0.191554 0.511458 0.384911
O O12 0.056648 0.357900 0.422861
O O13 0.750000 0.750000 0.868074
O O14 0.250000 0.750000 0.904257
#
# Coordination Sequence:
#
# PCOD8227985 Si02
#       6
#     8   8   8   8   8   8
#     4  10  20  37  61  84 117 157 196 234 301 358
#     4  11  21  35  60  85 119 151 205 250 290 341
#     4   9  19  33  61  81 114 149 201 237 291 344
#     4  10  20  36  57  84 116 157 195 244 297 349
#     4  10  18  35  57  89 108 155 198 247 278 356
#     4  10  20  38  59  86 117 159 195 240 296 365
#
# _framework density 18.379819000000001
#
# number of rings (size 3 to 8) (size 9 to 14) (size 15 to 20)
#    0.000    2.000    3.333    1.000    0.000    0.000 
#    3.000    5.000    0.000    0.000    0.000    0.000 
#    0.000    0.000    0.000    0.000    0.000    0.000 
#
# Total GULP energy -594934.267588 kJ/mol
# GULP energy per Si atom -12394.463908 kJ/mol
# Density = 1.833799 g / cm^3
# Si number density = 18.379819 Si / 1000 Ang^3
#
#
#
# Elastic Constant Matrix: (Units=GPa)
#
#
# Indices 1 2 3 4 5 6 
#
# 1 129.9980 40.8589 36.5857 0.0000 0.0000 0.0000
# 2 40.8589 125.1126 27.6193 0.0000 0.0000 0.0000
# 3 36.5857 27.6193 67.8635 0.0000 0.0000 0.0000
# 4 0.0000 0.0000 0.0000 18.5710 0.0000 0.0000
# 5 0.0000 0.0000 0.0000 0.0000 18.0640 0.0000
# 6 0.0000 0.0000 0.0000 0.0000 0.0000 31.9286
#
#
#
# Elastic Compliance Matrix: (Units=1/GPa)
#
#
# Indices 1 2 3 4 5 6 
#
# 1 0.009583 -0.002185 -0.004277 0.000000 0.000000 0.000000
# 2 -0.002185 0.009280 -0.002599 0.000000 0.000000 0.000000
# 3 -0.004277 -0.002599 0.018099 0.000000 0.000000 0.000000
# 4 0.000000 0.000000 0.000000 0.053847 0.000000 0.000000
# 5 0.000000 0.000000 0.000000 0.000000 0.055359 0.000000
# 6 0.000000 0.000000 0.000000 0.000000 0.000000 0.031320
#
#
# Mechanical properties :
#
#
# Convention : Reuss Voigt Hill
#
# Bulk Modulus (GPa) = 53.07853 59.23355 56.15604
# Shear Modulus (GPa) = 24.76599 28.24006 26.50302
#
# Velocity S-wave (km/s) = 3.67475 3.92404 3.80144
# Velocity P-wave (km/s) = 6.85175 7.26830 7.06310
#
# Compressibility (1/GPa) = 0.01884001
#
# Stress axis : x y z
#
# Youngs Moduli (GPa) = 104.35195 107.75638 55.25245
#
# Poissons Ratio (x) = 0.23550 0.23630
# Poissons Ratio (y) = 0.22806 0.14358
# Poissons Ratio (z) = 0.44629 0.28003
#
# Static dielectric constant tensor:
#      x y z
#    x 3.293800 0.000000 0.000000 
#    y 0.000000 3.083210 0.000000 
#    z 0.000000 0.000000 3.131760 
# 
# 
# High freq. dielectric constant tensor:
#      x y z
#    x 1.717280 0.000000 0.000000 
#    y 0.000000 1.718180 0.000000 
#    z 0.000000 0.000000 1.691440 
# 
# From -- ./inp_files/11600.got.cif
#   From: 2010.03.12/outbox.cif.g09.slc.cpg/sg56_6_cif.got.tgz:11600.got - 2010.04.16 15:33:40.
