data_PCOD8227760
_publ_section_title
;
Structure prediction by ZEFSAII (Michael W. Deem and Ramdas Pophale) SiO2 
 PCOD8227760
Probable space group: P B A M
;
_chemical_formula_sum "Si O2"
_cell_formula_units_Z 48
_cell_length_a 15.598355
_cell_length_b 8.445164
_cell_length_c 16.381452
_cell_angle_alpha 90.000000
_cell_angle_beta 90.000000
_cell_angle_gamma 90.000000
_cell_volume 2157.939584
_symmetry_space_group_name_H-M "P B A M"
_symmetry_group_IT_number 55
_symmetry_cell_setting 'orthorhombic'
loop_
_space_group_symop_operation_xyz
x,y,z
-x,-y,z
1/2+x,1/2-y,-z
1/2-x,1/2+y,-z
-x,-y,-z
x,y,-z
1/2-x,1/2+y,z
1/2+x,1/2-y,z
loop_
_atom_site_type_symbol
_atom_site_label
_atom_site_fract_x
_atom_site_fract_y
_atom_site_fract_z
Si Si1 0.509610 0.685614 0.656116
Si Si2 0.167624 0.186717 0.157892
Si Si3 0.169314 0.848464 0.092353
Si Si4 0.989312 0.313920 0.164629
Si Si5 0.670803 0.855537 0.591682
Si Si6 0.169700 0.312625 0.340693
O O1 0.500000 0.500000 0.647570
O O2 0.527107 0.731805 0.749124
O O3 0.588261 0.744691 0.602048
O O4 0.421975 0.762360 0.622958
O O5 0.242967 0.252173 0.101609
O O6 0.181729 0.246504 0.249772
O O7 0.076302 0.247149 0.123958
O O8 0.167328 0.995914 0.154690
O O9 0.091058 0.727854 0.107917
O O10 0.162884 0.911835 0.000000
O O11 0.000000 0.500000 0.176646
O O12 0.670183 0.924768 0.500000
O O13 0.754949 0.750005 0.602494
O O14 0.671655 0.996530 0.658026
#
# Coordination Sequence:
#
# PCOD8227760 Si02
#       6
#     8   8   8   8   8   8
#     4  11  23  42  67  94 125 167 217 262 311 376
#     4  11  23  42  66  92 126 170 215 259 311 379
#     4  12  25  41  65  97 132 166 208 266 323 375
#     4  11  23  42  67  94 125 167 217 262 311 376
#     4  12  25  41  65  97 132 166 208 266 323 375
#     4  11  23  42  66  92 126 170 215 259 311 379
#
# _framework density 22.243441000000001
#
# number of rings (size 3 to 8) (size 9 to 14) (size 15 to 20)
#    0.000    0.667    0.000   10.000    0.000    4.667 
#    0.000    0.000    0.000    0.000    0.000    0.000 
#    0.000    0.000    0.000    0.000    0.000    0.000 
#
# Total GULP energy -595501.576897 kJ/mol
# GULP energy per Si atom -12406.282852 kJ/mol
# Density = 2.219281 g / cm^3
# Si number density = 22.243441 Si / 1000 Ang^3
#
#
#
# Elastic Constant Matrix: (Units=GPa)
#
#
# Indices 1 2 3 4 5 6 
#
# 1 163.6339 29.9271 49.1375 0.0000 0.0000 0.0000
# 2 29.9271 134.7551 29.0980 0.0000 0.0000 0.0000
# 3 49.1375 29.0980 86.6966 0.0000 0.0000 0.0000
# 4 0.0000 0.0000 0.0000 25.9166 0.0000 0.0000
# 5 0.0000 0.0000 0.0000 0.0000 88.1937 0.0000
# 6 0.0000 0.0000 0.0000 0.0000 0.0000 36.8179
#
#
#
# Elastic Compliance Matrix: (Units=1/GPa)
#
#
# Indices 1 2 3 4 5 6 
#
# 1 0.007444 -0.000800 -0.003950 0.000000 0.000000 0.000000
# 2 -0.000800 0.008087 -0.002261 0.000000 0.000000 0.000000
# 3 -0.003950 -0.002261 0.014532 0.000000 0.000000 0.000000
# 4 0.000000 0.000000 0.000000 0.038585 0.000000 0.000000
# 5 0.000000 0.000000 0.000000 0.000000 0.011339 0.000000
# 6 0.000000 0.000000 0.000000 0.000000 0.000000 0.027161
#
#
# Mechanical properties :
#
#
# Convention : Reuss Voigt Hill
#
# Bulk Modulus (GPa) = 62.34282 66.82342 64.58312
# Shear Modulus (GPa) = 39.52050 48.64718 44.08384
#
# Velocity S-wave (km/s) = 4.21970 4.68165 4.45666
# Velocity P-wave (km/s) = 7.19927 7.70265 7.45521
#
# Compressibility (1/GPa) = 0.01604034
#
# Stress axis : x y z
#
# Youngs Moduli (GPa) = 134.33987 123.65961 68.81257
#
# Poissons Ratio (x) = 0.09894 0.27184
# Poissons Ratio (y) = 0.10749 0.15556
# Poissons Ratio (z) = 0.53070 0.27955
#
# Static dielectric constant tensor:
#      x y z
#    x 4.312300 0.000000 0.000000 
#    y 0.000000 4.002200 0.000000 
#    z 0.000000 0.000000 3.739330 
# 
# 
# High freq. dielectric constant tensor:
#      x y z
#    x 1.901560 0.000000 0.000000 
#    y 0.000000 1.887760 0.000000 
#    z 0.000000 0.000000 1.857630 
# 
# From -- ./inp_files/21516.got.cif
#   From: 2010.03.12/outbox.cif.g09.slc.cpg/sg55_11_cif.got.tgz:21516.got - 2010.04.16 15:19:21.
