data_PCOD8227699
_publ_section_title
;
Structure prediction by ZEFSAII (Michael W. Deem and Ramdas Pophale) SiO2 
 PCOD8227699
Probable space group: P B A M
;
_chemical_formula_sum "Si O2"
_cell_formula_units_Z 64
_cell_length_a 19.720442
_cell_length_b 19.718813
_cell_length_c 8.864932
_cell_angle_alpha 90.000000
_cell_angle_beta 90.000000
_cell_angle_gamma 90.000000
_cell_volume 3447.250329
_symmetry_space_group_name_H-M "P B A M"
_symmetry_group_IT_number 55
_symmetry_cell_setting 'orthorhombic'
loop_
_space_group_symop_operation_xyz
x,y,z
-x,-y,z
1/2+x,1/2-y,-z
1/2-x,1/2+y,-z
-x,-y,-z
x,y,-z
1/2-x,1/2+y,z
1/2+x,1/2-y,z
loop_
_atom_site_type_symbol
_atom_site_label
_atom_site_fract_x
_atom_site_fract_y
_atom_site_fract_z
Si Si1 0.203413 0.702939 0.821164
Si Si2 0.607914 0.520660 0.677400
Si Si3 0.310762 0.810559 0.821359
Si Si4 0.746168 0.047988 0.178895
Si Si5 0.426402 0.178995 0.327698
Si Si6 0.820942 0.426800 0.327704
Si Si7 0.520663 0.392081 0.677400
Si Si8 0.452310 0.753904 0.821106
O O1 0.257117 0.756400 0.764015
O O2 0.131197 0.725958 0.750526
O O3 0.226202 0.630652 0.750534
O O4 0.197885 0.697464 0.000000
O O5 0.621040 0.522813 0.500000
O O6 0.678735 0.533832 0.759991
O O7 0.578281 0.446815 0.723763
O O8 0.553173 0.578274 0.723730
O O9 0.284953 0.882158 0.757401
O O10 0.382557 0.785280 0.757495
O O11 0.314113 0.814022 0.000000
O O12 0.690107 0.994678 0.234647
O O13 0.750496 0.047406 0.000000
O O14 0.437004 0.202008 0.500000
O O15 0.399527 0.100316 0.318697
O O16 0.494235 0.190198 0.234635
O O17 0.797962 0.437463 0.500000
O O18 0.522830 0.378958 0.500000
O O19 0.533786 0.321246 0.759985
O O20 0.452890 0.749540 0.000000
#
# Coordination Sequence:
#
# PCOD8227699 Si02
#       8
#     8   8   8   8   8   8   8   8
#     4   9  17  35  61  85 113 149 192 239 288 347
#     4   9  20  38  57  81 117 155 189 233 291 354
#     4   9  22  39  54  84 122 151 191 246 299 347
#     4  11  22  37  59  84 116 154 194 243 294 347
#     4   9  20  37  57  83 113 145 189 237 284 346
#     4   9  20  37  57  83 113 145 189 237 284 346
#     4   9  20  38  57  81 117 155 189 233 291 354
#     4  11  22  37  59  84 116 154 194 243 294 347
#
# _framework density 18.565519999999999
#
# number of rings (size 3 to 8) (size 9 to 14) (size 15 to 20)
#    0.750    1.750    0.000    2.250    3.500    1.000 
#    0.000    8.125    0.000    3.750    0.000    0.000 
#    0.000    0.000    0.000    0.000    0.000    0.000 
#
# Total GULP energy -793034.374657 kJ/mol
# GULP energy per Si atom -12391.162104 kJ/mol
# Density = 1.852326 g / cm^3
# Si number density = 18.565520 Si / 1000 Ang^3
#
#
#
# Elastic Constant Matrix: (Units=GPa)
#
#
# Indices 1 2 3 4 5 6 
#
# 1 103.0489 42.3983 31.0992 0.0000 0.0000 0.0000
# 2 42.3983 100.7476 30.9877 0.0000 0.0000 0.0000
# 3 31.0992 30.9877 64.5478 0.0000 0.0000 0.0000
# 4 0.0000 0.0000 0.0000 25.0322 0.0000 0.0000
# 5 0.0000 0.0000 0.0000 0.0000 24.9263 0.0000
# 6 0.0000 0.0000 0.0000 0.0000 0.0000 29.2943
#
#
#
# Elastic Compliance Matrix: (Units=1/GPa)
#
#
# Indices 1 2 3 4 5 6 
#
# 1 0.012614 -0.004035 -0.004140 0.000000 0.000000 0.000000
# 2 -0.004035 0.012936 -0.004266 0.000000 0.000000 0.000000
# 3 -0.004140 -0.004266 0.019535 0.000000 0.000000 0.000000
# 4 0.000000 0.000000 0.000000 0.039949 0.000000 0.000000
# 5 0.000000 0.000000 0.000000 0.000000 0.040118 0.000000
# 6 0.000000 0.000000 0.000000 0.000000 0.000000 0.034136
#
#
# Mechanical properties :
#
#
# Convention : Reuss Voigt Hill
#
# Bulk Modulus (GPa) = 49.49937 53.03496 51.26716
# Shear Modulus (GPa) = 26.19103 26.77449 26.48276
#
# Velocity S-wave (km/s) = 3.76005 3.80170 3.78093
# Velocity P-wave (km/s) = 6.75059 6.92091 6.83628
#
# Compressibility (1/GPa) = 0.02020228
#
# Stress axis : x y z
#
# Youngs Moduli (GPa) = 79.27873 77.30353 51.18938
#
# Poissons Ratio (x) = 0.31191 0.21194
# Poissons Ratio (y) = 0.31988 0.21839
# Poissons Ratio (z) = 0.32824 0.32980
#
# Static dielectric constant tensor:
#      x y z
#    x 3.445560 0.000000 0.000000 
#    y 0.000000 3.445810 0.000000 
#    z 0.000000 0.000000 3.286600 
# 
# 
# High freq. dielectric constant tensor:
#      x y z
#    x 1.716840 0.000000 0.000000 
#    y 0.000000 1.716850 0.000000 
#    z 0.000000 0.000000 1.717740 
# 
# From -- ./inp_files/9139.got.cif
#   From: 2010.03.12/outbox.cif.g09.slc.cpg/sg55_5_cif.got.tgz:9139.got - 2010.04.16 15:19:21.
