data_PCOD8227461
_publ_section_title
;
Structure prediction by ZEFSAII (Michael W. Deem and Ramdas Pophale) SiO2 
 PCOD8227461
Probable space group: P B A M
;
_chemical_formula_sum "Si O2"
_cell_formula_units_Z 64
_cell_length_a 24.057305
_cell_length_b 15.342172
_cell_length_c 8.462710
_cell_angle_alpha 90.000000
_cell_angle_beta 90.000000
_cell_angle_gamma 90.000000
_cell_volume 3123.512730
_symmetry_space_group_name_H-M "P B A M"
_symmetry_group_IT_number 55
_symmetry_cell_setting 'orthorhombic'
loop_
_space_group_symop_operation_xyz
x,y,z
-x,-y,z
1/2+x,1/2-y,-z
1/2-x,1/2+y,-z
-x,-y,-z
x,y,-z
1/2-x,1/2+y,z
1/2+x,1/2-y,z
loop_
_atom_site_type_symbol
_atom_site_label
_atom_site_fract_x
_atom_site_fract_y
_atom_site_fract_z
Si Si1 0.197227 0.248364 0.684119
Si Si2 0.879912 0.331405 0.679834
Si Si3 0.382340 0.348377 0.179746
Si Si4 0.431223 0.754985 0.312426
Si Si5 0.773866 0.401158 0.183351
Si Si6 0.237312 0.907117 0.184038
Si Si7 0.005489 0.904178 0.682693
Si Si8 0.490311 0.101427 0.181919
O O1 0.202434 0.227290 0.500000
O O2 0.132983 0.247912 0.738249
O O3 0.229631 0.173996 0.778717
O O4 0.223348 0.342794 0.717772
O O5 0.877338 0.297992 0.500000
O O6 0.870703 0.253522 0.802357
O O7 0.829599 0.396932 0.713000
O O8 0.938823 0.375800 0.707362
O O9 0.326835 0.397354 0.232355
O O10 0.431513 0.374234 0.296424
O O11 0.399137 0.369995 0.000000
O O12 0.438316 0.763636 0.500000
O O13 0.463539 0.668809 0.246357
O O14 0.456395 0.841614 0.232557
O O15 0.749350 0.494151 0.229102
O O16 0.789463 0.395656 0.000000
O O17 0.246323 0.885881 0.000000
O O18 0.990719 0.912844 0.500000
O O19 0.000000 0.000000 0.763732
O O20 0.500000 0.000000 0.209301
O O21 0.476211 0.121545 0.000000
#
# Coordination Sequence:
#
# PCOD8227461 Si02
#       8
#     8   8   8   8   8   8   8   8
#     4  11  24  41  63  93 128 167 209 258 314 375
#     4  12  24  41  66  94 124 163 208 263 322 372
#     4  11  22  40  65  93 124 162 209 261 311 372
#     4  10  23  42  61  90 129 166 208 256 308 369
#     4  11  24  43  65  92 126 167 212 260 316 374
#     4  10  24  43  64  90 125 166 208 260 313 370
#     4  10  22  40  63  91 126 168 207 255 312 366
#     4  11  25  43  65  94 125 165 211 257 312 374
#
# _framework density 20.489751999999999
#
# number of rings (size 3 to 8) (size 9 to 14) (size 15 to 20)
#    0.000    1.250    2.500    2.625    3.500    3.750 
#    0.000    0.000    0.000    0.000    0.000    0.000 
#    0.000    0.000    0.000    0.000    0.000    0.000 
#
# Total GULP energy -793811.382690 kJ/mol
# GULP energy per Si atom -12403.302855 kJ/mol
# Density = 2.044312 g / cm^3
# Si number density = 20.489752 Si / 1000 Ang^3
#
#
#
# Elastic Constant Matrix: (Units=GPa)
#
#
# Indices 1 2 3 4 5 6 
#
# 1 101.4441 21.5237 28.2116 0.0000 0.0000 0.0000
# 2 21.5237 110.9072 26.5413 0.0000 0.0000 0.0000
# 3 28.2116 26.5413 43.8128 0.0000 0.0000 0.0000
# 4 0.0000 0.0000 0.0000 19.1859 0.0000 0.0000
# 5 0.0000 0.0000 0.0000 0.0000 26.9680 0.0000
# 6 0.0000 0.0000 0.0000 0.0000 0.0000 29.9533
#
#
#
# Elastic Compliance Matrix: (Units=1/GPa)
#
#
# Indices 1 2 3 4 5 6 
#
# 1 0.012038 -0.000563 -0.007410 0.000000 0.000000 0.000000
# 2 -0.000563 0.010572 -0.006042 0.000000 0.000000 0.000000
# 3 -0.007410 -0.006042 0.031256 0.000000 0.000000 0.000000
# 4 0.000000 0.000000 0.000000 0.052122 0.000000 0.000000
# 5 0.000000 0.000000 0.000000 0.000000 0.037081 0.000000
# 6 0.000000 0.000000 0.000000 0.000000 0.000000 0.033385
#
#
# Mechanical properties :
#
#
# Convention : Reuss Voigt Hill
#
# Bulk Modulus (GPa) = 38.70626 45.41304 42.05965
# Shear Modulus (GPa) = 23.46366 27.21393 25.33880
#
# Velocity S-wave (km/s) = 3.38767 3.64836 3.52043
# Velocity P-wave (km/s) = 5.85092 6.32134 6.09067
#
# Compressibility (1/GPa) = 0.02583561
#
# Stress axis : x y z
#
# Youngs Moduli (GPa) = 83.07100 94.59276 31.99378
#
# Poissons Ratio (x) = 0.05324 0.23709
# Poissons Ratio (y) = 0.04675 0.19330
# Poissons Ratio (z) = 0.61559 0.57151
#
# Static dielectric constant tensor:
#      x y z
#    x 3.679530 0.000000 0.000000 
#    y 0.000000 3.890690 0.000000 
#    z 0.000000 0.000000 3.598980 
# 
# 
# High freq. dielectric constant tensor:
#      x y z
#    x 1.812840 0.000000 0.000000 
#    y 0.000000 1.809930 0.000000 
#    z 0.000000 0.000000 1.795820 
# 
# From -- ./inp_files/9690.got.cif
#   From: 2010.03.12/outbox.cif.g09.slc.cpg/sg55_5_cif.got.tgz:9690.got - 2010.04.16 15:19:21.
