data_PCOD8227966
_publ_section_title
;
Structure prediction by ZEFSAII (Michael W. Deem and Ramdas Pophale) SiO2 
 PCOD8227966
Probable space group: P C C N
;
_chemical_formula_sum "Si O2"
_cell_formula_units_Z 60
_cell_length_a 9.276288
_cell_length_b 21.087414
_cell_length_c 17.008148
_cell_angle_alpha 90.000000
_cell_angle_beta 90.000000
_cell_angle_gamma 90.000000
_cell_volume 3327.013587
_symmetry_space_group_name_H-M "P C C N"
_symmetry_group_IT_number 56
_symmetry_cell_setting 'orthorhombic'
loop_
_space_group_symop_operation_xyz
x,y,z
1/2-x,1/2-y,z
1/2+x,-y,1/2-z
-x,1/2+y,1/2-z
-x,-y,-z
1/2+x,1/2+y,-z
1/2-x,y,1/2+z
x,1/2-y,1/2+z
loop_
_atom_site_type_symbol
_atom_site_label
_atom_site_fract_x
_atom_site_fract_y
_atom_site_fract_z
Si Si1 0.314043 0.463117 0.931084
Si Si2 0.173549 0.829152 0.067296
Si Si3 0.750000 0.750000 0.502037
Si Si4 0.475163 0.713412 0.601011
Si Si5 0.439825 0.357541 0.044225
Si Si6 0.459746 0.417540 0.341618
Si Si7 0.763335 0.035542 0.417593
Si Si8 0.959195 0.956939 0.834866
O O1 0.195632 0.426250 0.880409
O O2 0.416467 0.498512 0.869467
O O3 0.403300 0.412720 0.981653
O O4 0.247766 0.514835 0.991160
O O5 0.086799 0.782525 0.130124
O O6 0.338742 0.809715 0.047771
O O7 0.172344 0.900505 0.099684
O O8 0.084662 0.823258 0.985915
O O9 0.623312 0.720904 0.554730
O O10 0.810546 0.693321 0.448094
O O11 0.502996 0.658201 0.665869
O O12 0.470790 0.386313 0.129471
O O13 0.569772 0.453927 0.398630
O O14 0.470904 0.451230 0.258005
O O15 0.697726 0.983458 0.358769
#
# Coordination Sequence:
#
# PCOD8227966 Si02
#       8
#     8   8   4   8   8   8   8   8
#     4  11  19  35  55  83 104 151 184 226 261 337
#     4   9  16  33  56  77  99 134 192 224 255 319
#     4  10  18  34  58  80 100 140 188 238 264 314
#     4   9  19  31  54  81 100 137 182 230 266 320
#     4  10  18  34  57  78 104 141 191 222 263 330
#     4  11  22  34  51  84 116 140 177 233 281 324
#     4  10  19  35  56  80 104 145 188 225 264 325
#     4  11  21  35  53  80 116 148 174 223 287 333
#
# _framework density 18.034191
#
# number of rings (size 3 to 8) (size 9 to 14) (size 15 to 20)
#    0.000    1.867    4.000    2.000    0.000    0.000 
#    0.000    0.667    0.000   12.800    0.000    0.000 
#    0.000    0.000    0.000    0.000    0.000    0.000 
#
# Total GULP energy -743346.622278 kJ/mol
# GULP energy per Si atom -12389.110371 kJ/mol
# Density = 1.799314 g / cm^3
# Si number density = 18.034191 Si / 1000 Ang^3
#
#
#
# Elastic Constant Matrix: (Units=GPa)
#
#
# Indices 1 2 3 4 5 6 
#
# 1 90.8380 19.3903 20.1996 0.0000 0.0000 0.0000
# 2 19.3903 90.8079 23.9450 0.0000 0.0000 0.0000
# 3 20.1996 23.9450 69.0396 0.0000 0.0000 0.0000
# 4 0.0000 0.0000 0.0000 22.6233 0.0000 0.0000
# 5 0.0000 0.0000 0.0000 0.0000 14.5552 0.0000
# 6 0.0000 0.0000 0.0000 0.0000 0.0000 27.2337
#
#
#
# Elastic Compliance Matrix: (Units=1/GPa)
#
#
# Indices 1 2 3 4 5 6 
#
# 1 0.012038 -0.001807 -0.002895 0.000000 0.000000 0.000000
# 2 -0.001807 0.012392 -0.003769 0.000000 0.000000 0.000000
# 3 -0.002895 -0.003769 0.016639 0.000000 0.000000 0.000000
# 4 0.000000 0.000000 0.000000 0.044202 0.000000 0.000000
# 5 0.000000 0.000000 0.000000 0.000000 0.068704 0.000000
# 6 0.000000 0.000000 0.000000 0.000000 0.000000 0.036719
#
#
# Mechanical properties :
#
#
# Convention : Reuss Voigt Hill
#
# Bulk Modulus (GPa) = 41.44948 41.97280 41.71114
# Shear Modulus (GPa) = 23.18250 25.35913 24.27081
#
# Velocity S-wave (km/s) = 3.58924 3.75396 3.67252
# Velocity P-wave (km/s) = 6.34118 6.48954 6.41579
#
# Compressibility (1/GPa) = 0.02412575
#
# Stress axis : x y z
#
# Youngs Moduli (GPa) = 83.06891 80.69712 60.10025
#
# Poissons Ratio (x) = 0.14582 0.17401
# Poissons Ratio (y) = 0.15011 0.22653
# Poissons Ratio (z) = 0.24052 0.30416
#
# Static dielectric constant tensor:
#      x y z
#    x 3.516160 0.000000 0.000000 
#    y 0.000000 3.784490 0.000000 
#    z 0.000000 0.000000 2.890570 
# 
# 
# High freq. dielectric constant tensor:
#      x y z
#    x 1.717710 0.000000 0.000000 
#    y 0.000000 1.718900 0.000000 
#    z 0.000000 0.000000 1.639390 
# 
# From -- ./inp_files/11012.got.cif
#   From: 2010.03.12/outbox.cif.g09.slc.cpg/sg56_6_cif.got.tgz:11012.got - 2010.04.16 15:33:40.
