data_PCOD8227970
_publ_section_title
;
Structure prediction by ZEFSAII (Michael W. Deem and Ramdas Pophale) SiO2 
 PCOD8227970
Probable space group: P C C N
;
_chemical_formula_sum "Si O2"
_cell_formula_units_Z 64
_cell_length_a 16.386867
_cell_length_b 14.678589
_cell_length_c 14.947002
_cell_angle_alpha 90.000000
_cell_angle_beta 90.000000
_cell_angle_gamma 90.000000
_cell_volume 3595.293354
_symmetry_space_group_name_H-M "P C C N"
_symmetry_group_IT_number 56
_symmetry_cell_setting 'orthorhombic'
loop_
_space_group_symop_operation_xyz
x,y,z
1/2-x,1/2-y,z
1/2+x,-y,1/2-z
-x,1/2+y,1/2-z
-x,-y,-z
1/2+x,1/2+y,-z
1/2-x,y,1/2+z
x,1/2-y,1/2+z
loop_
_atom_site_type_symbol
_atom_site_label
_atom_site_fract_x
_atom_site_fract_y
_atom_site_fract_z
Si Si1 0.676114 0.990412 0.316784
Si Si2 0.091405 0.151052 0.842358
Si Si3 0.506203 0.990087 0.103225
Si Si4 0.553353 0.336087 0.178076
Si Si5 0.398840 0.148993 0.803534
Si Si6 0.067236 0.860835 0.268391
Si Si7 0.356188 0.514229 0.726019
Si Si8 0.444558 0.419239 0.032812
O O1 0.671706 0.905181 0.248647
O O2 0.629623 0.959302 0.407050
O O3 0.639753 0.083487 0.276790
O O4 0.770655 0.016439 0.326826
O O5 0.132159 0.250637 0.829259
O O6 0.997994 0.153002 0.810709
O O7 0.138929 0.080620 0.779513
O O8 0.096682 0.129497 0.947718
O O9 0.574098 0.910663 0.111540
O O10 0.419217 0.967553 0.146475
O O11 0.533579 0.084002 0.147776
O O12 0.500000 0.000000 0.000000
O O13 0.480311 0.351074 0.245767
O O14 0.593402 0.236311 0.189821
O O15 0.626273 0.408053 0.198482
O O16 0.508396 0.351239 0.082517
O O17 0.500000 0.500000 0.000000
#
# Coordination Sequence:
#
# PCOD8227970 Si02
#       8
#     8   8   8   8   8   8   8   8
#     4  10  20  36  53  78 113 146 178 227 279 337
#     4  10  18  34  60  79 102 141 181 233 271 317
#     4   9  18  34  52  79 107 141 185 223 263 321
#     4   9  18  33  55  83 101 137 187 223 263 328
#     4   8  18  34  54  75 104 140 180 217 269 324
#     4   9  18  34  56  77 105 145 181 221 272 324
#     4  10  20  35  54  74 112 150 175 220 288 331
#     4  11  18  34  60  86 103 133 197 236 263 315
#
# _framework density 17.801051000000001
#
# number of rings (size 3 to 8) (size 9 to 14) (size 15 to 20)
#    0.000    2.500    2.500    1.500    1.750    1.000 
#    4.500    0.000    0.000    0.000    0.000    0.000 
#    0.000    0.000    0.000    0.000    0.000    0.000 
#
# Total GULP energy -792890.657496 kJ/mol
# GULP energy per Si atom -12388.916523 kJ/mol
# Density = 1.776054 g / cm^3
# Si number density = 17.801051 Si / 1000 Ang^3
#
#
#
# Elastic Constant Matrix: (Units=GPa)
#
#
# Indices 1 2 3 4 5 6 
#
# 1 78.0215 30.4211 26.6168 0.0000 0.0000 0.0000
# 2 30.4211 107.7651 19.0369 0.0000 0.0000 0.0000
# 3 26.6168 19.0369 104.7711 0.0000 0.0000 0.0000
# 4 0.0000 0.0000 0.0000 19.1989 0.0000 0.0000
# 5 0.0000 0.0000 0.0000 0.0000 15.5232 0.0000
# 6 0.0000 0.0000 0.0000 0.0000 0.0000 11.7323
#
#
#
# Elastic Compliance Matrix: (Units=1/GPa)
#
#
# Indices 1 2 3 4 5 6 
#
# 1 0.015388 -0.003775 -0.003224 0.000000 0.000000 0.000000
# 2 -0.003775 0.010513 -0.000951 0.000000 0.000000 0.000000
# 3 -0.003224 -0.000951 0.010536 0.000000 0.000000 0.000000
# 4 0.000000 0.000000 0.000000 0.052086 0.000000 0.000000
# 5 0.000000 0.000000 0.000000 0.000000 0.064420 0.000000
# 6 0.000000 0.000000 0.000000 0.000000 0.000000 0.085235
#
#
# Mechanical properties :
#
#
# Convention : Reuss Voigt Hill
#
# Bulk Modulus (GPa) = 48.68781 49.18969 48.93875
# Shear Modulus (GPa) = 19.16267 23.58973 21.37620
#
# Velocity S-wave (km/s) = 3.28455 3.64426 3.46907
# Velocity P-wave (km/s) = 6.46489 6.73799 6.60285
#
# Compressibility (1/GPa) = 0.02053902
#
# Stress axis : x y z
#
# Youngs Moduli (GPa) = 64.98398 95.12024 94.90908
#
# Poissons Ratio (x) = 0.35904 0.30594
# Poissons Ratio (y) = 0.24529 0.09029
# Poissons Ratio (z) = 0.20948 0.09049
#
# Static dielectric constant tensor:
#      x y z
#    x 3.095430 0.000000 0.000000 
#    y 0.000000 3.382300 0.000000 
#    z 0.000000 0.000000 3.416130 
# 
# 
# High freq. dielectric constant tensor:
#      x y z
#    x 1.660170 0.000000 0.000000 
#    y 0.000000 1.700030 0.000000 
#    z 0.000000 0.000000 1.681030 
# 
# From -- ./inp_files/12910.got.cif
#   From: 2010.03.12/outbox.cif.g09.slc.cpg/sg56_7_cif.got.tgz:12910.got - 2010.04.16 15:33:40.
