data_PCOD8227656
_publ_section_title
;
Structure prediction by ZEFSAII (Michael W. Deem and Ramdas Pophale) SiO2 
 PCOD8227656
Probable space group: P B A M
;
_chemical_formula_sum "Si O2"
_cell_formula_units_Z 56
_cell_length_a 13.333619
_cell_length_b 29.244347
_cell_length_c 9.150114
_cell_angle_alpha 90.000000
_cell_angle_beta 90.000000
_cell_angle_gamma 90.000000
_cell_volume 3567.931227
_symmetry_space_group_name_H-M "P B A M"
_symmetry_group_IT_number 55
_symmetry_cell_setting 'orthorhombic'
loop_
_space_group_symop_operation_xyz
x,y,z
-x,-y,z
1/2+x,1/2-y,-z
1/2-x,1/2+y,-z
-x,-y,-z
x,y,-z
1/2-x,1/2+y,z
1/2+x,1/2-y,z
loop_
_atom_site_type_symbol
_atom_site_label
_atom_site_fract_x
_atom_site_fract_y
_atom_site_fract_z
Si Si1 0.614092 0.089098 0.170136
Si Si2 0.278624 0.181740 0.830061
Si Si3 0.700908 0.185031 0.831064
Si Si4 0.619313 0.000304 0.665117
Si Si5 0.383268 0.088645 0.829526
Si Si6 0.406356 0.269246 0.166339
Si Si7 0.893203 0.768702 0.673164
O O1 0.677562 0.133392 0.216797
O O2 0.498584 0.098108 0.212398
O O3 0.659711 0.045939 0.256458
O O4 0.625155 0.078131 0.000000
O O5 0.319086 0.132467 0.781914
O O6 0.365412 0.218608 0.799429
O O7 0.181226 0.192635 0.734320
O O8 0.247917 0.183340 0.000000
O O9 0.818459 0.193948 0.806518
O O10 0.634392 0.218918 0.734582
O O11 0.670818 0.193450 0.000000
O O12 0.658667 0.000188 0.500000
O O13 0.660974 0.955093 0.744672
O O14 0.500000 0.000000 0.674958
O O15 0.372663 0.078481 0.000000
O O16 0.494969 0.281497 0.276835
O O17 0.445719 0.271991 0.000000
O O18 0.886971 0.768043 0.500000
#
# Coordination Sequence:
#
# PCOD8227656 Si02
#       7
#     8   8   8   8   8   8   8
#     4   9  16  28  46  66  87 112 146 183 216 253
#     4   9  18  32  49  66  85 115 154 188 218 255
#     4   9  18  32  49  66  85 115 153 187 218 255
#     4   9  17  27  39  60  91 121 144 170 211 261
#     4   9  16  27  45  66  87 114 147 182 216 252
#     4   9  17  31  48  64  86 116 149 183 217 256
#     4  11  21  30  43  65  93 120 145 179 221 264
#
# _framework density 15.69537
#
# number of rings (size 3 to 8) (size 9 to 14) (size 15 to 20)
#    0.000    2.714    0.000    3.429    0.000    7.429 
#    0.000    2.857    0.000    0.000    0.000    1.000 
#    0.000    8.000    0.000    0.000    0.000    0.000 
#
# Total GULP energy -694453.626494 kJ/mol
# GULP energy per Si atom -12400.957616 kJ/mol
# Density = 1.565965 g / cm^3
# Si number density = 15.695370 Si / 1000 Ang^3
#
#
#
# Elastic Constant Matrix: (Units=GPa)
#
#
# Indices 1 2 3 4 5 6 
#
# 1 72.9555 52.5470 47.1569 0.0000 0.0000 0.0000
# 2 52.5470 152.2580 62.8030 0.0000 0.0000 0.0000
# 3 47.1569 62.8030 87.6581 0.0000 0.0000 0.0000
# 4 0.0000 0.0000 0.0000 16.8876 0.0000 0.0000
# 5 0.0000 0.0000 0.0000 0.0000 14.3453 0.0000
# 6 0.0000 0.0000 0.0000 0.0000 0.0000 21.7176
#
#
#
# Elastic Compliance Matrix: (Units=1/GPa)
#
#
# Indices 1 2 3 4 5 6 
#
# 1 0.022571 -0.003948 -0.009314 0.000000 0.000000 0.000000
# 2 -0.003948 0.010013 -0.005050 0.000000 0.000000 0.000000
# 3 -0.009314 -0.005050 0.020037 0.000000 0.000000 0.000000
# 4 0.000000 0.000000 0.000000 0.059215 0.000000 0.000000
# 5 0.000000 0.000000 0.000000 0.000000 0.069709 0.000000
# 6 0.000000 0.000000 0.000000 0.000000 0.000000 0.046046
#
#
# Mechanical properties :
#
#
# Convention : Reuss Voigt Hill
#
# Bulk Modulus (GPa) = 62.51193 70.87617 66.69405
# Shear Modulus (GPa) = 18.54964 20.61442 19.58203
#
# Velocity S-wave (km/s) = 3.44154 3.62803 3.53601
# Velocity P-wave (km/s) = 7.46371 7.92499 7.69781
#
# Compressibility (1/GPa) = 0.01599695
#
# Stress axis : x y z
#
# Youngs Moduli (GPa) = 44.30525 99.86591 49.90815
#
# Poissons Ratio (x) = 0.39425 0.46483
# Poissons Ratio (y) = 0.17491 0.25206
# Poissons Ratio (z) = 0.41265 0.50436
#
# Static dielectric constant tensor:
#      x y z
#    x 2.751730 0.000000 0.000000 
#    y 0.000000 3.077640 0.000000 
#    z 0.000000 0.000000 2.953060 
# 
# 
# High freq. dielectric constant tensor:
#      x y z
#    x 1.569420 0.000000 0.000000 
#    y 0.000000 1.601590 0.000000 
#    z 0.000000 0.000000 1.600420 
# 
# From -- ./inp_files/6882.got.cif
#   From: 2010.03.12/outbox.cif.g09.slc.cpg/sg55_4_cif.got.tgz:6882.got - 2010.04.16 15:19:21.
