data_PCOD8227710
_publ_section_title
;
Structure prediction by ZEFSAII (Michael W. Deem and Ramdas Pophale) SiO2 
 PCOD8227710
Probable space group: P B A M
;
_chemical_formula_sum "Si O2"
_cell_formula_units_Z 48
_cell_length_a 30.877535
_cell_length_b 9.394553
_cell_length_c 8.325186
_cell_angle_alpha 90.000000
_cell_angle_beta 90.000000
_cell_angle_gamma 90.000000
_cell_volume 2414.975275
_symmetry_space_group_name_H-M "P B A M"
_symmetry_group_IT_number 55
_symmetry_cell_setting 'orthorhombic'
loop_
_space_group_symop_operation_xyz
x,y,z
-x,-y,z
1/2+x,1/2-y,-z
1/2-x,1/2+y,-z
-x,-y,-z
x,y,-z
1/2-x,1/2+y,z
1/2+x,1/2-y,z
loop_
_atom_site_type_symbol
_atom_site_label
_atom_site_fract_x
_atom_site_fract_y
_atom_site_fract_z
Si Si1 0.039086 0.591387 0.691519
Si Si2 0.635175 0.583598 0.310755
Si Si3 0.288683 0.896392 0.686580
Si Si4 0.365437 0.092167 0.690565
Si Si5 0.538315 0.593284 0.689936
Si Si6 0.213656 0.082244 0.184066
O O1 0.036688 0.589270 0.500000
O O2 0.086885 0.537453 0.745718
O O3 0.032839 0.749179 0.760022
O O4 0.000000 0.500000 0.767033
O O5 0.644088 0.571325 0.500000
O O6 0.643194 0.745911 0.250307
O O7 0.586139 0.534942 0.268419
O O8 0.665520 0.474677 0.216481
O O9 0.295600 0.861496 0.500000
O O10 0.283450 0.749276 0.779728
O O11 0.329517 0.984101 0.759361
O O12 0.246333 0.993284 0.705506
O O13 0.362740 0.095186 0.500000
O O14 0.500000 0.500000 0.768591
O O15 0.532703 0.598715 0.500000
O O16 0.226356 0.057668 0.000000
#
# Coordination Sequence:
#
# PCOD8227710 Si02
#       6
#     8   8   8   8   8   8
#     4   8  13  22  38  65 103 137 162 200 258 312
#     4   9  17  33  55  78 107 143 182 222 268 324
#     4  11  22  38  59  80 104 139 182 222 266 324
#     4   8  16  30  50  76 103 134 174 217 258 308
#     4   8  14  24  42  72 106 137 172 218 267 313
#     4  12  25  39  55  80 111 139 174 223 277 327
#
# _framework density 19.875979999999998
#
# number of rings (size 3 to 8) (size 9 to 14) (size 15 to 20)
#    0.000    2.667    0.000    5.000    0.000    2.667 
#    0.000    5.833    0.000    0.500    0.000    0.000 
#    0.000    8.000    0.000    0.000    0.000    0.000 
#
# Total GULP energy -594987.209839 kJ/mol
# GULP energy per Si atom -12395.566872 kJ/mol
# Density = 1.983074 g / cm^3
# Si number density = 19.875980 Si / 1000 Ang^3
#
#
#
# Elastic Constant Matrix: (Units=GPa)
#
#
# Indices 1 2 3 4 5 6 
#
# 1 152.6572 73.1787 7.6831 0.0000 0.0000 0.0000
# 2 73.1787 109.1914 7.3780 0.0000 0.0000 0.0000
# 3 7.6831 7.3780 30.7541 0.0000 0.0000 0.0000
# 4 0.0000 0.0000 0.0000 13.7937 0.0000 0.0000
# 5 0.0000 0.0000 0.0000 0.0000 3.6481 0.0000
# 6 0.0000 0.0000 0.0000 0.0000 0.0000 46.4738
#
#
#
# Elastic Compliance Matrix: (Units=1/GPa)
#
#
# Indices 1 2 3 4 5 6 
#
# 1 0.009674 -0.006424 -0.000876 0.000000 0.000000 0.000000
# 2 -0.006424 0.013575 -0.001652 0.000000 0.000000 0.000000
# 3 -0.000876 -0.001652 0.033131 0.000000 0.000000 0.000000
# 4 0.000000 0.000000 0.000000 0.072497 0.000000 0.000000
# 5 0.000000 0.000000 0.000000 0.000000 0.274117 0.000000
# 6 0.000000 0.000000 0.000000 0.000000 0.000000 0.021517
#
#
# Mechanical properties :
#
#
# Convention : Reuss Voigt Hill
#
# Bulk Modulus (GPa) = 25.98958 52.12027 39.05492
# Shear Modulus (GPa) = 10.98319 26.40732 18.69525
#
# Velocity S-wave (km/s) = 2.35326 3.64896 3.07024
# Velocity P-wave (km/s) = 4.52637 6.63573 5.67983
#
# Compressibility (1/GPa) = 0.03847696
#
# Stress axis : x y z
#
# Youngs Moduli (GPa) = 103.36588 73.66236 30.18324
#
# Poissons Ratio (x) = 0.47324 0.02643
# Poissons Ratio (y) = 0.66407 0.04986
# Poissons Ratio (z) = 0.09051 0.12168
#
# Static dielectric constant tensor:
#      x y z
#    x 4.022110 0.000000 0.000000 
#    y 0.000000 3.781150 0.000000 
#    z 0.000000 0.000000 3.000970 
# 
# 
# High freq. dielectric constant tensor:
#      x y z
#    x 1.792690 0.000000 0.000000 
#    y 0.000000 1.771450 0.000000 
#    z 0.000000 0.000000 1.721230 
# 
# From -- ./inp_files/10494.got.cif
#   From: 2010.03.12/outbox.cif.g09.slc.cpg/sg55_6_cif.got.tgz:10494.got - 2010.04.16 15:19:21.
