data_PCOD8227465
_publ_section_title
;
Structure prediction by ZEFSAII (Michael W. Deem and Ramdas Pophale) SiO2 
 PCOD8227465
Probable space group: P B A M
;
_chemical_formula_sum "Si O2"
_cell_formula_units_Z 56
_cell_length_a 14.307515
_cell_length_b 12.684460
_cell_length_c 13.478530
_cell_angle_alpha 90.000000
_cell_angle_beta 90.000000
_cell_angle_gamma 90.000000
_cell_volume 2446.125431
_symmetry_space_group_name_H-M "P B A M"
_symmetry_group_IT_number 55
_symmetry_cell_setting 'orthorhombic'
loop_
_space_group_symop_operation_xyz
x,y,z
-x,-y,z
1/2+x,1/2-y,-z
1/2-x,1/2+y,-z
-x,-y,-z
x,y,-z
1/2-x,1/2+y,z
1/2+x,1/2-y,z
loop_
_atom_site_type_symbol
_atom_site_label
_atom_site_fract_x
_atom_site_fract_y
_atom_site_fract_z
Si Si1 0.891078 0.729231 0.798503
Si Si2 0.599082 0.536734 0.616080
Si Si3 0.047458 0.389329 0.608872
Si Si4 0.962288 0.116138 0.115457
Si Si5 0.239001 0.093205 0.269010
Si Si6 0.131576 0.735366 0.608456
Si Si7 0.747573 0.077959 0.888289
O O1 0.889573 0.655501 0.698833
O O2 0.828201 0.830053 0.787203
O O3 0.836528 0.662713 0.882248
O O4 0.990646 0.780337 0.831155
O O5 0.500000 0.500000 0.663172
O O6 0.586510 0.548904 0.500000
O O7 0.682193 0.458584 0.641001
O O8 0.628641 0.650130 0.660499
O O9 0.099790 0.403541 0.500000
O O10 0.000000 0.500000 0.639896
O O11 0.973797 0.298080 0.590915
O O12 0.851154 0.122922 0.137549
O O13 0.985327 0.128845 0.000000
O O14 0.000000 0.000000 0.151383
O O15 0.325050 0.151892 0.317579
O O16 0.279281 0.013311 0.188393
O O17 0.182585 0.738615 0.500000
O O18 0.748786 0.032745 0.000000
#
# Coordination Sequence:
#
# PCOD8227465 Si02
#       7
#     8   8   8   8   8   8   8
#     4  12  25  40  74 102 137 181 235 287 348 421
#     4  10  22  40  64  97 137 177 225 283 336 403
#     4  10  23  43  66  94 138 188 230 278 341 420
#     4  10  22  45  74 102 135 179 231 289 358 422
#     4  12  24  38  67  97 135 180 223 288 337 413
#     4  10  22  40  63  95 136 178 227 277 338 408
#     4  11  26  46  68 102 137 175 233 296 358 426
#
# _framework density 22.893346999999999
#
# number of rings (size 3 to 8) (size 9 to 14) (size 15 to 20)
#    0.000    1.286    1.429    3.429    6.000    2.857 
#    0.000    3.571    0.000    2.143    0.000    0.000 
#    0.000    0.000    0.000    0.000    0.000    0.000 
#
# Total GULP energy -693956.911441 kJ/mol
# GULP energy per Si atom -12392.087704 kJ/mol
# Density = 2.284124 g / cm^3
# Si number density = 22.893347 Si / 1000 Ang^3
#
#
#
# Elastic Constant Matrix: (Units=GPa)
#
#
# Indices 1 2 3 4 5 6 
#
# 1 82.4541 41.9526 40.9152 0.0000 0.0000 0.0000
# 2 41.9526 121.6923 46.3371 0.0000 0.0000 0.0000
# 3 40.9152 46.3371 103.5621 0.0000 0.0000 0.0000
# 4 0.0000 0.0000 0.0000 15.2843 0.0000 0.0000
# 5 0.0000 0.0000 0.0000 0.0000 17.1071 0.0000
# 6 0.0000 0.0000 0.0000 0.0000 0.0000 48.8920
#
#
#
# Elastic Compliance Matrix: (Units=1/GPa)
#
#
# Indices 1 2 3 4 5 6 
#
# 1 0.016461 -0.003855 -0.004778 0.000000 0.000000 0.000000
# 2 -0.003855 0.010808 -0.003313 0.000000 0.000000 0.000000
# 3 -0.004778 -0.003313 0.013026 0.000000 0.000000 0.000000
# 4 0.000000 0.000000 0.000000 0.065427 0.000000 0.000000
# 5 0.000000 0.000000 0.000000 0.000000 0.058455 0.000000
# 6 0.000000 0.000000 0.000000 0.000000 0.000000 0.020453
#
#
# Mechanical properties :
#
#
# Convention : Reuss Voigt Hill
#
# Bulk Modulus (GPa) = 60.96771 62.90204 61.93487
# Shear Modulus (GPa) = 23.36565 28.15694 25.76130
#
# Velocity S-wave (km/s) = 3.19820 3.51082 3.35815
# Velocity P-wave (km/s) = 6.35035 6.63101 6.49220
#
# Compressibility (1/GPa) = 0.01640213
#
# Stress axis : x y z
#
# Youngs Moduli (GPa) = 60.75136 92.52501 76.76934
#
# Poissons Ratio (x) = 0.35670 0.36682
# Poissons Ratio (y) = 0.23421 0.25431
# Poissons Ratio (z) = 0.29029 0.30651
#
# Static dielectric constant tensor:
#      x y z
#    x 3.861870 0.000000 0.000000 
#    y 0.000000 -1.518570 0.000000 
#    z 0.000000 0.000000 4.450380 
# 
# 
# High freq. dielectric constant tensor:
#      x y z
#    x 1.887310 0.000000 0.000000 
#    y 0.000000 1.910040 0.000000 
#    z 0.000000 0.000000 1.917270 
# 
# From -- ./inp_files/18933.got.cif
#   From: 2010.03.12/outbox.cif.g09.slc.cpg/sg55_10_cif.got.tgz:18933.got - 2010.04.16 15:19:21.
