data_PCOD8227229
_publ_section_title
;
Structure prediction by ZEFSAII (Michael W. Deem and Ramdas Pophale) SiO2 
 PCOD8227229
Probable space group: P B A M
;
_chemical_formula_sum "Si O2"
_cell_formula_units_Z 48
_cell_length_a 15.490929
_cell_length_b 18.766829
_cell_length_c 7.652730
_cell_angle_alpha 90.000000
_cell_angle_beta 90.000000
_cell_angle_gamma 90.000000
_cell_volume 2224.768113
_symmetry_space_group_name_H-M "P B A M"
_symmetry_group_IT_number 55
_symmetry_cell_setting 'orthorhombic'
loop_
_space_group_symop_operation_xyz
x,y,z
-x,-y,z
1/2+x,1/2-y,-z
1/2-x,1/2+y,-z
-x,-y,-z
x,y,-z
1/2-x,1/2+y,z
1/2+x,1/2-y,z
loop_
_atom_site_type_symbol
_atom_site_label
_atom_site_fract_x
_atom_site_fract_y
_atom_site_fract_z
Si Si1 0.115935 0.327712 0.796970
Si Si2 0.094951 0.485977 0.301459
Si Si3 0.732746 0.774388 0.792998
Si Si4 0.543230 0.727874 0.796054
Si Si5 0.246289 0.066277 0.803888
Si Si6 0.137323 0.008791 0.500000
Si Si7 0.482477 0.382233 0.500000
O O1 0.119379 0.402856 0.701108
O O2 0.192940 0.278084 0.720232
O O3 0.022757 0.292512 0.763829
O O4 0.132535 0.340860 0.000000
O O5 0.100890 0.513239 0.500000
O O6 0.157832 0.533984 0.184865
O O7 0.000000 0.500000 0.223899
O O8 0.638089 0.750457 0.729459
O O9 0.752021 0.853942 0.724825
O O10 0.733838 0.776375 0.000000
O O11 0.512304 0.662636 0.677895
O O12 0.542513 0.704604 0.000000
O O13 0.192051 0.016323 0.676247
O O14 0.206724 0.065176 0.000000
O O15 0.063018 0.066309 0.500000
O O16 0.104631 0.928027 0.500000
#
# Coordination Sequence:
#
# PCOD8227229 Si02
#       7
#     8   8   8   8   8   4   4
#     4  10  21  39  64  93 124 164 215 264 318 389
#     4  11  24  40  61  95 137 173 214 264 325 398
#     4   9  20  38  63  93 123 162 213 264 320 384
#     4  10  22  41  65  94 128 163 215 269 322 392
#     4  11  23  43  69  92 130 176 212 267 330 382
#     4  11  26  45  60  95 127 162 231 270 312 403
#     4  11  26  43  65  89 128 172 212 276 335 376
#
# _framework density 21.575282999999999
#
# number of rings (size 3 to 8) (size 9 to 14) (size 15 to 20)
#    0.000    1.667    0.833    2.500    3.500    6.000 
#    1.500    1.667    0.000    0.000    0.000    0.000 
#    0.000    0.000    0.000    0.000    0.000    0.000 
#
# Total GULP energy -595366.356568 kJ/mol
# GULP energy per Si atom -12403.465762 kJ/mol
# Density = 2.152618 g / cm^3
# Si number density = 21.575283 Si / 1000 Ang^3
#
#
#
# Elastic Constant Matrix: (Units=GPa)
#
#
# Indices 1 2 3 4 5 6 
#
# 1 111.4255 26.0167 8.6132 0.0000 0.0000 0.0000
# 2 26.0167 110.2647 14.8080 0.0000 0.0000 0.0000
# 3 8.6132 14.8080 78.9149 0.0000 0.0000 0.0000
# 4 0.0000 0.0000 0.0000 23.2915 0.0000 0.0000
# 5 0.0000 0.0000 0.0000 0.0000 4.2264 0.0000
# 6 0.0000 0.0000 0.0000 0.0000 0.0000 39.4798
#
#
#
# Elastic Compliance Matrix: (Units=1/GPa)
#
#
# Indices 1 2 3 4 5 6 
#
# 1 0.009529 -0.002163 -0.000634 0.000000 0.000000 0.000000
# 2 -0.002163 0.009795 -0.001602 0.000000 0.000000 0.000000
# 3 -0.000634 -0.001602 0.013042 0.000000 0.000000 0.000000
# 4 0.000000 0.000000 0.000000 0.042934 0.000000 0.000000
# 5 0.000000 0.000000 0.000000 0.000000 0.236608 0.000000
# 6 0.000000 0.000000 0.000000 0.000000 0.000000 0.025329
#
#
# Mechanical properties :
#
#
# Convention : Reuss Voigt Hill
#
# Bulk Modulus (GPa) = 42.43248 44.38677 43.40963
# Shear Modulus (GPa) = 14.12868 30.14402 22.13635
#
# Velocity S-wave (km/s) = 2.56179 3.74191 3.20661
# Velocity P-wave (km/s) = 5.33481 6.26792 5.82010
#
# Compressibility (1/GPa) = 0.02356685
#
# Stress axis : x y z
#
# Youngs Moduli (GPa) = 104.94626 102.09727 76.67731
#
# Poissons Ratio (x) = 0.22085 0.04862
# Poissons Ratio (y) = 0.22701 0.12282
# Poissons Ratio (z) = 0.06655 0.16354
#
# Static dielectric constant tensor:
#      x y z
#    x 4.160770 0.000000 0.000000 
#    y 0.000000 3.897760 0.000000 
#    z 0.000000 0.000000 3.648290 
# 
# 
# High freq. dielectric constant tensor:
#      x y z
#    x 1.856690 0.000000 0.000000 
#    y 0.000000 1.849200 0.000000 
#    z 0.000000 0.000000 1.841630 
# 
# From -- ./inp_files/5722.got.cif
#   From: 2010.03.12/outbox.cif.g09.slc.cpg/sg55_3_cif.got.tgz:5722.got - 2010.04.16 15:19:21.
