data_PCOD8227998
_publ_section_title
;
Structure prediction by ZEFSAII (Michael W. Deem and Ramdas Pophale) SiO2 
 PCOD8227998
Probable space group: P C C N
;
_chemical_formula_sum "Si O2"
_cell_formula_units_Z 44
_cell_length_a 10.946882
_cell_length_b 13.933857
_cell_length_c 14.205503
_cell_angle_alpha 90.000000
_cell_angle_beta 90.000000
_cell_angle_gamma 90.000000
_cell_volume 2166.797880
_symmetry_space_group_name_H-M "P C C N"
_symmetry_group_IT_number 56
_symmetry_cell_setting 'orthorhombic'
loop_
_space_group_symop_operation_xyz
x,y,z
1/2-x,1/2-y,z
1/2+x,-y,1/2-z
-x,1/2+y,1/2-z
-x,-y,-z
1/2+x,1/2+y,-z
1/2-x,y,1/2+z
x,1/2-y,1/2+z
loop_
_atom_site_type_symbol
_atom_site_label
_atom_site_fract_x
_atom_site_fract_y
_atom_site_fract_z
Si Si1 0.832793 0.841017 0.344110
Si Si2 0.358168 0.057290 0.552465
Si Si3 0.049848 0.717282 0.392543
Si Si4 0.105805 0.660979 0.586601
Si Si5 0.342855 0.333514 0.869452
Si Si6 0.250000 0.750000 0.241987
O O1 0.750000 0.750000 0.368986
O O2 0.775195 0.931522 0.398917
O O3 0.819062 0.870166 0.235302
O O4 0.971521 0.815601 0.376204
O O5 0.457132 0.127420 0.601779
O O6 0.333281 0.079412 0.442809
O O7 0.409513 0.950497 0.560472
O O8 0.129268 0.720668 0.489528
O O9 0.142874 0.705203 0.305570
O O10 0.205729 0.668282 0.668781
O O11 0.980682 0.706571 0.626815
O O12 0.250000 0.250000 0.899856
#
# Coordination Sequence:
#
# PCOD8227998 Si02
#       6
#     8   8   8   8   8   4
#     4   9  18  35  61  90 111 152 196 244 292 355
#     4  10  21  36  61  92 118 147 198 256 301 348
#     4  10  20  40  61  82 121 156 201 240 294 364
#     4  11  23  38  60  87 118 160 194 248 305 352
#     4  10  18  35  63  87 116 155 201 241 297 354
#     4  12  24  40  58  82 120 168 198 238 308 366
#
# _framework density 20.306463000000001
#
# number of rings (size 3 to 8) (size 9 to 14) (size 15 to 20)
#    0.000    1.818    1.818    5.455    0.000    2.909 
#    0.000    0.000    0.000    3.273    0.000    0.000 
#    0.000    0.000    0.000    0.000    0.000    0.000 
#
# Total GULP energy -545196.392326 kJ/mol
# GULP energy per Si atom -12390.827098 kJ/mol
# Density = 2.026024 g / cm^3
# Si number density = 20.306463 Si / 1000 Ang^3
#
#
#
# Elastic Constant Matrix: (Units=GPa)
#
#
# Indices 1 2 3 4 5 6 
#
# 1 107.5484 36.5825 58.9231 0.0000 0.0000 0.0000
# 2 36.5825 55.7409 31.5822 0.0000 0.0000 0.0000
# 3 58.9231 31.5822 140.8297 0.0000 0.0000 0.0000
# 4 0.0000 0.0000 0.0000 17.5727 0.0000 0.0000
# 5 0.0000 0.0000 0.0000 0.0000 42.9571 0.0000
# 6 0.0000 0.0000 0.0000 0.0000 0.0000 25.5722
#
#
#
# Elastic Compliance Matrix: (Units=1/GPa)
#
#
# Indices 1 2 3 4 5 6 
#
# 1 0.013952 -0.006701 -0.004335 0.000000 0.000000 0.000000
# 2 -0.006701 0.023770 -0.002527 0.000000 0.000000 0.000000
# 3 -0.004335 -0.002527 0.009481 0.000000 0.000000 0.000000
# 4 0.000000 0.000000 0.000000 0.056906 0.000000 0.000000
# 5 0.000000 0.000000 0.000000 0.000000 0.023279 0.000000
# 6 0.000000 0.000000 0.000000 0.000000 0.000000 0.039105
#
#
# Mechanical properties :
#
#
# Convention : Reuss Voigt Hill
#
# Bulk Modulus (GPa) = 49.80613 62.03273 55.91943
# Shear Modulus (GPa) = 24.96111 29.02248 26.99179
#
# Velocity S-wave (km/s) = 3.50983 3.78461 3.64980
# Velocity P-wave (km/s) = 6.40357 7.05069 6.73491
#
# Compressibility (1/GPa) = 0.02007785
#
# Stress axis : x y z
#
# Youngs Moduli (GPa) = 71.67205 42.07064 105.47168
#
# Poissons Ratio (x) = 0.28191 0.45722
# Poissons Ratio (y) = 0.48026 0.26652
# Poissons Ratio (z) = 0.31070 0.10631
#
# Static dielectric constant tensor:
#      x y z
#    x 3.941860 0.000000 0.000000 
#    y 0.000000 3.254270 0.000000 
#    z 0.000000 0.000000 3.947230 
# 
# 
# High freq. dielectric constant tensor:
#      x y z
#    x 1.802140 0.000000 0.000000 
#    y 0.000000 1.741220 0.000000 
#    z 0.000000 0.000000 1.815620 
# 
# From -- ./inp_files/11563.got.cif
#   From: 2010.03.12/outbox.cif.g09.slc.cpg/sg56_6_cif.got.tgz:11563.got - 2010.04.16 15:33:40.
