data_PCOD8227437
_publ_section_title
;
Structure prediction by ZEFSAII (Michael W. Deem and Ramdas Pophale) SiO2 
 PCOD8227437
Probable space group: P B A M
;
_chemical_formula_sum "Si O2"
_cell_formula_units_Z 64
_cell_length_a 24.751510
_cell_length_b 14.522192
_cell_length_c 8.964227
_cell_angle_alpha 90.000000
_cell_angle_beta 90.000000
_cell_angle_gamma 90.000000
_cell_volume 3222.157156
_symmetry_space_group_name_H-M "P B A M"
_symmetry_group_IT_number 55
_symmetry_cell_setting 'orthorhombic'
loop_
_space_group_symop_operation_xyz
x,y,z
-x,-y,z
1/2+x,1/2-y,-z
1/2-x,1/2+y,-z
-x,-y,-z
x,y,-z
1/2-x,1/2+y,z
1/2+x,1/2-y,z
loop_
_atom_site_type_symbol
_atom_site_label
_atom_site_fract_x
_atom_site_fract_y
_atom_site_fract_z
Si Si1 0.200516 0.728977 0.830612
Si Si2 0.087398 0.755192 0.677620
Si Si3 0.143716 0.419470 0.672197
Si Si4 0.650789 0.446023 0.829355
Si Si5 0.729821 0.983700 0.164972
Si Si6 0.680351 0.249970 0.823067
Si Si7 0.448041 0.054120 0.677246
Si Si8 0.448258 0.438840 0.177019
O O1 0.149975 0.759041 0.729482
O O2 0.212108 0.621163 0.820459
O O3 0.257426 0.774462 0.775962
O O4 0.186756 0.758636 0.000000
O O5 0.086629 0.761656 0.500000
O O6 0.059182 0.659434 0.733456
O O7 0.051952 0.838401 0.745709
O O8 0.134445 0.398482 0.500000
O O9 0.203004 0.458944 0.703022
O O10 0.138098 0.324596 0.762056
O O11 0.102114 0.494247 0.735513
O O12 0.706640 0.501031 0.815615
O O13 0.659221 0.346243 0.753021
O O14 0.603226 0.505878 0.755989
O O15 0.633996 0.430482 0.000000
O O16 0.712501 0.020302 0.000000
O O17 0.678879 0.257542 0.000000
O O18 0.450062 0.055145 0.500000
O O19 0.500000 0.000000 0.742235
O O20 0.500000 0.500000 0.221954
O O21 0.445504 0.422862 0.000000
#
# Coordination Sequence:
#
# PCOD8227437 Si02
#       8
#     8   8   8   8   8   8   8   8
#     4   9  18  34  56  80 110 148 189 231 280 342
#     4  11  22  37  59  85 112 145 187 239 285 340
#     4  11  21  33  52  83 118 149 186 234 281 331
#     4   8  17  36  58  79 106 147 192 229 278 336
#     4   9  17  32  55  79 108 146 188 230 276 341
#     4   9  19  35  55  80 112 153 192 228 277 344
#     4   9  20  39  58  78 112 158 194 224 278 343
#     4  10  22  40  61  84 113 150 193 241 287 336
#
# _framework density 19.862469999999998
#
# number of rings (size 3 to 8) (size 9 to 14) (size 15 to 20)
#    0.000    2.500    1.250    2.250    1.750    1.750 
#    0.000    2.500    0.000    5.250    0.000    0.000 
#    0.000    0.000    0.000    0.000    0.000    0.000 
#
# Total GULP energy -793146.075966 kJ/mol
# GULP energy per Si atom -12392.907437 kJ/mol
# Density = 1.981726 g / cm^3
# Si number density = 19.862470 Si / 1000 Ang^3
#
#
#
# Elastic Constant Matrix: (Units=GPa)
#
#
# Indices 1 2 3 4 5 6 
#
# 1 109.7264 71.7862 29.2257 0.0000 0.0000 0.0000
# 2 71.7862 130.6348 31.3694 0.0000 0.0000 0.0000
# 3 29.2257 31.3694 37.3846 0.0000 0.0000 0.0000
# 4 0.0000 0.0000 0.0000 28.0498 0.0000 0.0000
# 5 0.0000 0.0000 0.0000 0.0000 18.6135 0.0000
# 6 0.0000 0.0000 0.0000 0.0000 0.0000 33.5306
#
#
#
# Elastic Compliance Matrix: (Units=1/GPa)
#
#
# Indices 1 2 3 4 5 6 
#
# 1 0.015275 -0.006921 -0.006134 0.000000 0.000000 0.000000
# 2 -0.006921 0.012722 -0.005265 0.000000 0.000000 0.000000
# 3 -0.006134 -0.005265 0.035962 0.000000 0.000000 0.000000
# 4 0.000000 0.000000 0.000000 0.035651 0.000000 0.000000
# 5 0.000000 0.000000 0.000000 0.000000 0.053725 0.000000
# 6 0.000000 0.000000 0.000000 0.000000 0.000000 0.029824
#
#
# Mechanical properties :
#
#
# Convention : Reuss Voigt Hill
#
# Bulk Modulus (GPa) = 36.60345 60.27872 48.44109
# Shear Modulus (GPa) = 21.84308 25.72975 23.78641
#
# Velocity S-wave (km/s) = 3.31979 3.60306 3.46433
# Velocity P-wave (km/s) = 5.75875 6.90821 6.35950
#
# Compressibility (1/GPa) = 0.02731983
#
# Stress axis : x y z
#
# Youngs Moduli (GPa) = 65.46469 78.60135 27.80710
#
# Poissons Ratio (x) = 0.54401 0.17057
# Poissons Ratio (y) = 0.45309 0.14640
# Poissons Ratio (z) = 0.40157 0.41382
#
# Static dielectric constant tensor:
#      x y z
#    x 3.739370 0.000000 0.000000 
#    y 0.000000 3.844980 0.000000 
#    z 0.000000 0.000000 3.220800 
# 
# 
# High freq. dielectric constant tensor:
#      x y z
#    x 1.768700 0.000000 0.000000 
#    y 0.000000 1.789590 0.000000 
#    z 0.000000 0.000000 1.733070 
# 
# From -- ./inp_files/9628.got.cif
#   From: 2010.03.12/outbox.cif.g09.slc.cpg/sg55_5_cif.got.tgz:9628.got - 2010.04.16 15:19:21.
