data_PCOD8227340
_publ_section_title
;
Structure prediction by ZEFSAII (Michael W. Deem and Ramdas Pophale) SiO2 
 PCOD8227340
Probable space group: P B A M
;
_chemical_formula_sum "Si O2"
_cell_formula_units_Z 64
_cell_length_a 18.061298
_cell_length_b 14.169139
_cell_length_c 13.607274
_cell_angle_alpha 90.000000
_cell_angle_beta 90.000000
_cell_angle_gamma 90.000000
_cell_volume 3482.278881
_symmetry_space_group_name_H-M "P B A M"
_symmetry_group_IT_number 55
_symmetry_cell_setting 'orthorhombic'
loop_
_space_group_symop_operation_xyz
x,y,z
-x,-y,z
1/2+x,1/2-y,-z
1/2-x,1/2+y,-z
-x,-y,-z
x,y,-z
1/2-x,1/2+y,z
1/2+x,1/2-y,z
loop_
_atom_site_type_symbol
_atom_site_label
_atom_site_fract_x
_atom_site_fract_y
_atom_site_fract_z
Si Si1 0.577475 0.219526 0.885684
Si Si2 0.939840 0.928312 0.115101
Si Si3 0.576772 0.548215 0.612442
Si Si4 0.182828 0.650440 0.226126
Si Si5 0.693279 0.503648 0.223389
Si Si6 0.594254 0.766305 0.612219
Si Si7 0.524338 0.897671 0.751861
Si Si8 0.248585 0.314879 0.886126
O O1 0.549827 0.321607 0.845141
O O2 0.534945 0.138022 0.829728
O O3 0.663760 0.207834 0.864543
O O4 0.559757 0.208961 0.000000
O O5 0.857576 0.963905 0.136439
O O6 0.951213 0.925937 0.000000
O O7 0.000000 0.000000 0.163244
O O8 0.500000 0.500000 0.645998
O O9 0.595361 0.521022 0.500000
O O10 0.644755 0.512906 0.678293
O O11 0.567779 0.659670 0.625007
O O12 0.242099 0.569577 0.247172
O O13 0.169512 0.711688 0.326147
O O14 0.105230 0.600794 0.195629
O O15 0.205997 0.720191 0.138419
O O16 0.726479 0.601922 0.186125
O O17 0.609952 0.792813 0.500000
O O18 0.527574 0.831015 0.655196
O O19 0.500000 0.000000 0.715609
O O20 0.262624 0.341805 0.000000
#
# Coordination Sequence:
#
# PCOD8227340 Si02
#       8
#     8   8   8   8   8   8   8   8
#     4  10  22  40  60  85 122 158 199 249 298 359
#     4  10  22  35  54  87 118 153 194 240 292 354
#     4  10  22  39  63  94 123 154 197 249 309 367
#     4  10  23  38  60  90 118 160 198 253 300 359
#     4  12  21  37  63  86 119 157 199 244 299 356
#     4   9  21  42  63  87 120 153 193 248 307 356
#     4  10  22  40  60  88 118 160 208 246 294 356
#     4  11  23  39  59  87 123 162 203 246 300 356
#
# _framework density 18.378768999999998
#
# number of rings (size 3 to 8) (size 9 to 14) (size 15 to 20)
#    0.750    1.000    2.500    1.500    5.250    2.000 
#    0.000    0.000    0.000    0.750    0.000    0.000 
#    0.000    0.000    0.000    0.000    0.000    0.000 
#
# Total GULP energy -793411.713377 kJ/mol
# GULP energy per Si atom -12397.058022 kJ/mol
# Density = 1.833694 g / cm^3
# Si number density = 18.378769 Si / 1000 Ang^3
#
#
#
# Elastic Constant Matrix: (Units=GPa)
#
#
# Indices 1 2 3 4 5 6 
#
# 1 96.7959 47.2519 48.8120 0.0000 0.0000 0.0000
# 2 47.2519 118.2981 43.8712 0.0000 0.0000 0.0000
# 3 48.8120 43.8712 69.9076 0.0000 0.0000 0.0000
# 4 0.0000 0.0000 0.0000 19.6435 0.0000 0.0000
# 5 0.0000 0.0000 0.0000 0.0000 27.2581 0.0000
# 6 0.0000 0.0000 0.0000 0.0000 0.0000 42.8824
#
#
#
# Elastic Compliance Matrix: (Units=1/GPa)
#
#
# Indices 1 2 3 4 5 6 
#
# 1 0.016759 -0.003069 -0.009776 0.000000 0.000000 0.000000
# 2 -0.003069 0.011579 -0.005124 0.000000 0.000000 0.000000
# 3 -0.009776 -0.005124 0.024346 0.000000 0.000000 0.000000
# 4 0.000000 0.000000 0.000000 0.050907 0.000000 0.000000
# 5 0.000000 0.000000 0.000000 0.000000 0.036686 0.000000
# 6 0.000000 0.000000 0.000000 0.000000 0.000000 0.023320
#
#
# Mechanical properties :
#
#
# Convention : Reuss Voigt Hill
#
# Bulk Modulus (GPa) = 59.71185 62.76353 61.23769
# Shear Modulus (GPa) = 24.37642 27.62792 26.00217
#
# Velocity S-wave (km/s) = 3.64584 3.88139 3.76546
# Velocity P-wave (km/s) = 7.09105 7.36960 7.23167
#
# Compressibility (1/GPa) = 0.01674709
#
# Stress axis : x y z
#
# Youngs Moduli (GPa) = 59.67066 86.36205 41.07438
#
# Poissons Ratio (x) = 0.26500 0.40154
# Poissons Ratio (y) = 0.18310 0.21047
# Poissons Ratio (z) = 0.58333 0.44253
#
# Static dielectric constant tensor:
#      x y z
#    x 3.353210 0.000000 0.000000 
#    y 0.000000 3.536260 0.000000 
#    z 0.000000 0.000000 3.253210 
# 
# 
# High freq. dielectric constant tensor:
#      x y z
#    x 1.710690 0.000000 0.000000 
#    y 0.000000 1.724610 0.000000 
#    z 0.000000 0.000000 1.703800 
# 
# From -- ./inp_files/19516.got.cif
#   From: 2010.03.12/outbox.cif.g09.slc.cpg/sg55_10_cif.got.tgz:19516.got - 2010.04.16 15:19:21.
