data_PCOD8227939
_publ_section_title
;
Structure prediction by ZEFSAII (Michael W. Deem and Ramdas Pophale) SiO2 
 PCOD8227939
Probable space group: P C C N
;
_chemical_formula_sum "Si O2"
_cell_formula_units_Z 52
_cell_length_a 12.437426
_cell_length_b 11.669636
_cell_length_c 19.027644
_cell_angle_alpha 90.000000
_cell_angle_beta 90.000000
_cell_angle_gamma 90.000000
_cell_volume 2761.676706
_symmetry_space_group_name_H-M "P C C N"
_symmetry_group_IT_number 56
_symmetry_cell_setting 'orthorhombic'
loop_
_space_group_symop_operation_xyz
x,y,z
1/2-x,1/2-y,z
1/2+x,-y,1/2-z
-x,1/2+y,1/2-z
-x,-y,-z
1/2+x,1/2+y,-z
1/2-x,y,1/2+z
x,1/2-y,1/2+z
loop_
_atom_site_type_symbol
_atom_site_label
_atom_site_fract_x
_atom_site_fract_y
_atom_site_fract_z
Si Si1 0.452211 0.565201 0.294209
Si Si2 0.948119 0.817210 0.171489
Si Si3 0.602678 0.373969 0.312324
Si Si4 0.630686 0.290527 0.155396
Si Si5 0.488638 0.513831 0.917983
Si Si6 0.250000 0.250000 0.747832
Si Si7 0.302595 0.015785 0.680610
O O1 0.538268 0.593146 0.234342
O O2 0.504835 0.458216 0.333803
O O3 0.439043 0.673798 0.345248
O O4 0.340867 0.531523 0.256328
O O5 0.849916 0.739109 0.197818
O O6 0.060124 0.747369 0.157308
O O7 0.925630 0.897238 0.104343
O O8 0.620009 0.356199 0.229229
O O9 0.711974 0.424708 0.346306
O O10 0.750000 0.250000 0.136773
O O11 0.584074 0.374381 0.096033
O O12 0.603299 0.524010 0.877437
O O13 0.500000 0.500000 0.000000
O O14 0.251059 0.140597 0.695654
#
# Coordination Sequence:
#
# PCOD8227939 Si02
#       7
#     8   8   8   8   8   4   8
#     4  10  18  31  54  88 120 138 179 244 308 355
#     4  10  21  34  58  85 122 150 191 244 300 365
#     4  11  19  34  58  97 117 142 190 258 319 356
#     4  11  20  34  59  88 117 151 195 246 305 363
#     4  11  25  44  55  77 119 169 207 241 292 367
#     4  12  18  32  64  96 120 146 188 252 330 354
#     4  11  20  34  60  90 121 157 192 249 315 366
#
# _framework density 18.829139999999999
#
# number of rings (size 3 to 8) (size 9 to 14) (size 15 to 20)
#    0.000    1.231    7.692    0.923    0.000    0.000 
#    2.769    0.769    0.000    0.923    0.000    0.000 
#    0.000    0.000    0.000    0.000    0.000    0.000 
#
# Total GULP energy -644248.575240 kJ/mol
# GULP energy per Si atom -12389.395678 kJ/mol
# Density = 1.878628 g / cm^3
# Si number density = 18.829140 Si / 1000 Ang^3
#
#
#
# Elastic Constant Matrix: (Units=GPa)
#
#
# Indices 1 2 3 4 5 6 
#
# 1 96.5496 39.2157 23.2721 0.0000 0.0000 0.0000
# 2 39.2157 101.2230 40.1509 0.0000 0.0000 0.0000
# 3 23.2721 40.1509 76.6420 0.0000 0.0000 0.0000
# 4 0.0000 0.0000 0.0000 12.5600 0.0000 0.0000
# 5 0.0000 0.0000 0.0000 0.0000 12.6344 0.0000
# 6 0.0000 0.0000 0.0000 0.0000 0.0000 45.1764
#
#
#
# Elastic Compliance Matrix: (Units=1/GPa)
#
#
# Indices 1 2 3 4 5 6 
#
# 1 0.012442 -0.004193 -0.001581 0.000000 0.000000 0.000000
# 2 -0.004193 0.013884 -0.006000 0.000000 0.000000 0.000000
# 3 -0.001581 -0.006000 0.016671 0.000000 0.000000 0.000000
# 4 0.000000 0.000000 0.000000 0.079618 0.000000 0.000000
# 5 0.000000 0.000000 0.000000 0.000000 0.079149 0.000000
# 6 0.000000 0.000000 0.000000 0.000000 0.000000 0.022135
#
#
# Mechanical properties :
#
#
# Convention : Reuss Voigt Hill
#
# Bulk Modulus (GPa) = 51.41993 53.29912 52.35953
# Shear Modulus (GPa) = 19.69052 25.52590 22.60821
#
# Velocity S-wave (km/s) = 3.23731 3.68592 3.46888
# Velocity P-wave (km/s) = 6.42974 6.81783 6.62663
#
# Compressibility (1/GPa) = 0.01944771
#
# Stress axis : x y z
#
# Youngs Moduli (GPa) = 80.37588 72.02760 59.98387
#
# Poissons Ratio (x) = 0.30200 0.09485
# Poissons Ratio (y) = 0.33700 0.35991
# Poissons Ratio (z) = 0.12710 0.43217
#
# Static dielectric constant tensor:
#      x y z
#    x 3.664490 0.000000 0.000000 
#    y 0.000000 3.800320 0.000000 
#    z 0.000000 0.000000 2.829770 
# 
# 
# High freq. dielectric constant tensor:
#      x y z
#    x 1.741330 0.000000 0.000000 
#    y 0.000000 1.761440 0.000000 
#    z 0.000000 0.000000 1.646360 
# 
# From -- ./inp_files/16284.got.cif
#   From: 2010.03.12/outbox.cif.g09.slc.cpg/sg56_9_cif.got.tgz:16284.got - 2010.04.16 15:33:40.
