data_PCOD8227604
_publ_section_title
;
Structure prediction by ZEFSAII (Michael W. Deem and Ramdas Pophale) SiO2 
 PCOD8227604
Probable space group: P B A M
;
_chemical_formula_sum "Si O2"
_cell_formula_units_Z 64
_cell_length_a 14.402020
_cell_length_b 10.150210
_cell_length_c 21.414661
_cell_angle_alpha 90.000000
_cell_angle_beta 90.000000
_cell_angle_gamma 90.000000
_cell_volume 3130.470684
_symmetry_space_group_name_H-M "P B A M"
_symmetry_group_IT_number 55
_symmetry_cell_setting 'orthorhombic'
loop_
_space_group_symop_operation_xyz
x,y,z
-x,-y,z
1/2+x,1/2-y,-z
1/2-x,1/2+y,-z
-x,-y,-z
x,y,-z
1/2-x,1/2+y,z
1/2+x,1/2-y,z
loop_
_atom_site_type_symbol
_atom_site_label
_atom_site_fract_x
_atom_site_fract_y
_atom_site_fract_z
Si Si1 0.054674 0.368301 0.377871
Si Si2 0.741208 0.609242 0.351702
Si Si3 0.734782 0.860593 0.274277
Si Si4 0.054759 0.872399 0.572241
Si Si5 0.789943 0.881097 0.132401
Si Si6 0.824103 0.152815 0.072866
Si Si7 0.505044 0.353338 0.856198
Si Si8 0.475061 0.138087 0.753240
O O1 0.164224 0.388533 0.392957
O O2 0.000000 0.500000 0.396122
O O3 0.012946 0.251414 0.419069
O O4 0.044365 0.334208 0.304131
O O5 0.756999 0.713625 0.296216
O O6 0.721459 0.466410 0.321792
O O7 0.652194 0.648564 0.392501
O O8 0.777055 0.882070 0.206241
O O9 0.625410 0.881580 0.276032
O O10 0.079397 0.890319 0.500000
O O11 0.000000 0.000000 0.597875
O O12 0.717233 0.788398 0.098194
O O13 0.892593 0.825151 0.117207
O O14 0.776285 0.029320 0.107349
O O15 0.934095 0.157617 0.086131
O O16 0.805977 0.139195 0.000000
O O17 0.500000 0.500000 0.826985
O O18 0.476163 0.255597 0.801701
O O19 0.500000 0.000000 0.787454
#
# Coordination Sequence:
#
# PCOD8227604 Si02
#       8
#     8   8   8   8   8   8   8   8
#     4  11  22  42  65  95 127 167 212 260 326 387
#     4  12  23  42  67  97 131 172 208 267 326 384
#     4  12  23  39  66  97 131 163 210 259 330 389
#     4  11  26  45  65  94 131 172 222 269 310 372
#     4  11  24  40  64  93 127 165 207 267 320 378
#     4  11  24  43  63  89 124 168 219 261 311 377
#     4  10  24  40  62  91 124 166 211 256 318 380
#     4  11  21  40  63  94 134 161 199 264 324 383
#
# _framework density 20.444210000000002
#
# number of rings (size 3 to 8) (size 9 to 14) (size 15 to 20)
#    0.000    0.875    5.000    2.625    3.500    4.000 
#    0.000    3.125    0.000    1.875    0.000    0.000 
#    0.000    0.000    0.000    0.000    0.000    0.000 
#
# Total GULP energy -793837.457067 kJ/mol
# GULP energy per Si atom -12403.710267 kJ/mol
# Density = 2.039768 g / cm^3
# Si number density = 20.444210 Si / 1000 Ang^3
#
#
#
# Elastic Constant Matrix: (Units=GPa)
#
#
# Indices 1 2 3 4 5 6 
#
# 1 120.5052 29.2984 26.0242 0.0000 0.0000 0.0000
# 2 29.2984 103.9297 26.0290 0.0000 0.0000 0.0000
# 3 26.0242 26.0290 68.2809 0.0000 0.0000 0.0000
# 4 0.0000 0.0000 0.0000 7.0135 0.0000 0.0000
# 5 0.0000 0.0000 0.0000 0.0000 16.5795 0.0000
# 6 0.0000 0.0000 0.0000 0.0000 0.0000 30.3292
#
#
#
# Elastic Compliance Matrix: (Units=1/GPa)
#
#
# Indices 1 2 3 4 5 6 
#
# 1 0.009382 -0.001934 -0.002838 0.000000 0.000000 0.000000
# 2 -0.001934 0.011036 -0.003470 0.000000 0.000000 0.000000
# 3 -0.002838 -0.003470 0.017050 0.000000 0.000000 0.000000
# 4 0.000000 0.000000 0.000000 0.142583 0.000000 0.000000
# 5 0.000000 0.000000 0.000000 0.000000 0.060316 0.000000
# 6 0.000000 0.000000 0.000000 0.000000 0.000000 0.032972
#
#
# Mechanical properties :
#
#
# Convention : Reuss Voigt Hill
#
# Bulk Modulus (GPa) = 47.65728 50.60210 49.12969
# Shear Modulus (GPa) = 16.84542 24.87536 20.86039
#
# Velocity S-wave (km/s) = 2.87360 3.49197 3.19777
# Velocity P-wave (km/s) = 5.86273 6.40808 6.14146
#
# Compressibility (1/GPa) = 0.02098315
#
# Stress axis : x y z
#
# Youngs Moduli (GPa) = 106.59206 90.61179 58.65108
#
# Poissons Ratio (x) = 0.17523 0.16648
# Poissons Ratio (y) = 0.20613 0.20352
# Poissons Ratio (z) = 0.30256 0.31442
#
# Static dielectric constant tensor:
#      x y z
#    x 3.957180 0.000000 0.000000 
#    y 0.000000 3.931100 0.000000 
#    z 0.000000 0.000000 3.411740 
# 
# 
# High freq. dielectric constant tensor:
#      x y z
#    x 1.814750 0.000000 0.000000 
#    y 0.000000 1.815770 0.000000 
#    z 0.000000 0.000000 1.774960 
# 
# From -- ./inp_files/23617.got.cif
#   From: 2010.03.12/outbox.cif.g09.slc.cpg/sg55_12_cif.got.tgz:23617.got - 2010.04.16 15:19:21.
