data_PCOD8227666
_publ_section_title
;
Structure prediction by ZEFSAII (Michael W. Deem and Ramdas Pophale) SiO2 
 PCOD8227666
Probable space group: P B A M
;
_chemical_formula_sum "Si O2"
_cell_formula_units_Z 56
_cell_length_a 19.315823
_cell_length_b 8.642021
_cell_length_c 14.867146
_cell_angle_alpha 90.000000
_cell_angle_beta 90.000000
_cell_angle_gamma 90.000000
_cell_volume 2481.739201
_symmetry_space_group_name_H-M "P B A M"
_symmetry_group_IT_number 55
_symmetry_cell_setting 'orthorhombic'
loop_
_space_group_symop_operation_xyz
x,y,z
-x,-y,z
1/2+x,1/2-y,-z
1/2-x,1/2+y,-z
-x,-y,-z
x,y,-z
1/2-x,1/2+y,z
1/2+x,1/2-y,z
loop_
_atom_site_type_symbol
_atom_site_label
_atom_site_fract_x
_atom_site_fract_y
_atom_site_fract_z
Si Si1 0.073360 0.625715 0.603701
Si Si2 0.690069 0.381244 0.314276
Si Si3 0.588587 0.145552 0.261185
Si Si4 0.158551 0.814152 0.901207
Si Si5 0.795691 0.196260 0.402946
Si Si6 0.967722 0.168512 0.237038
Si Si7 0.784261 0.479849 0.163482
O O1 0.044677 0.620789 0.500000
O O2 0.061996 0.461058 0.654991
O O3 0.155550 0.653432 0.602648
O O4 0.044581 0.773086 0.660094
O O5 0.614395 0.314977 0.294208
O O6 0.719170 0.265067 0.390071
O O7 0.682409 0.562693 0.333965
O O8 0.746852 0.367480 0.235153
O O9 0.522032 0.197950 0.200672
O O10 0.651456 0.072611 0.206335
O O11 0.100380 0.835024 0.824889
O O12 0.181324 0.635496 0.907949
O O13 0.227052 0.913577 0.882047
O O14 0.129462 0.861375 0.000000
O O15 0.799400 0.115767 0.500000
O O16 0.000000 0.000000 0.236692
#
# Coordination Sequence:
#
# PCOD8227666 Si02
#       7
#     8   8   8   8   8   8   8
#     4  11  24  44  68 100 142 190 245 297 352 422
#     4  12  20  38  63  96 136 189 234 293 357 417
#     4  12  24  41  72 101 140 192 244 292 365 426
#     4  12  27  48  76 110 144 183 235 295 364 437
#     4  11  21  34  56  95 139 181 238 302 355 413
#     4  12  27  48  72 104 148 196 237 293 362 430
#     4  12  22  44  74 105 137 182 236 297 355 430
#
# _framework density 22.564821999999999
#
# number of rings (size 3 to 8) (size 9 to 14) (size 15 to 20)
#    0.000    0.286    5.714    3.857    0.000    4.000 
#    0.000    2.143    0.000    0.000    0.000    0.000 
#    0.000    0.000    0.000    0.000    0.000    0.000 
#
# Total GULP energy -693821.201667 kJ/mol
# GULP energy per Si atom -12389.664315 kJ/mol
# Density = 2.251346 g / cm^3
# Si number density = 22.564822 Si / 1000 Ang^3
#
#
#
# Elastic Constant Matrix: (Units=GPa)
#
#
# Indices 1 2 3 4 5 6 
#
# 1 105.9275 44.2485 47.5784 0.0000 0.0000 0.0000
# 2 44.2485 125.2447 48.4517 0.0000 0.0000 0.0000
# 3 47.5784 48.4517 117.7450 0.0000 0.0000 0.0000
# 4 0.0000 0.0000 0.0000 16.8669 0.0000 0.0000
# 5 0.0000 0.0000 0.0000 0.0000 18.2118 0.0000
# 6 0.0000 0.0000 0.0000 0.0000 0.0000 48.3747
#
#
#
# Elastic Compliance Matrix: (Units=1/GPa)
#
#
# Indices 1 2 3 4 5 6 
#
# 1 0.012357 -0.002895 -0.003802 0.000000 0.000000 0.000000
# 2 -0.002895 0.010174 -0.003017 0.000000 0.000000 0.000000
# 3 -0.003802 -0.003017 0.011271 0.000000 0.000000 0.000000
# 4 0.000000 0.000000 0.000000 0.059288 0.000000 0.000000
# 5 0.000000 0.000000 0.000000 0.000000 0.054909 0.000000
# 6 0.000000 0.000000 0.000000 0.000000 0.000000 0.020672
#
#
# Mechanical properties :
#
#
# Convention : Reuss Voigt Hill
#
# Bulk Modulus (GPa) = 69.56762 69.94157 69.75460
# Shear Modulus (GPa) = 25.92140 30.59994 28.26067
#
# Velocity S-wave (km/s) = 3.39300 3.68651 3.54280
# Velocity P-wave (km/s) = 6.80052 7.01310 6.90763
#
# Compressibility (1/GPa) = 0.01437450
#
# Stress axis : x y z
#
# Youngs Moduli (GPa) = 80.92259 98.28737 88.72538
#
# Poissons Ratio (x) = 0.28454 0.33735
# Poissons Ratio (y) = 0.23427 0.26767
# Poissons Ratio (z) = 0.30768 0.29652
#
# Static dielectric constant tensor:
#      x y z
#    x 4.388000 0.000000 0.000000 
#    y 0.000000 4.108290 0.000000 
#    z 0.000000 0.000000 3.915540 
# 
# 
# High freq. dielectric constant tensor:
#      x y z
#    x 1.909930 0.000000 0.000000 
#    y 0.000000 1.905480 0.000000 
#    z 0.000000 0.000000 1.857490 
# 
# From -- ./inp_files/19735.got.cif
#   From: 2010.03.12/outbox.cif.g09.slc.cpg/sg55_10_cif.got.tgz:19735.got - 2010.04.16 15:19:21.
