data_PCOD8227597
_publ_section_title
;
Structure prediction by ZEFSAII (Michael W. Deem and Ramdas Pophale) SiO2 
 PCOD8227597
Probable space group: P B A M
;
_chemical_formula_sum "Si O2"
_cell_formula_units_Z 24
_cell_length_a 5.104522
_cell_length_b 12.210642
_cell_length_c 15.992708
_cell_angle_alpha 90.000000
_cell_angle_beta 90.000000
_cell_angle_gamma 90.000000
_cell_volume 996.817345
_symmetry_space_group_name_H-M "P B A M"
_symmetry_group_IT_number 55
_symmetry_cell_setting 'orthorhombic'
loop_
_space_group_symop_operation_xyz
x,y,z
-x,-y,z
1/2+x,1/2-y,-z
1/2-x,1/2+y,-z
-x,-y,-z
x,y,-z
1/2-x,1/2+y,z
1/2+x,1/2-y,z
loop_
_atom_site_type_symbol
_atom_site_label
_atom_site_fract_x
_atom_site_fract_y
_atom_site_fract_z
Si Si1 0.751509 0.423142 0.000000
Si Si2 0.648692 0.178944 0.404422
Si Si3 0.256923 0.180169 0.177144
Si Si4 0.000000 0.500000 0.714851
O O1 0.500000 0.500000 0.000000
O O2 0.758134 0.343420 0.078953
O O3 0.000000 0.500000 0.000000
O O4 0.671046 0.138433 0.500000
O O5 0.366913 0.231124 0.384733
O O6 0.682043 0.075342 0.344093
O O7 0.480361 0.267405 0.202358
O O8 0.300717 0.067668 0.226970
#
# Coordination Sequence:
#
# PCOD8227597 Si02
#       4
#     4   8   8   4
#     4  12  24  48  74  97 131 186 232 274 342 411
#     4  10  23  44  68  98 136 181 231 281 339 409
#     4  12  27  45  69 101 139 180 226 287 342 405
#     4  12  25  43  70 102 142 178 232 281 353 408
#
# _framework density 24.076626000000001
#
# number of rings (size 3 to 8) (size 9 to 14) (size 15 to 20)
#    0.000    0.667    1.667    5.500    0.000    4.000 
#    0.000    5.000    0.000    0.000    0.000    0.000 
#    0.000    0.000    0.000    0.000    0.000    0.000 
#
# Total GULP energy -297827.002780 kJ/mol
# GULP energy per Si atom -12409.458449 kJ/mol
# Density = 2.402183 g / cm^3
# Si number density = 24.076626 Si / 1000 Ang^3
#
#
#
# Elastic Constant Matrix: (Units=GPa)
#
#
# Indices 1 2 3 4 5 6 
#
# 1 108.2819 22.2025 21.0879 0.0000 0.0000 0.0000
# 2 22.2025 116.3054 76.7095 0.0000 0.0000 0.0000
# 3 21.0879 76.7095 149.9047 0.0000 0.0000 0.0000
# 4 0.0000 0.0000 0.0000 71.5826 0.0000 0.0000
# 5 0.0000 0.0000 0.0000 0.0000 22.7493 0.0000
# 6 0.0000 0.0000 0.0000 0.0000 0.0000 31.2058
#
#
#
# Elastic Compliance Matrix: (Units=1/GPa)
#
#
# Indices 1 2 3 4 5 6 
#
# 1 0.009650 -0.001429 -0.000626 0.000000 0.000000 0.000000
# 2 -0.001429 0.013190 -0.006549 0.000000 0.000000 0.000000
# 3 -0.000626 -0.006549 0.010110 0.000000 0.000000 0.000000
# 4 0.000000 0.000000 0.000000 0.013970 0.000000 0.000000
# 5 0.000000 0.000000 0.000000 0.000000 0.043957 0.000000
# 6 0.000000 0.000000 0.000000 0.000000 0.000000 0.032045
#
#
# Mechanical properties :
#
#
# Convention : Reuss Voigt Hill
#
# Bulk Modulus (GPa) = 63.52311 68.27688 65.89999
# Shear Modulus (GPa) = 34.39308 42.07368 38.23338
#
# Velocity S-wave (km/s) = 3.78363 4.18483 3.98928
# Velocity P-wave (km/s) = 6.74750 7.19515 6.97492
#
# Compressibility (1/GPa) = 0.01574230
#
# Stress axis : x y z
#
# Youngs Moduli (GPa) = 103.62532 75.81500 98.91160
#
# Poissons Ratio (x) = 0.10835 0.06194
# Poissons Ratio (y) = 0.14810 0.64773
# Poissons Ratio (z) = 0.06489 0.49648
#
# Static dielectric constant tensor:
#      x y z
#    x 4.225260 0.000000 0.000000 
#    y 0.000000 4.304670 0.000000 
#    z 0.000000 0.000000 4.817390 
# 
# 
# High freq. dielectric constant tensor:
#      x y z
#    x 1.953810 0.000000 0.000000 
#    y 0.000000 1.957810 0.000000 
#    z 0.000000 0.000000 1.988430 
# 
# From -- ./inp_files/20238.got.cif
#   From: 2010.03.12/outbox.cif.g09.slc.cpg/sg55_11_cif.got.tgz:20238.got - 2010.04.16 15:19:21.
