data_PCOD8227183
_publ_section_title
;
Structure prediction by ZEFSAII (Michael W. Deem and Ramdas Pophale) SiO2 
 PCOD8227183
Probable space group: P B A M
;
_chemical_formula_sum "Si O2"
_cell_formula_units_Z 64
_cell_length_a 15.213802
_cell_length_b 23.951877
_cell_length_c 8.872835
_cell_angle_alpha 90.000000
_cell_angle_beta 90.000000
_cell_angle_gamma 90.000000
_cell_volume 3233.253214
_symmetry_space_group_name_H-M "P B A M"
_symmetry_group_IT_number 55
_symmetry_cell_setting 'orthorhombic'
loop_
_space_group_symop_operation_xyz
x,y,z
-x,-y,z
1/2+x,1/2-y,-z
1/2-x,1/2+y,-z
-x,-y,-z
x,y,-z
1/2-x,1/2+y,z
1/2+x,1/2-y,z
loop_
_atom_site_type_symbol
_atom_site_label
_atom_site_fract_x
_atom_site_fract_y
_atom_site_fract_z
Si Si1 0.743917 0.948252 0.677588
Si Si2 0.902643 0.522431 0.829979
Si Si3 0.100032 0.259314 0.177352
Si Si4 0.097921 0.755390 0.178556
Si Si5 0.594732 0.525429 0.671913
Si Si6 0.835934 0.125712 0.823085
Si Si7 0.156384 0.372819 0.677268
Si Si8 0.749810 0.327609 0.822690
O O1 0.730239 0.946683 0.500000
O O2 0.751807 0.885421 0.736163
O O3 0.660220 0.978444 0.748654
O O4 0.832621 0.980460 0.723437
O O5 0.909946 0.581715 0.745023
O O6 0.000000 0.500000 0.829896
O O7 0.868148 0.531475 0.000000
O O8 0.142115 0.311850 0.257737
O O9 0.159928 0.205655 0.215812
O O10 0.000966 0.252776 0.240516
O O11 0.100932 0.270859 0.000000
O O12 0.131841 0.814720 0.238363
O O13 0.164719 0.707327 0.233888
O O14 0.095151 0.756826 0.000000
O O15 0.500000 0.500000 0.691725
O O16 0.611921 0.544342 0.500000
O O17 0.592994 0.578644 0.783220
O O18 0.751922 0.106327 0.727726
O O19 0.815070 0.127755 0.000000
O O20 0.146293 0.371754 0.500000
O O21 0.756949 0.338962 0.000000
#
# Coordination Sequence:
#
# PCOD8227183 Si02
#       8
#     8   8   8   8   8   8   8   8
#     4  11  24  41  61  89 128 165 202 252 308 367
#     4  11  25  44  67  92 119 160 208 254 307 366
#     4  10  21  40  64  88 120 161 205 253 299 354
#     4   9  20  38  61  90 118 152 200 252 300 348
#     4  10  23  42  61  87 126 168 204 251 313 367
#     4  11  21  39  66  92 119 158 209 258 303 360
#     4  12  24  40  63  92 125 159 200 254 312 368
#     4  10  21  39  61  86 121 161 204 250 299 356
#
# _framework density 19.794305000000001
#
# number of rings (size 3 to 8) (size 9 to 14) (size 15 to 20)
#    0.000    1.500    2.500    2.250    3.500    2.250 
#    0.000    1.250    0.000    0.000    0.000    0.000 
#    0.000    0.000    0.000    0.000    0.000    0.000 
#
# Total GULP energy -793750.465564 kJ/mol
# GULP energy per Si atom -12402.351024 kJ/mol
# Density = 1.974925 g / cm^3
# Si number density = 19.794305 Si / 1000 Ang^3
#
#
#
# Elastic Constant Matrix: (Units=GPa)
#
#
# Indices 1 2 3 4 5 6 
#
# 1 109.1725 35.7369 32.3046 0.0000 0.0000 0.0000
# 2 35.7369 135.7988 58.8159 0.0000 0.0000 0.0000
# 3 32.3046 58.8159 75.1289 0.0000 0.0000 0.0000
# 4 0.0000 0.0000 0.0000 -38.0657 0.0000 0.0000
# 5 0.0000 0.0000 0.0000 0.0000 18.9589 0.0000
# 6 0.0000 0.0000 0.0000 0.0000 0.0000 25.6874
#
#
#
# Elastic Compliance Matrix: (Units=1/GPa)
#
#
# Indices 1 2 3 4 5 6 
#
# 1 0.010631 -0.001237 -0.003602 0.000000 0.000000 0.000000
# 2 -0.001237 0.011286 -0.008303 0.000000 0.000000 0.000000
# 3 -0.003602 -0.008303 0.021360 0.000000 0.000000 0.000000
# 4 0.000000 0.000000 0.000000 -0.026270 0.000000 0.000000
# 5 0.000000 0.000000 0.000000 0.000000 0.052746 0.000000
# 6 0.000000 0.000000 0.000000 0.000000 0.000000 0.038930
#
#
# Mechanical properties :
#
#
# Convention : Reuss Voigt Hill
#
# Bulk Modulus (GPa) = 58.85697 63.75722 61.30709
# Shear Modulus (GPa) = 35.55422 14.19896 24.87659
#
# Velocity S-wave (km/s) = 4.24274 2.68120 3.54892
# Velocity P-wave (km/s) = 7.33485 6.47031 6.91610
#
# Compressibility (1/GPa) = 0.01699034
#
# Stress axis : x y z
#
# Youngs Moduli (GPa) = 94.06591 88.60838 46.81715
#
# Poissons Ratio (x) = 0.10964 0.16866
# Poissons Ratio (y) = 0.11639 0.38873
# Poissons Ratio (z) = 0.33887 0.73572
#
# Static dielectric constant tensor:
#      x y z
#    x 3.894740 0.000000 0.000000 
#    y 0.000000 3.690550 0.000000 
#    z 0.000000 0.000000 3.515300 
# 
# 
# High freq. dielectric constant tensor:
#      x y z
#    x 1.780940 0.000000 0.000000 
#    y 0.000000 1.786000 0.000000 
#    z 0.000000 0.000000 1.758670 
# 
# From -- ./inp_files/6650.got.cif
#   From: 2010.03.12/outbox.cif.g09.slc.cpg/sg55_4_cif.got.tgz:6650.got - 2010.04.16 15:19:21.
