data_PCOD8227253
_publ_section_title
;
Structure prediction by ZEFSAII (Michael W. Deem and Ramdas Pophale) SiO2 
 PCOD8227253
Probable space group: P B A M
;
_chemical_formula_sum "Si O2"
_cell_formula_units_Z 48
_cell_length_a 9.511507
_cell_length_b 30.703130
_cell_length_c 7.725180
_cell_angle_alpha 90.000000
_cell_angle_beta 90.000000
_cell_angle_gamma 90.000000
_cell_volume 2256.007768
_symmetry_space_group_name_H-M "P B A M"
_symmetry_group_IT_number 55
_symmetry_cell_setting 'orthorhombic'
loop_
_space_group_symop_operation_xyz
x,y,z
-x,-y,z
1/2+x,1/2-y,-z
1/2-x,1/2+y,-z
-x,-y,-z
x,y,-z
1/2-x,1/2+y,z
1/2+x,1/2-y,z
loop_
_atom_site_type_symbol
_atom_site_label
_atom_site_fract_x
_atom_site_fract_y
_atom_site_fract_z
Si Si1 0.342316 0.787830 0.304893
Si Si2 0.026777 0.636236 0.802513
Si Si3 0.340531 0.629815 0.802440
Si Si4 0.898938 0.935647 0.500000
Si Si5 0.528127 0.709301 0.292865
Si Si6 0.708071 0.527855 0.500000
Si Si7 0.411595 0.957196 0.198539
O O1 0.316742 0.773031 0.500000
O O2 0.416930 0.834888 0.304645
O O3 0.444822 0.751612 0.220640
O O4 0.187650 0.789073 0.217847
O O5 0.186542 0.648445 0.751277
O O6 0.006989 0.585066 0.765400
O O7 0.995249 0.647779 0.000000
O O8 0.377649 0.590922 0.675121
O O9 0.455312 0.667246 0.787370
O O10 0.336975 0.611955 0.000000
O O11 0.054915 0.952974 0.500000
O O12 0.790026 0.975506 0.500000
O O13 0.526606 0.705587 0.500000
O O14 0.780095 0.545352 0.674182
O O15 0.500000 0.000000 0.243601
O O16 0.357876 0.958281 0.000000
#
# Coordination Sequence:
#
# PCOD8227253 Si02
#       7
#     8   8   8   4   8   4   8
#     4  10  22  37  64  94 128 171 211 264 323 380
#     4  10  23  39  60  93 127 165 217 267 319 385
#     4  11  24  42  66  92 128 173 212 263 322 376
#     4  11  26  44  64  93 133 165 218 265 314 397
#     4  10  21  40  62  93 130 168 215 262 318 384
#     4  11  25  42  66  95 126 174 211 266 328 382
#     4  10  22  41  66  95 131 168 218 275 323 384
#
# _framework density 21.276520999999999
#
# number of rings (size 3 to 8) (size 9 to 14) (size 15 to 20)
#    0.000    1.667    0.833    2.250    4.667    5.333 
#    0.000    1.667    0.000    0.000    0.000    0.000 
#    0.000    0.000    0.000    0.000    0.000    0.000 
#
# Total GULP energy -595277.061714 kJ/mol
# GULP energy per Si atom -12401.605452 kJ/mol
# Density = 2.122809 g / cm^3
# Si number density = 21.276521 Si / 1000 Ang^3
#
#
#
# Elastic Constant Matrix: (Units=GPa)
#
#
# Indices 1 2 3 4 5 6 
#
# 1 160.4246 64.8816 37.7512 0.0000 0.0000 0.0000
# 2 64.8816 105.3236 29.6230 0.0000 0.0000 0.0000
# 3 37.7512 29.6230 83.7849 0.0000 0.0000 0.0000
# 4 0.0000 0.0000 0.0000 6.2858 0.0000 0.0000
# 5 0.0000 0.0000 0.0000 0.0000 40.8229 0.0000
# 6 0.0000 0.0000 0.0000 0.0000 0.0000 36.6902
#
#
#
# Elastic Compliance Matrix: (Units=1/GPa)
#
#
# Indices 1 2 3 4 5 6 
#
# 1 0.008664 -0.004708 -0.002240 0.000000 0.000000 0.000000
# 2 -0.004708 0.013101 -0.002511 0.000000 0.000000 0.000000
# 3 -0.002240 -0.002511 0.013832 0.000000 0.000000 0.000000
# 4 0.000000 0.000000 0.000000 0.159089 0.000000 0.000000
# 5 0.000000 0.000000 0.000000 0.000000 0.024496 0.000000
# 6 0.000000 0.000000 0.000000 0.000000 0.000000 0.027255
#
#
# Mechanical properties :
#
#
# Convention : Reuss Voigt Hill
#
# Bulk Modulus (GPa) = 59.94690 68.22719 64.08705
# Shear Modulus (GPa) = 18.45607 31.24492 24.85049
#
# Velocity S-wave (km/s) = 2.94843 3.83628 3.42128
# Velocity P-wave (km/s) = 6.31088 7.19439 6.76707
#
# Compressibility (1/GPa) = 0.01668143
#
# Stress axis : x y z
#
# Youngs Moduli (GPa) = 115.41518 76.33196 72.29555
#
# Poissons Ratio (x) = 0.35934 0.16191
# Poissons Ratio (y) = 0.54332 0.18152
# Poissons Ratio (z) = 0.25848 0.19165
#
# Static dielectric constant tensor:
#      x y z
#    x 3.981740 0.000000 0.000000 
#    y 0.000000 3.867120 0.000000 
#    z 0.000000 0.000000 3.792550 
# 
# 
# High freq. dielectric constant tensor:
#      x y z
#    x 1.843330 0.000000 0.000000 
#    y 0.000000 1.838350 0.000000 
#    z 0.000000 0.000000 1.830180 
# 
# From -- ./inp_files/2927.got.cif
#   From: 2010.03.12/outbox.cif.g09.slc.cpg/sg55_2_cif.got.tgz:2927.got - 2010.04.16 15:19:21.
