data_PCOD8227634
_publ_section_title
;
Structure prediction by ZEFSAII (Michael W. Deem and Ramdas Pophale) SiO2 
 PCOD8227634
Probable space group: P B A M
;
_chemical_formula_sum "Si O2"
_cell_formula_units_Z 60
_cell_length_a 9.116239
_cell_length_b 16.697056
_cell_length_c 19.259124
_cell_angle_alpha 90.000000
_cell_angle_beta 90.000000
_cell_angle_gamma 90.000000
_cell_volume 2931.515101
_symmetry_space_group_name_H-M "P B A M"
_symmetry_group_IT_number 55
_symmetry_cell_setting 'orthorhombic'
loop_
_space_group_symop_operation_xyz
x,y,z
-x,-y,z
1/2+x,1/2-y,-z
1/2-x,1/2+y,-z
-x,-y,-z
x,y,-z
1/2-x,1/2+y,z
1/2+x,1/2-y,z
loop_
_atom_site_type_symbol
_atom_site_label
_atom_site_fract_x
_atom_site_fract_y
_atom_site_fract_z
Si Si1 0.033386 0.586612 0.714732
Si Si2 0.485303 0.650733 0.421985
Si Si3 0.204753 0.028284 0.205863
Si Si4 0.500000 0.500000 0.322626
Si Si5 0.498484 0.673722 0.831490
Si Si6 0.129061 0.937890 0.074913
Si Si7 0.796559 0.284412 0.367273
Si Si8 0.802365 0.704104 0.765476
O O1 0.144805 0.574778 0.779283
O O2 0.095387 0.643437 0.654798
O O3 0.000000 0.500000 0.680885
O O4 0.885437 0.620987 0.749951
O O5 0.523718 0.623020 0.500000
O O6 0.483466 0.576845 0.370411
O O7 0.321494 0.687719 0.424019
O O8 0.608443 0.713086 0.397943
O O9 0.146632 0.985359 0.276062
O O10 0.076204 0.091228 0.190934
O O11 0.229054 0.967639 0.140218
O O12 0.565834 0.651874 0.907438
O O13 0.632072 0.692067 0.780114
O O14 0.386130 0.748331 0.828242
O O15 0.213293 0.932181 0.000000
O O16 0.000000 0.000000 0.064536
O O17 0.693964 0.259784 0.302261
#
# Coordination Sequence:
#
# PCOD8227634 Si02
#       8
#     8   8   8   4   8   8   8   8
#     4  12  25  37  61 103 129 159 215 280 326 367
#     4  12  27  44  65  92 129 170 209 260 327 397
#     4  11  20  37  63  94 124 163 215 262 318 375
#     4  12  21  38  69  94 120 156 218 262 307 378
#     4  11  19  35  59  89 126 165 214 257 316 381
#     4   9  19  34  59  91 128 169 209 258 317 383
#     4  12  23  42  66  89 128 168 210 260 328 386
#     4  12  21  37  63  96 124 163 212 274 316 372
#
# _framework density 20.467231999999999
#
# number of rings (size 3 to 8) (size 9 to 14) (size 15 to 20)
#    0.000    0.667    7.333    2.200    1.867    0.000 
#    0.000    0.667    0.000    6.800    0.000    0.000 
#    0.000    0.000    0.000    0.000    0.000    0.000 
#
# Total GULP energy -743649.647636 kJ/mol
# GULP energy per Si atom -12394.160794 kJ/mol
# Density = 2.042065 g / cm^3
# Si number density = 20.467232 Si / 1000 Ang^3
#
#
#
# Elastic Constant Matrix: (Units=GPa)
#
#
# Indices 1 2 3 4 5 6 
#
# 1 88.3811 22.4036 21.1090 0.0000 0.0000 0.0000
# 2 22.4036 93.2232 34.7925 0.0000 0.0000 0.0000
# 3 21.1090 34.7925 119.1636 0.0000 0.0000 0.0000
# 4 0.0000 0.0000 0.0000 5.9775 0.0000 0.0000
# 5 0.0000 0.0000 0.0000 0.0000 10.5310 0.0000
# 6 0.0000 0.0000 0.0000 0.0000 0.0000 37.7793
#
#
#
# Elastic Compliance Matrix: (Units=1/GPa)
#
#
# Indices 1 2 3 4 5 6 
#
# 1 0.012275 -0.002400 -0.001474 0.000000 0.000000 0.000000
# 2 -0.002400 0.012508 -0.003227 0.000000 0.000000 0.000000
# 3 -0.001474 -0.003227 0.009595 0.000000 0.000000 0.000000
# 4 0.000000 0.000000 0.000000 0.167294 0.000000 0.000000
# 5 0.000000 0.000000 0.000000 0.000000 0.094958 0.000000
# 6 0.000000 0.000000 0.000000 0.000000 0.000000 0.026469
#
#
# Mechanical properties :
#
#
# Convention : Reuss Voigt Hill
#
# Bulk Modulus (GPa) = 49.56135 50.81978 50.19057
# Shear Modulus (GPa) = 14.53377 25.68841 20.11109
#
# Velocity S-wave (km/s) = 2.66766 3.54658 3.13805
# Velocity P-wave (km/s) = 5.81000 6.45405 6.14047
#
# Compressibility (1/GPa) = 0.02017701
#
# Stress axis : x y z
#
# Youngs Moduli (GPa) = 81.46652 79.94865 104.22053
#
# Poissons Ratio (x) = 0.19187 0.15359
# Poissons Ratio (y) = 0.19551 0.33631
# Poissons Ratio (z) = 0.12006 0.25798
#
# Static dielectric constant tensor:
#      x y z
#    x 3.760300 0.000000 0.000000 
#    y 0.000000 3.865810 0.000000 
#    z 0.000000 0.000000 3.879010 
# 
# 
# High freq. dielectric constant tensor:
#      x y z
#    x 1.800200 0.000000 0.000000 
#    y 0.000000 1.809720 0.000000 
#    z 0.000000 0.000000 1.772820 
# 
# From -- ./inp_files/21012.got.cif
#   From: 2010.03.12/outbox.cif.g09.slc.cpg/sg55_11_cif.got.tgz:21012.got - 2010.04.16 15:19:21.
