data_PCOD8227957
_publ_section_title
;
Structure prediction by ZEFSAII (Michael W. Deem and Ramdas Pophale) SiO2 
 PCOD8227957
Probable space group: P C C N
;
_chemical_formula_sum "Si O2"
_cell_formula_units_Z 48
_cell_length_a 12.900471
_cell_length_b 8.756526
_cell_length_c 22.110748
_cell_angle_alpha 90.000000
_cell_angle_beta 90.000000
_cell_angle_gamma 90.000000
_cell_volume 2497.703275
_symmetry_space_group_name_H-M "P C C N"
_symmetry_group_IT_number 56
_symmetry_cell_setting 'orthorhombic'
loop_
_space_group_symop_operation_xyz
x,y,z
1/2-x,1/2-y,z
1/2+x,-y,1/2-z
-x,1/2+y,1/2-z
-x,-y,-z
1/2+x,1/2+y,-z
1/2-x,y,1/2+z
x,1/2-y,1/2+z
loop_
_atom_site_type_symbol
_atom_site_label
_atom_site_fract_x
_atom_site_fract_y
_atom_site_fract_z
Si Si1 0.250000 0.750000 0.422907
Si Si2 0.659902 0.998849 0.157581
Si Si3 0.981674 0.060575 0.826841
Si Si4 0.750000 0.750000 0.573958
Si Si5 0.539693 0.090241 0.792087
Si Si6 0.405477 0.495529 0.953842
Si Si7 0.762911 0.073107 0.784083
O O1 0.181877 0.852280 0.379922
O O2 0.166978 0.647423 0.460955
O O3 0.721752 0.984168 0.220817
O O4 0.680863 0.852568 0.117305
O O5 0.538499 0.015169 0.171018
O O6 0.856295 0.034128 0.830778
O O7 0.992102 0.234565 0.804234
O O8 0.043432 0.025553 0.887963
O O9 0.031146 0.942838 0.779371
O O10 0.828907 0.648498 0.533314
O O11 0.652847 0.033633 0.814950
O O12 0.500000 0.500000 0.000000
O O13 0.750000 0.250000 0.766525
#
# Coordination Sequence:
#
# PCOD8227957 Si02
#       7
#     4   8   8   4   8   8   8
#     4  10  22  40  66  84 114 166 210 250 308 366
#     4  10  18  33  58  86 118 158 203 248 294 369
#     4  10  21  36  60  88 126 161 197 252 303 367
#     4  10  20  38  64  88 110 158 214 252 292 364
#     4  10  19  33  57  93 125 158 196 245 310 369
#     4  11  24  45  64  90 121 165 214 262 303 369
#     4   9  18  31  51  87 125 156 185 239 307 361
#
# _framework density 19.217655000000001
#
# number of rings (size 3 to 8) (size 9 to 14) (size 15 to 20)
#    0.000    2.000    2.500    2.000    4.667    0.000 
#    4.500    5.000    0.000    0.000    0.000    0.000 
#    0.000    0.000    0.000    0.000    0.000    0.000 
#
# Total GULP energy -594651.928119 kJ/mol
# GULP energy per Si atom -12388.581836 kJ/mol
# Density = 1.917391 g / cm^3
# Si number density = 19.217655 Si / 1000 Ang^3
#
#
#
# Elastic Constant Matrix: (Units=GPa)
#
#
# Indices 1 2 3 4 5 6 
#
# 1 164.0891 52.1291 45.7506 0.0000 0.0000 0.0000
# 2 52.1291 86.3076 34.7338 0.0000 0.0000 0.0000
# 3 45.7506 34.7338 61.3068 0.0000 0.0000 0.0000
# 4 0.0000 0.0000 0.0000 11.5187 0.0000 0.0000
# 5 0.0000 0.0000 0.0000 0.0000 33.3420 0.0000
# 6 0.0000 0.0000 0.0000 0.0000 0.0000 28.1754
#
#
#
# Elastic Compliance Matrix: (Units=1/GPa)
#
#
# Indices 1 2 3 4 5 6 
#
# 1 0.008359 -0.003288 -0.004375 0.000000 0.000000 0.000000
# 2 -0.003288 0.016302 -0.006782 0.000000 0.000000 0.000000
# 3 -0.004375 -0.006782 0.023419 0.000000 0.000000 0.000000
# 4 0.000000 0.000000 0.000000 0.086815 0.000000 0.000000
# 5 0.000000 0.000000 0.000000 0.000000 0.029992 0.000000
# 6 0.000000 0.000000 0.000000 0.000000 0.000000 0.035492
#
#
# Mechanical properties :
#
#
# Convention : Reuss Voigt Hill
#
# Bulk Modulus (GPa) = 52.11316 64.10339 58.10828
# Shear Modulus (GPa) = 21.21660 26.54658 23.88159
#
# Velocity S-wave (km/s) = 3.32628 3.72070 3.52901
# Velocity P-wave (km/s) = 6.47521 7.20327 6.84892
#
# Compressibility (1/GPa) = 0.01918901
#
# Stress axis : x y z
#
# Youngs Moduli (GPa) = 119.63818 61.34294 42.70087
#
# Poissons Ratio (x) = 0.20169 0.18681
# Poissons Ratio (y) = 0.39335 0.28961
# Poissons Ratio (z) = 0.52340 0.41605
#
# Static dielectric constant tensor:
#      x y z
#    x 4.226600 0.000000 0.000000 
#    y 0.000000 3.446770 0.000000 
#    z 0.000000 0.000000 3.113220 
# 
# 
# High freq. dielectric constant tensor:
#      x y z
#    x 1.776080 0.000000 0.000000 
#    y 0.000000 1.749570 0.000000 
#    z 0.000000 0.000000 1.696580 
# 
# From -- ./inp_files/20941.got.cif
#   From: 2010.03.12/outbox.cif.g09.slc.cpg/sg56_11_cif.got.tgz:20941.got - 2010.04.16 15:33:40.
