data_PCOD8227036
_publ_section_title
;
Structure prediction by ZEFSAII (Michael W. Deem and Ramdas Pophale) SiO2 
 PCOD8227036
Probable space group: P B A M
;
_chemical_formula_sum "Si O2"
_cell_formula_units_Z 64
_cell_length_a 29.385614
_cell_length_b 11.896473
_cell_length_c 9.357483
_cell_angle_alpha 90.000000
_cell_angle_beta 90.000000
_cell_angle_gamma 90.000000
_cell_volume 3271.237225
_symmetry_space_group_name_H-M "P B A M"
_symmetry_group_IT_number 55
_symmetry_cell_setting 'orthorhombic'
loop_
_space_group_symop_operation_xyz
x,y,z
-x,-y,z
1/2+x,1/2-y,-z
1/2-x,1/2+y,-z
-x,-y,-z
x,y,-z
1/2-x,1/2+y,z
1/2+x,1/2-y,z
loop_
_atom_site_type_symbol
_atom_site_label
_atom_site_fract_x
_atom_site_fract_y
_atom_site_fract_z
Si Si1 0.720567 0.450845 0.837452
Si Si2 0.529258 0.775395 0.667886
Si Si3 0.183461 0.457908 0.834082
Si Si4 0.666724 0.262870 0.671299
Si Si5 0.427451 0.458089 0.336031
Si Si6 0.849790 0.127785 0.162396
Si Si7 0.435090 0.705588 0.333192
Si Si8 0.888734 0.360578 0.166924
O O1 0.774099 0.459119 0.804973
O O2 0.696804 0.365411 0.729180
O O3 0.701080 0.578764 0.819243
O O4 0.712177 0.408615 0.000000
O O5 0.534161 0.800435 0.500000
O O6 0.541343 0.646690 0.706297
O O7 0.476384 0.787176 0.720653
O O8 0.562856 0.859597 0.750914
O O9 0.187848 0.351728 0.731047
O O10 0.137699 0.525761 0.793959
O O11 0.183096 0.420061 0.000000
O O12 0.668836 0.264825 0.500000
O O13 0.614668 0.269102 0.732229
O O14 0.413099 0.451308 0.500000
O O15 0.380875 0.457881 0.249261
O O16 0.451239 0.577220 0.302377
O O17 0.856540 0.256003 0.216642
O O18 0.866107 0.122559 0.000000
O O19 0.430603 0.725354 0.500000
O O20 0.899442 0.354574 0.000000
#
# Coordination Sequence:
#
# PCOD8227036 Si02
#       8
#     8   8   8   8   8   8   8   8
#     4  10  21  37  61  85 109 145 187 227 276 344
#     4   9  17  30  53  80 107 147 192 228 273 340
#     4  10  23  41  62  81 108 151 196 235 277 337
#     4  11  23  39  59  85 119 148 182 236 286 333
#     4   9  15  27  48  75 109 144 177 218 270 327
#     4   9  17  30  51  80 109 138 175 221 272 325
#     4   9  17  31  51  78 112 149 186 226 278 334
#     4   9  19  36  55  79 111 144 184 238 284 322
#
# _framework density 19.564463
#
# number of rings (size 3 to 8) (size 9 to 14) (size 15 to 20)
#    0.000    2.500    1.250    0.750    1.750    2.500 
#    0.000    2.500    0.000    6.750    0.000    0.000 
#    0.000    0.000    0.000    0.000    0.000    0.000 
#
# Total GULP energy -793104.285217 kJ/mol
# GULP energy per Si atom -12392.254457 kJ/mol
# Density = 1.951993 g / cm^3
# Si number density = 19.564463 Si / 1000 Ang^3
#
#
#
# Elastic Constant Matrix: (Units=GPa)
#
#
# Indices 1 2 3 4 5 6 
#
# 1 94.7210 24.0138 33.6626 0.0000 0.0000 0.0000
# 2 24.0138 63.1703 28.4984 0.0000 0.0000 0.0000
# 3 33.6626 28.4984 52.4132 0.0000 0.0000 0.0000
# 4 0.0000 0.0000 0.0000 23.1123 0.0000 0.0000
# 5 0.0000 0.0000 0.0000 0.0000 27.5370 0.0000
# 6 0.0000 0.0000 0.0000 0.0000 0.0000 19.6613
#
#
#
# Elastic Compliance Matrix: (Units=1/GPa)
#
#
# Indices 1 2 3 4 5 6 
#
# 1 0.013809 -0.001654 -0.007969 0.000000 0.000000 0.000000
# 2 -0.001654 0.021173 -0.010450 0.000000 0.000000 0.000000
# 3 -0.007969 -0.010450 0.029880 0.000000 0.000000 0.000000
# 4 0.000000 0.000000 0.000000 0.043267 0.000000 0.000000
# 5 0.000000 0.000000 0.000000 0.000000 0.036315 0.000000
# 6 0.000000 0.000000 0.000000 0.000000 0.000000 0.050861
#
#
# Mechanical properties :
#
#
# Convention : Reuss Voigt Hill
#
# Bulk Modulus (GPa) = 40.46207 42.51711 41.48959
# Shear Modulus (GPa) = 20.51781 22.33743 21.42762
#
# Velocity S-wave (km/s) = 3.24192 3.38262 3.31302
# Velocity P-wave (km/s) = 5.89404 6.08565 5.99061
#
# Compressibility (1/GPa) = 0.02471451
#
# Stress axis : x y z
#
# Youngs Moduli (GPa) = 72.41702 47.22890 33.46764
#
# Poissons Ratio (x) = 0.07812 0.26672
# Poissons Ratio (y) = 0.11978 0.34974
# Poissons Ratio (z) = 0.57712 0.49355
#
# Static dielectric constant tensor:
#      x y z
#    x 3.995760 0.000000 0.000000 
#    y 0.000000 3.404860 0.000000 
#    z 0.000000 0.000000 3.378580 
# 
# 
# High freq. dielectric constant tensor:
#      x y z
#    x 1.767400 0.000000 0.000000 
#    y 0.000000 1.747270 0.000000 
#    z 0.000000 0.000000 1.738260 
# 
# From -- ./inp_files/10829.got.cif
#   From: 2010.03.12/outbox.cif.g09.slc.cpg/sg55_6_cif.got.tgz:10829.got - 2010.04.16 15:19:21.
