data_PCOD8227933
_publ_section_title
;
Structure prediction by ZEFSAII (Michael W. Deem and Ramdas Pophale) SiO2 
 PCOD8227933
Probable space group: P C C N
;
_chemical_formula_sum "Si O2"
_cell_formula_units_Z 64
_cell_length_a 8.116951
_cell_length_b 11.739769
_cell_length_c 29.582299
_cell_angle_alpha 90.000000
_cell_angle_beta 90.000000
_cell_angle_gamma 90.000000
_cell_volume 2818.930692
_symmetry_space_group_name_H-M "P C C N"
_symmetry_group_IT_number 56
_symmetry_cell_setting 'orthorhombic'
loop_
_space_group_symop_operation_xyz
x,y,z
1/2-x,1/2-y,z
1/2+x,-y,1/2-z
-x,1/2+y,1/2-z
-x,-y,-z
1/2+x,1/2+y,-z
1/2-x,y,1/2+z
x,1/2-y,1/2+z
loop_
_atom_site_type_symbol
_atom_site_label
_atom_site_fract_x
_atom_site_fract_y
_atom_site_fract_z
Si Si1 0.057064 0.032781 0.417808
Si Si2 0.364831 0.650771 0.179652
Si Si3 0.559309 0.274431 0.569739
Si Si4 0.054375 0.754709 0.528217
Si Si5 0.429688 0.299166 0.258095
Si Si6 0.559656 0.484451 0.321216
Si Si7 0.631017 0.643173 0.105197
Si Si8 0.053398 0.741159 0.831639
O O1 0.252518 0.036067 0.405607
O O2 0.007452 0.120541 0.456899
O O3 0.960484 0.064106 0.371924
O O4 0.018227 0.907541 0.434509
O O5 0.250000 0.750000 0.157225
O O6 0.440194 0.703347 0.225438
O O7 0.251807 0.540393 0.191487
O O8 0.513081 0.614763 0.146844
O O9 0.750000 0.250000 0.571276
O O10 0.487974 0.224131 0.522698
O O11 0.485829 0.227771 0.617597
O O12 0.250000 0.750000 0.529708
O O13 0.979390 0.660729 0.560922
O O14 0.250000 0.250000 0.264229
O O15 0.442879 0.414689 0.286884
O O16 0.472622 0.325061 0.205329
O O17 0.510115 0.615387 0.318117
O O18 0.750000 0.750000 0.116326
O O19 0.250000 0.750000 0.830435
#
# Coordination Sequence:
#
# PCOD8227933 Si02
#       8
#     8   8   8   8   8   8   8   8
#     4  10  19  34  57  86 114 146 193 241 291 348
#     4  10  18  33  56  86 120 150 187 238 295 354
#     4   9  20  38  57  77 110 158 197 231 285 351
#     4  10  18  32  56  84 115 151 189 235 289 350
#     4  11  22  36  57  88 120 154 194 244 298 358
#     4  10  21  37  61  89 115 157 197 242 302 350
#     4  10  18  30  53  89 121 146 182 244 299 340
#     4  10  22  42  62  83 115 156 202 249 296 361
#
# _framework density 22.703645000000002
#
# number of rings (size 3 to 8) (size 9 to 14) (size 15 to 20)
#    0.000    2.000    0.000    6.750    0.000    2.000 
#    0.000    9.375    0.000    9.000    0.000    0.000 
#    0.000    0.000    0.000    0.000    0.000    0.000 
#
# Total GULP energy -793180.621595 kJ/mol
# GULP energy per Si atom -12393.447212 kJ/mol
# Density = 2.265197 g / cm^3
# Si number density = 22.703645 Si / 1000 Ang^3
#
#
#
# Elastic Constant Matrix: (Units=GPa)
#
#
# Indices 1 2 3 4 5 6 
#
# 1 97.1746 6.5523 11.9846 0.0000 0.0000 0.0000
# 2 6.5523 22.5023 10.3424 0.0000 0.0000 0.0000
# 3 11.9846 10.3424 133.6475 0.0000 0.0000 0.0000
# 4 0.0000 0.0000 0.0000 20.3086 0.0000 0.0000
# 5 0.0000 0.0000 0.0000 0.0000 30.2472 0.0000
# 6 0.0000 0.0000 0.0000 0.0000 0.0000 30.1103
#
#
#
# Elastic Compliance Matrix: (Units=1/GPa)
#
#
# Indices 1 2 3 4 5 6 
#
# 1 0.010566 -0.002739 -0.000736 0.000000 0.000000 0.000000
# 2 -0.002739 0.046789 -0.003375 0.000000 0.000000 0.000000
# 3 -0.000736 -0.003375 0.007810 0.000000 0.000000 0.000000
# 4 0.000000 0.000000 0.000000 0.049240 0.000000 0.000000
# 5 0.000000 0.000000 0.000000 0.000000 0.033061 0.000000
# 6 0.000000 0.000000 0.000000 0.000000 0.000000 0.033211
#
#
# Mechanical properties :
#
#
# Convention : Reuss Voigt Hill
#
# Bulk Modulus (GPa) = 19.43046 34.56477 26.99762
# Shear Modulus (GPa) = 23.63725 31.09624 27.36675
#
# Velocity S-wave (km/s) = 3.23014 3.70490 3.47564
# Velocity P-wave (km/s) = 4.74222 5.79302 5.29376
#
# Compressibility (1/GPa) = 0.05146558
#
# Stress axis : x y z
#
# Youngs Moduli (GPa) = 94.64198 21.37269 128.04874
#
# Poissons Ratio (x) = 0.05853 0.09419
# Poissons Ratio (y) = 0.25919 0.43219
# Poissons Ratio (z) = 0.06962 0.07214
#
# Static dielectric constant tensor:
#      x y z
#    x 4.049370 0.000000 0.000000 
#    y 0.000000 6.036100 0.000000 
#    z 0.000000 0.000000 4.636150 
# 
# 
# High freq. dielectric constant tensor:
#      x y z
#    x 1.892010 0.000000 0.000000 
#    y 0.000000 1.864920 0.000000 
#    z 0.000000 0.000000 1.912580 
# 
# From -- ./inp_files/23411.got.cif
#   From: 2010.03.12/outbox.cif.g09.slc.cpg/sg56_12_cif.got.tgz:23411.got - 2010.04.16 15:33:40.
