data_PCOD8227628
_publ_section_title
;
Structure prediction by ZEFSAII (Michael W. Deem and Ramdas Pophale) SiO2 
 PCOD8227628
Probable space group: P B A M
;
_chemical_formula_sum "Si O2"
_cell_formula_units_Z 64
_cell_length_a 17.349818
_cell_length_b 15.118955
_cell_length_c 14.179699
_cell_angle_alpha 90.000000
_cell_angle_beta 90.000000
_cell_angle_gamma 90.000000
_cell_volume 3719.492692
_symmetry_space_group_name_H-M "P B A M"
_symmetry_group_IT_number 55
_symmetry_cell_setting 'orthorhombic'
loop_
_space_group_symop_operation_xyz
x,y,z
-x,-y,z
1/2+x,1/2-y,-z
1/2-x,1/2+y,-z
-x,-y,-z
x,y,-z
1/2-x,1/2+y,z
1/2+x,1/2-y,z
loop_
_atom_site_type_symbol
_atom_site_label
_atom_site_fract_x
_atom_site_fract_y
_atom_site_fract_z
Si Si1 0.660747 0.327922 0.754750
Si Si2 0.947017 0.745179 0.607875
Si Si3 0.336767 0.204130 0.746561
Si Si4 0.510447 0.896444 0.255469
Si Si5 0.394473 0.340333 0.607436
Si Si6 0.087998 0.983515 0.246290
Si Si7 0.060091 0.275343 0.107889
Si Si8 0.405808 0.331032 0.892789
O O1 0.627302 0.286688 0.658444
O O2 0.752169 0.335384 0.749932
O O3 0.633437 0.427131 0.769503
O O4 0.634998 0.266483 0.842443
O O5 0.925849 0.725089 0.500000
O O6 0.972085 0.653419 0.655952
O O7 0.015252 0.816741 0.617066
O O8 0.398464 0.124457 0.749360
O O9 0.345491 0.259776 0.650323
O O10 0.348825 0.266847 0.836719
O O11 0.467578 0.864773 0.159897
O O12 0.500000 0.000000 0.269009
O O13 0.369023 0.354928 0.500000
O O14 0.376886 0.429507 0.665204
O O15 0.097011 0.928894 0.149694
O O16 0.000000 0.000000 0.270491
O O17 0.993149 0.202646 0.117005
O O18 0.079630 0.298955 0.000000
O O19 0.377548 0.334304 0.000000
#
# Coordination Sequence:
#
# PCOD8227628 Si02
#       8
#     8   8   8   8   8   8   8   8
#     4  11  20  33  51  78 113 137 167 219 274 316
#     4   9  18  33  55  77 100 138 177 210 257 319
#     4   9  20  36  53  71 103 143 174 216 270 310
#     4   9  18  36  56  77 100 136 185 226 257 301
#     4   9  18  35  55  73 101 141 178 208 249 314
#     4  11  18  31  52  85 110 133 171 210 262 322
#     4   9  18  33  55  77 100 138 177 210 257 319
#     4   9  18  35  55  73 101 141 178 208 249 314
#
# _framework density 17.206647
#
# number of rings (size 3 to 8) (size 9 to 14) (size 15 to 20)
#    0.000    2.500    2.500    1.500    0.000    3.000 
#    9.000    0.000    0.000    0.000    0.000    0.000 
#    0.000    0.000    0.000    0.000    0.000    0.000 
#
# Total GULP energy -793619.180712 kJ/mol
# GULP energy per Si atom -12400.299699 kJ/mol
# Density = 1.716748 g / cm^3
# Si number density = 17.206647 Si / 1000 Ang^3
#
#
#
# Elastic Constant Matrix: (Units=GPa)
#
#
# Indices 1 2 3 4 5 6 
#
# 1 81.0274 22.4113 6.7166 0.0000 0.0000 0.0000
# 2 22.4113 91.1372 17.7984 0.0000 0.0000 0.0000
# 3 6.7166 17.7984 117.9053 0.0000 0.0000 0.0000
# 4 0.0000 0.0000 0.0000 13.6204 0.0000 0.0000
# 5 0.0000 0.0000 0.0000 0.0000 15.0016 0.0000
# 6 0.0000 0.0000 0.0000 0.0000 0.0000 16.6554
#
#
#
# Elastic Compliance Matrix: (Units=1/GPa)
#
#
# Indices 1 2 3 4 5 6 
#
# 1 0.013251 -0.003206 -0.000271 0.000000 0.000000 0.000000
# 2 -0.003206 0.012081 -0.001641 0.000000 0.000000 0.000000
# 3 -0.000271 -0.001641 0.008745 0.000000 0.000000 0.000000
# 4 0.000000 0.000000 0.000000 0.073419 0.000000 0.000000
# 5 0.000000 0.000000 0.000000 0.000000 0.066660 0.000000
# 6 0.000000 0.000000 0.000000 0.000000 0.000000 0.060041
#
#
# Mechanical properties :
#
#
# Convention : Reuss Voigt Hill
#
# Bulk Modulus (GPa) = 41.94417 42.65807 42.30112
# Shear Modulus (GPa) = 19.81155 25.26505 22.53830
#
# Velocity S-wave (km/s) = 3.39689 3.83604 3.62313
# Velocity P-wave (km/s) = 6.30990 6.66826 6.49155
#
# Compressibility (1/GPa) = 0.02384121
#
# Stress axis : x y z
#
# Youngs Moduli (GPa) = 75.46845 82.77310 114.35697
#
# Poissons Ratio (x) = 0.26533 0.03098
# Poissons Ratio (y) = 0.24191 0.18767
# Poissons Ratio (z) = 0.02045 0.13584
#
# Static dielectric constant tensor:
#      x y z
#    x 3.830430 0.000000 0.000000 
#    y 0.000000 3.207180 0.000000 
#    z 0.000000 0.000000 3.387650 
# 
# 
# High freq. dielectric constant tensor:
#      x y z
#    x 1.641380 0.000000 0.000000 
#    y 0.000000 1.656230 0.000000 
#    z 0.000000 0.000000 1.671940 
# 
# From -- ./inp_files/19587.got.cif
#   From: 2010.03.12/outbox.cif.g09.slc.cpg/sg55_10_cif.got.tgz:19587.got - 2010.04.16 15:19:21.
