data_PCOD8227501
_publ_section_title
;
Structure prediction by ZEFSAII (Michael W. Deem and Ramdas Pophale) SiO2 
 PCOD8227501
Probable space group: P B A M
;
_chemical_formula_sum "Si O2"
_cell_formula_units_Z 56
_cell_length_a 14.869956
_cell_length_b 8.446106
_cell_length_c 19.035147
_cell_angle_alpha 90.000000
_cell_angle_beta 90.000000
_cell_angle_gamma 90.000000
_cell_volume 2390.685492
_symmetry_space_group_name_H-M "P B A M"
_symmetry_group_IT_number 55
_symmetry_cell_setting 'orthorhombic'
loop_
_space_group_symop_operation_xyz
x,y,z
-x,-y,z
1/2+x,1/2-y,-z
1/2-x,1/2+y,-z
-x,-y,-z
x,y,-z
1/2-x,1/2+y,z
1/2+x,1/2-y,z
loop_
_atom_site_type_symbol
_atom_site_label
_atom_site_fract_x
_atom_site_fract_y
_atom_site_fract_z
Si Si1 0.507909 0.812855 0.714338
Si Si2 0.467166 0.319704 0.147731
Si Si3 0.616915 0.775242 0.422893
Si Si4 0.709633 0.816295 0.868898
Si Si5 0.183435 0.198278 0.726715
Si Si6 0.249298 0.456096 0.372023
Si Si7 0.132805 0.358382 0.079512
O O1 0.571079 0.751622 0.777077
O O2 0.541031 0.758833 0.637295
O O3 0.420347 0.721796 0.745658
O O4 0.500000 0.000000 0.713959
O O5 0.500000 0.500000 0.148942
O O6 0.371176 0.304404 0.108182
O O7 0.540105 0.203254 0.113172
O O8 0.571400 0.793201 0.500000
O O9 0.677281 0.616280 0.425373
O O10 0.680186 0.926619 0.409781
O O11 0.749939 0.779957 0.791376
O O12 0.793019 0.782047 0.920954
O O13 0.673280 0.995654 0.875484
O O14 0.193128 0.314077 0.660388
O O15 0.198830 0.026090 0.694789
O O16 0.112490 0.411406 0.000000
#
# Coordination Sequence:
#
# PCOD8227501 Si02
#       7
#     8   8   8   8   8   8   8
#     4  12  25  45  67 106 141 186 249 309 369 441
#     4  12  28  46  75 107 144 190 247 307 365 437
#     4  11  24  43  67  98 142 192 244 305 377 448
#     4  12  25  45  74 107 147 193 241 303 372 433
#     4  11  23  41  72 101 136 185 239 304 361 429
#     4  10  22  41  66  99 133 183 241 301 364 440
#     4  12  27  48  75 110 150 195 244 296 368 450
#
# _framework density 23.424242
#
# number of rings (size 3 to 8) (size 9 to 14) (size 15 to 20)
#    0.000    0.571    2.857    5.571    4.000    2.286 
#    0.000    2.143    0.000    0.000    0.000    0.000 
#    0.000    0.000    0.000    0.000    0.000    0.000 
#
# Total GULP energy -693924.524728 kJ/mol
# GULP energy per Si atom -12391.509370 kJ/mol
# Density = 2.337093 g / cm^3
# Si number density = 23.424242 Si / 1000 Ang^3
#
#
#
# Elastic Constant Matrix: (Units=GPa)
#
#
# Indices 1 2 3 4 5 6 
#
# 1 136.1925 32.4523 43.9373 0.0000 0.0000 0.0000
# 2 32.4523 74.7262 27.2934 0.0000 0.0000 0.0000
# 3 43.9373 27.2934 131.3047 0.0000 0.0000 0.0000
# 4 0.0000 0.0000 0.0000 45.5997 0.0000 0.0000
# 5 0.0000 0.0000 0.0000 0.0000 4.4695 0.0000
# 6 0.0000 0.0000 0.0000 0.0000 0.0000 30.7279
#
#
#
# Elastic Compliance Matrix: (Units=1/GPa)
#
#
# Indices 1 2 3 4 5 6 
#
# 1 0.008802 -0.002972 -0.002327 0.000000 0.000000 0.000000
# 2 -0.002972 0.015485 -0.002224 0.000000 0.000000 0.000000
# 3 -0.002327 -0.002224 0.008857 0.000000 0.000000 0.000000
# 4 0.000000 0.000000 0.000000 0.021930 0.000000 0.000000
# 5 0.000000 0.000000 0.000000 0.000000 0.223740 0.000000
# 6 0.000000 0.000000 0.000000 0.000000 0.000000 0.032544
#
#
# Mechanical properties :
#
#
# Convention : Reuss Voigt Hill
#
# Bulk Modulus (GPa) = 55.26035 61.06548 58.16291
# Shear Modulus (GPa) = 15.04043 32.06211 23.55127
#
# Velocity S-wave (km/s) = 2.53669 3.70369 3.17428
# Velocity P-wave (km/s) = 5.67645 6.66451 6.19022
#
# Compressibility (1/GPa) = 0.01809616
#
# Stress axis : x y z
#
# Youngs Moduli (GPa) = 113.61508 64.57686 112.90504
#
# Poissons Ratio (x) = 0.19194 0.26277
# Poissons Ratio (y) = 0.33770 0.25113
# Poissons Ratio (z) = 0.26443 0.14363
#
# Static dielectric constant tensor:
#      x y z
#    x 4.543560 0.000000 0.000000 
#    y 0.000000 4.289880 0.000000 
#    z 0.000000 0.000000 4.183500 
# 
# 
# High freq. dielectric constant tensor:
#      x y z
#    x 1.936780 0.000000 0.000000 
#    y 0.000000 1.931740 0.000000 
#    z 0.000000 0.000000 1.919930 
# 
# From -- ./inp_files/22974.got.cif
#   From: 2010.03.12/outbox.cif.g09.slc.cpg/sg55_12_cif.got.tgz:22974.got - 2010.04.16 15:19:21.
