data_PCOD8227369
_publ_section_title
;
Structure prediction by ZEFSAII (Michael W. Deem and Ramdas Pophale) SiO2 
 PCOD8227369
Probable space group: P B A M
;
_chemical_formula_sum "Si O2"
_cell_formula_units_Z 32
_cell_length_a 11.707684
_cell_length_b 4.887608
_cell_length_c 22.277756
_cell_angle_alpha 90.000000
_cell_angle_beta 90.000000
_cell_angle_gamma 90.000000
_cell_volume 1274.790452
_symmetry_space_group_name_H-M "P B A M"
_symmetry_group_IT_number 55
_symmetry_cell_setting 'orthorhombic'
loop_
_space_group_symop_operation_xyz
x,y,z
-x,-y,z
1/2+x,1/2-y,-z
1/2-x,1/2+y,-z
-x,-y,-z
x,y,-z
1/2-x,1/2+y,z
1/2+x,1/2-y,z
loop_
_atom_site_type_symbol
_atom_site_label
_atom_site_fract_x
_atom_site_fract_y
_atom_site_fract_z
Si Si1 0.670097 0.750832 0.191324
Si Si2 0.329457 0.747756 0.628298
Si Si3 0.176269 0.361735 0.500000
Si Si4 0.000000 0.500000 0.718103
Si Si5 0.173928 0.637247 0.063882
O O1 0.718953 0.445923 0.198294
O O2 0.576849 0.800194 0.241908
O O3 0.607485 0.792798 0.125818
O O4 0.281381 0.442526 0.635993
O O5 0.388659 0.788115 0.562204
O O6 0.424369 0.798218 0.677982
O O7 0.206486 0.682575 0.500000
O O8 0.288776 0.821370 0.065077
O O9 0.106898 0.692074 0.000000
#
# Coordination Sequence:
#
# PCOD8227369 Si02
#       5
#     8   8   4   4   8
#     4  10  22  38  55  80 112 144 183 227 270 323
#     4  10  22  39  59  84 112 143 183 227 270 322
#     4   8  16  35  58  79 108 140 174 225 274 311
#     4  12  24  37  59  82 112 152 184 218 274 326
#     4   8  14  28  51  74  99 135 175 219 270 315
#
# _framework density 25.102167000000001
#
# number of rings (size 3 to 8) (size 9 to 14) (size 15 to 20)
#    0.000    2.500    0.000    1.500    0.000    4.500 
#    0.000    0.625    0.000    9.000    0.000   17.500 
#    0.000    0.000    0.000    0.000    0.000    0.000 
#
# Total GULP energy -396468.794408 kJ/mol
# GULP energy per Si atom -12389.649825 kJ/mol
# Density = 2.504503 g / cm^3
# Si number density = 25.102167 Si / 1000 Ang^3
#
#
#
# Elastic Constant Matrix: (Units=GPa)
#
#
# Indices 1 2 3 4 5 6 
#
# 1 52.7365 0.5934 52.1329 0.0000 0.0000 0.0000
# 2 0.5934 74.1112 -4.5700 0.0000 0.0000 0.0000
# 3 52.1329 -4.5700 222.3882 0.0000 0.0000 0.0000
# 4 0.0000 0.0000 0.0000 2.2055 0.0000 0.0000
# 5 0.0000 0.0000 0.0000 0.0000 -91.4860 0.0000
# 6 0.0000 0.0000 0.0000 0.0000 0.0000 4.3569
#
#
#
# Elastic Compliance Matrix: (Units=1/GPa)
#
#
# Indices 1 2 3 4 5 6 
#
# 1 0.024705 -0.000556 -0.005803 0.000000 0.000000 0.000000
# 2 -0.000556 0.013523 0.000408 0.000000 0.000000 0.000000
# 3 -0.005803 0.000408 0.005865 0.000000 0.000000 0.000000
# 4 0.000000 0.000000 0.000000 0.453406 0.000000 0.000000
# 5 0.000000 0.000000 0.000000 0.000000 -0.010931 0.000000
# 6 0.000000 0.000000 0.000000 0.000000 0.000000 0.229521
#
#
# Mechanical properties :
#
#
# Convention : Reuss Voigt Hill
#
# Bulk Modulus (GPa) = 31.06318 49.50538 40.28428
# Shear Modulus (GPa) = 6.76846 3.08726 4.92786
#
# Velocity S-wave (km/s) = 1.64384 1.11020 1.40263
# Velocity P-wave (km/s) = 4.00057 4.62685 4.32506
#
# Compressibility (1/GPa) = 0.03219245
#
# Stress axis : x y z
#
# Youngs Moduli (GPa) = 40.47788 73.94889 170.49309
#
# Poissons Ratio (x) = 0.04109 0.98934
# Poissons Ratio (y) = 0.02249 -0.06959
# Poissons Ratio (z) = 0.23489 -0.03018
#
# Static dielectric constant tensor:
#      x y z
#    x 3.594220 0.000000 0.000000 
#    y 0.000000 4.437370 0.000000 
#    z 0.000000 0.000000 5.536490 
# 
# 
# High freq. dielectric constant tensor:
#      x y z
#    x 1.917590 0.000000 0.000000 
#    y 0.000000 2.013000 0.000000 
#    z 0.000000 0.000000 2.046780 
# 
# From -- ./inp_files/23217.got.cif
#   From: 2010.03.12/outbox.cif.g09.slc.cpg/sg55_12_cif.got.tgz:23217.got - 2010.04.16 15:19:21.
