data_PCOD8227839
_publ_section_title
;
Structure prediction by ZEFSAII (Michael W. Deem and Ramdas Pophale) SiO2 
 PCOD8227839
Probable space group: P B A M
;
_chemical_formula_sum "Si O2"
_cell_formula_units_Z 48
_cell_length_a 30.000000
_cell_length_b 9.000000
_cell_length_c 9.000000
_cell_angle_alpha 90.000000
_cell_angle_beta 90.000000
_cell_angle_gamma 90.000000
_cell_volume 2430.000000
_symmetry_space_group_name_H-M "P B A M"
_symmetry_group_IT_number 55
_symmetry_cell_setting 'orthorhombic'
loop_
_space_group_symop_operation_xyz
x,y,z
-x,-y,z
1/2+x,1/2-y,-z
1/2-x,1/2+y,-z
-x,-y,-z
x,y,-z
1/2-x,1/2+y,z
1/2+x,1/2-y,z
loop_
_atom_site_type_symbol
_atom_site_label
_atom_site_fract_x
_atom_site_fract_y
_atom_site_fract_z
Si Si1 0.538167 0.180089 0.177523
Si Si2 0.801353 0.682151 0.675590
Si Si3 0.447922 0.128721 0.677756
Si Si4 0.111881 0.148024 0.324184
Si Si5 0.364616 0.323128 0.324608
Si Si6 0.717968 0.857908 0.322293
O O1 0.489528 0.209583 0.245022
O O2 0.568206 0.318016 0.227977
O O3 0.558572 0.033971 0.254069
O O4 0.536112 0.163539 0.000000
O O5 0.796043 0.675056 0.500000
O O6 0.850895 0.731045 0.718506
O O7 0.791383 0.520814 0.744771
O O8 0.765687 0.801509 0.736483
O O9 0.454375 0.118452 0.500000
O O10 0.405441 0.222100 0.726354
O O11 0.100912 0.148490 0.500000
O O12 0.129269 0.989689 0.266792
O O13 0.361396 0.326141 0.500000
O O14 0.319251 0.254853 0.259299
O O15 0.716144 0.864497 0.500000
#
# Coordination Sequence:
#
# PCOD8227839 Si02
#       6
#     8   8   8   8   8   8
#     4  11  22  36  53  76 103 135 172 215 260 310
#     4   9  16  25  44  71 105 139 169 207 255 303
#     4  10  19  35  57  79 102 134 172 215 260 311
#     4  10  19  33  51  75 104 138 174 212 254 303
#     4   9  18  30  49  76 106 134 170 214 259 306
#     4   9  15  25  41  71 107 136 165 207 257 303
#
# _framework density 19.753086
#
# number of rings (size 3 to 8) (size 9 to 14) (size 15 to 20)
#    0.000    2.333    0.000    5.000    0.000    7.333 
#    0.000    5.000    0.000    0.000    0.000   11.667 
#    0.000    0.000    0.000    0.000    0.000    0.000 
#
# Total GULP energy -595070.524672 kJ/mol
# GULP energy per Si atom -12397.302597 kJ/mol
# Density = 1.970813 g / cm^3
# Si number density = 19.753086 Si / 1000 Ang^3
#
#
#
# Elastic Constant Matrix: (Units=GPa)
#
#
# Indices 1 2 3 4 5 6 
#
# 1 45.3718 -20.8783 17.5314 0.0000 0.0000 0.0000
# 2 -20.8783 11.7076 4.4370 0.0000 0.0000 0.0000
# 3 17.5314 4.4370 66.1694 0.0000 0.0000 0.0000
# 4 0.0000 0.0000 0.0000 5.1537 0.0000 0.0000
# 5 0.0000 0.0000 0.0000 0.0000 2.1554 0.0000
# 6 0.0000 0.0000 0.0000 0.0000 0.0000 31.9978
#
#
#
# Elastic Compliance Matrix: (Units=1/GPa)
#
#
# Indices 1 2 3 4 5 6 
#
# 1 -0.526362 -1.017375 0.207678 0.000000 0.000000 0.000000
# 2 -1.017375 -1.878784 0.395533 0.000000 0.000000 0.000000
# 3 0.207678 0.395533 -0.066433 0.000000 0.000000 0.000000
# 4 0.000000 0.000000 0.000000 0.194036 0.000000 0.000000
# 5 0.000000 0.000000 0.000000 0.000000 0.463945 0.000000
# 6 0.000000 0.000000 0.000000 0.000000 0.000000 0.031252
#
#
# Mechanical properties :
#
#
# Convention : Reuss Voigt Hill
#
# Bulk Modulus (GPa) = -0.30304 13.93655 6.81676
# Shear Modulus (GPa) = -2.43429 16.00530 6.78551
#
# Velocity S-wave (km/s) = -1.11132 2.84961 1.85543
# Velocity P-wave (km/s) = 1.34181 4.23057 2.83701
#
# Compressibility (1/GPa) = -3.29990882
#
# Stress axis : x y z
#
# Youngs Moduli (GPa) = -1.89983 -0.53226 -15.05265
#
# Poissons Ratio (x) = -0.54151 3.12611
# Poissons Ratio (y) = -1.93284 5.95381
# Poissons Ratio (z) = 0.39455 0.21053
#
# Static dielectric constant tensor:
#      x y z
#    x 3.722680 0.000000 0.000000 
#    y 0.000000 3.754710 0.000000 
#    z 0.000000 0.000000 3.046340 
# 
# 
# High freq. dielectric constant tensor:
#      x y z
#    x 1.780860 0.000000 0.000000 
#    y 0.000000 1.774580 0.000000 
#    z 0.000000 0.000000 1.705420 
# 
# From -- ./inp_files/10528.got.cif
#   From: 2010.03.12/outbox.ucp.g09.slc.cvg/sg55_6_cif.got.tgz:10528.got - 2010.05.04 19:23:19.
