data_PCOD8227993
_publ_section_title
;
Structure prediction by ZEFSAII (Michael W. Deem and Ramdas Pophale) SiO2 
 PCOD8227993
Probable space group: P C C N
;
_chemical_formula_sum "Si O2"
_cell_formula_units_Z 36
_cell_length_a 14.494894
_cell_length_b 6.588726
_cell_length_c 17.613123
_cell_angle_alpha 90.000000
_cell_angle_beta 90.000000
_cell_angle_gamma 90.000000
_cell_volume 1682.104060
_symmetry_space_group_name_H-M "P C C N"
_symmetry_group_IT_number 56
_symmetry_cell_setting 'orthorhombic'
loop_
_space_group_symop_operation_xyz
x,y,z
1/2-x,1/2-y,z
1/2+x,-y,1/2-z
-x,1/2+y,1/2-z
-x,-y,-z
1/2+x,1/2+y,-z
1/2-x,y,1/2+z
x,1/2-y,1/2+z
loop_
_atom_site_type_symbol
_atom_site_label
_atom_site_fract_x
_atom_site_fract_y
_atom_site_fract_z
Si Si1 0.873405 0.037989 0.721560
Si Si2 0.415487 0.121253 0.082484
Si Si3 0.750000 0.750000 0.819771
Si Si4 0.459707 0.912806 0.322096
Si Si5 0.432501 0.312667 0.413214
O O1 0.794907 0.931740 0.771099
O O2 0.866746 0.960167 0.635280
O O3 0.975379 0.983338 0.753363
O O4 0.873388 0.285895 0.715964
O O5 0.321677 0.124829 0.129756
O O6 0.488102 0.273537 0.118336
O O7 0.461188 0.895887 0.082263
O O8 0.392116 0.198488 0.997782
O O9 0.423217 0.099612 0.370531
#
# Coordination Sequence:
#
# PCOD8227993 Si02
#       5
#     8   8   4   8   8
#     4  10  20  34  60  90 123 159 211 264 321 383
#     4   9  21  37  60  88 122 165 206 265 318 383
#     4  10  22  40  58  94 134 160 204 280 336 370
#     4  10  18  35  61  88 117 162 214 258 306 395
#     4  10  19  37  63  86 119 164 220 251 312 394
#
# _framework density 21.401767
#
# number of rings (size 3 to 8) (size 9 to 14) (size 15 to 20)
#    0.000    2.222    2.222    0.667    0.000    0.889 
#    0.000   10.000    0.000    2.667    0.000    0.000 
#    0.000    0.000    0.000    0.000    0.000    0.000 
#
# Total GULP energy -446127.948633 kJ/mol
# GULP energy per Si atom -12392.443018 kJ/mol
# Density = 2.135306 g / cm^3
# Si number density = 21.401767 Si / 1000 Ang^3
#
#
#
# Elastic Constant Matrix: (Units=GPa)
#
#
# Indices 1 2 3 4 5 6 
#
# 1 70.2485 29.2368 25.0056 0.0000 0.0000 0.0000
# 2 29.2368 125.2640 27.6871 0.0000 0.0000 0.0000
# 3 25.0056 27.6871 123.1148 0.0000 0.0000 0.0000
# 4 0.0000 0.0000 0.0000 31.9032 0.0000 0.0000
# 5 0.0000 0.0000 0.0000 0.0000 16.7467 0.0000
# 6 0.0000 0.0000 0.0000 0.0000 0.0000 19.8474
#
#
#
# Elastic Compliance Matrix: (Units=1/GPa)
#
#
# Indices 1 2 3 4 5 6 
#
# 1 0.016533 -0.003280 -0.002620 0.000000 0.000000 0.000000
# 2 -0.003280 0.009051 -0.001369 0.000000 0.000000 0.000000
# 3 -0.002620 -0.001369 0.008963 0.000000 0.000000 0.000000
# 4 0.000000 0.000000 0.000000 0.031345 0.000000 0.000000
# 5 0.000000 0.000000 0.000000 0.000000 0.059713 0.000000
# 6 0.000000 0.000000 0.000000 0.000000 0.000000 0.050384
#
#
# Mechanical properties :
#
#
# Convention : Reuss Voigt Hill
#
# Bulk Modulus (GPa) = 49.98003 53.60958 51.79480
# Shear Modulus (GPa) = 25.35529 29.47932 27.41731
#
# Velocity S-wave (km/s) = 3.44572 3.71539 3.58310
# Velocity P-wave (km/s) = 6.26375 6.59614 6.43209
#
# Compressibility (1/GPa) = 0.02000799
#
# Stress axis : x y z
#
# Youngs Moduli (GPa) = 60.48548 110.48160 111.57364
#
# Poissons Ratio (x) = 0.36234 0.29237
# Poissons Ratio (y) = 0.19837 0.15279
# Poissons Ratio (z) = 0.15850 0.15129
#
# Static dielectric constant tensor:
#      x y z
#    x 3.549360 0.000000 0.000000 
#    y 0.000000 4.207320 0.000000 
#    z 0.000000 0.000000 4.119010 
# 
# 
# High freq. dielectric constant tensor:
#      x y z
#    x 1.798960 0.000000 0.000000 
#    y 0.000000 1.845280 0.000000 
#    z 0.000000 0.000000 1.860220 
# 
# From -- ./inp_files/17356.got.cif
#   From: 2010.03.12/outbox.cif.g09.slc.cpg/sg56_9_cif.got.tgz:17356.got - 2010.04.16 15:33:40.
