data_PCOD8227003
_publ_section_title
;
Structure prediction by ZEFSAII (Michael W. Deem and Ramdas Pophale) SiO2 
 PCOD8227003
Probable space group: P B A M
;
_chemical_formula_sum "Si O2"
_cell_formula_units_Z 64
_cell_length_a 25.629924
_cell_length_b 9.983142
_cell_length_c 13.287777
_cell_angle_alpha 90.000000
_cell_angle_beta 90.000000
_cell_angle_gamma 90.000000
_cell_volume 3399.905906
_symmetry_space_group_name_H-M "P B A M"
_symmetry_group_IT_number 55
_symmetry_cell_setting 'orthorhombic'
loop_
_space_group_symop_operation_xyz
x,y,z
-x,-y,z
1/2+x,1/2-y,-z
1/2-x,1/2+y,-z
-x,-y,-z
x,y,-z
1/2-x,1/2+y,z
1/2+x,1/2-y,z
loop_
_atom_site_type_symbol
_atom_site_label
_atom_site_fract_x
_atom_site_fract_y
_atom_site_fract_z
Si Si1 0.125995 0.551877 0.276247
Si Si2 0.797026 0.750279 0.118139
Si Si3 0.883878 0.749066 0.274381
Si Si4 0.997973 0.848695 0.771199
Si Si5 0.758046 0.489054 0.219919
Si Si6 0.458217 0.109608 0.116489
Si Si7 0.328153 0.521537 0.617520
Si Si8 0.587152 0.697794 0.616082
O O1 0.112265 0.402788 0.314622
O O2 0.186688 0.570164 0.253402
O O3 0.095656 0.586132 0.173723
O O4 0.108812 0.653719 0.363218
O O5 0.854678 0.750155 0.166612
O O6 0.762802 0.631548 0.165578
O O7 0.768631 0.889867 0.140469
O O8 0.803658 0.729224 0.000000
O O9 0.940064 0.812628 0.261653
O O10 0.850897 0.832437 0.356000
O O11 0.018185 0.755709 0.861535
O O12 0.033773 0.830320 0.673696
O O13 0.000000 0.000000 0.811421
O O14 0.724289 0.506764 0.320779
O O15 0.500000 0.000000 0.153177
O O16 0.445305 0.095277 0.000000
O O17 0.314325 0.514862 0.500000
O O18 0.369844 0.409738 0.649940
O O19 0.573491 0.682959 0.500000
#
# Coordination Sequence:
#
# PCOD8227003 Si02
#       8
#     8   8   8   8   8   8   8   8
#     4  10  21  38  58  82 119 149 189 239 289 341
#     4  10  21  37  59  84 115 151 193 240 290 345
#     4  10  21  37  57  87 115 153 195 240 291 349
#     4  11  21  38  61  83 119 150 191 243 294 344
#     4  10  21  38  60  86 116 155 195 238 291 346
#     4  10  21  37  59  85 114 151 189 232 287 349
#     4  10  21  39  60  86 118 156 199 244 291 347
#     4  10  22  37  59  86 115 152 193 236 291 348
#
# _framework density 18.82405
#
# number of rings (size 3 to 8) (size 9 to 14) (size 15 to 20)
#    0.000    1.875    2.500    1.125    0.000    5.000 
#    0.000    8.125    0.000    0.000    0.000    0.000 
#    0.000    0.000    0.000    0.000    0.000    0.000 
#
# Total GULP energy -793897.391129 kJ/mol
# GULP energy per Si atom -12404.646736 kJ/mol
# Density = 1.878121 g / cm^3
# Si number density = 18.824050 Si / 1000 Ang^3
#
#
#
# Elastic Constant Matrix: (Units=GPa)
#
#
# Indices 1 2 3 4 5 6 
#
# 1 122.9317 43.5279 49.7077 0.0000 0.0000 0.0000
# 2 43.5279 133.6520 39.3264 0.0000 0.0000 0.0000
# 3 49.7077 39.3264 90.7451 0.0000 0.0000 0.0000
# 4 0.0000 0.0000 0.0000 21.7794 0.0000 0.0000
# 5 0.0000 0.0000 0.0000 0.0000 18.0249 0.0000
# 6 0.0000 0.0000 0.0000 0.0000 0.0000 30.6944
#
#
#
# Elastic Compliance Matrix: (Units=1/GPa)
#
#
# Indices 1 2 3 4 5 6 
#
# 1 0.010922 -0.002059 -0.005090 0.000000 0.000000 0.000000
# 2 -0.002059 0.008964 -0.002757 0.000000 0.000000 0.000000
# 3 -0.005090 -0.002757 0.015003 0.000000 0.000000 0.000000
# 4 0.000000 0.000000 0.000000 0.045915 0.000000 0.000000
# 5 0.000000 0.000000 0.000000 0.000000 0.055479 0.000000
# 6 0.000000 0.000000 0.000000 0.000000 0.000000 0.032579
#
#
# Mechanical properties :
#
#
# Convention : Reuss Voigt Hill
#
# Bulk Modulus (GPa) = 66.32969 68.05030 67.19000
# Shear Modulus (GPa) = 25.81309 28.41751 27.11530
#
# Velocity S-wave (km/s) = 3.70710 3.88962 3.79946
# Velocity P-wave (km/s) = 7.32370 7.51009 7.41748
#
# Compressibility (1/GPa) = 0.01507620
#
# Stress axis : x y z
#
# Youngs Moduli (GPa) = 91.55784 111.55815 66.65368
#
# Poissons Ratio (x) = 0.22973 0.33929
# Poissons Ratio (y) = 0.18854 0.18374
# Poissons Ratio (z) = 0.46606 0.30753
#
# Static dielectric constant tensor:
#      x y z
#    x 3.497870 0.000000 0.000000 
#    y 0.000000 3.779210 0.000000 
#    z 0.000000 0.000000 3.213070 
# 
# 
# High freq. dielectric constant tensor:
#      x y z
#    x 1.742140 0.000000 0.000000 
#    y 0.000000 1.749940 0.000000 
#    z 0.000000 0.000000 1.717070 
# 
# From -- ./inp_files/17835.got.cif
#   From: 2010.03.12/outbox.cif.g09.slc.cpg/sg55_9_cif.got.tgz:17835.got - 2010.04.16 15:19:21.
