data_PCOD8227410
_publ_section_title
;
Structure prediction by ZEFSAII (Michael W. Deem and Ramdas Pophale) SiO2 
 PCOD8227410
Probable space group: P B A M
;
_chemical_formula_sum "Si O2"
_cell_formula_units_Z 56
_cell_length_a 14.645437
_cell_length_b 21.878970
_cell_length_c 8.714582
_cell_angle_alpha 90.000000
_cell_angle_beta 90.000000
_cell_angle_gamma 90.000000
_cell_volume 2792.388035
_symmetry_space_group_name_H-M "P B A M"
_symmetry_group_IT_number 55
_symmetry_cell_setting 'orthorhombic'
loop_
_space_group_symop_operation_xyz
x,y,z
-x,-y,z
1/2+x,1/2-y,-z
1/2-x,1/2+y,-z
-x,-y,-z
x,y,-z
1/2-x,1/2+y,z
1/2+x,1/2-y,z
loop_
_atom_site_type_symbol
_atom_site_label
_atom_site_fract_x
_atom_site_fract_y
_atom_site_fract_z
Si Si1 0.427664 0.892450 0.319569
Si Si2 0.223469 0.487986 0.318104
Si Si3 0.816243 0.267633 0.822778
Si Si4 0.889831 0.736520 0.176929
Si Si5 0.879815 0.401854 0.819846
Si Si6 0.042384 0.817095 0.679828
Si Si7 0.576946 0.545574 0.682308
O O1 0.442555 0.897915 0.500000
O O2 0.345137 0.935027 0.261356
O O3 0.404964 0.823113 0.278338
O O4 0.518986 0.916551 0.238939
O O5 0.224932 0.490710 0.500000
O O6 0.193092 0.553311 0.255768
O O7 0.324001 0.473292 0.251886
O O8 0.708951 0.264677 0.792863
O O9 0.852754 0.333512 0.771161
O O10 0.863390 0.217343 0.716047
O O11 0.840554 0.254795 0.000000
O O12 0.960574 0.788361 0.224124
O O13 0.905307 0.718530 0.000000
O O14 0.875979 0.411128 0.000000
O O15 0.020908 0.812751 0.500000
O O16 0.052534 0.886438 0.736516
O O17 0.500000 0.500000 0.748631
O O18 0.579710 0.542345 0.500000
#
# Coordination Sequence:
#
# PCOD8227410 Si02
#       7
#     8   8   8   8   8   8   8
#     4  11  22  39  61  91 122 157 202 251 308 362
#     4  10  22  39  61  87 121 159 200 254 301 355
#     4  10  23  41  60  85 123 165 200 248 305 363
#     4  11  23  39  61  88 122 161 199 246 306 362
#     4  11  23  39  60  88 122 161 203 249 304 365
#     4  11  22  38  64  94 120 156 203 252 302 361
#     4   9  20  39  61  88 122 158 198 246 301 356
#
# _framework density 20.054518999999999
#
# number of rings (size 3 to 8) (size 9 to 14) (size 15 to 20)
#    0.000    1.571    1.429    3.000    2.000    5.714 
#    0.000    1.429    0.000    2.143    0.000    0.000 
#    0.000    0.000    0.000    0.000    0.000    0.000 
#
# Total GULP energy -694729.051826 kJ/mol
# GULP energy per Si atom -12405.875925 kJ/mol
# Density = 2.000887 g / cm^3
# Si number density = 20.054519 Si / 1000 Ang^3
#
#
#
# Elastic Constant Matrix: (Units=GPa)
#
#
# Indices 1 2 3 4 5 6 
#
# 1 131.4018 54.5523 10.6905 0.0000 0.0000 0.0000
# 2 54.5523 133.6035 10.3182 0.0000 0.0000 0.0000
# 3 10.6905 10.3182 8.8095 0.0000 0.0000 0.0000
# 4 0.0000 0.0000 0.0000 20.7241 0.0000 0.0000
# 5 0.0000 0.0000 0.0000 0.0000 27.7967 0.0000
# 6 0.0000 0.0000 0.0000 0.0000 0.0000 31.5269
#
#
#
# Elastic Compliance Matrix: (Units=1/GPa)
#
#
# Indices 1 2 3 4 5 6 
#
# 1 0.009625 -0.003329 -0.007781 0.000000 0.000000 0.000000
# 2 -0.003329 0.009381 -0.006947 0.000000 0.000000 0.000000
# 3 -0.007781 -0.006947 0.131094 0.000000 0.000000 0.000000
# 4 0.000000 0.000000 0.000000 0.048253 0.000000 0.000000
# 5 0.000000 0.000000 0.000000 0.000000 0.035975 0.000000
# 6 0.000000 0.000000 0.000000 0.000000 0.000000 0.031719
#
#
# Mechanical properties :
#
#
# Convention : Reuss Voigt Hill
#
# Bulk Modulus (GPa) = 8.77310 47.21519 27.99414
# Shear Modulus (GPa) = 14.69904 29.22645 21.96275
#
# Velocity S-wave (km/s) = 2.71025 3.82167 3.31290
# Velocity P-wave (km/s) = 3.76538 6.56262 5.35005
#
# Compressibility (1/GPa) = 0.11398482
#
# Stress axis : x y z
#
# Youngs Moduli (GPa) = 103.89083 106.60124 7.62811
#
# Poissons Ratio (x) = 0.35491 0.05936
# Poissons Ratio (y) = 0.34588 0.05299
# Poissons Ratio (z) = 0.80841 0.74057
#
# Static dielectric constant tensor:
#      x y z
#    x 3.901190 0.000000 0.000000 
#    y 0.000000 3.760340 0.000000 
#    z 0.000000 0.000000 3.514610 
# 
# 
# High freq. dielectric constant tensor:
#      x y z
#    x 1.799380 0.000000 0.000000 
#    y 0.000000 1.793240 0.000000 
#    z 0.000000 0.000000 1.769110 
# 
# From -- ./inp_files/6110.got.cif
#   From: 2010.03.12/outbox.cif.g09.slc.cpg/sg55_4_cif.got.tgz:6110.got - 2010.04.16 15:19:21.
