data_PCOD8227020
_publ_section_title
;
Structure prediction by ZEFSAII (Michael W. Deem and Ramdas Pophale) SiO2 
 PCOD8227020
Probable space group: P B A M
;
_chemical_formula_sum "Si O2"
_cell_formula_units_Z 56
_cell_length_a 5.233848
_cell_length_b 14.917330
_cell_length_c 34.138101
_cell_angle_alpha 90.000000
_cell_angle_beta 90.000000
_cell_angle_gamma 90.000000
_cell_volume 2665.333526
_symmetry_space_group_name_H-M "P B A M"
_symmetry_group_IT_number 55
_symmetry_cell_setting 'orthorhombic'
loop_
_space_group_symop_operation_xyz
x,y,z
-x,-y,z
1/2+x,1/2-y,-z
1/2-x,1/2+y,-z
-x,-y,-z
x,y,-z
1/2-x,1/2+y,z
1/2+x,1/2-y,z
loop_
_atom_site_type_symbol
_atom_site_label
_atom_site_fract_x
_atom_site_fract_y
_atom_site_fract_z
Si Si1 0.244953 0.056792 0.543742
Si Si2 0.720165 0.809082 0.696869
Si Si3 0.749538 0.056459 0.045306
Si Si4 0.750604 0.399627 0.225311
Si Si5 0.284691 0.695867 0.610732
Si Si6 0.750404 0.101649 0.191456
Si Si7 0.265232 0.809024 0.887499
O O1 0.199532 0.096516 0.500000
O O2 0.286265 0.133923 0.574780
O O3 0.500000 0.000000 0.544019
O O4 0.000000 0.000000 0.556839
O O5 0.445780 0.762766 0.703139
O O6 0.746353 0.891784 0.727449
O O7 0.740131 0.850950 0.653121
O O8 0.750982 0.147906 0.069634
O O9 0.500000 0.000000 0.056570
O O10 0.746818 0.084676 0.000000
O O11 0.000000 0.000000 0.055886
O O12 0.749934 0.500359 0.208183
O O13 0.500216 0.349109 0.208830
O O14 0.998899 0.349004 0.208134
O O15 0.581589 0.723058 0.607666
O O16 0.753084 0.110292 0.144384
O O17 0.533841 0.759578 0.882093
#
# Coordination Sequence:
#
# PCOD8227020 Si02
#       7
#     8   8   8   8   8   8   8
#     4  10  21  38  58  87 122 157 199 246 296 354
#     4  10  21  37  59  84 117 153 195 253 301 353
#     4  10  23  43  70  97 126 168 208 243 294 363
#     4  10  21  39  58  83 112 164 197 252 296 354
#     4  10  21  38  59  88 121 154 198 247 304 362
#     4  10  23  38  58  85 120 153 205 249 289 363
#     4  12  26  41  64  98 128 163 202 254 310 351
#
# _framework density 21.010504000000001
#
# number of rings (size 3 to 8) (size 9 to 14) (size 15 to 20)
#    0.000    1.714    0.000    3.429    4.000    4.571 
#    5.143    0.000    0.000    0.000    0.000    0.000 
#    0.000    0.000    0.000    0.000    0.000    0.000 
#
# Total GULP energy -694100.675024 kJ/mol
# GULP energy per Si atom -12394.654911 kJ/mol
# Density = 2.096268 g / cm^3
# Si number density = 21.010504 Si / 1000 Ang^3
#
#
#
# Elastic Constant Matrix: (Units=GPa)
#
#
# Indices 1 2 3 4 5 6 
#
# 1 162.8694 6.3724 26.4462 0.0000 0.0000 0.0000
# 2 6.3724 57.6698 58.4881 0.0000 0.0000 0.0000
# 3 26.4462 58.4881 152.7765 0.0000 0.0000 0.0000
# 4 0.0000 0.0000 0.0000 53.0222 0.0000 0.0000
# 5 0.0000 0.0000 0.0000 0.0000 43.1966 0.0000
# 6 0.0000 0.0000 0.0000 0.0000 0.0000 11.0524
#
#
#
# Elastic Compliance Matrix: (Units=1/GPa)
#
#
# Indices 1 2 3 4 5 6 
#
# 1 0.006333 0.000674 -0.001354 0.000000 0.000000 0.000000
# 2 0.000674 0.028417 -0.010996 0.000000 0.000000 0.000000
# 3 -0.001354 -0.010996 0.010989 0.000000 0.000000 0.000000
# 4 0.000000 0.000000 0.000000 0.018860 0.000000 0.000000
# 5 0.000000 0.000000 0.000000 0.000000 0.023150 0.000000
# 6 0.000000 0.000000 0.000000 0.000000 0.000000 0.090478
#
#
# Mechanical properties :
#
#
# Convention : Reuss Voigt Hill
#
# Bulk Modulus (GPa) = 44.66763 61.76990 53.21876
# Shear Modulus (GPa) = 23.91843 40.25485 32.08664
#
# Velocity S-wave (km/s) = 3.37768 4.38189 3.91214
# Velocity P-wave (km/s) = 6.04297 7.42056 6.76691
#
# Compressibility (1/GPa) = 0.02238757
#
# Stress axis : x y z
#
# Youngs Moduli (GPa) = 157.89239 35.18965 90.99600
#
# Poissons Ratio (x) = -0.02370 0.12323
# Poissons Ratio (y) = -0.10636 1.00057
# Poissons Ratio (z) = 0.21382 0.38694
#
# Static dielectric constant tensor:
#      x y z
#    x 6.864830 0.000000 0.000000 
#    y 0.000000 3.265390 0.000000 
#    z 0.000000 0.000000 4.079790 
# 
# 
# High freq. dielectric constant tensor:
#      x y z
#    x 1.862640 0.000000 0.000000 
#    y 0.000000 1.780530 0.000000 
#    z 0.000000 0.000000 1.838050 
# 
# From -- ./inp_files/24079.got.cif
#   From: 2010.03.12/outbox.cif.g09.slc.cpg/sg55_13_cif.got.tgz:24079.got - 2010.04.16 15:19:21.
