data_PCOD8227764
_publ_section_title
;
Structure prediction by ZEFSAII (Michael W. Deem and Ramdas Pophale) SiO2 
 PCOD8227764
Probable space group: P B A M
;
_chemical_formula_sum "Si O2"
_cell_formula_units_Z 56
_cell_length_a 12.678664
_cell_length_b 14.532039
_cell_length_c 14.285039
_cell_angle_alpha 90.000000
_cell_angle_beta 90.000000
_cell_angle_gamma 90.000000
_cell_volume 2631.973291
_symmetry_space_group_name_H-M "P B A M"
_symmetry_group_IT_number 55
_symmetry_cell_setting 'orthorhombic'
loop_
_space_group_symop_operation_xyz
x,y,z
-x,-y,z
1/2+x,1/2-y,-z
1/2-x,1/2+y,-z
-x,-y,-z
x,y,-z
1/2-x,1/2+y,z
1/2+x,1/2-y,z
loop_
_atom_site_type_symbol
_atom_site_label
_atom_site_fract_x
_atom_site_fract_y
_atom_site_fract_z
Si Si1 0.455290 0.602354 0.712093
Si Si2 0.044710 0.397646 0.212093
Si Si3 0.250242 0.631852 0.392460
Si Si4 0.886292 0.544056 0.601562
Si Si5 0.249758 0.368148 0.107540
Si Si6 0.613708 0.455944 0.898438
Si Si7 0.623881 0.750000 0.250000
O O1 0.500000 0.500000 0.702512
O O2 0.374079 0.624304 0.629621
O O3 0.393115 0.616097 0.812291
O O4 0.552355 0.671324 0.703951
O O5 0.106885 0.383903 0.312291
O O6 0.125921 0.375696 0.129621
O O7 0.000000 0.500000 0.202512
O O8 0.947645 0.328676 0.203951
O O9 0.235067 0.659217 0.500000
O O10 0.197850 0.533515 0.370505
O O11 0.196315 0.711436 0.332373
O O12 0.856546 0.589731 0.500000
O O13 0.000000 0.500000 0.590346
O O14 0.302150 0.466485 0.129495
O O15 0.303685 0.288564 0.167627
O O16 0.264933 0.340783 0.000000
O O17 0.500000 0.500000 0.909654
O O18 0.643454 0.410269 0.000000
#
# Coordination Sequence:
#
# PCOD8227764 Si02
#       7
#     8   8   8   8   8   8   8
#     4  11  23  42  70  98 137 176 225 279 332 393
#     4  11  23  42  70  98 137 176 225 279 332 393
#     4  11  24  43  66  96 132 175 225 277 339 398
#     4   9  17  36  68  97 124 167 219 268 326 396
#     4  11  24  43  66  96 132 175 225 277 339 398
#     4   9  17  36  68  97 124 167 219 268 326 396
#     4  12  24  42  68  96 136 178 224 278 330 396
#
# _framework density 21.276810000000001
#
# number of rings (size 3 to 8) (size 9 to 14) (size 15 to 20)
#    0.000    1.429    5.714    1.714    0.000    1.714 
#    0.000    4.286    0.000    0.000    0.000    0.000 
#    0.000    0.000    0.000    0.000    0.000    0.000 
#
# Total GULP energy -694297.138164 kJ/mol
# GULP energy per Si atom -12398.163181 kJ/mol
# Density = 2.122838 g / cm^3
# Si number density = 21.276810 Si / 1000 Ang^3
#
#
#
# Elastic Constant Matrix: (Units=GPa)
#
#
# Indices 1 2 3 4 5 6 
#
# 1 117.2651 48.6750 42.5110 0.0000 0.0000 0.0000
# 2 48.6750 75.9114 22.5047 0.0000 0.0000 0.0000
# 3 42.5110 22.5047 118.0643 0.0000 0.0000 0.0000
# 4 0.0000 0.0000 0.0000 34.8207 0.0000 0.0000
# 5 0.0000 0.0000 0.0000 0.0000 30.1250 0.0000
# 6 0.0000 0.0000 0.0000 0.0000 0.0000 19.0078
#
#
#
# Elastic Compliance Matrix: (Units=1/GPa)
#
#
# Indices 1 2 3 4 5 6 
#
# 1 0.012662 -0.007173 -0.003192 0.000000 0.000000 0.000000
# 2 -0.007173 0.018025 -0.000853 0.000000 0.000000 0.000000
# 3 -0.003192 -0.000853 0.009782 0.000000 0.000000 0.000000
# 4 0.000000 0.000000 0.000000 0.028719 0.000000 0.000000
# 5 0.000000 0.000000 0.000000 0.000000 0.033195 0.000000
# 6 0.000000 0.000000 0.000000 0.000000 0.000000 0.052610
#
#
# Mechanical properties :
#
#
# Convention : Reuss Voigt Hill
#
# Bulk Modulus (GPa) = 55.45222 59.84691 57.64956
# Shear Modulus (GPa) = 27.25685 29.96072 28.60879
#
# Velocity S-wave (km/s) = 3.58307 3.75659 3.67086
# Velocity P-wave (km/s) = 6.57546 6.85600 6.71720
#
# Compressibility (1/GPa) = 0.01803354
#
# Stress axis : x y z
#
# Youngs Moduli (GPa) = 78.97553 55.47720 102.22941
#
# Poissons Ratio (x) = 0.39793 0.32631
# Poissons Ratio (y) = 0.56647 0.08722
# Poissons Ratio (z) = 0.25209 0.04733
#
# Static dielectric constant tensor:
#      x y z
#    x 3.941550 0.000000 0.000000 
#    y 0.000000 3.690770 0.000000 
#    z 0.000000 0.000000 4.531320 
# 
# 
# High freq. dielectric constant tensor:
#      x y z
#    x 1.842520 0.000000 0.000000 
#    y 0.000000 1.809560 0.000000 
#    z 0.000000 0.000000 1.841310 
# 
# From -- ./inp_files/18405.got.cif
#   From: 2010.03.12/outbox.cif.g09.slc.cpg/sg55_10_cif.got.tgz:18405.got - 2010.04.16 15:19:21.
