data_PCOD8227649
_publ_section_title
;
Structure prediction by ZEFSAII (Michael W. Deem and Ramdas Pophale) SiO2 
 PCOD8227649
Probable space group: P B A M
;
_chemical_formula_sum "Si O2"
_cell_formula_units_Z 48
_cell_length_a 23.376738
_cell_length_b 7.682244
_cell_length_c 13.437558
_cell_angle_alpha 90.000000
_cell_angle_beta 90.000000
_cell_angle_gamma 90.000000
_cell_volume 2413.194674
_symmetry_space_group_name_H-M "P B A M"
_symmetry_group_IT_number 55
_symmetry_cell_setting 'orthorhombic'
loop_
_space_group_symop_operation_xyz
x,y,z
-x,-y,z
1/2+x,1/2-y,-z
1/2-x,1/2+y,-z
-x,-y,-z
x,y,-z
1/2-x,1/2+y,z
1/2+x,1/2-y,z
loop_
_atom_site_type_symbol
_atom_site_label
_atom_site_fract_x
_atom_site_fract_y
_atom_site_fract_z
Si Si1 0.644234 0.258714 0.837901
Si Si2 0.732189 0.669593 0.889642
Si Si3 0.793951 0.956265 0.307158
Si Si4 0.179322 0.691290 0.388525
Si Si5 0.371482 0.121122 0.809983
Si Si6 0.059853 0.935289 0.112968
O O1 0.704280 0.247508 0.896085
O O2 0.658989 0.310101 0.722643
O O3 0.606314 0.411179 0.884744
O O4 0.611242 0.073335 0.845365
O O5 0.728187 0.533004 0.799051
O O6 0.686833 0.823769 0.866210
O O7 0.717377 0.592728 0.000000
O O8 0.744254 0.865713 0.368830
O O9 0.823549 0.100335 0.375582
O O10 0.160635 0.639710 0.500000
O O11 0.137141 0.604563 0.309068
O O12 0.420673 0.262525 0.828956
O O13 0.049735 0.877464 0.000000
O O14 0.000000 0.000000 0.160494
#
# Coordination Sequence:
#
# PCOD8227649 Si02
#       6
#     8   8   8   8   8   8
#     4  12  21  38  60  87 129 162 203 254 312 366
#     4  11  21  33  54  88 130 164 193 244 313 376
#     4  11  20  35  51  91 131 160 205 243 303 382
#     4  11  20  36  58  86 130 169 201 254 317 379
#     4  11  23  39  60  92 126 158 211 262 306 378
#     4  11  26  45  63  87 125 173 219 259 305 369
#
# _framework density 19.890644999999999
#
# number of rings (size 3 to 8) (size 9 to 14) (size 15 to 20)
#    0.000    0.833    8.333    1.500    0.000    5.333 
#    0.000    2.500    0.000    0.500    0.000    1.167 
#    0.000    0.000    0.000    0.000    0.000    0.000 
#
# Total GULP energy -594846.022282 kJ/mol
# GULP energy per Si atom -12392.625464 kJ/mol
# Density = 1.984537 g / cm^3
# Si number density = 19.890645 Si / 1000 Ang^3
#
#
#
# Elastic Constant Matrix: (Units=GPa)
#
#
# Indices 1 2 3 4 5 6 
#
# 1 49.7510 -1.6366 8.5816 0.0000 0.0000 0.0000
# 2 -1.6366 97.1775 6.9864 0.0000 0.0000 0.0000
# 3 8.5816 6.9864 114.5916 0.0000 0.0000 0.0000
# 4 0.0000 0.0000 0.0000 17.2411 0.0000 0.0000
# 5 0.0000 0.0000 0.0000 0.0000 7.4847 0.0000
# 6 0.0000 0.0000 0.0000 0.0000 0.0000 22.5111
#
#
#
# Elastic Compliance Matrix: (Units=1/GPa)
#
#
# Indices 1 2 3 4 5 6 
#
# 1 0.020383 0.000455 -0.001554 0.000000 0.000000 0.000000
# 2 0.000455 0.010346 -0.000665 0.000000 0.000000 0.000000
# 3 -0.001554 -0.000665 0.008884 0.000000 0.000000 0.000000
# 4 0.000000 0.000000 0.000000 0.058001 0.000000 0.000000
# 5 0.000000 0.000000 0.000000 0.000000 0.133606 0.000000
# 6 0.000000 0.000000 0.000000 0.000000 0.000000 0.044422
#
#
# Mechanical properties :
#
#
# Convention : Reuss Voigt Hill
#
# Bulk Modulus (GPa) = 27.71266 32.15364 29.93315
# Shear Modulus (GPa) = 17.17040 25.95329 21.56184
#
# Velocity S-wave (km/s) = 2.94128 3.61612 3.29602
# Velocity P-wave (km/s) = 5.04952 5.79960 5.43751
#
# Compressibility (1/GPa) = 0.03608459
#
# Stress axis : x y z
#
# Youngs Moduli (GPa) = 49.06008 96.65659 112.56738
#
# Poissons Ratio (x) = -0.04398 0.17495
# Poissons Ratio (y) = -0.02232 0.07484
# Poissons Ratio (z) = 0.07625 0.06426
#
# Static dielectric constant tensor:
#      x y z
#    x 3.373660 0.000000 0.000000 
#    y 0.000000 3.911920 0.000000 
#    z 0.000000 0.000000 3.550720 
# 
# 
# High freq. dielectric constant tensor:
#      x y z
#    x 1.722970 0.000000 0.000000 
#    y 0.000000 1.797140 0.000000 
#    z 0.000000 0.000000 1.757640 
# 
# From -- ./inp_files/19863.got.cif
#   From: 2010.03.12/outbox.cif.g09.slc.cpg/sg55_10_cif.got.tgz:19863.got - 2010.04.16 15:19:21.
