data_PCOD8227522
_publ_section_title
;
Structure prediction by ZEFSAII (Michael W. Deem and Ramdas Pophale) SiO2 
 PCOD8227522
Probable space group: P B A M
;
_chemical_formula_sum "Si O2"
_cell_formula_units_Z 48
_cell_length_a 9.898054
_cell_length_b 26.768782
_cell_length_c 8.686975
_cell_angle_alpha 90.000000
_cell_angle_beta 90.000000
_cell_angle_gamma 90.000000
_cell_volume 2301.690904
_symmetry_space_group_name_H-M "P B A M"
_symmetry_group_IT_number 55
_symmetry_cell_setting 'orthorhombic'
loop_
_space_group_symop_operation_xyz
x,y,z
-x,-y,z
1/2+x,1/2-y,-z
1/2-x,1/2+y,-z
-x,-y,-z
x,y,-z
1/2-x,1/2+y,z
1/2+x,1/2-y,z
loop_
_atom_site_type_symbol
_atom_site_label
_atom_site_fract_x
_atom_site_fract_y
_atom_site_fract_z
Si Si1 0.087824 0.705839 0.319523
Si Si2 0.467208 0.621427 0.677199
Si Si3 0.529987 0.907835 0.320976
Si Si4 0.731490 0.562417 0.677322
Si Si5 0.772818 0.958228 0.821327
Si Si6 0.627291 0.277618 0.180701
O O1 0.092022 0.715441 0.500000
O O2 0.078085 0.647572 0.278967
O O3 0.222480 0.727896 0.245650
O O4 0.958139 0.732915 0.251652
O O5 0.439686 0.635619 0.500000
O O6 0.621518 0.605457 0.704809
O O7 0.369396 0.576329 0.720674
O O8 0.438920 0.669381 0.780066
O O9 0.551820 0.919698 0.500000
O O10 0.374473 0.914357 0.273718
O O11 0.617657 0.946817 0.222515
O O12 0.731686 0.544747 0.500000
O O13 0.694528 0.515541 0.783636
O O14 0.798930 0.947982 0.000000
O O15 0.632689 0.271065 0.000000
#
# Coordination Sequence:
#
# PCOD8227522 Si02
#       6
#     8   8   8   8   8   8
#     4  11  24  44  71  97 127 173 220 261 315 391
#     4  11  23  42  67  93 125 170 218 265 317 383
#     4  10  22  42  67  93 124 167 216 264 312 374
#     4  10  23  41  64  94 125 164 218 267 311 375
#     4  12  24  39  62  93 130 170 211 261 325 383
#     4  12  26  44  67 100 135 167 208 270 332 381
#
# _framework density 20.854233000000001
#
# number of rings (size 3 to 8) (size 9 to 14) (size 15 to 20)
#    0.000    1.000    1.667    5.000    2.333    6.667 
#    0.000    0.000    0.000    0.000    0.000    0.000 
#    0.000    0.000    0.000    0.000    0.000    0.000 
#
# Total GULP energy -595611.783750 kJ/mol
# GULP energy per Si atom -12408.578828 kJ/mol
# Density = 2.080677 g / cm^3
# Si number density = 20.854233 Si / 1000 Ang^3
#
#
#
# Elastic Constant Matrix: (Units=GPa)
#
#
# Indices 1 2 3 4 5 6 
#
# 1 74.3125 -6.4226 17.8076 0.0000 0.0000 0.0000
# 2 -6.4226 45.9307 27.5125 0.0000 0.0000 0.0000
# 3 17.8076 27.5125 88.6314 0.0000 0.0000 0.0000
# 4 0.0000 0.0000 0.0000 29.1742 0.0000 0.0000
# 5 0.0000 0.0000 0.0000 0.0000 12.6878 0.0000
# 6 0.0000 0.0000 0.0000 0.0000 0.0000 37.6029
#
#
#
# Elastic Compliance Matrix: (Units=1/GPa)
#
#
# Indices 1 2 3 4 5 6 
#
# 1 0.014944 0.004776 -0.004485 0.000000 0.000000 0.000000
# 2 0.004776 0.028271 -0.009736 0.000000 0.000000 0.000000
# 3 -0.004485 -0.009736 0.015206 0.000000 0.000000 0.000000
# 4 0.000000 0.000000 0.000000 0.034277 0.000000 0.000000
# 5 0.000000 0.000000 0.000000 0.000000 0.078816 0.000000
# 6 0.000000 0.000000 0.000000 0.000000 0.000000 0.026594
#
#
# Mechanical properties :
#
#
# Convention : Reuss Voigt Hill
#
# Bulk Modulus (GPa) = 25.29543 31.85217 28.57380
# Shear Modulus (GPa) = 21.72266 27.22479 24.47373
#
# Velocity S-wave (km/s) = 3.23095 3.61706 3.42945
# Velocity P-wave (km/s) = 5.10634 5.72286 5.42336
#
# Compressibility (1/GPa) = 0.03953284
#
# Stress axis : x y z
#
# Youngs Moduli (GPa) = 66.91512 35.37144 65.76403
#
# Poissons Ratio (x) = -0.16895 0.29497
# Poissons Ratio (y) = -0.31961 0.64025
# Poissons Ratio (z) = 0.30013 0.34436
#
# Static dielectric constant tensor:
#      x y z
#    x 3.989560 0.000000 0.000000 
#    y 0.000000 3.783710 0.000000 
#    z 0.000000 0.000000 3.741260 
# 
# 
# High freq. dielectric constant tensor:
#      x y z
#    x 1.835300 0.000000 0.000000 
#    y 0.000000 1.819440 0.000000 
#    z 0.000000 0.000000 1.815160 
# 
# From -- ./inp_files/2875.got.cif
#   From: 2010.03.12/outbox.cif.g09.slc.cpg/sg55_2_cif.got.tgz:2875.got - 2010.04.16 15:19:21.
