data_PCOD8227086
_publ_section_title
;
Structure prediction by ZEFSAII (Michael W. Deem and Ramdas Pophale) SiO2 
 PCOD8227086
Probable space group: P B A M
;
_chemical_formula_sum "Si O2"
_cell_formula_units_Z 64
_cell_length_a 22.197334
_cell_length_b 16.669185
_cell_length_c 8.561193
_cell_angle_alpha 90.000000
_cell_angle_beta 90.000000
_cell_angle_gamma 90.000000
_cell_volume 3167.739581
_symmetry_space_group_name_H-M "P B A M"
_symmetry_group_IT_number 55
_symmetry_cell_setting 'orthorhombic'
loop_
_space_group_symop_operation_xyz
x,y,z
-x,-y,z
1/2+x,1/2-y,-z
1/2-x,1/2+y,-z
-x,-y,-z
x,y,-z
1/2-x,1/2+y,z
1/2+x,1/2-y,z
loop_
_atom_site_type_symbol
_atom_site_label
_atom_site_fract_x
_atom_site_fract_y
_atom_site_fract_z
Si Si1 0.770117 0.592588 0.317090
Si Si2 0.885298 0.674722 0.817193
Si Si3 0.852037 0.148101 0.816834
Si Si4 0.235375 0.591021 0.682259
Si Si5 0.143759 0.148968 0.184235
Si Si6 0.432406 0.500702 0.185578
Si Si7 0.384591 0.184887 0.684344
Si Si8 0.499781 0.910669 0.316203
O O1 0.785497 0.599016 0.500000
O O2 0.823129 0.630469 0.216858
O O3 0.709309 0.640548 0.280400
O O4 0.763174 0.500898 0.261956
O O5 0.881380 0.766110 0.755807
O O6 0.938166 0.632844 0.723465
O O7 0.899361 0.670857 0.000000
O O8 0.898211 0.079475 0.760900
O O9 0.882232 0.232570 0.778501
O O10 0.837814 0.140653 0.000000
O O11 0.247815 0.596889 0.500000
O O12 0.287055 0.640678 0.767448
O O13 0.171867 0.629429 0.728468
O O14 0.103013 0.077508 0.255682
O O15 0.140867 0.145877 0.000000
O O16 0.500000 0.500000 0.254880
O O17 0.434836 0.506236 0.000000
O O18 0.387266 0.202496 0.500000
O O19 0.443561 0.139326 0.748271
O O20 0.506743 0.917908 0.500000
O O21 0.500000 0.000000 0.242177
#
# Coordination Sequence:
#
# PCOD8227086 Si02
#       8
#     8   8   8   8   8   8   8   8
#     4  11  22  39  62  86 119 159 201 245 298 358
#     4  11  24  38  60  92 123 153 197 251 302 354
#     4  11  22  37  61  90 119 154 200 247 298 353
#     4  10  21  38  61  86 114 154 199 242 292 350
#     4  10  21  38  59  86 119 153 194 242 293 354
#     4   9  19  36  59  83 115 159 195 231 287 352
#     4  10  22  39  60  86 118 155 197 245 295 355
#     4  10  22  43  66  87 118 161 205 242 293 359
#
# _framework density 20.203681
#
# number of rings (size 3 to 8) (size 9 to 14) (size 15 to 20)
#    0.000    1.750    1.250    2.625    1.750    6.750 
#    0.000    1.250    0.000    1.875    0.000    0.000 
#    0.000    0.000    0.000    0.000    0.000    0.000 
#
# Total GULP energy -793906.846536 kJ/mol
# GULP energy per Si atom -12404.794477 kJ/mol
# Density = 2.015770 g / cm^3
# Si number density = 20.203681 Si / 1000 Ang^3
#
#
#
# Elastic Constant Matrix: (Units=GPa)
#
#
# Indices 1 2 3 4 5 6 
#
# 1 139.3361 61.0135 -1.8171 0.0000 0.0000 0.0000
# 2 61.0135 161.4687 15.2891 0.0000 0.0000 0.0000
# 3 -1.8171 15.2891 11.1486 0.0000 0.0000 0.0000
# 4 0.0000 0.0000 0.0000 24.2451 0.0000 0.0000
# 5 0.0000 0.0000 0.0000 0.0000 27.3500 0.0000
# 6 0.0000 0.0000 0.0000 0.0000 0.0000 37.2194
#
#
#
# Elastic Compliance Matrix: (Units=1/GPa)
#
#
# Indices 1 2 3 4 5 6 
#
# 1 0.009063 -0.004096 0.007095 0.000000 0.000000 0.000000
# 2 -0.004096 0.008969 -0.012968 0.000000 0.000000 0.000000
# 3 0.007095 -0.012968 0.108637 0.000000 0.000000 0.000000
# 4 0.000000 0.000000 0.000000 0.041245 0.000000 0.000000
# 5 0.000000 0.000000 0.000000 0.000000 0.036563 0.000000
# 6 0.000000 0.000000 0.000000 0.000000 0.000000 0.026868
#
#
# Mechanical properties :
#
#
# Convention : Reuss Voigt Hill
#
# Bulk Modulus (GPa) = 9.36934 51.21383 30.29158
# Shear Modulus (GPa) = 17.43008 33.59409 25.51209
#
# Velocity S-wave (km/s) = 2.94039 4.08213 3.55737
# Velocity P-wave (km/s) = 4.02186 6.90088 5.64790
#
# Compressibility (1/GPa) = 0.10673109
#
# Stress axis : x y z
#
# Youngs Moduli (GPa) = 110.33604 111.49581 9.20497
#
# Poissons Ratio (x) = 0.45674 -0.06531
# Poissons Ratio (y) = 0.45199 0.11937
# Poissons Ratio (z) = -0.78284 1.44583
#
# Static dielectric constant tensor:
#      x y z
#    x 3.773270 0.000000 0.000000 
#    y 0.000000 4.006860 0.000000 
#    z 0.000000 0.000000 3.360390 
# 
# 
# High freq. dielectric constant tensor:
#      x y z
#    x 1.800470 0.000000 0.000000 
#    y 0.000000 1.807650 0.000000 
#    z 0.000000 0.000000 1.765470 
# 
# From -- ./inp_files/9814.got.cif
#   From: 2010.03.12/outbox.cif.g09.slc.cpg/sg55_5_cif.got.tgz:9814.got - 2010.04.16 15:19:21.
