data_PCOD8227427
_publ_section_title
;
Structure prediction by ZEFSAII (Michael W. Deem and Ramdas Pophale) SiO2 
 PCOD8227427
Probable space group: P B A M
;
_chemical_formula_sum "Si O2"
_cell_formula_units_Z 52
_cell_length_a 11.380964
_cell_length_b 9.371533
_cell_length_c 23.362748
_cell_angle_alpha 90.000000
_cell_angle_beta 90.000000
_cell_angle_gamma 90.000000
_cell_volume 2491.802475
_symmetry_space_group_name_H-M "P B A M"
_symmetry_group_IT_number 55
_symmetry_cell_setting 'orthorhombic'
loop_
_space_group_symop_operation_xyz
x,y,z
-x,-y,z
1/2+x,1/2-y,-z
1/2-x,1/2+y,-z
-x,-y,-z
x,y,-z
1/2-x,1/2+y,z
1/2+x,1/2-y,z
loop_
_atom_site_type_symbol
_atom_site_label
_atom_site_fract_x
_atom_site_fract_y
_atom_site_fract_z
Si Si1 0.887427 0.415334 0.084671
Si Si2 0.500000 0.500000 0.694828
Si Si3 0.190483 0.056234 0.000000
Si Si4 0.970328 0.199000 0.000000
Si Si5 0.630786 0.998107 0.785257
Si Si6 0.204003 0.839129 0.371345
Si Si7 0.818532 0.788682 0.736611
Si Si8 0.628110 0.946231 0.567351
O O1 0.872458 0.427752 0.152283
O O2 0.000000 0.500000 0.062150
O O3 0.766785 0.468083 0.056751
O O4 0.915073 0.260512 0.058975
O O5 0.598820 0.570436 0.655748
O O6 0.560084 0.378870 0.735021
O O7 0.114491 0.205610 0.000000
O O8 0.080133 0.956844 0.000000
O O9 0.675194 0.163321 0.784801
O O10 0.500000 0.000000 0.758478
O O11 0.711842 0.897262 0.747163
O O12 0.296458 0.787097 0.323780
O O13 0.149793 0.706280 0.404328
O O14 0.273749 0.940012 0.414664
O O15 0.635905 0.925366 0.500000
O O16 0.500000 0.000000 0.586502
#
# Coordination Sequence:
#
# PCOD8227427 Si02
#       8
#     8   4   4   4   8   8   8   8
#     4  10  24  40  65  90 132 167 212 269 329 394
#     4  12  24  42  73 104 132 179 236 276 334 418
#     4  10  22  39  65  99 124 168 215 268 320 401
#     4  10  22  39  67  95 124 170 217 262 326 393
#     4  11  26  44  67  98 137 176 225 283 340 396
#     4  12  23  45  69 100 136 181 227 282 338 407
#     4  12  24  45  71  99 134 181 228 277 344 403
#     4  11  25  44  68 101 138 178 226 282 344 409
#
# _framework density 20.868428000000002
#
# number of rings (size 3 to 8) (size 9 to 14) (size 15 to 20)
#    0.000    0.923    3.077    3.231    6.462    2.462 
#    0.000    2.308    0.000    0.000    0.000    0.000 
#    0.000    0.000    0.000    0.000    0.000    0.000 
#
# Total GULP energy -644555.655538 kJ/mol
# GULP energy per Si atom -12395.301068 kJ/mol
# Density = 2.082093 g / cm^3
# Si number density = 20.868428 Si / 1000 Ang^3
#
#
#
# Elastic Constant Matrix: (Units=GPa)
#
#
# Indices 1 2 3 4 5 6 
#
# 1 124.1090 42.3938 28.1944 0.0000 0.0000 0.0000
# 2 42.3938 114.0553 32.4554 0.0000 0.0000 0.0000
# 3 28.1944 32.4554 81.8683 0.0000 0.0000 0.0000
# 4 0.0000 0.0000 0.0000 -119.3037 0.0000 0.0000
# 5 0.0000 0.0000 0.0000 0.0000 33.4858 0.0000
# 6 0.0000 0.0000 0.0000 0.0000 0.0000 47.9197
#
#
#
# Elastic Compliance Matrix: (Units=1/GPa)
#
#
# Indices 1 2 3 4 5 6 
#
# 1 0.009545 -0.002945 -0.002120 0.000000 0.000000 0.000000
# 2 -0.002945 0.010791 -0.003264 0.000000 0.000000 0.000000
# 3 -0.002120 -0.003264 0.014239 0.000000 0.000000 0.000000
# 4 0.000000 0.000000 0.000000 -0.008382 0.000000 0.000000
# 5 0.000000 0.000000 0.000000 0.000000 0.029863 0.000000
# 6 0.000000 0.000000 0.000000 0.000000 0.000000 0.020868
#
#
# Mechanical properties :
#
#
# Convention : Reuss Voigt Hill
#
# Bulk Modulus (GPa) = 55.80966 58.45777 57.13371
# Shear Modulus (GPa) = 50.22448 6.88629 28.55538
#
# Velocity S-wave (km/s) = 4.91116 1.81852 3.70314
# Velocity P-wave (km/s) = 7.67860 5.69936 6.76179
#
# Compressibility (1/GPa) = 0.01791805
#
# Stress axis : x y z
#
# Youngs Moduli (GPa) = 104.76894 92.67065 70.23138
#
# Poissons Ratio (x) = 0.27287 0.14888
# Poissons Ratio (y) = 0.30850 0.22922
# Poissons Ratio (z) = 0.22209 0.30246
#
# Static dielectric constant tensor:
#      x y z
#    x 4.044560 0.000000 0.000000 
#    y 0.000000 4.060070 0.000000 
#    z 0.000000 0.000000 3.588180 
# 
# 
# High freq. dielectric constant tensor:
#      x y z
#    x 1.840240 0.000000 0.000000 
#    y 0.000000 1.832760 0.000000 
#    z 0.000000 0.000000 1.803520 
# 
# From -- ./inp_files/23939.got.cif
#   From: 2010.03.12/outbox.cif.g09.slc.cpg/sg55_12_cif.got.tgz:23939.got - 2010.04.16 15:19:21.
