data_PCOD8227272
_publ_section_title
;
Structure prediction by ZEFSAII (Michael W. Deem and Ramdas Pophale) SiO2 
 PCOD8227272
Probable space group: P B A M
;
_chemical_formula_sum "Si O2"
_cell_formula_units_Z 48
_cell_length_a 9.838319
_cell_length_b 14.184682
_cell_length_c 17.139378
_cell_angle_alpha 90.000000
_cell_angle_beta 90.000000
_cell_angle_gamma 90.000000
_cell_volume 2391.858927
_symmetry_space_group_name_H-M "P B A M"
_symmetry_group_IT_number 55
_symmetry_cell_setting 'orthorhombic'
loop_
_space_group_symop_operation_xyz
x,y,z
-x,-y,z
1/2+x,1/2-y,-z
1/2-x,1/2+y,-z
-x,-y,-z
x,y,-z
1/2-x,1/2+y,z
1/2+x,1/2-y,z
loop_
_atom_site_type_symbol
_atom_site_label
_atom_site_fract_x
_atom_site_fract_y
_atom_site_fract_z
Si Si1 0.861192 0.130076 0.000000
Si Si2 0.978801 0.748766 0.234233
Si Si3 0.092705 0.909926 0.660692
Si Si4 0.635248 0.695970 0.500000
Si Si5 0.322001 0.589713 0.000000
Si Si6 0.900341 0.577918 0.666125
Si Si7 0.428938 0.856652 0.500000
Si Si8 0.720779 0.777803 0.127271
O O1 0.804768 0.183528 0.076163
O O2 0.024370 0.129003 0.000000
O O3 0.808379 0.022875 0.000000
O O4 0.942234 0.680847 0.305173
O O5 0.847372 0.764794 0.182972
O O6 0.033931 0.845410 0.270415
O O7 0.090600 0.700346 0.179677
O O8 0.090725 0.859134 0.577387
O O9 0.243464 0.942844 0.686426
O O10 0.000000 0.000000 0.653127
O O11 0.567462 0.797980 0.500000
O O12 0.797509 0.712950 0.500000
O O13 0.244941 0.629757 0.075331
O O14 0.921842 0.574800 0.573601
O O15 0.000000 0.500000 0.704418
#
# Coordination Sequence:
#
# PCOD8227272 Si02
#       8
#     4   8   8   4   4   8   4   8
#     4  10  22  43  70  97 124 165 214 249 310 388
#     4  12  24  42  64  94 136 168 211 260 325 381
#     4  11  25  41  64  94 128 173 221 269 325 382
#     4  10  21  40  64  91 123 169 225 273 321 378
#     4  10  22  43  72  95 122 169 211 252 310 378
#     4  11  25  41  63  95 129 171 221 271 325 379
#     4  10  21  40  64  89 125 171 223 271 323 378
#     4  11  24  42  66  98 131 164 204 267 313 375
#
# _framework density 20.068073999999999
#
# number of rings (size 3 to 8) (size 9 to 14) (size 15 to 20)
#    0.000    1.167    5.000    0.500    2.333    4.000 
#    0.000    0.833    0.000    0.000    0.000    0.000 
#    0.000    0.000    0.000    0.000    0.000    0.000 
#
# Total GULP energy -595341.994109 kJ/mol
# GULP energy per Si atom -12402.958211 kJ/mol
# Density = 2.002240 g / cm^3
# Si number density = 20.068074 Si / 1000 Ang^3
#
#
#
# Elastic Constant Matrix: (Units=GPa)
#
#
# Indices 1 2 3 4 5 6 
#
# 1 130.3750 18.8589 28.5840 0.0000 0.0000 0.0000
# 2 18.8589 66.4143 6.9450 0.0000 0.0000 0.0000
# 3 28.5840 6.9450 94.2758 0.0000 0.0000 0.0000
# 4 0.0000 0.0000 0.0000 36.6404 0.0000 0.0000
# 5 0.0000 0.0000 0.0000 0.0000 31.2904 0.0000
# 6 0.0000 0.0000 0.0000 0.0000 0.0000 35.9486
#
#
#
# Elastic Compliance Matrix: (Units=1/GPa)
#
#
# Indices 1 2 3 4 5 6 
#
# 1 0.008514 -0.002164 -0.002422 0.000000 0.000000 0.000000
# 2 -0.002164 0.015724 -0.000502 0.000000 0.000000 0.000000
# 3 -0.002422 -0.000502 0.011379 0.000000 0.000000 0.000000
# 4 0.000000 0.000000 0.000000 0.027292 0.000000 0.000000
# 5 0.000000 0.000000 0.000000 0.000000 0.031959 0.000000
# 6 0.000000 0.000000 0.000000 0.000000 0.000000 0.027817
#
#
# Mechanical properties :
#
#
# Convention : Reuss Voigt Hill
#
# Bulk Modulus (GPa) = 39.30854 44.42676 41.86765
# Shear Modulus (GPa) = 35.37507 36.55436 35.96472
#
# Velocity S-wave (km/s) = 4.20307 4.27255 4.23796
# Velocity P-wave (km/s) = 6.57149 6.82098 6.69740
#
# Compressibility (1/GPa) = 0.02543977
#
# Stress axis : x y z
#
# Youngs Moduli (GPa) = 117.44960 63.59658 87.88490
#
# Poissons Ratio (x) = 0.13765 0.21286
# Poissons Ratio (y) = 0.25421 0.04413
# Poissons Ratio (z) = 0.28447 0.03193
#
# Static dielectric constant tensor:
#      x y z
#    x 3.841020 0.000000 0.000000 
#    y 0.000000 3.427070 0.000000 
#    z 0.000000 0.000000 3.820070 
# 
# 
# High freq. dielectric constant tensor:
#      x y z
#    x 1.799910 0.000000 0.000000 
#    y 0.000000 1.772150 0.000000 
#    z 0.000000 0.000000 1.796420 
# 
# From -- ./inp_files/20865.got.cif
#   From: 2010.03.12/outbox.cif.g09.slc.cpg/sg55_11_cif.got.tgz:20865.got - 2010.04.16 15:19:21.
