data_PCOD8227918
_publ_section_title
;
Structure prediction by ZEFSAII (Michael W. Deem and Ramdas Pophale) SiO2 
 PCOD8227918
Probable space group: P C C N
;
_chemical_formula_sum "Si O2"
_cell_formula_units_Z 48
_cell_length_a 9.498113
_cell_length_b 12.111080
_cell_length_c 21.752245
_cell_angle_alpha 90.000000
_cell_angle_beta 90.000000
_cell_angle_gamma 90.000000
_cell_volume 2502.213087
_symmetry_space_group_name_H-M "P C C N"
_symmetry_group_IT_number 56
_symmetry_cell_setting 'orthorhombic'
loop_
_space_group_symop_operation_xyz
x,y,z
1/2-x,1/2-y,z
1/2+x,-y,1/2-z
-x,1/2+y,1/2-z
-x,-y,-z
1/2+x,1/2+y,-z
1/2-x,y,1/2+z
x,1/2-y,1/2+z
loop_
_atom_site_type_symbol
_atom_site_label
_atom_site_fract_x
_atom_site_fract_y
_atom_site_fract_z
Si Si1 0.549879 0.182915 0.589020
Si Si2 0.413567 0.722275 0.046811
Si Si3 0.646201 0.486323 0.883629
Si Si4 0.050995 0.927945 0.624315
Si Si5 0.238319 0.620877 0.226990
Si Si6 0.175479 0.604627 0.863727
O O1 0.517434 0.226758 0.520751
O O2 0.575251 0.286328 0.635433
O O3 0.696640 0.114297 0.587774
O O4 0.421076 0.108026 0.612626
O O5 0.250000 0.750000 0.044476
O O6 0.439809 0.599759 0.073887
O O7 0.486101 0.813557 0.090110
O O8 0.810827 0.488311 0.905462
O O9 0.640873 0.441473 0.813138
O O10 0.085628 0.910558 0.697303
O O11 0.913037 0.000142 0.615992
O O12 0.250000 0.750000 0.216801
O O13 0.253596 0.586474 0.297334
#
# Coordination Sequence:
#
# PCOD8227918 Si02
#       6
#     8   8   8   8   8   8
#     4  11  22  36  57  86 119 147 193 246 288 342
#     4  10  17  39  61  82 111 158 195 229 291 362
#     4   9  20  36  63  80 111 156 196 229 292 347
#     4   9  21  38  62  82 112 157 196 233 291 354
#     4  10  18  37  61  81 112 158 193 228 290 365
#     4  11  23  34  57  90 117 147 194 245 293 339
#
# _framework density 19.183019000000002
#
# number of rings (size 3 to 8) (size 9 to 14) (size 15 to 20)
#    1.000    1.000    5.000    0.500    2.333    1.333 
#    0.000    0.833    3.667    0.000    0.000    0.000 
#    0.000    0.000    0.000    0.000    0.000    0.000 
#
# Total GULP energy -594752.965955 kJ/mol
# GULP energy per Si atom -12390.686791 kJ/mol
# Density = 1.913936 g / cm^3
# Si number density = 19.183019 Si / 1000 Ang^3
#
#
#
# Elastic Constant Matrix: (Units=GPa)
#
#
# Indices 1 2 3 4 5 6 
#
# 1 37.7453 23.8608 16.7080 0.0000 0.0000 0.0000
# 2 23.8608 63.2819 30.5759 0.0000 0.0000 0.0000
# 3 16.7080 30.5759 106.4512 0.0000 0.0000 0.0000
# 4 0.0000 0.0000 0.0000 20.8057 0.0000 0.0000
# 5 0.0000 0.0000 0.0000 0.0000 14.2928 0.0000
# 6 0.0000 0.0000 0.0000 0.0000 0.0000 37.2210
#
#
#
# Elastic Compliance Matrix: (Units=1/GPa)
#
#
# Indices 1 2 3 4 5 6 
#
# 1 0.035142 -0.012291 -0.001985 0.000000 0.000000 0.000000
# 2 -0.012291 0.022648 -0.004576 0.000000 0.000000 0.000000
# 3 -0.001985 -0.004576 0.011020 0.000000 0.000000 0.000000
# 4 0.000000 0.000000 0.000000 0.048064 0.000000 0.000000
# 5 0.000000 0.000000 0.000000 0.000000 0.069965 0.000000
# 6 0.000000 0.000000 0.000000 0.000000 0.000000 0.026867
#
#
# Mechanical properties :
#
#
# Convention : Reuss Voigt Hill
#
# Bulk Modulus (GPa) = 32.14941 38.86308 35.50625
# Shear Modulus (GPa) = 19.10008 23.55280 21.32644
#
# Velocity S-wave (km/s) = 3.15886 3.50779 3.33789
# Velocity P-wave (km/s) = 5.48636 6.05881 5.77968
#
# Compressibility (1/GPa) = 0.03110477
#
# Stress axis : x y z
#
# Youngs Moduli (GPa) = 28.45581 44.15446 90.74481
#
# Poissons Ratio (x) = 0.54272 0.18015
# Poissons Ratio (y) = 0.34976 0.41524
# Poissons Ratio (z) = 0.05649 0.20205
#
# Static dielectric constant tensor:
#      x y z
#    x 3.098550 0.000000 0.000000 
#    y 0.000000 3.427130 0.000000 
#    z 0.000000 0.000000 3.622520 
# 
# 
# High freq. dielectric constant tensor:
#      x y z
#    x 1.705490 0.000000 0.000000 
#    y 0.000000 1.742860 0.000000 
#    z 0.000000 0.000000 1.745130 
# 
# From -- ./inp_files/20517.got.cif
#   From: 2010.03.12/outbox.cif.g09.slc.cpg/sg56_11_cif.got.tgz:20517.got - 2010.04.16 15:33:40.
