data_PCOD8227223
_publ_section_title
;
Structure prediction by ZEFSAII (Michael W. Deem and Ramdas Pophale) SiO2 
 PCOD8227223
Probable space group: P B A M
;
_chemical_formula_sum "Si O2"
_cell_formula_units_Z 56
_cell_length_a 21.787650
_cell_length_b 14.481247
_cell_length_c 8.930955
_cell_angle_alpha 90.000000
_cell_angle_beta 90.000000
_cell_angle_gamma 90.000000
_cell_volume 2817.826521
_symmetry_space_group_name_H-M "P B A M"
_symmetry_group_IT_number 55
_symmetry_cell_setting 'orthorhombic'
loop_
_space_group_symop_operation_xyz
x,y,z
-x,-y,z
1/2+x,1/2-y,-z
1/2-x,1/2+y,-z
-x,-y,-z
x,y,-z
1/2-x,1/2+y,z
1/2+x,1/2-y,z
loop_
_atom_site_type_symbol
_atom_site_label
_atom_site_fract_x
_atom_site_fract_y
_atom_site_fract_z
Si Si1 0.246056 0.385827 0.175829
Si Si2 0.394521 0.910983 0.172546
Si Si3 0.545014 0.421048 0.677886
Si Si4 0.490847 0.781214 0.322871
Si Si5 0.603624 0.877347 0.826342
Si Si6 0.317454 0.547752 0.672204
Si Si7 0.779695 0.301125 0.328486
O O1 0.175539 0.397986 0.223290
O O2 0.283161 0.475574 0.223697
O O3 0.275524 0.299015 0.257101
O O4 0.252577 0.372122 0.000000
O O5 0.435543 0.847603 0.277288
O O6 0.415233 0.016392 0.197167
O O7 0.404089 0.882157 0.000000
O O8 0.500000 0.500000 0.742368
O O9 0.544139 0.420890 0.500000
O O10 0.523046 0.321617 0.737093
O O11 0.613701 0.441421 0.734276
O O12 0.498060 0.783910 0.500000
O O13 0.554307 0.811868 0.250442
O O14 0.669805 0.861896 0.754956
O O15 0.607251 0.852121 0.000000
O O16 0.316109 0.513470 0.500000
O O17 0.285330 0.647361 0.686807
O O18 0.799678 0.289939 0.500000
#
# Coordination Sequence:
#
# PCOD8227223 Si02
#       7
#     8   8   8   8   8   8   8
#     4  11  23  39  62  91 124 164 205 250 310 373
#     4  10  22  41  62  87 124 168 204 246 311 374
#     4   9  20  39  61  87 123 161 200 248 308 366
#     4  11  23  38  62  93 123 161 210 259 308 364
#     4  11  23  41  62  88 125 163 205 254 315 379
#     4  10  21  39  64  91 120 160 204 255 307 360
#     4  11  23  39  61  92 125 160 209 261 314 367
#
# _framework density 19.873474000000002
#
# number of rings (size 3 to 8) (size 9 to 14) (size 15 to 20)
#    0.000    1.571    1.429    3.000    2.000    5.714 
#    0.000    1.429    0.000    2.143    0.000    0.000 
#    0.000    0.000    0.000    0.000    0.000    0.000 
#
# Total GULP energy -694708.914646 kJ/mol
# GULP energy per Si atom -12405.516333 kJ/mol
# Density = 1.982824 g / cm^3
# Si number density = 19.873474 Si / 1000 Ang^3
#
#
#
# Elastic Constant Matrix: (Units=GPa)
#
#
# Indices 1 2 3 4 5 6 
#
# 1 127.1925 38.3180 41.9141 0.0000 0.0000 0.0000
# 2 38.3180 95.3339 39.9189 0.0000 0.0000 0.0000
# 3 41.9141 39.9189 82.2465 0.0000 0.0000 0.0000
# 4 0.0000 0.0000 0.0000 25.4810 0.0000 0.0000
# 5 0.0000 0.0000 0.0000 0.0000 33.5433 0.0000
# 6 0.0000 0.0000 0.0000 0.0000 0.0000 16.6558
#
#
#
# Elastic Compliance Matrix: (Units=1/GPa)
#
#
# Indices 1 2 3 4 5 6 
#
# 1 0.009845 -0.002330 -0.003886 0.000000 0.000000 0.000000
# 2 -0.002330 0.013716 -0.005470 0.000000 0.000000 0.000000
# 3 -0.003886 -0.005470 0.016794 0.000000 0.000000 0.000000
# 4 0.000000 0.000000 0.000000 0.039245 0.000000 0.000000
# 5 0.000000 0.000000 0.000000 0.000000 0.029812 0.000000
# 6 0.000000 0.000000 0.000000 0.000000 0.000000 0.060039
#
#
# Mechanical properties :
#
#
# Convention : Reuss Voigt Hill
#
# Bulk Modulus (GPa) = 58.88251 60.56386 59.72318
# Shear Modulus (GPa) = 25.19094 27.44414 26.31754
#
# Velocity S-wave (km/s) = 3.56415 3.72014 3.64298
# Velocity P-wave (km/s) = 6.82866 6.99953 6.91462
#
# Compressibility (1/GPa) = 0.01698297
#
# Stress axis : x y z
#
# Youngs Moduli (GPa) = 101.57892 72.90619 59.54500
#
# Poissons Ratio (x) = 0.16984 0.23141
# Poissons Ratio (y) = 0.23664 0.32572
# Poissons Ratio (z) = 0.39476 0.39880
#
# Static dielectric constant tensor:
#      x y z
#    x 3.752370 0.000000 0.000000 
#    y 0.000000 3.716340 0.000000 
#    z 0.000000 0.000000 3.507880 
# 
# 
# High freq. dielectric constant tensor:
#      x y z
#    x 1.787880 0.000000 0.000000 
#    y 0.000000 1.785830 0.000000 
#    z 0.000000 0.000000 1.765620 
# 
# From -- ./inp_files/6178.got.cif
#   From: 2010.03.12/outbox.cif.g09.slc.cpg/sg55_4_cif.got.tgz:6178.got - 2010.04.16 15:19:21.
