data_PCOD8227935
_publ_section_title
;
Structure prediction by ZEFSAII (Michael W. Deem and Ramdas Pophale) SiO2 
 PCOD8227935
Probable space group: P C C N
;
_chemical_formula_sum "Si O2"
_cell_formula_units_Z 64
_cell_length_a 15.715805
_cell_length_b 11.286512
_cell_length_c 18.908685
_cell_angle_alpha 90.000000
_cell_angle_beta 90.000000
_cell_angle_gamma 90.000000
_cell_volume 3353.958667
_symmetry_space_group_name_H-M "P C C N"
_symmetry_group_IT_number 56
_symmetry_cell_setting 'orthorhombic'
loop_
_space_group_symop_operation_xyz
x,y,z
1/2-x,1/2-y,z
1/2+x,-y,1/2-z
-x,1/2+y,1/2-z
-x,-y,-z
1/2+x,1/2+y,-z
1/2-x,y,1/2+z
x,1/2-y,1/2+z
loop_
_atom_site_type_symbol
_atom_site_label
_atom_site_fract_x
_atom_site_fract_y
_atom_site_fract_z
Si Si1 0.096795 0.099492 0.142306
Si Si2 0.002682 0.874861 0.151611
Si Si3 0.294399 0.124245 0.772356
Si Si4 0.455536 0.750086 0.294256
Si Si5 0.366274 0.527532 0.780132
Si Si6 0.846069 0.710525 0.956105
Si Si7 0.954259 0.953172 0.365084
Si Si8 0.575843 0.849144 0.100434
O O1 0.181166 0.107240 0.190119
O O2 0.100939 0.173945 0.069579
O O3 0.028394 0.150670 0.197989
O O4 0.073709 0.964687 0.120684
O O5 0.042994 0.812697 0.219380
O O6 0.916066 0.946286 0.164503
O O7 0.977799 0.772126 0.097917
O O8 0.250000 0.250000 0.781603
O O9 0.230988 0.014600 0.786040
O O10 0.372827 0.121656 0.827540
O O11 0.473069 0.647616 0.351554
O O12 0.369750 0.831173 0.300597
O O13 0.412182 0.508726 0.704546
O O14 0.750000 0.750000 0.945200
O O15 0.874185 0.600659 0.907150
O O16 0.859593 0.665468 0.035641
O O17 0.004675 0.050027 0.411105
#
# Coordination Sequence:
#
# PCOD8227935 Si02
#       8
#     8   8   8   8   8   8   8   8
#     4  10  20  35  56  82 111 154 194 242 287 356
#     4  10  18  34  55  82 115 142 193 237 293 346
#     4  12  19  33  58  91 119 147 195 249 304 345
#     4   9  16  33  55  86 112 147 188 240 288 352
#     4  10  18  30  59  88 117 146 186 247 294 346
#     4  11  24  39  59  85 114 151 205 249 297 345
#     4  10  20  38  59  84 119 159 199 236 291 371
#     4  12  22  37  59  88 118 154 194 249 302 355
#
# _framework density 19.081928000000001
#
# number of rings (size 3 to 8) (size 9 to 14) (size 15 to 20)
#    0.000    1.500    3.750    4.875    0.000    0.500 
#    0.000    2.500    0.000    0.000    3.250    0.000 
#    0.000    0.000    0.000    0.000    0.000    0.000 
#
# Total GULP energy -792907.423047 kJ/mol
# GULP energy per Si atom -12389.178485 kJ/mol
# Density = 1.903850 g / cm^3
# Si number density = 19.081928 Si / 1000 Ang^3
#
#
#
# Elastic Constant Matrix: (Units=GPa)
#
#
# Indices 1 2 3 4 5 6 
#
# 1 70.8995 38.7384 22.8496 0.0000 0.0000 0.0000
# 2 38.7384 109.9182 26.2350 0.0000 0.0000 0.0000
# 3 22.8496 26.2350 61.2663 0.0000 0.0000 0.0000
# 4 0.0000 0.0000 0.0000 12.1811 0.0000 0.0000
# 5 0.0000 0.0000 0.0000 0.0000 21.0284 0.0000
# 6 0.0000 0.0000 0.0000 0.0000 0.0000 34.1892
#
#
#
# Elastic Compliance Matrix: (Units=1/GPa)
#
#
# Indices 1 2 3 4 5 6 
#
# 1 0.018559 -0.005445 -0.004590 0.000000 0.000000 0.000000
# 2 -0.005445 0.011731 -0.002993 0.000000 0.000000 0.000000
# 3 -0.004590 -0.002993 0.019315 0.000000 0.000000 0.000000
# 4 0.000000 0.000000 0.000000 0.082094 0.000000 0.000000
# 5 0.000000 0.000000 0.000000 0.000000 0.047555 0.000000
# 6 0.000000 0.000000 0.000000 0.000000 0.000000 0.029249
#
#
# Mechanical properties :
#
#
# Convention : Reuss Voigt Hill
#
# Bulk Modulus (GPa) = 42.46285 46.41446 44.43865
# Shear Modulus (GPa) = 20.62631 23.76380 22.19505
#
# Velocity S-wave (km/s) = 3.29132 3.53279 3.41419
# Velocity P-wave (km/s) = 6.06176 6.40448 6.23548
#
# Compressibility (1/GPa) = 0.02355000
#
# Stress axis : x y z
#
# Youngs Moduli (GPa) = 53.88252 85.24442 51.77195
#
# Poissons Ratio (x) = 0.46417 0.23763
# Poissons Ratio (y) = 0.29340 0.15493
# Poissons Ratio (z) = 0.24732 0.25510
#
# Static dielectric constant tensor:
#      x y z
#    x 3.419810 0.000000 0.000000 
#    y 0.000000 3.864670 0.000000 
#    z 0.000000 0.000000 3.367310 
# 
# 
# High freq. dielectric constant tensor:
#      x y z
#    x 1.724410 0.000000 0.000000 
#    y 0.000000 1.754380 0.000000 
#    z 0.000000 0.000000 1.713000 
# 
# From -- ./inp_files/16338.got.cif
#   From: 2010.03.12/outbox.cif.g09.slc.cpg/sg56_9_cif.got.tgz:16338.got - 2010.04.16 15:33:40.
