data_PCOD8227803
_publ_section_title
;
Structure prediction by ZEFSAII (Michael W. Deem and Ramdas Pophale) SiO2 
 PCOD8227803
Probable space group: P B A M
;
_chemical_formula_sum "Si O2"
_cell_formula_units_Z 48
_cell_length_a 9.397733
_cell_length_b 14.355856
_cell_length_c 17.844671
_cell_angle_alpha 90.000000
_cell_angle_beta 90.000000
_cell_angle_gamma 90.000000
_cell_volume 2407.469206
_symmetry_space_group_name_H-M "P B A M"
_symmetry_group_IT_number 55
_symmetry_cell_setting 'orthorhombic'
loop_
_space_group_symop_operation_xyz
x,y,z
-x,-y,z
1/2+x,1/2-y,-z
1/2-x,1/2+y,-z
-x,-y,-z
x,y,-z
1/2-x,1/2+y,z
1/2+x,1/2-y,z
loop_
_atom_site_type_symbol
_atom_site_label
_atom_site_fract_x
_atom_site_fract_y
_atom_site_fract_z
Si Si1 0.346473 0.618834 0.661892
Si Si2 0.860096 0.878476 0.500000
Si Si3 0.914793 0.402106 0.000000
Si Si4 0.829566 0.098478 0.500000
Si Si5 0.682131 0.593387 0.660303
Si Si6 0.487105 0.753642 0.118344
Si Si7 0.739425 0.735076 0.222437
Si Si8 0.924446 0.900387 0.000000
O O1 0.290004 0.655156 0.579233
O O2 0.516904 0.622645 0.662633
O O3 0.294188 0.514473 0.675945
O O4 0.276402 0.674154 0.729642
O O5 0.023028 0.844561 0.500000
O O6 0.862655 0.989489 0.500000
O O7 0.956955 0.342135 0.927557
O O8 0.000000 0.500000 0.000000
O O9 0.745164 0.417846 0.000000
O O10 0.750063 0.121686 0.421518
O O11 0.766972 0.646776 0.724563
O O12 0.578110 0.738850 0.193545
O O13 0.329668 0.776959 0.146885
O O14 0.477480 0.657965 0.071719
O O15 0.000000 0.000000 0.000000
#
# Coordination Sequence:
#
# PCOD8227803 Si02
#       8
#     8   4   4   4   8   8   8   4
#     4   9  18  33  55  83 115 160 209 248 299 353
#     4   7  12  27  50  77 112 151 204 261 288 337
#     4  11  26  46  71  97 121 157 199 239 298 364
#     4   7  12  27  50  79 108 151 210 255 289 342
#     4   9  18  33  56  81 116 161 206 251 299 353
#     4  11  26  44  62  91 131 153 195 250 297 360
#     4  12  22  38  60  90 124 160 193 250 303 354
#     4  11  26  46  73  95 117 161 201 237 298 366
#
# _framework density 19.937950000000001
#
# number of rings (size 3 to 8) (size 9 to 14) (size 15 to 20)
#    0.000    2.167    3.333    2.000    2.333    3.333 
#    0.000    0.000    0.000    0.000    0.000    3.500 
#    0.000    0.000    0.000    0.000    0.000    0.000 
#
# Total GULP energy -594706.660477 kJ/mol
# GULP energy per Si atom -12389.722093 kJ/mol
# Density = 1.989257 g / cm^3
# Si number density = 19.937950 Si / 1000 Ang^3
#
#
#
# Elastic Constant Matrix: (Units=GPa)
#
#
# Indices 1 2 3 4 5 6 
#
# 1 50.9421 41.4349 28.6233 0.0000 0.0000 0.0000
# 2 41.4349 118.0410 64.2986 0.0000 0.0000 0.0000
# 3 28.6233 64.2986 138.8572 0.0000 0.0000 0.0000
# 4 0.0000 0.0000 0.0000 28.9363 0.0000 0.0000
# 5 0.0000 0.0000 0.0000 0.0000 15.4579 0.0000
# 6 0.0000 0.0000 0.0000 0.0000 0.0000 27.1412
#
#
#
# Elastic Compliance Matrix: (Units=1/GPa)
#
#
# Indices 1 2 3 4 5 6 
#
# 1 0.027743 -0.008857 -0.001617 0.000000 0.000000 0.000000
# 2 -0.008857 0.014157 -0.004730 0.000000 0.000000 0.000000
# 3 -0.001617 -0.004730 0.009725 0.000000 0.000000 0.000000
# 4 0.000000 0.000000 0.000000 0.034559 0.000000 0.000000
# 5 0.000000 0.000000 0.000000 0.000000 0.064692 0.000000
# 6 0.000000 0.000000 0.000000 0.000000 0.000000 0.036844
#
#
# Mechanical properties :
#
#
# Convention : Reuss Voigt Hill
#
# Bulk Modulus (GPa) = 47.13312 64.06155 55.59733
# Shear Modulus (GPa) = 22.20233 25.87265 24.03749
#
# Velocity S-wave (km/s) = 3.34064 3.60621 3.47596
# Velocity P-wave (km/s) = 6.21056 7.03846 6.63743
#
# Compressibility (1/GPa) = 0.02121650
#
# Stress axis : x y z
#
# Youngs Moduli (GPa) = 36.04472 70.63573 102.82615
#
# Poissons Ratio (x) = 0.62566 0.16631
# Poissons Ratio (y) = 0.31927 0.48634
# Poissons Ratio (z) = 0.05830 0.33409
#
# Static dielectric constant tensor:
#      x y z
#    x 3.314670 0.000000 0.000000 
#    y 0.000000 3.454720 0.000000 
#    z 0.000000 0.000000 3.992910 
# 
# 
# High freq. dielectric constant tensor:
#      x y z
#    x 1.744860 0.000000 0.000000 
#    y 0.000000 1.767010 0.000000 
#    z 0.000000 0.000000 1.804250 
# 
# From -- ./inp_files/20876.got.cif
#   From: 2010.03.12/outbox.cif.g09.slc.cpg/sg55_11_cif.got.tgz:20876.got - 2010.04.16 15:19:21.
