data_PCOD8227585
_publ_section_title
;
Structure prediction by ZEFSAII (Michael W. Deem and Ramdas Pophale) SiO2 
 PCOD8227585
Probable space group: P B A M
;
_chemical_formula_sum "Si O2"
_cell_formula_units_Z 56
_cell_length_a 20.903677
_cell_length_b 14.775107
_cell_length_c 8.711362
_cell_angle_alpha 90.000000
_cell_angle_beta 90.000000
_cell_angle_gamma 90.000000
_cell_volume 2690.539560
_symmetry_space_group_name_H-M "P B A M"
_symmetry_group_IT_number 55
_symmetry_cell_setting 'orthorhombic'
loop_
_space_group_symop_operation_xyz
x,y,z
-x,-y,z
1/2+x,1/2-y,-z
1/2-x,1/2+y,-z
-x,-y,-z
x,y,-z
1/2-x,1/2+y,z
1/2+x,1/2-y,z
loop_
_atom_site_type_symbol
_atom_site_label
_atom_site_fract_x
_atom_site_fract_y
_atom_site_fract_z
Si Si1 0.901456 0.251616 0.680373
Si Si2 0.661145 0.174565 0.681284
Si Si3 0.530951 0.239439 0.179930
Si Si4 0.735584 0.822478 0.682218
Si Si5 0.268701 0.984283 0.172701
Si Si6 0.370018 0.430704 0.173126
Si Si7 0.445440 0.573882 0.672377
O O1 0.910597 0.262861 0.500000
O O2 0.835086 0.293897 0.740342
O O3 0.901251 0.145592 0.720617
O O4 0.962226 0.299647 0.762738
O O5 0.663583 0.173621 0.500000
O O6 0.589321 0.190444 0.736789
O O7 0.709790 0.252773 0.743682
O O8 0.678403 0.074248 0.739440
O O9 0.531866 0.344548 0.222549
O O10 0.537694 0.224412 0.000000
O O11 0.737199 0.823621 0.500000
O O12 0.748031 0.922109 0.744734
O O13 0.206116 0.921239 0.171929
O O14 0.292054 0.004524 0.000000
O O15 0.384509 0.528680 0.246469
O O16 0.397667 0.422866 0.000000
O O17 0.500000 0.500000 0.666298
O O18 0.427430 0.607528 0.500000
#
# Coordination Sequence:
#
# PCOD8227585 Si02
#       7
#     8   8   8   8   8   8   8
#     4  11  22  40  63  90 122 163 210 257 308 374
#     4  11  23  43  68  94 127 169 214 262 314 376
#     4  12  25  40  60  90 128 166 206 260 321 380
#     4  10  23  42  67  95 124 165 215 262 312 372
#     4  11  24  40  63  95 129 163 206 262 320 375
#     4  11  22  36  58  89 123 162 201 253 315 373
#     4  11  22  35  55  84 120 162 205 250 302 373
#
# _framework density 20.813666999999999
#
# number of rings (size 3 to 8) (size 9 to 14) (size 15 to 20)
#    0.000    1.000    2.857    4.286    0.000    6.857 
#    0.000    0.714    0.000    4.286    0.000    0.000 
#    0.000    0.000    0.000    0.000    0.000    0.000 
#
# Total GULP energy -694469.474886 kJ/mol
# GULP energy per Si atom -12401.240623 kJ/mol
# Density = 2.076629 g / cm^3
# Si number density = 20.813667 Si / 1000 Ang^3
#
#
#
# Elastic Constant Matrix: (Units=GPa)
#
#
# Indices 1 2 3 4 5 6 
#
# 1 116.3287 14.1786 24.5449 0.0000 0.0000 0.0000
# 2 14.1786 54.2867 11.9974 0.0000 0.0000 0.0000
# 3 24.5449 11.9974 42.7194 0.0000 0.0000 0.0000
# 4 0.0000 0.0000 0.0000 21.0834 0.0000 0.0000
# 5 0.0000 0.0000 0.0000 0.0000 31.8073 0.0000
# 6 0.0000 0.0000 0.0000 0.0000 0.0000 32.3089
#
#
#
# Elastic Compliance Matrix: (Units=1/GPa)
#
#
# Indices 1 2 3 4 5 6 
#
# 1 0.009883 -0.001414 -0.005281 0.000000 0.000000 0.000000
# 2 -0.001414 0.019842 -0.004760 0.000000 0.000000 0.000000
# 3 -0.005281 -0.004760 0.027780 0.000000 0.000000 0.000000
# 4 0.000000 0.000000 0.000000 0.047431 0.000000 0.000000
# 5 0.000000 0.000000 0.000000 0.000000 0.031439 0.000000
# 6 0.000000 0.000000 0.000000 0.000000 0.000000 0.030951
#
#
# Mechanical properties :
#
#
# Convention : Reuss Voigt Hill
#
# Bulk Modulus (GPa) = 28.90663 34.97519 31.94091
# Shear Modulus (GPa) = 24.78091 27.88084 26.33088
#
# Velocity S-wave (km/s) = 3.45426 3.66395 3.56065
# Velocity P-wave (km/s) = 5.46147 5.89405 5.68188
#
# Compressibility (1/GPa) = 0.03459413
#
# Stress axis : x y z
#
# Youngs Moduli (GPa) = 101.18373 50.39806 35.99735
#
# Poissons Ratio (x) = 0.07127 0.19011
# Poissons Ratio (y) = 0.14308 0.17135
# Poissons Ratio (z) = 0.53438 0.23990
#
# Static dielectric constant tensor:
#      x y z
#    x 4.080970 0.000000 0.000000 
#    y 0.000000 3.575740 0.000000 
#    z 0.000000 0.000000 3.860840 
# 
# 
# High freq. dielectric constant tensor:
#      x y z
#    x 1.827740 0.000000 0.000000 
#    y 0.000000 1.791670 0.000000 
#    z 0.000000 0.000000 1.820170 
# 
# From -- ./inp_files/8666.got.cif
#   From: 2010.03.12/outbox.cif.g09.slc.cpg/sg55_5_cif.got.tgz:8666.got - 2010.04.16 15:19:21.
