data_PCOD8227092
_publ_section_title
;
Structure prediction by ZEFSAII (Michael W. Deem and Ramdas Pophale) SiO2 
 PCOD8227092
Probable space group: P B A M
;
_chemical_formula_sum "Si O2"
_cell_formula_units_Z 48
_cell_length_a 8.837235
_cell_length_b 18.838432
_cell_length_c 14.698093
_cell_angle_alpha 90.000000
_cell_angle_beta 90.000000
_cell_angle_gamma 90.000000
_cell_volume 2446.933387
_symmetry_space_group_name_H-M "P B A M"
_symmetry_group_IT_number 55
_symmetry_cell_setting 'orthorhombic'
loop_
_space_group_symop_operation_xyz
x,y,z
-x,-y,z
1/2+x,1/2-y,-z
1/2-x,1/2+y,-z
-x,-y,-z
x,y,-z
1/2-x,1/2+y,z
1/2+x,1/2-y,z
loop_
_atom_site_type_symbol
_atom_site_label
_atom_site_fract_x
_atom_site_fract_y
_atom_site_fract_z
Si Si1 0.923740 0.574022 0.767439
Si Si2 0.081559 0.166367 0.106258
Si Si3 0.956428 0.665901 0.397781
Si Si4 0.071128 0.687017 0.893808
Si Si5 0.568251 0.574522 0.748377
Si Si6 0.105006 0.810405 0.602756
O O1 0.985801 0.600069 0.669326
O O2 0.744553 0.565317 0.768075
O O3 0.000000 0.500000 0.791981
O O4 0.966893 0.630199 0.844102
O O5 0.254651 0.179664 0.134780
O O6 0.982949 0.234624 0.133777
O O7 0.016658 0.099297 0.160366
O O8 0.067629 0.148790 0.000000
O O9 0.001467 0.642232 0.500000
O O10 0.784171 0.689810 0.392448
O O11 0.054415 0.732668 0.364142
O O12 0.046288 0.673973 0.000000
O O13 0.500000 0.500000 0.716416
O O14 0.534296 0.629897 0.667537
O O15 0.046336 0.824626 0.500000
#
# Coordination Sequence:
#
# PCOD8227092 Si02
#       6
#     8   8   8   8   8   8
#     4  11  23  37  55  80 112 148 184 225 273 325
#     4  10  21  38  60  84 110 142 181 225 272 323
#     4   9  19  36  57  81 108 140 180 224 270 321
#     4  10  21  38  60  84 110 142 181 225 272 323
#     4  11  23  37  55  80 112 148 184 225 273 325
#     4   9  19  36  57  81 108 140 180 224 270 321
#
# _framework density 19.616388000000001
#
# number of rings (size 3 to 8) (size 9 to 14) (size 15 to 20)
#    0.000    2.000    0.000    3.000    0.000    8.667 
#    0.000    0.000    0.000    0.000    0.000    0.000 
#    0.000    0.000    0.000    0.000    0.000    0.000 
#
# Total GULP energy -595442.422002 kJ/mol
# GULP energy per Si atom -12405.050458 kJ/mol
# Density = 1.957174 g / cm^3
# Si number density = 19.616388 Si / 1000 Ang^3
#
#
#
# Elastic Constant Matrix: (Units=GPa)
#
#
# Indices 1 2 3 4 5 6 
#
# 1 62.7772 8.2663 18.8331 0.0000 0.0000 0.0000
# 2 8.2663 51.7497 15.7230 0.0000 0.0000 0.0000
# 3 18.8331 15.7230 53.6757 0.0000 0.0000 0.0000
# 4 0.0000 0.0000 0.0000 19.2165 0.0000 0.0000
# 5 0.0000 0.0000 0.0000 0.0000 26.4549 0.0000
# 6 0.0000 0.0000 0.0000 0.0000 0.0000 34.4953
#
#
#
# Elastic Compliance Matrix: (Units=1/GPa)
#
#
# Indices 1 2 3 4 5 6 
#
# 1 0.017854 -0.001041 -0.005960 0.000000 0.000000 0.000000
# 2 -0.001041 0.021272 -0.005866 0.000000 0.000000 0.000000
# 3 -0.005960 -0.005866 0.022440 0.000000 0.000000 0.000000
# 4 0.000000 0.000000 0.000000 0.052039 0.000000 0.000000
# 5 0.000000 0.000000 0.000000 0.000000 0.037800 0.000000
# 6 0.000000 0.000000 0.000000 0.000000 0.000000 0.028989
#
#
# Mechanical properties :
#
#
# Convention : Reuss Voigt Hill
#
# Bulk Modulus (GPa) = 27.90724 28.20526 28.05625
# Shear Modulus (GPa) = 22.92820 24.39203 23.66011
#
# Velocity S-wave (km/s) = 3.42252 3.53009 3.47672
# Velocity P-wave (km/s) = 5.46586 5.57001 5.51818
#
# Compressibility (1/GPa) = 0.03583299
#
# Stress axis : x y z
#
# Youngs Moduli (GPa) = 56.00882 47.00944 44.56395
#
# Poissons Ratio (x) = 0.04895 0.26558
# Poissons Ratio (y) = 0.05832 0.26140
# Poissons Ratio (z) = 0.33378 0.27575
#
# Static dielectric constant tensor:
#      x y z
#    x 3.596380 0.000000 0.000000 
#    y 0.000000 3.481530 0.000000 
#    z 0.000000 0.000000 3.757660 
# 
# 
# High freq. dielectric constant tensor:
#      x y z
#    x 1.771030 0.000000 0.000000 
#    y 0.000000 1.758330 0.000000 
#    z 0.000000 0.000000 1.773200 
# 
# From -- ./inp_files/17306.got.cif
#   From: 2010.03.12/outbox.cif.g09.slc.cpg/sg55_9_cif.got.tgz:17306.got - 2010.04.16 15:19:21.
