data_PCOD8227696
_publ_section_title
;
Structure prediction by ZEFSAII (Michael W. Deem and Ramdas Pophale) SiO2 
 PCOD8227696
Probable space group: P B A M
;
_chemical_formula_sum "Si O2"
_cell_formula_units_Z 48
_cell_length_a 25.209450
_cell_length_b 10.606163
_cell_length_c 8.632604
_cell_angle_alpha 90.000000
_cell_angle_beta 90.000000
_cell_angle_gamma 90.000000
_cell_volume 2308.147120
_symmetry_space_group_name_H-M "P B A M"
_symmetry_group_IT_number 55
_symmetry_cell_setting 'orthorhombic'
loop_
_space_group_symop_operation_xyz
x,y,z
-x,-y,z
1/2+x,1/2-y,-z
1/2-x,1/2+y,-z
-x,-y,-z
x,y,-z
1/2-x,1/2+y,z
1/2+x,1/2-y,z
loop_
_atom_site_type_symbol
_atom_site_label
_atom_site_fract_x
_atom_site_fract_y
_atom_site_fract_z
Si Si1 0.707794 0.148191 0.184182
Si Si2 0.404979 0.748101 0.819871
Si Si3 0.507894 0.855832 0.331575
Si Si4 0.287102 0.136944 0.183565
Si Si5 0.102329 0.755004 0.178697
Si Si6 0.562117 0.496395 0.320635
O O1 0.648525 0.183552 0.237162
O O2 0.746161 0.258608 0.251555
O O3 0.722721 0.006799 0.246783
O O4 0.712105 0.148541 0.000000
O O5 0.453205 0.797680 0.720872
O O6 0.403869 0.599417 0.784750
O O7 0.414206 0.773942 0.000000
O O8 0.522837 0.794432 0.500000
O O9 0.553052 0.838615 0.202558
O O10 0.500000 0.000000 0.357168
O O11 0.345288 0.182361 0.234170
O O12 0.282012 0.132243 0.000000
O O13 0.091007 0.872475 0.288799
O O14 0.106433 0.796584 0.000000
O O15 0.500000 0.500000 0.269671
O O16 0.567081 0.459941 0.500000
#
# Coordination Sequence:
#
# PCOD8227696 Si02
#       6
#     8   8   8   8   8   8
#     4   9  19  35  57  88 124 156 191 244 306 359
#     4  11  22  36  60  90 118 151 200 253 300 353
#     4  11  23  38  57  82 117 163 199 237 302 369
#     4   9  19  35  57  88 124 156 191 244 306 359
#     4  11  22  36  60  90 118 151 200 253 300 353
#     4  11  23  39  59  85 122 162 196 239 302 369
#
# _framework density 20.7959
#
# number of rings (size 3 to 8) (size 9 to 14) (size 15 to 20)
#    0.000    1.667    1.667    3.000    2.333    3.333 
#    0.000    0.000    0.000    4.000    0.000    0.000 
#    0.000    0.000    0.000    0.000    0.000    0.000 
#
# Total GULP energy -595023.674175 kJ/mol
# GULP energy per Si atom -12396.326545 kJ/mol
# Density = 2.074857 g / cm^3
# Si number density = 20.795900 Si / 1000 Ang^3
#
#
#
# Elastic Constant Matrix: (Units=GPa)
#
#
# Indices 1 2 3 4 5 6 
#
# 1 108.1840 48.8763 10.6911 0.0000 0.0000 0.0000
# 2 48.8763 131.9967 13.1851 0.0000 0.0000 0.0000
# 3 10.6911 13.1851 37.0931 0.0000 0.0000 0.0000
# 4 0.0000 0.0000 0.0000 17.3515 0.0000 0.0000
# 5 0.0000 0.0000 0.0000 0.0000 5.3070 0.0000
# 6 0.0000 0.0000 0.0000 0.0000 0.0000 41.7952
#
#
#
# Elastic Compliance Matrix: (Units=1/GPa)
#
#
# Indices 1 2 3 4 5 6 
#
# 1 0.011218 -0.003972 -0.001821 0.000000 0.000000 0.000000
# 2 -0.003972 0.009261 -0.002147 0.000000 0.000000 0.000000
# 3 -0.001821 -0.002147 0.028247 0.000000 0.000000 0.000000
# 4 0.000000 0.000000 0.000000 0.057632 0.000000 0.000000
# 5 0.000000 0.000000 0.000000 0.000000 0.188430 0.000000
# 6 0.000000 0.000000 0.000000 0.000000 0.000000 0.023926
#
#
# Mechanical properties :
#
#
# Convention : Reuss Voigt Hill
#
# Bulk Modulus (GPa) = 30.44556 46.97542 38.71049
# Shear Modulus (GPa) = 14.46995 26.52551 20.49773
#
# Velocity S-wave (km/s) = 2.64068 3.57531 3.14293
# Velocity P-wave (km/s) = 4.89587 6.29934 5.64142
#
# Compressibility (1/GPa) = 0.03284551
#
# Stress axis : x y z
#
# Youngs Moduli (GPa) = 89.14268 107.97791 35.40151
#
# Poissons Ratio (x) = 0.42888 0.06448
# Poissons Ratio (y) = 0.35407 0.07601
# Poissons Ratio (z) = 0.16237 0.23185
#
# Static dielectric constant tensor:
#      x y z
#    x 3.906430 0.000000 0.000000 
#    y 0.000000 3.899240 0.000000 
#    z 0.000000 0.000000 3.440700 
# 
# 
# High freq. dielectric constant tensor:
#      x y z
#    x 1.812450 0.000000 0.000000 
#    y 0.000000 1.834360 0.000000 
#    z 0.000000 0.000000 1.781310 
# 
# From -- ./inp_files/10077.got.cif
#   From: 2010.03.12/outbox.cif.g09.slc.cpg/sg55_6_cif.got.tgz:10077.got - 2010.04.16 15:19:21.
