data_PCOD8227046
_publ_section_title
;
Structure prediction by ZEFSAII (Michael W. Deem and Ramdas Pophale) SiO2 
 PCOD8227046
Probable space group: P B A M
;
_chemical_formula_sum "Si O2"
_cell_formula_units_Z 52
_cell_length_a 16.046869
_cell_length_b 9.311335
_cell_length_c 17.219465
_cell_angle_alpha 90.000000
_cell_angle_beta 90.000000
_cell_angle_gamma 90.000000
_cell_volume 2572.894112
_symmetry_space_group_name_H-M "P B A M"
_symmetry_group_IT_number 55
_symmetry_cell_setting 'orthorhombic'
loop_
_space_group_symop_operation_xyz
x,y,z
-x,-y,z
1/2+x,1/2-y,-z
1/2-x,1/2+y,-z
-x,-y,-z
x,y,-z
1/2-x,1/2+y,z
1/2+x,1/2-y,z
loop_
_atom_site_type_symbol
_atom_site_label
_atom_site_fract_x
_atom_site_fract_y
_atom_site_fract_z
Si Si1 0.230477 0.604958 0.825996
Si Si2 0.336953 0.382898 0.910465
Si Si3 0.908630 0.520927 0.722858
Si Si4 0.337461 0.146956 0.412874
Si Si5 0.500000 0.500000 0.162668
Si Si6 0.833765 0.021866 0.586868
Si Si7 0.885603 0.843750 0.721501
O O1 0.276912 0.518116 0.894061
O O2 0.193450 0.751524 0.858553
O O3 0.155704 0.510680 0.791689
O O4 0.293468 0.636908 0.756169
O O5 0.432510 0.419913 0.890700
O O6 0.330640 0.340642 0.000000
O O7 0.902395 0.414935 0.649072
O O8 0.896283 0.682245 0.692513
O O9 0.000000 0.500000 0.758920
O O10 0.374515 0.133365 0.500000
O O11 0.319452 0.312257 0.391700
O O12 0.253304 0.058378 0.405844
O O13 0.455652 0.620063 0.215153
O O14 0.870567 0.004810 0.500000
O O15 0.897200 0.949920 0.647919
#
# Coordination Sequence:
#
# PCOD8227046 Si02
#       7
#     8   8   8   8   4   8   8
#     4  11  23  41  66  96 125 165 212 253 307 381
#     4  11  23  44  69  94 128 164 206 257 318 382
#     4  12  25  39  64  94 131 166 209 264 315 369
#     4  10  22  38  59  91 125 167 218 267 314 367
#     4  10  25  40  69  96 128 162 212 258 317 376
#     4  10  21  37  63  91 123 168 220 264 311 368
#     4  11  23  41  65  95 125 170 212 263 309 373
#
# _framework density 20.210705000000001
#
# number of rings (size 3 to 8) (size 9 to 14) (size 15 to 20)
#    0.000    1.231    3.077    2.538    6.462    2.154 
#    0.000    0.385    0.000    1.846    0.000    0.000 
#    0.000    0.000    0.000    0.000    0.000    0.000 
#
# Total GULP energy -645027.421096 kJ/mol
# GULP energy per Si atom -12404.373483 kJ/mol
# Density = 2.016470 g / cm^3
# Si number density = 20.210705 Si / 1000 Ang^3
#
#
#
# Elastic Constant Matrix: (Units=GPa)
#
#
# Indices 1 2 3 4 5 6 
#
# 1 101.7212 31.6750 32.4589 0.0000 0.0000 0.0000
# 2 31.6750 141.3211 39.1640 0.0000 0.0000 0.0000
# 3 32.4589 39.1640 104.6359 0.0000 0.0000 0.0000
# 4 0.0000 0.0000 0.0000 27.9549 0.0000 0.0000
# 5 0.0000 0.0000 0.0000 0.0000 18.2801 0.0000
# 6 0.0000 0.0000 0.0000 0.0000 0.0000 27.8635
#
#
#
# Elastic Compliance Matrix: (Units=1/GPa)
#
#
# Indices 1 2 3 4 5 6 
#
# 1 0.011281 -0.001739 -0.002849 0.000000 0.000000 0.000000
# 2 -0.001739 0.008163 -0.002516 0.000000 0.000000 0.000000
# 3 -0.002849 -0.002516 0.011382 0.000000 0.000000 0.000000
# 4 0.000000 0.000000 0.000000 0.035772 0.000000 0.000000
# 5 0.000000 0.000000 0.000000 0.000000 0.054704 0.000000
# 6 0.000000 0.000000 0.000000 0.000000 0.000000 0.035889
#
#
# Mechanical properties :
#
#
# Convention : Reuss Voigt Hill
#
# Bulk Modulus (GPa) = 60.17031 61.58600 60.87816
# Shear Modulus (GPa) = 28.25832 31.11173 29.68503
#
# Velocity S-wave (km/s) = 3.74329 3.92774 3.83662
# Velocity P-wave (km/s) = 6.96556 7.14896 7.05786
#
# Compressibility (1/GPa) = 0.01661949
#
# Stress axis : x y z
#
# Youngs Moduli (GPa) = 88.64207 122.50255 87.85584
#
# Poissons Ratio (x) = 0.21304 0.25027
# Poissons Ratio (y) = 0.15416 0.22103
# Poissons Ratio (z) = 0.25251 0.30820
#
# Static dielectric constant tensor:
#      x y z
#    x 3.602230 0.000000 0.000000 
#    y 0.000000 3.752300 0.000000 
#    z 0.000000 0.000000 3.690900 
# 
# 
# High freq. dielectric constant tensor:
#      x y z
#    x 1.783590 0.000000 0.000000 
#    y 0.000000 1.803190 0.000000 
#    z 0.000000 0.000000 1.787160 
# 
# From -- ./inp_files/21777.got.cif
#   From: 2010.03.12/outbox.cif.g09.slc.cpg/sg55_11_cif.got.tgz:21777.got - 2010.04.16 15:19:21.
