data_PCOD8227138
_publ_section_title
;
Structure prediction by ZEFSAII (Michael W. Deem and Ramdas Pophale) SiO2 
 PCOD8227138
Probable space group: P B A M
;
_chemical_formula_sum "Si O2"
_cell_formula_units_Z 64
_cell_length_a 11.977820
_cell_length_b 29.390851
_cell_length_c 9.160500
_cell_angle_alpha 90.000000
_cell_angle_beta 90.000000
_cell_angle_gamma 90.000000
_cell_volume 3224.847057
_symmetry_space_group_name_H-M "P B A M"
_symmetry_group_IT_number 55
_symmetry_cell_setting 'orthorhombic'
loop_
_space_group_symop_operation_xyz
x,y,z
-x,-y,z
1/2+x,1/2-y,-z
1/2-x,1/2+y,-z
-x,-y,-z
x,y,-z
1/2-x,1/2+y,z
1/2+x,1/2-y,z
loop_
_atom_site_type_symbol
_atom_site_label
_atom_site_fract_x
_atom_site_fract_y
_atom_site_fract_z
Si Si1 0.732531 0.835151 0.172533
Si Si2 0.788284 0.934408 0.827346
Si Si3 0.861754 0.160299 0.162801
Si Si4 0.738692 0.031975 0.827445
Si Si5 0.554805 0.275349 0.171238
Si Si6 0.487188 0.190057 0.331100
Si Si7 0.469633 0.433371 0.837821
Si Si8 0.664489 0.116089 0.667940
O O1 0.736225 0.887483 0.231901
O O2 0.845535 0.809162 0.217329
O O3 0.630976 0.810292 0.250962
O O4 0.711977 0.833401 0.000000
O O5 0.912065 0.942962 0.758286
O O6 0.711368 0.978852 0.791910
O O7 0.804188 0.928594 0.000000
O O8 0.761361 0.148902 0.270962
O O9 0.933068 0.204007 0.212595
O O10 0.953160 0.120535 0.159093
O O11 0.811593 0.167444 0.000000
O O12 0.654837 0.067204 0.749482
O O13 0.862840 0.042483 0.763303
O O14 0.732194 0.042124 0.000000
O O15 0.566152 0.228651 0.260428
O O16 0.562046 0.264879 0.000000
O O17 0.469060 0.201511 0.500000
O O18 0.547142 0.141384 0.310655
O O19 0.476097 0.453882 0.000000
O O20 0.691448 0.106734 0.500000
#
# Coordination Sequence:
#
# PCOD8227138 Si02
#       8
#     8   8   8   8   8   8   8   8
#     4  10  21  39  63  90 118 146 186 242 294 343
#     4   9  15  28  53  86 118 145 181 233 291 342
#     4   9  17  32  57  86 112 141 178 225 281 341
#     4   9  17  29  54  86 113 148 190 233 284 342
#     4  10  21  38  62  91 115 140 182 236 293 345
#     4  11  26  43  58  78 112 157 199 236 282 342
#     4   8  12  23  46  80 116 143 170 212 271 337
#     4  10  22  39  55  76 112 156 197 237 277 327
#
# _framework density 19.845901000000001
#
# number of rings (size 3 to 8) (size 9 to 14) (size 15 to 20)
#    0.000    2.500    1.250    1.875    1.750    4.500 
#    0.000    1.250    0.000    9.750    0.000    0.000 
#    0.000    0.000    0.000    0.000    0.000    0.000 
#
# Total GULP energy -793184.399086 kJ/mol
# GULP energy per Si atom -12393.506236 kJ/mol
# Density = 1.980073 g / cm^3
# Si number density = 19.845901 Si / 1000 Ang^3
#
#
#
# Elastic Constant Matrix: (Units=GPa)
#
#
# Indices 1 2 3 4 5 6 
#
# 1 61.0466 31.1699 33.3782 0.0000 0.0000 0.0000
# 2 31.1699 126.2816 42.1936 0.0000 0.0000 0.0000
# 3 33.3782 42.1936 64.3002 0.0000 0.0000 0.0000
# 4 0.0000 0.0000 0.0000 14.5035 0.0000 0.0000
# 5 0.0000 0.0000 0.0000 0.0000 9.9749 0.0000
# 6 0.0000 0.0000 0.0000 0.0000 0.0000 19.1202
#
#
#
# Elastic Compliance Matrix: (Units=1/GPa)
#
#
# Indices 1 2 3 4 5 6 
#
# 1 0.023338 -0.002194 -0.010675 0.000000 0.000000 0.000000
# 2 -0.002194 0.010349 -0.005652 0.000000 0.000000 0.000000
# 3 -0.010675 -0.005652 0.024802 0.000000 0.000000 0.000000
# 4 0.000000 0.000000 0.000000 0.068949 0.000000 0.000000
# 5 0.000000 0.000000 0.000000 0.000000 0.100252 0.000000
# 6 0.000000 0.000000 0.000000 0.000000 0.000000 0.052301
#
#
# Mechanical properties :
#
#
# Convention : Reuss Voigt Hill
#
# Bulk Modulus (GPa) = 46.62626 51.67909 49.15267
# Shear Modulus (GPa) = 15.42347 18.37883 16.90115
#
# Velocity S-wave (km/s) = 2.79079 3.04645 2.92142
# Velocity P-wave (km/s) = 5.82493 6.20252 6.01669
#
# Compressibility (1/GPa) = 0.02144714
#
# Stress axis : x y z
#
# Youngs Moduli (GPa) = 42.84888 96.62986 40.31853
#
# Poissons Ratio (x) = 0.21197 0.43041
# Poissons Ratio (y) = 0.09399 0.22789
# Poissons Ratio (z) = 0.45742 0.54617
#
# Static dielectric constant tensor:
#      x y z
#    x 3.383820 0.000000 0.000000 
#    y 0.000000 3.791770 0.000000 
#    z 0.000000 0.000000 3.203830 
# 
# 
# High freq. dielectric constant tensor:
#      x y z
#    x 1.756160 0.000000 0.000000 
#    y 0.000000 1.788780 0.000000 
#    z 0.000000 0.000000 1.726840 
# 
# From -- ./inp_files/4571.got.cif
#   From: 2010.03.12/outbox.cif.g09.slc.cpg/sg55_3_cif.got.tgz:4571.got - 2010.04.16 15:19:21.
