data_PCOD8227882
_publ_section_title
;
Structure prediction by ZEFSAII (Michael W. Deem and Ramdas Pophale) SiO2 
 PCOD8227882
Probable space group: P C C N
;
_chemical_formula_sum "Si O2"
_cell_formula_units_Z 56
_cell_length_a 9.491761
_cell_length_b 12.303814
_cell_length_c 26.997297
_cell_angle_alpha 90.000000
_cell_angle_beta 90.000000
_cell_angle_gamma 90.000000
_cell_volume 3152.875601
_symmetry_space_group_name_H-M "P C C N"
_symmetry_group_IT_number 56
_symmetry_cell_setting 'orthorhombic'
loop_
_space_group_symop_operation_xyz
x,y,z
1/2-x,1/2-y,z
1/2+x,-y,1/2-z
-x,1/2+y,1/2-z
-x,-y,-z
1/2+x,1/2+y,-z
1/2-x,y,1/2+z
x,1/2-y,1/2+z
loop_
_atom_site_type_symbol
_atom_site_label
_atom_site_fract_x
_atom_site_fract_y
_atom_site_fract_z
Si Si1 0.908014 0.018970 0.590492
Si Si2 0.959919 0.951925 0.695969
Si Si3 0.913692 0.774865 0.160211
Si Si4 0.155788 0.643933 0.371734
Si Si5 0.591172 0.779971 0.053798
Si Si6 0.082119 0.737815 0.959273
Si Si7 0.865743 0.508323 0.711484
O O1 0.746454 0.044076 0.605635
O O2 0.966603 0.117201 0.557223
O O3 0.991454 0.006472 0.642574
O O4 0.919216 0.910070 0.558523
O O5 0.982911 0.822076 0.691872
O O6 0.075251 0.997166 0.733503
O O7 0.802522 0.979471 0.714887
O O8 0.750000 0.750000 0.154231
O O9 0.969693 0.776762 0.103587
O O10 0.942154 0.887707 0.187234
O O11 0.250000 0.750000 0.358956
O O12 0.041901 0.679956 0.413742
O O13 0.088243 0.597406 0.321190
O O14 0.750000 0.750000 0.041042
O O15 0.496624 0.732653 0.009449
O O16 0.250000 0.750000 0.967478
#
# Coordination Sequence:
#
# PCOD8227882 Si02
#       7
#     8   8   8   8   8   8   8
#     4   8  16  32  49  65  92 129 157 181 227 291
#     4   9  18  31  51  71  91 123 161 191 229 279
#     4   8  17  32  48  67  96 127 155 186 232 288
#     4   8  16  30  48  69  94 124 156 185 226 284
#     4  10  17  30  51  71  89 121 162 193 224 275
#     4   9  18  32  48  69  95 124 153 190 234 275
#     4  10  18  33  50  70  95 126 155 192 234 274
#
# _framework density 17.761564
#
# number of rings (size 3 to 8) (size 9 to 14) (size 15 to 20)
#    0.000    3.429    0.000    3.000    0.000    3.429 
#    0.000   10.714    0.000    0.000    0.000    0.000 
#    0.000    0.000    0.000    0.000    0.000    0.000 
#
# Total GULP energy -693901.121950 kJ/mol
# GULP energy per Si atom -12391.091463 kJ/mol
# Density = 1.772114 g / cm^3
# Si number density = 17.761564 Si / 1000 Ang^3
#
#
#
# Elastic Constant Matrix: (Units=GPa)
#
#
# Indices 1 2 3 4 5 6 
#
# 1 37.1514 15.8928 38.3684 0.0000 0.0000 0.0000
# 2 15.8928 82.8028 53.2625 0.0000 0.0000 0.0000
# 3 38.3684 53.2625 128.4010 0.0000 0.0000 0.0000
# 4 0.0000 0.0000 0.0000 26.8187 0.0000 0.0000
# 5 0.0000 0.0000 0.0000 0.0000 33.4536 0.0000
# 6 0.0000 0.0000 0.0000 0.0000 0.0000 10.4538
#
#
#
# Elastic Compliance Matrix: (Units=1/GPa)
#
#
# Indices 1 2 3 4 5 6 
#
# 1 0.038931 0.000015 -0.011639 0.000000 0.000000 0.000000
# 2 0.000015 0.016472 -0.006837 0.000000 0.000000 0.000000
# 3 -0.011639 -0.006837 0.014102 0.000000 0.000000 0.000000
# 4 0.000000 0.000000 0.000000 0.037287 0.000000 0.000000
# 5 0.000000 0.000000 0.000000 0.000000 0.029892 0.000000
# 6 0.000000 0.000000 0.000000 0.000000 0.000000 0.095659
#
#
# Mechanical properties :
#
#
# Convention : Reuss Voigt Hill
#
# Bulk Modulus (GPa) = 30.69199 51.48919 41.09059
# Shear Modulus (GPa) = 17.84890 23.53398 20.69144
#
# Velocity S-wave (km/s) = 3.17348 3.64400 3.41685
# Velocity P-wave (km/s) = 5.54486 6.83791 6.22505
#
# Compressibility (1/GPa) = 0.03258180
#
# Stress axis : x y z
#
# Youngs Moduli (GPa) = 25.68625 60.70877 70.91018
#
# Poissons Ratio (x) = -0.00089 0.82536
# Poissons Ratio (y) = -0.00038 0.48483
# Poissons Ratio (z) = 0.29897 0.41508
#
# Static dielectric constant tensor:
#      x y z
#    x 2.750680 0.000000 0.000000 
#    y 0.000000 3.561530 0.000000 
#    z 0.000000 0.000000 3.396930 
# 
# 
# High freq. dielectric constant tensor:
#      x y z
#    x 1.626330 0.000000 0.000000 
#    y 0.000000 1.696790 0.000000 
#    z 0.000000 0.000000 1.697190 
# 
# From -- ./inp_files/20970.got.cif
#   From: 2010.03.12/outbox.cif.g09.slc.cpg/sg56_11_cif.got.tgz:20970.got - 2010.04.16 15:33:40.
