data_PCOD8227247
_publ_section_title
;
Structure prediction by ZEFSAII (Michael W. Deem and Ramdas Pophale) SiO2 
 PCOD8227247
Probable space group: P B A M
;
_chemical_formula_sum "Si O2"
_cell_formula_units_Z 56
_cell_length_a 15.169267
_cell_length_b 8.932687
_cell_length_c 22.099276
_cell_angle_alpha 90.000000
_cell_angle_beta 90.000000
_cell_angle_gamma 90.000000
_cell_volume 2994.503039
_symmetry_space_group_name_H-M "P B A M"
_symmetry_group_IT_number 55
_symmetry_cell_setting 'orthorhombic'
loop_
_space_group_symop_operation_xyz
x,y,z
-x,-y,z
1/2+x,1/2-y,-z
1/2-x,1/2+y,-z
-x,-y,-z
x,y,-z
1/2-x,1/2+y,z
1/2+x,1/2-y,z
loop_
_atom_site_type_symbol
_atom_site_label
_atom_site_fract_x
_atom_site_fract_y
_atom_site_fract_z
Si Si1 0.472037 0.671975 0.142279
Si Si2 0.677060 0.673596 0.431390
Si Si3 0.040430 0.163687 0.278368
Si Si4 0.005619 0.676428 0.390536
Si Si5 0.337286 0.657472 0.380975
Si Si6 0.809618 0.903917 0.930281
Si Si7 0.136350 0.760123 0.069937
O O1 0.500000 0.500000 0.139944
O O2 0.456430 0.728769 0.210694
O O3 0.380435 0.693568 0.106962
O O4 0.549634 0.768087 0.110686
O O5 0.712485 0.672700 0.500000
O O6 0.585205 0.761332 0.430264
O O7 0.665870 0.506410 0.408529
O O8 0.745076 0.759391 0.388234
O O9 0.138162 0.152252 0.309030
O O10 0.980817 0.274456 0.319959
O O11 0.000000 0.000000 0.278589
O O12 0.000000 0.500000 0.397090
O O13 0.914823 0.750179 0.415388
O O14 0.710155 0.860724 0.911313
O O15 0.821133 0.078477 0.917341
O O16 0.825635 0.862678 0.000000
O O17 0.107966 0.745040 0.000000
#
# Coordination Sequence:
#
# PCOD8227247 Si02
#       7
#     8   8   8   8   8   8   8
#     4   9  17  32  56  78 104 147 195 227 266 332
#     4  12  23  38  63  89 115 148 186 230 283 346
#     4   9  18  40  58  77 110 150 190 232 281 334
#     4  10  21  40  60  82 116 152 185 231 284 330
#     4  10  22  40  57  88 116 147 185 232 282 335
#     4   9  17  31  50  78 110 143 184 230 280 325
#     4   9  17  31  52  79 111 144 181 231 280 326
#
# _framework density 18.700932999999999
#
# number of rings (size 3 to 8) (size 9 to 14) (size 15 to 20)
#    0.857    1.429    1.429    2.143    0.000    3.714 
#    2.571    2.143    0.000    3.429    0.000    0.000 
#    0.000    0.000    0.000    0.000    0.000    0.000 
#
# Total GULP energy -694134.865052 kJ/mol
# GULP energy per Si atom -12395.265447 kJ/mol
# Density = 1.865837 g / cm^3
# Si number density = 18.700933 Si / 1000 Ang^3
#
#
#
# Elastic Constant Matrix: (Units=GPa)
#
#
# Indices 1 2 3 4 5 6 
#
# 1 77.5761 32.9746 29.1646 0.0000 0.0000 0.0000
# 2 32.9746 97.9449 20.6806 0.0000 0.0000 0.0000
# 3 29.1646 20.6806 101.3993 0.0000 0.0000 0.0000
# 4 0.0000 0.0000 0.0000 10.4678 0.0000 0.0000
# 5 0.0000 0.0000 0.0000 0.0000 21.9053 0.0000
# 6 0.0000 0.0000 0.0000 0.0000 0.0000 34.3747
#
#
#
# Elastic Compliance Matrix: (Units=1/GPa)
#
#
# Indices 1 2 3 4 5 6 
#
# 1 0.016288 -0.004697 -0.003727 0.000000 0.000000 0.000000
# 2 -0.004697 0.012024 -0.001101 0.000000 0.000000 0.000000
# 3 -0.003727 -0.001101 0.011159 0.000000 0.000000 0.000000
# 4 0.000000 0.000000 0.000000 0.095531 0.000000 0.000000
# 5 0.000000 0.000000 0.000000 0.000000 0.045651 0.000000
# 6 0.000000 0.000000 0.000000 0.000000 0.000000 0.029091
#
#
# Mechanical properties :
#
#
# Convention : Reuss Voigt Hill
#
# Bulk Modulus (GPa) = 48.97088 49.17332 49.07210
# Shear Modulus (GPa) = 21.22240 26.28958 23.75599
#
# Velocity S-wave (km/s) = 3.37238 3.75345 3.56801
# Velocity P-wave (km/s) = 6.43484 6.71835 6.57812
#
# Compressibility (1/GPa) = 0.02042030
#
# Stress axis : x y z
#
# Youngs Moduli (GPa) = 61.39457 83.16989 89.61725
#
# Poissons Ratio (x) = 0.39062 0.33400
# Poissons Ratio (y) = 0.28835 0.09870
# Poissons Ratio (z) = 0.22881 0.09160
#
# Static dielectric constant tensor:
#      x y z
#    x 3.283720 0.000000 0.000000 
#    y 0.000000 3.247810 0.000000 
#    z 0.000000 0.000000 3.488650 
# 
# 
# High freq. dielectric constant tensor:
#      x y z
#    x 1.725320 0.000000 0.000000 
#    y 0.000000 1.713680 0.000000 
#    z 0.000000 0.000000 1.715460 
# 
# From -- ./inp_files/22985.got.cif
#   From: 2010.03.12/outbox.cif.g09.slc.cpg/sg55_12_cif.got.tgz:22985.got - 2010.04.16 15:19:21.
