data_PCOD8227232
_publ_section_title
;
Structure prediction by ZEFSAII (Michael W. Deem and Ramdas Pophale) SiO2 
 PCOD8227232
Probable space group: P B A M
;
_chemical_formula_sum "Si O2"
_cell_formula_units_Z 56
_cell_length_a 14.748768
_cell_length_b 11.734970
_cell_length_c 15.162650
_cell_angle_alpha 90.000000
_cell_angle_beta 90.000000
_cell_angle_gamma 90.000000
_cell_volume 2624.296119
_symmetry_space_group_name_H-M "P B A M"
_symmetry_group_IT_number 55
_symmetry_cell_setting 'orthorhombic'
loop_
_space_group_symop_operation_xyz
x,y,z
-x,-y,z
1/2+x,1/2-y,-z
1/2-x,1/2+y,-z
-x,-y,-z
x,y,-z
1/2-x,1/2+y,z
1/2+x,1/2-y,z
loop_
_atom_site_type_symbol
_atom_site_label
_atom_site_fract_x
_atom_site_fract_y
_atom_site_fract_z
Si Si1 0.740361 0.926171 0.899406
Si Si2 0.441920 0.659998 0.361715
Si Si3 0.725783 0.091304 0.261250
Si Si4 0.912224 0.574075 0.599299
Si Si5 0.108742 0.216120 0.819662
Si Si6 0.864954 0.066806 0.595823
Si Si7 0.963379 0.381444 0.897975
O O1 0.830320 0.848542 0.892459
O O2 0.644168 0.862357 0.879870
O O3 0.751394 0.024050 0.827197
O O4 0.737411 0.975163 0.000000
O O5 0.425903 0.790638 0.388585
O O6 0.435821 0.638245 0.255914
O O7 0.368388 0.571623 0.401032
O O8 0.537491 0.623560 0.399473
O O9 0.658783 0.025209 0.328969
O O10 0.680860 0.206894 0.230835
O O11 0.812327 0.120100 0.321122
O O12 0.877458 0.551133 0.500000
O O13 0.000000 0.500000 0.618832
O O14 0.023317 0.279125 0.861782
O O15 0.822371 0.099945 0.500000
O O16 0.000000 0.500000 0.854867
O O17 0.984418 0.386187 0.000000
#
# Coordination Sequence:
#
# PCOD8227232 Si02
#       7
#     8   8   8   8   8   8   8
#     4  11  24  42  64  93 128 167 214 265 325 389
#     4  10  22  39  65  92 123 168 212 259 312 382
#     4  11  24  38  62  94 122 164 209 264 314 373
#     4  10  22  40  62  93 130 163 203 259 322 374
#     4  11  23  39  65  93 133 160 211 276 319 384
#     4  11  22  42  66  89 127 170 218 259 310 384
#     4  10  21  39  65  91 120 167 217 262 325 392
#
# _framework density 21.339054000000001
#
# number of rings (size 3 to 8) (size 9 to 14) (size 15 to 20)
#    0.000    1.429    2.857    2.571    6.000    0.571 
#    0.000    0.000    0.000    0.857    0.000    0.000 
#    0.000    0.000    0.000    0.000    0.000    0.000 
#
# Total GULP energy -693839.248161 kJ/mol
# GULP energy per Si atom -12389.986574 kJ/mol
# Density = 2.129049 g / cm^3
# Si number density = 21.339054 Si / 1000 Ang^3
#
#
#
# Elastic Constant Matrix: (Units=GPa)
#
#
# Indices 1 2 3 4 5 6 
#
# 1 54.9920 6.4807 32.4133 0.0000 0.0000 0.0000
# 2 6.4807 40.5395 16.4226 0.0000 0.0000 0.0000
# 3 32.4133 16.4226 137.4954 0.0000 0.0000 0.0000
# 4 0.0000 0.0000 0.0000 15.1076 0.0000 0.0000
# 5 0.0000 0.0000 0.0000 0.0000 60.4967 0.0000
# 6 0.0000 0.0000 0.0000 0.0000 0.0000 25.3003
#
#
#
# Elastic Compliance Matrix: (Units=1/GPa)
#
#
# Indices 1 2 3 4 5 6 
#
# 1 0.021198 -0.001434 -0.004826 0.000000 0.000000 0.000000
# 2 -0.001434 0.026019 -0.002770 0.000000 0.000000 0.000000
# 3 -0.004826 -0.002770 0.008741 0.000000 0.000000 0.000000
# 4 0.000000 0.000000 0.000000 0.066192 0.000000 0.000000
# 5 0.000000 0.000000 0.000000 0.000000 0.016530 0.000000
# 6 0.000000 0.000000 0.000000 0.000000 0.000000 0.039525
#
#
# Mechanical properties :
#
#
# Convention : Reuss Voigt Hill
#
# Bulk Modulus (GPa) = 26.38583 38.18446 32.28514
# Shear Modulus (GPa) = 23.93527 32.02827 27.98177
#
# Velocity S-wave (km/s) = 3.35276 3.87838 3.62511
# Velocity P-wave (km/s) = 5.23258 6.16350 5.71702
#
# Compressibility (1/GPa) = 0.03789914
#
# Stress axis : x y z
#
# Youngs Moduli (GPa) = 47.17437 38.43418 114.39728
#
# Poissons Ratio (x) = 0.05510 0.55208
# Poissons Ratio (y) = 0.06763 0.31685
# Poissons Ratio (z) = 0.22766 0.10645
#
# Static dielectric constant tensor:
#      x y z
#    x 3.980490 0.000000 0.000000 
#    y 0.000000 3.724720 0.000000 
#    z 0.000000 0.000000 4.225770 
# 
# 
# High freq. dielectric constant tensor:
#      x y z
#    x 1.839080 0.000000 0.000000 
#    y 0.000000 1.808590 0.000000 
#    z 0.000000 0.000000 1.860900 
# 
# From -- ./inp_files/18358.got.cif
#   From: 2010.03.12/outbox.cif.g09.slc.cpg/sg55_10_cif.got.tgz:18358.got - 2010.04.16 15:19:21.
