data_PCOD8227869
_publ_section_title
;
Structure prediction by ZEFSAII (Michael W. Deem and Ramdas Pophale) SiO2 
 PCOD8227869
Probable space group: P C C N
;
_chemical_formula_sum "Si O2"
_cell_formula_units_Z 40
_cell_length_a 12.887970
_cell_length_b 28.003025
_cell_length_c 5.357416
_cell_angle_alpha 90.000000
_cell_angle_beta 90.000000
_cell_angle_gamma 90.000000
_cell_volume 1933.502932
_symmetry_space_group_name_H-M "P C C N"
_symmetry_group_IT_number 56
_symmetry_cell_setting 'orthorhombic'
loop_
_space_group_symop_operation_xyz
x,y,z
1/2-x,1/2-y,z
1/2+x,-y,1/2-z
-x,1/2+y,1/2-z
-x,-y,-z
1/2+x,1/2+y,-z
1/2-x,y,1/2+z
x,1/2-y,1/2+z
loop_
_atom_site_type_symbol
_atom_site_label
_atom_site_fract_x
_atom_site_fract_y
_atom_site_fract_z
Si Si1 0.134659 0.269933 0.066332
Si Si2 0.013750 0.048474 0.652189
Si Si3 0.785051 0.416025 0.163579
Si Si4 0.315573 0.121191 0.063443
Si Si5 0.801805 0.519695 0.596557
O O1 0.250000 0.250000 0.097672
O O2 0.077594 0.246617 0.823932
O O3 0.136208 0.326466 0.039558
O O4 0.084876 0.087080 0.510963
O O5 0.075936 0.031961 0.904565
O O6 0.904002 0.071687 0.718928
O O7 0.000000 0.000000 0.500000
O O8 0.733820 0.387857 0.400245
O O9 0.717576 0.463411 0.100318
O O10 0.271817 0.113714 0.348694
O O11 0.747014 0.542644 0.354060
#
# Coordination Sequence:
#
# PCOD8227869 Si02
#       5
#     8   8   8   8   8
#     4  10  16  34  61  83 119 154 171 232 307 358
#     4  12  24  38  56  79 114 156 203 244 279 344
#     4  10  22  37  53  69  95 143 191 234 284 314
#     4  12  24  38  58  92 120 157 200 233 294 364
#     4  10  20  36  52  70  97 141 188 229 281 319
#
# _framework density 20.687839
#
# number of rings (size 3 to 8) (size 9 to 14) (size 15 to 20)
#    0.000    1.200    8.000    1.200    0.000    6.400 
#    0.000    0.000    0.000    0.000    0.000    0.000 
#    0.000    4.800    0.000    0.000    0.000    0.000 
#
# Total GULP energy -495535.478472 kJ/mol
# GULP energy per Si atom -12388.386962 kJ/mol
# Density = 2.064075 g / cm^3
# Si number density = 20.687839 Si / 1000 Ang^3
#
#
#
# Elastic Constant Matrix: (Units=GPa)
#
#
# Indices 1 2 3 4 5 6 
#
# 1 95.3457 20.7207 23.7501 0.0000 0.0000 0.0000
# 2 20.7207 96.3260 19.0182 0.0000 0.0000 0.0000
# 3 23.7501 19.0182 160.9518 0.0000 0.0000 0.0000
# 4 0.0000 0.0000 0.0000 25.5643 0.0000 0.0000
# 5 0.0000 0.0000 0.0000 0.0000 25.7209 0.0000
# 6 0.0000 0.0000 0.0000 0.0000 0.0000 17.1064
#
#
#
# Elastic Compliance Matrix: (Units=1/GPa)
#
#
# Indices 1 2 3 4 5 6 
#
# 1 0.011308 -0.002153 -0.001414 0.000000 0.000000 0.000000
# 2 -0.002153 0.011039 -0.000987 0.000000 0.000000 0.000000
# 3 -0.001414 -0.000987 0.006538 0.000000 0.000000 0.000000
# 4 0.000000 0.000000 0.000000 0.039117 0.000000 0.000000
# 5 0.000000 0.000000 0.000000 0.000000 0.038879 0.000000
# 6 0.000000 0.000000 0.000000 0.000000 0.000000 0.058458
#
#
# Mechanical properties :
#
#
# Convention : Reuss Voigt Hill
#
# Bulk Modulus (GPa) = 50.56216 53.28906 51.92561
# Shear Modulus (GPa) = 27.61811 32.95396 30.28603
#
# Velocity S-wave (km/s) = 3.65772 3.99546 3.83032
# Velocity P-wave (km/s) = 6.50631 6.86291 6.68699
#
# Compressibility (1/GPa) = 0.01977764
#
# Stress axis : x y z
#
# Youngs Moduli (GPa) = 88.42985 90.58444 152.94461
#
# Poissons Ratio (x) = 0.19506 0.21630
# Poissons Ratio (y) = 0.19042 0.15091
# Poissons Ratio (z) = 0.12506 0.08938
#
# Static dielectric constant tensor:
#      x y z
#    x 3.620200 0.000000 0.000000 
#    y 0.000000 3.631580 0.000000 
#    z 0.000000 0.000000 5.321550 
# 
# 
# High freq. dielectric constant tensor:
#      x y z
#    x 1.769040 0.000000 0.000000 
#    y 0.000000 1.775680 0.000000 
#    z 0.000000 0.000000 1.843850 
# 
# From -- ./inp_files/298.got.cif
#   From: 2010.03.12/outbox.cif.g09.slc.cpg/sg56_1_cif.got.tgz:298.got - 2010.04.16 15:33:40.
