data_PCOD8227492
_publ_section_title
;
Structure prediction by ZEFSAII (Michael W. Deem and Ramdas Pophale) SiO2 
 PCOD8227492
Probable space group: P B A M
;
_chemical_formula_sum "Si O2"
_cell_formula_units_Z 48
_cell_length_a 15.372436
_cell_length_b 10.591902
_cell_length_c 14.495589
_cell_angle_alpha 90.000000
_cell_angle_beta 90.000000
_cell_angle_gamma 90.000000
_cell_volume 2360.220153
_symmetry_space_group_name_H-M "P B A M"
_symmetry_group_IT_number 55
_symmetry_cell_setting 'orthorhombic'
loop_
_space_group_symop_operation_xyz
x,y,z
-x,-y,z
1/2+x,1/2-y,-z
1/2-x,1/2+y,-z
-x,-y,-z
x,y,-z
1/2-x,1/2+y,z
1/2+x,1/2-y,z
loop_
_atom_site_type_symbol
_atom_site_label
_atom_site_fract_x
_atom_site_fract_y
_atom_site_fract_z
Si Si1 0.377265 0.026597 0.809160
Si Si2 0.323253 0.773764 0.391495
Si Si3 0.071621 0.911329 0.826764
Si Si4 0.676119 0.914718 0.000000
Si Si5 0.716221 0.494493 0.304352
Si Si6 0.189120 0.858141 0.000000
Si Si7 0.475621 0.816274 0.260338
O O1 0.277833 0.043365 0.780572
O O2 0.438512 0.094828 0.732418
O O3 0.406444 0.880140 0.810717
O O4 0.387352 0.082704 0.911497
O O5 0.327286 0.785094 0.500000
O O6 0.292082 0.631445 0.366631
O O7 0.421954 0.796628 0.355158
O O8 0.256527 0.883250 0.356743
O O9 0.008344 0.810983 0.781729
O O10 0.124191 0.971335 0.741029
O O11 0.133565 0.863099 0.906899
O O12 0.000000 0.000000 0.873751
O O13 0.738915 0.034756 0.000000
O O14 0.730459 0.783067 0.000000
#
# Coordination Sequence:
#
# PCOD8227492 Si02
#       7
#     8   8   8   4   8   4   8
#     4  10  22  41  66  94 133 178 226 257 327 391
#     4  11  24  44  69 101 129 168 223 279 340 405
#     4  12  23  42  65  98 135 175 220 271 330 391
#     4  12  24  40  67 100 134 179 230 272 309 399
#     4  11  23  42  72  93 134 175 216 271 343 399
#     4  12  27  39  66 101 138 175 234 271 319 385
#     4  10  22  41  65  96 128 176 212 277 330 391
#
# _framework density 20.337085999999999
#
# number of rings (size 3 to 8) (size 9 to 14) (size 15 to 20)
#    0.000    1.000    5.000    1.750    0.000    3.333 
#    0.000   11.667    0.000    0.000    0.000    0.000 
#    0.000    0.000    0.000    0.000    0.000    0.000 
#
# Total GULP energy -594633.788396 kJ/mol
# GULP energy per Si atom -12388.203925 kJ/mol
# Density = 2.029080 g / cm^3
# Si number density = 20.337086 Si / 1000 Ang^3
#
#
#
# Elastic Constant Matrix: (Units=GPa)
#
#
# Indices 1 2 3 4 5 6 
#
# 1 94.6865 50.5476 34.0329 0.0000 0.0000 0.0000
# 2 50.5476 132.6970 48.6302 0.0000 0.0000 0.0000
# 3 34.0329 48.6302 117.2667 0.0000 0.0000 0.0000
# 4 0.0000 0.0000 0.0000 15.9463 0.0000 0.0000
# 5 0.0000 0.0000 0.0000 0.0000 199.9552 0.0000
# 6 0.0000 0.0000 0.0000 0.0000 0.0000 37.6778
#
#
#
# Elastic Compliance Matrix: (Units=1/GPa)
#
#
# Indices 1 2 3 4 5 6 
#
# 1 0.013696 -0.004434 -0.002136 0.000000 0.000000 0.000000
# 2 -0.004434 0.010322 -0.002994 0.000000 0.000000 0.000000
# 3 -0.002136 -0.002994 0.010389 0.000000 0.000000 0.000000
# 4 0.000000 0.000000 0.000000 0.062711 0.000000 0.000000
# 5 0.000000 0.000000 0.000000 0.000000 0.005001 0.000000
# 6 0.000000 0.000000 0.000000 0.000000 0.000000 0.026541
#
#
# Mechanical properties :
#
#
# Convention : Reuss Voigt Hill
#
# Bulk Modulus (GPa) = 65.44807 67.89684 66.67245
# Shear Modulus (GPa) = 32.70516 64.81182 48.75849
#
# Velocity S-wave (km/s) = 4.01453 5.65137 4.90176
# Velocity P-wave (km/s) = 7.33076 8.72022 8.05550
#
# Compressibility (1/GPa) = 0.01527929
#
# Stress axis : x y z
#
# Youngs Moduli (GPa) = 73.01312 96.87800 96.25641
#
# Poissons Ratio (x) = 0.42960 0.20560
# Poissons Ratio (y) = 0.32377 0.28816
# Poissons Ratio (z) = 0.15595 0.29002
#
# Static dielectric constant tensor:
#      x y z
#    x 3.878270 0.000000 0.000000 
#    y 0.000000 4.533380 0.000000 
#    z 0.000000 0.000000 3.562530 
# 
# 
# High freq. dielectric constant tensor:
#      x y z
#    x 1.798650 0.000000 0.000000 
#    y 0.000000 1.820700 0.000000 
#    z 0.000000 0.000000 1.774210 
# 
# From -- ./inp_files/18901.got.cif
#   From: 2010.03.12/outbox.cif.g09.slc.cpg/sg55_10_cif.got.tgz:18901.got - 2010.04.16 15:19:21.
