data_PCOD8227460
_publ_section_title
;
Structure prediction by ZEFSAII (Michael W. Deem and Ramdas Pophale) SiO2 
 PCOD8227460
Probable space group: P B A M
;
_chemical_formula_sum "Si O2"
_cell_formula_units_Z 40
_cell_length_a 7.802095
_cell_length_b 28.184180
_cell_length_c 8.996101
_cell_angle_alpha 90.000000
_cell_angle_beta 90.000000
_cell_angle_gamma 90.000000
_cell_volume 1978.203476
_symmetry_space_group_name_H-M "P B A M"
_symmetry_group_IT_number 55
_symmetry_cell_setting 'orthorhombic'
loop_
_space_group_symop_operation_xyz
x,y,z
-x,-y,z
1/2+x,1/2-y,-z
1/2-x,1/2+y,-z
-x,-y,-z
x,y,-z
1/2-x,1/2+y,z
1/2+x,1/2-y,z
loop_
_atom_site_type_symbol
_atom_site_label
_atom_site_fract_x
_atom_site_fract_y
_atom_site_fract_z
Si Si1 0.339104 0.102718 0.329475
Si Si2 0.168581 0.791731 0.170899
Si Si3 0.314522 0.892186 0.170531
Si Si4 0.178405 0.202127 0.671385
Si Si5 0.477629 0.555270 0.172467
O O1 0.345793 0.088065 0.500000
O O2 0.521006 0.089335 0.258577
O O3 0.308490 0.158736 0.308656
O O4 0.190522 0.072230 0.255992
O O5 0.298743 0.835424 0.186793
O O6 0.228467 0.749405 0.275209
O O7 0.983761 0.808970 0.225761
O O8 0.155885 0.774658 0.000000
O O9 0.145013 0.917618 0.235583
O O10 0.339359 0.907136 0.000000
O O11 0.121971 0.208223 0.500000
O O12 0.500000 0.500000 0.201551
O O13 0.453645 0.567653 0.000000
#
# Coordination Sequence:
#
# PCOD8227460 Si02
#       5
#     8   8   8   8   8
#     4  11  24  40  62  91 126 167 204 252 312 374
#     4  11  22  37  60  89 121 163 211 260 307 361
#     4  10  22  40  63  91 123 161 206 258 310 367
#     4  11  23  38  57  86 125 167 206 251 311 374
#     4  10  22  43  69  93 121 161 210 264 317 369
#
# _framework density 20.220367
#
# number of rings (size 3 to 8) (size 9 to 14) (size 15 to 20)
#    0.000    1.400    2.000    3.000    0.000    9.200 
#    0.000    4.000    0.000    0.000    0.000    0.000 
#    0.000    0.000    0.000    0.000    0.000    0.000 
#
# Total GULP energy -496230.886094 kJ/mol
# GULP energy per Si atom -12405.772152 kJ/mol
# Density = 2.017434 g / cm^3
# Si number density = 20.220367 Si / 1000 Ang^3
#
#
#
# Elastic Constant Matrix: (Units=GPa)
#
#
# Indices 1 2 3 4 5 6 
#
# 1 139.2943 31.1210 45.4934 0.0000 0.0000 0.0000
# 2 31.1210 70.6073 38.1747 0.0000 0.0000 0.0000
# 3 45.4934 38.1747 73.3742 0.0000 0.0000 0.0000
# 4 0.0000 0.0000 0.0000 24.8829 0.0000 0.0000
# 5 0.0000 0.0000 0.0000 0.0000 16.4632 0.0000
# 6 0.0000 0.0000 0.0000 0.0000 0.0000 28.5121
#
#
#
# Elastic Compliance Matrix: (Units=1/GPa)
#
#
# Indices 1 2 3 4 5 6 
#
# 1 0.009091 -0.001335 -0.004942 0.000000 0.000000 0.000000
# 2 -0.001335 0.019902 -0.009527 0.000000 0.000000 0.000000
# 3 -0.004942 -0.009527 0.021650 0.000000 0.000000 0.000000
# 4 0.000000 0.000000 0.000000 0.040188 0.000000 0.000000
# 5 0.000000 0.000000 0.000000 0.000000 0.060742 0.000000
# 6 0.000000 0.000000 0.000000 0.000000 0.000000 0.035073
#
#
# Mechanical properties :
#
#
# Convention : Reuss Voigt Hill
#
# Bulk Modulus (GPa) = 52.53503 56.98376 54.75940
# Shear Modulus (GPa) = 22.26189 25.20408 23.73298
#
# Velocity S-wave (km/s) = 3.32168 3.53437 3.42967
# Velocity P-wave (km/s) = 6.38350 6.70061 6.54398
#
# Compressibility (1/GPa) = 0.01903492
#
# Stress axis : x y z
#
# Youngs Moduli (GPa) = 109.99323 50.24606 46.19023
#
# Poissons Ratio (x) = 0.06708 0.22828
# Poissons Ratio (y) = 0.14685 0.44004
# Poissons Ratio (z) = 0.54362 0.47868
#
# Static dielectric constant tensor:
#      x y z
#    x 3.735480 0.000000 0.000000 
#    y 0.000000 3.600980 0.000000 
#    z 0.000000 0.000000 3.723160 
# 
# 
# High freq. dielectric constant tensor:
#      x y z
#    x 1.799130 0.000000 0.000000 
#    y 0.000000 1.787930 0.000000 
#    z 0.000000 0.000000 1.791210 
# 
# From -- ./inp_files/2293.got.cif
#   From: 2010.03.12/outbox.cif.g09.slc.cpg/sg55_2_cif.got.tgz:2293.got - 2010.04.16 15:19:21.
