data_PCOD8227750
_publ_section_title
;
Structure prediction by ZEFSAII (Michael W. Deem and Ramdas Pophale) SiO2 
 PCOD8227750
Probable space group: P B A M
;
_chemical_formula_sum "Si O2"
_cell_formula_units_Z 40
_cell_length_a 14.651106
_cell_length_b 8.866503
_cell_length_c 14.044104
_cell_angle_alpha 90.000000
_cell_angle_beta 90.000000
_cell_angle_gamma 90.000000
_cell_volume 1824.386344
_symmetry_space_group_name_H-M "P B A M"
_symmetry_group_IT_number 55
_symmetry_cell_setting 'orthorhombic'
loop_
_space_group_symop_operation_xyz
x,y,z
-x,-y,z
1/2+x,1/2-y,-z
1/2-x,1/2+y,-z
-x,-y,-z
x,y,-z
1/2-x,1/2+y,z
1/2+x,1/2-y,z
loop_
_atom_site_type_symbol
_atom_site_label
_atom_site_fract_x
_atom_site_fract_y
_atom_site_fract_z
Si Si1 0.852751 0.049655 0.396457
Si Si2 0.807999 0.158136 0.202518
Si Si3 0.491154 0.166016 0.800243
Si Si4 0.851945 0.842147 0.111495
Si Si5 0.037887 0.235808 0.395917
O O1 0.805259 0.075440 0.500000
O O2 0.787755 0.107563 0.311810
O O3 0.947764 0.135576 0.392076
O O4 0.874277 0.872466 0.382090
O O5 0.716345 0.227062 0.162135
O O6 0.886074 0.284896 0.198124
O O7 0.838624 0.013586 0.142627
O O8 0.546381 0.288946 0.861525
O O9 0.532648 0.150700 0.692868
O O10 0.500000 0.000000 0.846611
O O11 0.836014 0.830740 0.000000
O O12 0.044276 0.317519 0.500000
#
# Coordination Sequence:
#
# PCOD8227750 Si02
#       5
#     8   8   8   8   8
#     4   8  14  30  59  90 122 161 202 246 304 375
#     4  11  23  43  65  91 128 163 209 265 323 383
#     4  11  23  40  64  95 129 166 210 262 318 382
#     4  12  26  43  65  91 121 166 218 269 325 377
#     4   8  14  29  57  91 124 161 202 244 302 374
#
# _framework density 21.925180999999998
#
# number of rings (size 3 to 8) (size 9 to 14) (size 15 to 20)
#    0.000    2.000    2.000    3.600    0.000    3.200 
#    0.000    2.000    0.000    2.400    0.000    0.000 
#    0.000    0.000    0.000    0.000    0.000    0.000 
#
# Total GULP energy -495871.162588 kJ/mol
# GULP energy per Si atom -12396.779065 kJ/mol
# Density = 2.187528 g / cm^3
# Si number density = 21.925181 Si / 1000 Ang^3
#
#
#
# Elastic Constant Matrix: (Units=GPa)
#
#
# Indices 1 2 3 4 5 6 
#
# 1 31.5545 0.7374 18.7320 0.0000 0.0000 0.0000
# 2 0.7374 71.5594 8.9237 0.0000 0.0000 0.0000
# 3 18.7320 8.9237 143.3883 0.0000 0.0000 0.0000
# 4 0.0000 0.0000 0.0000 19.1416 0.0000 0.0000
# 5 0.0000 0.0000 0.0000 0.0000 15.2404 0.0000
# 6 0.0000 0.0000 0.0000 0.0000 0.0000 30.1422
#
#
#
# Elastic Compliance Matrix: (Units=1/GPa)
#
#
# Indices 1 2 3 4 5 6 
#
# 1 0.034359 0.000207 -0.004501 0.000000 0.000000 0.000000
# 2 0.000207 0.014085 -0.000904 0.000000 0.000000 0.000000
# 3 -0.004501 -0.000904 0.007618 0.000000 0.000000 0.000000
# 4 0.000000 0.000000 0.000000 0.052242 0.000000 0.000000
# 5 0.000000 0.000000 0.000000 0.000000 0.065615 0.000000
# 6 0.000000 0.000000 0.000000 0.000000 0.000000 0.033176
#
#
# Mechanical properties :
#
#
# Convention : Reuss Voigt Hill
#
# Bulk Modulus (GPa) = 21.89797 33.69872 27.79834
# Shear Modulus (GPa) = 21.48568 27.44544 24.46556
#
# Velocity S-wave (km/s) = 3.13382 3.54188 3.34408
# Velocity P-wave (km/s) = 4.80663 5.66832 5.25517
#
# Compressibility (1/GPa) = 0.04566634
#
# Stress axis : x y z
#
# Youngs Moduli (GPa) = 29.10479 70.99772 131.26168
#
# Poissons Ratio (x) = -0.01472 0.59087
# Poissons Ratio (y) = -0.00603 0.11862
# Poissons Ratio (z) = 0.13101 0.06416
#
# Static dielectric constant tensor:
#      x y z
#    x 3.593350 0.000000 0.000000 
#    y 0.000000 3.720770 0.000000 
#    z 0.000000 0.000000 4.423010 
# 
# 
# High freq. dielectric constant tensor:
#      x y z
#    x 1.836530 0.000000 0.000000 
#    y 0.000000 1.850660 0.000000 
#    z 0.000000 0.000000 1.872700 
# 
# From -- ./inp_files/17088.got.cif
#   From: 2010.03.12/outbox.cif.g09.slc.cpg/sg55_9_cif.got.tgz:17088.got - 2010.04.16 15:19:21.
