data_PCOD8227059
_publ_section_title
;
Structure prediction by ZEFSAII (Michael W. Deem and Ramdas Pophale) SiO2 
 PCOD8227059
Probable space group: P B A M
;
_chemical_formula_sum "Si O2"
_cell_formula_units_Z 32
_cell_length_a 15.358970
_cell_length_b 12.967864
_cell_length_c 9.215519
_cell_angle_alpha 90.000000
_cell_angle_beta 90.000000
_cell_angle_gamma 90.000000
_cell_volume 1835.482880
_symmetry_space_group_name_H-M "P B A M"
_symmetry_group_IT_number 55
_symmetry_cell_setting 'orthorhombic'
loop_
_space_group_symop_operation_xyz
x,y,z
-x,-y,z
1/2+x,1/2-y,-z
1/2-x,1/2+y,-z
-x,-y,-z
x,y,-z
1/2-x,1/2+y,z
1/2+x,1/2-y,z
loop_
_atom_site_type_symbol
_atom_site_label
_atom_site_fract_x
_atom_site_fract_y
_atom_site_fract_z
Si Si1 0.244028 0.899078 0.668589
Si Si2 0.413053 0.448811 0.163927
Si Si3 0.094277 0.538009 0.332239
Si Si4 0.155124 0.736783 0.836340
O O1 0.223686 0.884516 0.500000
O O2 0.171226 0.977347 0.737195
O O3 0.236878 0.787198 0.748059
O O4 0.339238 0.944717 0.696082
O O5 0.500000 0.500000 0.230486
O O6 0.421807 0.323543 0.163595
O O7 0.397777 0.490219 0.000000
O O8 0.094084 0.571533 0.500000
O O9 0.120358 0.635111 0.237854
O O10 0.000000 0.500000 0.281428
O O11 0.185234 0.711177 0.000000
#
# Coordination Sequence:
#
# PCOD8227059 Si02
#       4
#     8   8   8   8
#     4   9  18  34  55  79 107 140 181 223 266 317
#     4   8  16  33  53  76 108 140 175 219 268 321
#     4  10  21  38  57  79 111 147 182 225 271 322
#     4   9  19  35  54  77 106 140 179 221 268 319
#
# _framework density 17.434104999999999
#
# number of rings (size 3 to 8) (size 9 to 14) (size 15 to 20)
#    1.500    1.500    0.000    0.750    0.000    3.000 
#    4.500    0.000    0.000    0.000    0.000    0.000 
#    0.000    0.000    0.000    0.000    0.000    0.000 
#
# Total GULP energy -396421.807480 kJ/mol
# GULP energy per Si atom -12388.181484 kJ/mol
# Density = 1.739442 g / cm^3
# Si number density = 17.434105 Si / 1000 Ang^3
#
#
#
# Elastic Constant Matrix: (Units=GPa)
#
#
# Indices 1 2 3 4 5 6 
#
# 1 122.1503 46.9743 66.7357 0.0000 0.0000 0.0000
# 2 46.9743 85.5533 59.9367 0.0000 0.0000 0.0000
# 3 66.7357 59.9367 115.0419 0.0000 0.0000 0.0000
# 4 0.0000 0.0000 0.0000 22.4060 0.0000 0.0000
# 5 0.0000 0.0000 0.0000 0.0000 14.3930 0.0000
# 6 0.0000 0.0000 0.0000 0.0000 0.0000 24.3934
#
#
#
# Elastic Compliance Matrix: (Units=1/GPa)
#
#
# Indices 1 2 3 4 5 6 
#
# 1 0.012392 -0.002784 -0.005738 0.000000 0.000000 0.000000
# 2 -0.002784 0.019033 -0.008301 0.000000 0.000000 0.000000
# 3 -0.005738 -0.008301 0.016346 0.000000 0.000000 0.000000
# 4 0.000000 0.000000 0.000000 0.044631 0.000000 0.000000
# 5 0.000000 0.000000 0.000000 0.000000 0.069478 0.000000
# 6 0.000000 0.000000 0.000000 0.000000 0.000000 0.040995
#
#
# Mechanical properties :
#
#
# Convention : Reuss Voigt Hill
#
# Bulk Modulus (GPa) = 70.79930 74.44877 72.62403
# Shear Modulus (GPa) = 20.72713 22.17842 21.45278
#
# Velocity S-wave (km/s) = 3.45176 3.57056 3.51166
# Velocity P-wave (km/s) = 7.52223 7.73267 7.62818
#
# Compressibility (1/GPa) = 0.01412443
#
# Stress axis : x y z
#
# Youngs Moduli (GPa) = 80.69499 52.54097 61.17680
#
# Poissons Ratio (x) = 0.14628 0.35105
# Poissons Ratio (y) = 0.22466 0.50783
# Poissons Ratio (z) = 0.46305 0.43614
#
# Static dielectric constant tensor:
#      x y z
#    x 3.146710 0.000000 0.000000 
#    y 0.000000 2.988960 0.000000 
#    z 0.000000 0.000000 3.305170 
# 
# 
# High freq. dielectric constant tensor:
#      x y z
#    x 1.653860 0.000000 0.000000 
#    y 0.000000 1.654480 0.000000 
#    z 0.000000 0.000000 1.683190 
# 
# From -- ./inp_files/3535.got.cif
#   From: 2010.03.12/outbox.cif.g09.slc.cpg/sg55_2_cif.got.tgz:3535.got - 2010.04.16 15:19:21.
