data_PCOD8227687
_publ_section_title
;
Structure prediction by ZEFSAII (Michael W. Deem and Ramdas Pophale) SiO2 
 PCOD8227687
Probable space group: P B A M
;
_chemical_formula_sum "Si O2"
_cell_formula_units_Z 64
_cell_length_a 11.820529
_cell_length_b 14.766424
_cell_length_c 17.119959
_cell_angle_alpha 90.000000
_cell_angle_beta 90.000000
_cell_angle_gamma 90.000000
_cell_volume 2988.236510
_symmetry_space_group_name_H-M "P B A M"
_symmetry_group_IT_number 55
_symmetry_cell_setting 'orthorhombic'
loop_
_space_group_symop_operation_xyz
x,y,z
-x,-y,z
1/2+x,1/2-y,-z
1/2-x,1/2+y,-z
-x,-y,-z
x,y,-z
1/2-x,1/2+y,z
1/2+x,1/2-y,z
loop_
_atom_site_type_symbol
_atom_site_label
_atom_site_fract_x
_atom_site_fract_y
_atom_site_fract_z
Si Si1 0.787714 0.126179 0.090345
Si Si2 0.247736 0.192980 0.820445
Si Si3 0.507251 0.146314 0.587585
Si Si4 0.128563 0.516816 0.823344
Si Si5 0.340316 0.999393 0.639247
Si Si6 0.886907 0.047198 0.408838
Si Si7 0.003307 0.103252 0.821392
Si Si8 0.882102 0.217018 0.692230
O O1 0.749723 0.224980 0.119112
O O2 0.714363 0.052344 0.136572
O O3 0.922747 0.108396 0.101666
O O4 0.758325 0.117234 0.000000
O O5 0.129576 0.140217 0.830585
O O6 0.276032 0.227403 0.730887
O O7 0.342645 0.120184 0.845952
O O8 0.514834 0.187059 0.500000
O O9 0.626710 0.102599 0.612519
O O10 0.474677 0.221616 0.650007
O O11 0.412950 0.069078 0.589683
O O12 0.140496 0.507414 0.730780
O O13 0.000000 0.500000 0.850367
O O14 0.212539 0.022154 0.613646
O O15 0.899745 0.065527 0.500000
O O16 0.846845 0.140607 0.369075
O O17 0.000000 0.000000 0.375406
O O18 0.943194 0.169602 0.762746
O O19 0.000000 0.000000 0.790640
#
# Coordination Sequence:
#
# PCOD8227687 Si02
#       8
#     8   8   8   8   8   8   8   8
#     4  11  28  48  73 109 145 182 229 288 361 434
#     4  11  25  45  71 106 137 183 236 287 350 427
#     4  11  22  39  65  96 130 177 232 289 349 400
#     4  12  24  46  75 105 138 183 237 292 352 428
#     4  11  21  42  66  93 128 178 229 284 337 418
#     4  11  25  42  60  92 140 186 230 290 364 426
#     4  11  24  47  72 101 136 185 239 284 347 430
#     4  11  24  38  66 100 134 178 232 294 346 413
#
# _framework density 21.417314000000001
#
# number of rings (size 3 to 8) (size 9 to 14) (size 15 to 20)
#    0.000    0.875    3.750    3.750    8.750    1.500 
#    0.000    0.000    0.000    0.000    0.000    0.000 
#    0.000    0.000    0.000    0.000    0.000    0.000 
#
# Total GULP energy -793312.285047 kJ/mol
# GULP energy per Si atom -12395.504454 kJ/mol
# Density = 2.136857 g / cm^3
# Si number density = 21.417314 Si / 1000 Ang^3
#
#
#
# Elastic Constant Matrix: (Units=GPa)
#
#
# Indices 1 2 3 4 5 6 
#
# 1 137.4461 42.7801 17.8779 0.0000 0.0000 0.0000
# 2 42.7801 117.1576 27.5500 0.0000 0.0000 0.0000
# 3 17.8779 27.5500 81.7719 0.0000 0.0000 0.0000
# 4 0.0000 0.0000 0.0000 -7.1090 0.0000 0.0000
# 5 0.0000 0.0000 0.0000 0.0000 15.8817 0.0000
# 6 0.0000 0.0000 0.0000 0.0000 0.0000 32.2557
#
#
#
# Elastic Compliance Matrix: (Units=1/GPa)
#
#
# Indices 1 2 3 4 5 6 
#
# 1 0.008264 -0.002816 -0.000858 0.000000 0.000000 0.000000
# 2 -0.002816 0.010229 -0.002831 0.000000 0.000000 0.000000
# 3 -0.000858 -0.002831 0.013370 0.000000 0.000000 0.000000
# 4 0.000000 0.000000 0.000000 -0.140667 0.000000 0.000000
# 5 0.000000 0.000000 0.000000 0.000000 0.062966 0.000000
# 6 0.000000 0.000000 0.000000 0.000000 0.000000 0.031002
#
#
# Mechanical properties :
#
#
# Convention : Reuss Voigt Hill
#
# Bulk Modulus (GPa) = 53.03817 56.97683 55.00750
# Shear Modulus (GPa) = 1121.63413 24.75020 573.19216
#
# Velocity S-wave (km/s) = 22.90941 3.40312 16.37716
# Velocity P-wave (km/s) = 26.91851 6.48865 19.57944
#
# Compressibility (1/GPa) = 0.01885435
#
# Stress axis : x y z
#
# Youngs Moduli (GPa) = 121.01321 97.75815 74.79170
#
# Poissons Ratio (x) = 0.27525 0.06417
# Poissons Ratio (y) = 0.34073 0.21172
# Poissons Ratio (z) = 0.10383 0.27673
#
# Static dielectric constant tensor:
#      x y z
#    x 4.464000 0.000000 0.000000 
#    y 0.000000 4.465330 0.000000 
#    z 0.000000 0.000000 3.741390 
# 
# 
# High freq. dielectric constant tensor:
#      x y z
#    x 1.849580 0.000000 0.000000 
#    y 0.000000 1.850070 0.000000 
#    z 0.000000 0.000000 1.828170 
# 
# From -- ./inp_files/21360.got.cif
#   From: 2010.03.12/outbox.cif.g09.slc.cpg/sg55_11_cif.got.tgz:21360.got - 2010.04.16 15:19:21.
