data_PCOD8227636
_publ_section_title
;
Structure prediction by ZEFSAII (Michael W. Deem and Ramdas Pophale) SiO2 
 PCOD8227636
Probable space group: P B A M
;
_chemical_formula_sum "Si O2"
_cell_formula_units_Z 56
_cell_length_a 29.214750
_cell_length_b 13.950305
_cell_length_c 8.931230
_cell_angle_alpha 90.000000
_cell_angle_beta 90.000000
_cell_angle_gamma 90.000000
_cell_volume 3639.964522
_symmetry_space_group_name_H-M "P B A M"
_symmetry_group_IT_number 55
_symmetry_cell_setting 'orthorhombic'
loop_
_space_group_symop_operation_xyz
x,y,z
-x,-y,z
1/2+x,1/2-y,-z
1/2-x,1/2+y,-z
-x,-y,-z
x,y,-z
1/2-x,1/2+y,z
1/2+x,1/2-y,z
loop_
_atom_site_type_symbol
_atom_site_label
_atom_site_fract_x
_atom_site_fract_y
_atom_site_fract_z
Si Si1 0.730549 0.881683 0.677185
Si Si2 0.904293 0.095435 0.823979
Si Si3 0.005606 0.886814 0.665316
Si Si4 0.405943 0.609679 0.322165
Si Si5 0.819505 0.776281 0.678344
Si Si6 0.821667 0.196207 0.324283
Si Si7 0.729108 0.092610 0.677430
O O1 0.734507 0.889193 0.500000
O O2 0.779595 0.846171 0.739644
O O3 0.690979 0.805884 0.718998
O O4 0.719559 0.986884 0.745731
O O5 0.865817 0.169130 0.770951
O O6 0.953509 0.140269 0.777298
O O7 0.895449 0.992534 0.750756
O O8 0.903078 0.083718 0.000000
O O9 0.017038 0.845478 0.500000
O O10 0.956066 0.848395 0.722876
O O11 0.000000 0.000000 0.654986
O O12 0.403228 0.594057 0.500000
O O13 0.368506 0.686148 0.263519
O O14 0.818513 0.776374 0.500000
O O15 0.809006 0.668258 0.737638
O O16 0.832496 0.186090 0.500000
O O17 0.779797 0.127365 0.277163
O O18 0.725946 0.089689 0.500000
#
# Coordination Sequence:
#
# PCOD8227636 Si02
#       7
#     8   8   8   8   8   8   8
#     4   8  13  21  36  60  85 106 129 159 193 227
#     4  11  20  27  38  57  81 107 134 166 199 231
#     4   8  15  27  41  57  78 104 131 159 196 241
#     4   9  16  27  43  61  82 107 132 159 195 240
#     4   8  13  21  37  62  85 104 129 160 193 229
#     4   9  16  26  41  59  80 107 135 161 192 233
#     4   8  13  22  39  63  85 103 130 166 195 225
#
# _framework density 15.384765
#
# number of rings (size 3 to 8) (size 9 to 14) (size 15 to 20)
#    0.000    3.286    0.000    4.714    0.000    4.857 
#    0.000    0.000    0.000    7.714    0.000    1.000 
#    0.000    8.000    0.000    0.000    0.000    0.000 
#
# Total GULP energy -693863.581197 kJ/mol
# GULP energy per Si atom -12390.421093 kJ/mol
# Density = 1.534975 g / cm^3
# Si number density = 15.384765 Si / 1000 Ang^3
#
#
#
# Elastic Constant Matrix: (Units=GPa)
#
#
# Indices 1 2 3 4 5 6 
#
# 1 127.1522 62.7081 32.3816 0.0000 0.0000 0.0000
# 2 62.7081 113.8848 19.3358 0.0000 0.0000 0.0000
# 3 32.3816 19.3358 33.9655 0.0000 0.0000 0.0000
# 4 0.0000 0.0000 0.0000 3.2322 0.0000 0.0000
# 5 0.0000 0.0000 0.0000 0.0000 2.1357 0.0000
# 6 0.0000 0.0000 0.0000 0.0000 0.0000 22.5926
#
#
#
# Elastic Compliance Matrix: (Units=1/GPa)
#
#
# Indices 1 2 3 4 5 6 
#
# 1 0.012949 -0.005573 -0.009173 0.000000 0.000000 0.000000
# 2 -0.005573 0.012119 -0.001586 0.000000 0.000000 0.000000
# 3 -0.009173 -0.001586 0.039090 0.000000 0.000000 0.000000
# 4 0.000000 0.000000 0.000000 0.309391 0.000000 0.000000
# 5 0.000000 0.000000 0.000000 0.000000 0.468230 0.000000
# 6 0.000000 0.000000 0.000000 0.000000 0.000000 0.044262
#
#
# Mechanical properties :
#
#
# Convention : Reuss Voigt Hill
#
# Bulk Modulus (GPa) = 31.75185 55.98374 43.86779
# Shear Modulus (GPa) = 5.38097 16.29723 10.83910
#
# Velocity S-wave (km/s) = 1.87221 3.25823 2.65719
# Velocity P-wave (km/s) = 5.03556 7.11497 6.16359
#
# Compressibility (1/GPa) = 0.03149423
#
# Stress axis : x y z
#
# Youngs Moduli (GPa) = 77.22697 82.51826 25.58231
#
# Poissons Ratio (x) = 0.45984 0.23466
# Poissons Ratio (y) = 0.43036 0.04057
# Poissons Ratio (z) = 0.70838 0.13088
#
# Static dielectric constant tensor:
#      x y z
#    x 3.298190 0.000000 0.000000 
#    y 0.000000 3.150160 0.000000 
#    z 0.000000 0.000000 2.522500 
# 
# 
# High freq. dielectric constant tensor:
#      x y z
#    x 1.590470 0.000000 0.000000 
#    y 0.000000 1.565360 0.000000 
#    z 0.000000 0.000000 1.546580 
# 
# From -- ./inp_files/6855.got.cif
#   From: 2010.03.12/outbox.cif.g09.slc.cpg/sg55_4_cif.got.tgz:6855.got - 2010.04.16 15:19:21.
