data_PCOD8227661
_publ_section_title
;
Structure prediction by ZEFSAII (Michael W. Deem and Ramdas Pophale) SiO2 
 PCOD8227661
Probable space group: P B A M
;
_chemical_formula_sum "Si O2"
_cell_formula_units_Z 48
_cell_length_a 23.415373
_cell_length_b 13.736801
_cell_length_c 8.658500
_cell_angle_alpha 90.000000
_cell_angle_beta 90.000000
_cell_angle_gamma 90.000000
_cell_volume 2785.026606
_symmetry_space_group_name_H-M "P B A M"
_symmetry_group_IT_number 55
_symmetry_cell_setting 'orthorhombic'
loop_
_space_group_symop_operation_xyz
x,y,z
-x,-y,z
1/2+x,1/2-y,-z
1/2-x,1/2+y,-z
-x,-y,-z
x,y,-z
1/2-x,1/2+y,z
1/2+x,1/2-y,z
loop_
_atom_site_type_symbol
_atom_site_label
_atom_site_fract_x
_atom_site_fract_y
_atom_site_fract_z
Si Si1 0.839885 0.209080 0.823193
Si Si2 0.336534 0.710511 0.320628
Si Si3 0.060944 0.900453 0.679993
Si Si4 0.731032 0.892667 0.820829
Si Si5 0.278179 0.887705 0.820929
Si Si6 0.059190 0.106442 0.181169
O O1 0.892892 0.183044 0.714631
O O2 0.821570 0.320177 0.787959
O O3 0.787389 0.137730 0.784045
O O4 0.859040 0.196736 0.000000
O O5 0.350420 0.701513 0.500000
O O6 0.285541 0.636990 0.279300
O O7 0.320102 0.821319 0.279996
O O8 0.392714 0.683789 0.225118
O O9 0.059405 0.923831 0.500000
O O10 0.999130 0.863298 0.733758
O O11 0.078813 0.998543 0.769175
O O12 0.710713 0.000517 0.775436
O O13 0.749659 0.886891 0.000000
O O14 0.291194 0.866548 0.000000
O O15 0.048182 0.108233 0.000000
#
# Coordination Sequence:
#
# PCOD8227661 Si02
#       6
#     8   8   8   8   8   8
#     4   9  17  30  49  74 102 133 167 199 238 290
#     4  11  21  32  49  75 104 130 160 202 250 293
#     4  11  21  33  50  75 103 128 160 203 250 293
#     4   9  18  33  53  74  99 133 170 203 236 286
#     4   9  18  33  52  73  98 131 168 202 238 285
#     4  11  21  35  53  71  96 131 167 201 242 293
#
# _framework density 17.235023999999999
#
# number of rings (size 3 to 8) (size 9 to 14) (size 15 to 20)
#    0.000    2.000    0.000    7.500    0.000    4.667 
#    0.000    0.000    0.000    1.000    0.000    7.000 
#    0.000    0.000    0.000    0.000    0.000    0.000 
#
# Total GULP energy -595370.844605 kJ/mol
# GULP energy per Si atom -12403.559263 kJ/mol
# Density = 1.719580 g / cm^3
# Si number density = 17.235024 Si / 1000 Ang^3
#
#
#
# Elastic Constant Matrix: (Units=GPa)
#
#
# Indices 1 2 3 4 5 6 
#
# 1 88.2689 45.8313 23.2722 0.0000 0.0000 0.0000
# 2 45.8313 108.6165 20.3778 0.0000 0.0000 0.0000
# 3 23.2722 20.3778 66.9191 0.0000 0.0000 0.0000
# 4 0.0000 0.0000 0.0000 19.5542 0.0000 0.0000
# 5 0.0000 0.0000 0.0000 0.0000 24.7016 0.0000
# 6 0.0000 0.0000 0.0000 0.0000 0.0000 24.9374
#
#
#
# Elastic Compliance Matrix: (Units=1/GPa)
#
#
# Indices 1 2 3 4 5 6 
#
# 1 0.015263 -0.005774 -0.003550 0.000000 0.000000 0.000000
# 2 -0.005774 0.011949 -0.001631 0.000000 0.000000 0.000000
# 3 -0.003550 -0.001631 0.016674 0.000000 0.000000 0.000000
# 4 0.000000 0.000000 0.000000 0.051140 0.000000 0.000000
# 5 0.000000 0.000000 0.000000 0.000000 0.040483 0.000000
# 6 0.000000 0.000000 0.000000 0.000000 0.000000 0.040100
#
#
# Mechanical properties :
#
#
# Convention : Reuss Voigt Hill
#
# Bulk Modulus (GPa) = 45.50100 49.19633 47.34866
# Shear Modulus (GPa) = 24.40869 25.46018 24.93444
#
# Velocity S-wave (km/s) = 3.76736 3.84765 3.80772
# Velocity P-wave (km/s) = 6.73659 6.95310 6.84570
#
# Compressibility (1/GPa) = 0.02197754
#
# Stress axis : x y z
#
# Youngs Moduli (GPa) = 65.51766 83.68797 59.97225
#
# Poissons Ratio (x) = 0.48325 0.21288
# Poissons Ratio (y) = 0.37832 0.09779
# Poissons Ratio (z) = 0.23256 0.13646
#
# Static dielectric constant tensor:
#      x y z
#    x 3.079040 0.000000 0.000000 
#    y 0.000000 3.221240 0.000000 
#    z 0.000000 0.000000 3.189750 
# 
# 
# High freq. dielectric constant tensor:
#      x y z
#    x 1.652860 0.000000 0.000000 
#    y 0.000000 1.656320 0.000000 
#    z 0.000000 0.000000 1.670170 
# 
# From -- ./inp_files/8551.got.cif
#   From: 2010.03.12/outbox.cif.g09.slc.cpg/sg55_5_cif.got.tgz:8551.got - 2010.04.16 15:19:21.
