data_PCOD8227154
_publ_section_title
;
Structure prediction by ZEFSAII (Michael W. Deem and Ramdas Pophale) SiO2 
 PCOD8227154
Probable space group: P B A M
;
_chemical_formula_sum "Si O2"
_cell_formula_units_Z 56
_cell_length_a 14.301440
_cell_length_b 12.326841
_cell_length_c 14.379056
_cell_angle_alpha 90.000000
_cell_angle_beta 90.000000
_cell_angle_gamma 90.000000
_cell_volume 2534.906457
_symmetry_space_group_name_H-M "P B A M"
_symmetry_group_IT_number 55
_symmetry_cell_setting 'orthorhombic'
loop_
_space_group_symop_operation_xyz
x,y,z
-x,-y,z
1/2+x,1/2-y,-z
1/2-x,1/2+y,-z
-x,-y,-z
x,y,-z
1/2-x,1/2+y,z
1/2+x,1/2-y,z
loop_
_atom_site_type_symbol
_atom_site_label
_atom_site_fract_x
_atom_site_fract_y
_atom_site_fract_z
Si Si1 0.767945 0.145284 0.816312
Si Si2 0.550582 0.202932 0.602212
Si Si3 0.661505 0.014976 0.673505
Si Si4 0.339260 0.586178 0.396917
Si Si5 0.600311 0.462823 0.199965
Si Si6 0.576372 0.819649 0.770532
Si Si7 0.091854 0.262126 0.894266
O O1 0.836035 0.247464 0.801602
O O2 0.686355 0.166814 0.891297
O O3 0.719518 0.112659 0.719706
O O4 0.826964 0.041846 0.851904
O O5 0.505055 0.214225 0.500000
O O6 0.637546 0.286208 0.612296
O O7 0.470556 0.230699 0.677405
O O8 0.585576 0.078399 0.611814
O O9 0.727820 0.935216 0.613207
O O10 0.610512 0.942045 0.751851
O O11 0.370731 0.543862 0.500000
O O12 0.391285 0.524469 0.312319
O O13 0.500000 0.500000 0.166145
O O14 0.618340 0.341577 0.167531
O O15 0.497584 0.823551 0.850966
O O16 0.067874 0.231571 0.000000
#
# Coordination Sequence:
#
# PCOD8227154 Si02
#       7
#     8   8   8   8   8   8   8
#     4  11  23  44  72  96 135 179 219 282 346 402
#     4  11  22  39  65  98 139 183 230 273 330 407
#     4  11  22  39  68  95 138 181 225 274 339 406
#     4  10  21  38  64 101 140 179 228 276 326 401
#     4  11  21  44  72  97 139 182 225 277 344 405
#     4  12  24  45  68  96 137 175 221 285 347 394
#     4  12  27  47  71 103 134 174 233 285 347 413
#
# _framework density 22.091545
#
# number of rings (size 3 to 8) (size 9 to 14) (size 15 to 20)
#    0.000    0.857    4.286    3.429    0.000    3.429 
#    0.000    6.429    0.000    0.000    0.000    0.000 
#    0.000    0.000    0.000    0.000    0.000    0.000 
#
# Total GULP energy -694161.264564 kJ/mol
# GULP energy per Si atom -12395.736867 kJ/mol
# Density = 2.204126 g / cm^3
# Si number density = 22.091545 Si / 1000 Ang^3
#
#
#
# Elastic Constant Matrix: (Units=GPa)
#
#
# Indices 1 2 3 4 5 6 
#
# 1 114.7982 32.6196 39.7187 0.0000 0.0000 0.0000
# 2 32.6196 73.3080 10.4804 0.0000 0.0000 0.0000
# 3 39.7187 10.4804 111.8583 0.0000 0.0000 0.0000
# 4 0.0000 0.0000 0.0000 13.2537 0.0000 0.0000
# 5 0.0000 0.0000 0.0000 0.0000 20.6907 0.0000
# 6 0.0000 0.0000 0.0000 0.0000 0.0000 36.4880
#
#
#
# Elastic Compliance Matrix: (Units=1/GPa)
#
#
# Indices 1 2 3 4 5 6 
#
# 1 0.011217 -0.004482 -0.003563 0.000000 0.000000 0.000000
# 2 -0.004482 0.015617 0.000128 0.000000 0.000000 0.000000
# 3 -0.003563 0.000128 0.010193 0.000000 0.000000 0.000000
# 4 0.000000 0.000000 0.000000 0.075451 0.000000 0.000000
# 5 0.000000 0.000000 0.000000 0.000000 0.048331 0.000000
# 6 0.000000 0.000000 0.000000 0.000000 0.000000 0.027406
#
#
# Mechanical properties :
#
#
# Convention : Reuss Voigt Hill
#
# Bulk Modulus (GPa) = 47.18366 51.73354 49.45860
# Shear Modulus (GPa) = 23.68395 28.56286 26.12341
#
# Velocity S-wave (km/s) = 3.27782 3.59964 3.44249
# Velocity P-wave (km/s) = 5.97746 6.38319 6.18366
#
# Compressibility (1/GPa) = 0.02119378
#
# Stress axis : x y z
#
# Youngs Moduli (GPa) = 89.14843 64.03256 98.10602
#
# Poissons Ratio (x) = 0.28699 0.34956
# Poissons Ratio (y) = 0.39956 -0.01258
# Poissons Ratio (z) = 0.31764 -0.00821
#
# Static dielectric constant tensor:
#      x y z
#    x 4.153100 0.000000 0.000000 
#    y 0.000000 4.070890 0.000000 
#    z 0.000000 0.000000 3.738970 
# 
# 
# High freq. dielectric constant tensor:
#      x y z
#    x 1.877910 0.000000 0.000000 
#    y 0.000000 1.869690 0.000000 
#    z 0.000000 0.000000 1.843940 
# 
# From -- ./inp_files/18976.got.cif
#   From: 2010.03.12/outbox.cif.g09.slc.cpg/sg55_10_cif.got.tgz:18976.got - 2010.04.16 15:19:21.
