data_PCOD8227675
_publ_section_title
;
Structure prediction by ZEFSAII (Michael W. Deem and Ramdas Pophale) SiO2 
 PCOD8227675
Probable space group: P B A M
;
_chemical_formula_sum "Si O2"
_cell_formula_units_Z 48
_cell_length_a 10.113094
_cell_length_b 28.988449
_cell_length_c 8.389828
_cell_angle_alpha 90.000000
_cell_angle_beta 90.000000
_cell_angle_gamma 90.000000
_cell_volume 2459.586388
_symmetry_space_group_name_H-M "P B A M"
_symmetry_group_IT_number 55
_symmetry_cell_setting 'orthorhombic'
loop_
_space_group_symop_operation_xyz
x,y,z
-x,-y,z
1/2+x,1/2-y,-z
1/2-x,1/2+y,-z
-x,-y,-z
x,y,-z
1/2-x,1/2+y,z
1/2+x,1/2-y,z
loop_
_atom_site_type_symbol
_atom_site_label
_atom_site_fract_x
_atom_site_fract_y
_atom_site_fract_z
Si Si1 0.513912 0.719308 0.184653
Si Si2 0.140297 0.522756 0.683885
Si Si3 0.267968 0.113918 0.188471
Si Si4 0.273663 0.212484 0.314103
Si Si5 0.119244 0.968503 0.814875
Si Si6 0.017545 0.879218 0.315376
O O1 0.610960 0.751040 0.286757
O O2 0.362622 0.729195 0.233623
O O3 0.553179 0.666351 0.215630
O O4 0.532417 0.731105 0.000000
O O5 0.182981 0.521992 0.500000
O O6 0.131542 0.575169 0.747817
O O7 0.243613 0.494003 0.787279
O O8 0.000000 0.500000 0.711948
O O9 0.320777 0.163942 0.240174
O O10 0.126703 0.102723 0.266400
O O11 0.254183 0.111580 0.000000
O O12 0.246756 0.205908 0.500000
O O13 0.121343 0.919699 0.722409
O O14 0.098626 0.958027 0.000000
O O15 0.000000 0.000000 0.748848
O O16 0.021776 0.866034 0.500000
#
# Coordination Sequence:
#
# PCOD8227675 Si02
#       6
#     8   8   8   8   8   8
#     4  11  22  40  63  90 123 157 198 246 299 355
#     4  11  24  41  60  86 120 157 198 244 298 355
#     4  11  21  37  61  88 118 157 200 240 294 356
#     4  11  22  40  64  91 121 157 199 245 298 355
#     4  11  22  37  61  90 118 153 197 243 292 347
#     4  11  21  36  61  90 119 154 198 246 296 347
#
# _framework density 19.515474999999999
#
# number of rings (size 3 to 8) (size 9 to 14) (size 15 to 20)
#    0.000    1.000    1.667    9.000    0.000    2.000 
#    3.000    0.000    0.000    0.000    0.000    0.000 
#    0.000    0.000    0.000    0.000    0.000    0.000 
#
# Total GULP energy -595505.901856 kJ/mol
# GULP energy per Si atom -12406.372955 kJ/mol
# Density = 1.947106 g / cm^3
# Si number density = 19.515475 Si / 1000 Ang^3
#
#
#
# Elastic Constant Matrix: (Units=GPa)
#
#
# Indices 1 2 3 4 5 6 
#
# 1 71.8329 59.6517 24.1661 0.0000 0.0000 0.0000
# 2 59.6517 115.2096 4.5036 0.0000 0.0000 0.0000
# 3 24.1661 4.5036 73.5949 0.0000 0.0000 0.0000
# 4 0.0000 0.0000 0.0000 34.6585 0.0000 0.0000
# 5 0.0000 0.0000 0.0000 0.0000 28.3408 0.0000
# 6 0.0000 0.0000 0.0000 0.0000 0.0000 26.1669
#
#
#
# Elastic Compliance Matrix: (Units=1/GPa)
#
#
# Indices 1 2 3 4 5 6 
#
# 1 0.029024 -0.014690 -0.008632 0.000000 0.000000 0.000000
# 2 -0.014690 0.016136 0.003836 0.000000 0.000000 0.000000
# 3 -0.008632 0.003836 0.016187 0.000000 0.000000 0.000000
# 4 0.000000 0.000000 0.000000 0.028853 0.000000 0.000000
# 5 0.000000 0.000000 0.000000 0.000000 0.035285 0.000000
# 6 0.000000 0.000000 0.000000 0.000000 0.000000 0.038216
#
#
# Mechanical properties :
#
#
# Convention : Reuss Voigt Hill
#
# Bulk Modulus (GPa) = 44.68961 48.58667 46.63814
# Shear Modulus (GPa) = 23.79457 29.32098 26.55777
#
# Velocity S-wave (km/s) = 3.49559 3.88035 3.69298
# Velocity P-wave (km/s) = 6.26430 6.71019 6.49108
#
# Compressibility (1/GPa) = 0.02237657
#
# Stress axis : x y z
#
# Youngs Moduli (GPa) = 34.45390 61.97300 61.77618
#
# Poissons Ratio (x) = 0.91041 0.53323
# Poissons Ratio (y) = 0.50614 -0.23700
# Poissons Ratio (z) = 0.29739 -0.23775
#
# Static dielectric constant tensor:
#      x y z
#    x 3.333200 0.000000 0.000000 
#    y 0.000000 3.700200 0.000000 
#    z 0.000000 0.000000 3.664230 
# 
# 
# High freq. dielectric constant tensor:
#      x y z
#    x 1.736660 0.000000 0.000000 
#    y 0.000000 1.772310 0.000000 
#    z 0.000000 0.000000 1.780370 
# 
# From -- ./inp_files/2841.got.cif
#   From: 2010.03.12/outbox.cif.g09.slc.cpg/sg55_2_cif.got.tgz:2841.got - 2010.04.16 15:19:21.
