data_PCOD8227533
_publ_section_title
;
Structure prediction by ZEFSAII (Michael W. Deem and Ramdas Pophale) SiO2 
 PCOD8227533
Probable space group: P B A M
;
_chemical_formula_sum "Si O2"
_cell_formula_units_Z 48
_cell_length_a 8.350251
_cell_length_b 18.769413
_cell_length_c 15.283272
_cell_angle_alpha 90.000000
_cell_angle_beta 90.000000
_cell_angle_gamma 90.000000
_cell_volume 2395.336670
_symmetry_space_group_name_H-M "P B A M"
_symmetry_group_IT_number 55
_symmetry_cell_setting 'orthorhombic'
loop_
_space_group_symop_operation_xyz
x,y,z
-x,-y,z
1/2+x,1/2-y,-z
1/2-x,1/2+y,-z
-x,-y,-z
x,y,-z
1/2-x,1/2+y,z
1/2+x,1/2-y,z
loop_
_atom_site_type_symbol
_atom_site_label
_atom_site_fract_x
_atom_site_fract_y
_atom_site_fract_z
Si Si1 0.031603 0.283284 0.000000
Si Si2 0.923571 0.923026 0.602323
Si Si3 0.426616 0.331564 0.742904
Si Si4 0.930351 0.681988 0.198231
Si Si5 0.208304 0.149565 0.000000
Si Si6 0.868270 0.443223 0.716941
Si Si7 0.381380 0.556662 0.148638
O O1 0.095054 0.318267 0.908377
O O2 0.048702 0.197443 0.000000
O O3 0.841570 0.289939 0.000000
O O4 0.926523 0.908758 0.500000
O O5 0.737348 0.918520 0.633778
O O6 0.027100 0.858902 0.645488
O O7 0.000000 0.000000 0.626184
O O8 0.498935 0.255382 0.766361
O O9 0.236794 0.330796 0.753929
O O10 0.502681 0.387563 0.807452
O O11 0.053188 0.621991 0.230763
O O12 0.228555 0.097531 0.919255
O O13 0.740379 0.480343 0.783076
O O14 0.000000 0.500000 0.686015
O O15 0.500000 0.500000 0.103270
#
# Coordination Sequence:
#
# PCOD8227533 Si02
#       7
#     4   8   8   8   4   8   8
#     4  12  24  40  60  90 125 170 218 268 303 362
#     4  10  22  43  69  97 126 159 205 259 320 390
#     4  11  22  40  63  92 122 169 211 259 318 380
#     4  12  23  40  64  91 128 170 220 260 315 370
#     4  12  23  40  56  88 120 165 220 267 317 367
#     4  11  22  41  64  92 128 167 212 258 318 384
#     4  11  22  38  58  85 124 166 214 265 316 367
#
# _framework density 20.038936
#
# number of rings (size 3 to 8) (size 9 to 14) (size 15 to 20)
#    0.000    0.833    3.333    7.250    0.000    0.333 
#    0.000    7.500    0.000    0.000    0.000    0.000 
#    0.000    0.000    0.000    0.000    0.000    0.000 
#
# Total GULP energy -594878.058864 kJ/mol
# GULP energy per Si atom -12393.292893 kJ/mol
# Density = 1.999333 g / cm^3
# Si number density = 20.038936 Si / 1000 Ang^3
#
#
#
# Elastic Constant Matrix: (Units=GPa)
#
#
# Indices 1 2 3 4 5 6 
#
# 1 116.7266 43.0535 51.6428 0.0000 0.0000 0.0000
# 2 43.0535 81.2094 47.5106 0.0000 0.0000 0.0000
# 3 51.6428 47.5106 137.7545 0.0000 0.0000 0.0000
# 4 0.0000 0.0000 0.0000 26.7589 0.0000 0.0000
# 5 0.0000 0.0000 0.0000 0.0000 21.4229 0.0000
# 6 0.0000 0.0000 0.0000 0.0000 0.0000 37.8858
#
#
#
# Elastic Compliance Matrix: (Units=1/GPa)
#
#
# Indices 1 2 3 4 5 6 
#
# 1 0.011424 -0.004448 -0.002748 0.000000 0.000000 0.000000
# 2 -0.004448 0.017159 -0.004250 0.000000 0.000000 0.000000
# 3 -0.002748 -0.004250 0.009756 0.000000 0.000000 0.000000
# 4 0.000000 0.000000 0.000000 0.037371 0.000000 0.000000
# 5 0.000000 0.000000 0.000000 0.000000 0.046679 0.000000
# 6 0.000000 0.000000 0.000000 0.000000 0.000000 0.026395
#
#
# Mechanical properties :
#
#
# Convention : Reuss Voigt Hill
#
# Bulk Modulus (GPa) = 64.75080 68.90048 66.82564
# Shear Modulus (GPa) = 28.27654 30.11244 29.19449
#
# Velocity S-wave (km/s) = 3.76051 3.88067 3.82106
# Velocity P-wave (km/s) = 7.15806 7.38494 7.27239
#
# Compressibility (1/GPa) = 0.01544383
#
# Stress axis : x y z
#
# Youngs Moduli (GPa) = 87.53694 58.27928 102.50592
#
# Poissons Ratio (x) = 0.25925 0.28173
# Poissons Ratio (y) = 0.38940 0.43568
# Poissons Ratio (z) = 0.24059 0.24770
#
# Static dielectric constant tensor:
#      x y z
#    x 4.038440 0.000000 0.000000 
#    y 0.000000 3.696940 0.000000 
#    z 0.000000 0.000000 4.698430 
# 
# 
# High freq. dielectric constant tensor:
#      x y z
#    x 1.796560 0.000000 0.000000 
#    y 0.000000 1.783140 0.000000 
#    z 0.000000 0.000000 1.771750 
# 
# From -- ./inp_files/17405.got.cif
#   From: 2010.03.12/outbox.cif.g09.slc.cpg/sg55_9_cif.got.tgz:17405.got - 2010.04.16 15:19:21.
