data_PCOD8227997
_publ_section_title
;
Structure prediction by ZEFSAII (Michael W. Deem and Ramdas Pophale) SiO2 
 PCOD8227997
Probable space group: P C C N
;
_chemical_formula_sum "Si O2"
_cell_formula_units_Z 56
_cell_length_a 9.229248
_cell_length_b 15.073120
_cell_length_c 19.884636
_cell_angle_alpha 90.000000
_cell_angle_beta 90.000000
_cell_angle_gamma 90.000000
_cell_volume 2766.222555
_symmetry_space_group_name_H-M "P C C N"
_symmetry_group_IT_number 56
_symmetry_cell_setting 'orthorhombic'
loop_
_space_group_symop_operation_xyz
x,y,z
1/2-x,1/2-y,z
1/2+x,-y,1/2-z
-x,1/2+y,1/2-z
-x,-y,-z
1/2+x,1/2+y,-z
1/2-x,y,1/2+z
x,1/2-y,1/2+z
loop_
_atom_site_type_symbol
_atom_site_label
_atom_site_fract_x
_atom_site_fract_y
_atom_site_fract_z
Si Si1 0.231446 0.976349 0.136171
Si Si2 0.670975 0.499519 0.505252
Si Si3 0.275499 0.415420 0.864977
Si Si4 0.526538 0.132246 0.810324
Si Si5 0.846252 0.328982 0.539946
Si Si6 0.547761 0.306730 0.893049
Si Si7 0.035022 0.583169 0.333282
O O1 0.387203 0.958359 0.170236
O O2 0.160095 0.879747 0.131326
O O3 0.255820 0.025164 0.065209
O O4 0.125259 0.041501 0.176483
O O5 0.500000 0.500000 0.500000
O O6 0.719134 0.571266 0.559448
O O7 0.728503 0.403165 0.523900
O O8 0.387683 0.334800 0.870422
O O9 0.346453 0.504573 0.835131
O O10 0.143705 0.385460 0.818352
O O11 0.581703 0.213748 0.856264
O O12 0.559622 0.147381 0.730957
O O13 0.750000 0.250000 0.569460
O O14 0.936588 0.297902 0.474032
O O15 0.956881 0.360503 0.597945
#
# Coordination Sequence:
#
# PCOD8227997 Si02
#       7
#     8   8   8   8   8   8   8
#     4  10  20  37  60  86 118 155 205 246 297 362
#     4  10  18  35  62  92 113 150 201 251 296 350
#     4  10  21  37  60  88 119 156 199 253 301 357
#     4  12  21  36  60  88 121 160 204 245 304 367
#     4  10  21  38  61  88 121 157 203 254 305 359
#     4  10  21  37  60  88 118 154 200 257 300 354
#     4  10  23  39  58  85 123 163 200 245 305 364
#
# _framework density 20.244215000000001
#
# number of rings (size 3 to 8) (size 9 to 14) (size 15 to 20)
#    0.000    1.714    1.429    4.286    0.000    4.571 
#    0.000    1.429    3.143    0.000    0.000    0.000 
#    0.000    0.000    0.000    0.000    0.000    0.000 
#
# Total GULP energy -694225.219933 kJ/mol
# GULP energy per Si atom -12396.878927 kJ/mol
# Density = 2.019814 g / cm^3
# Si number density = 20.244215 Si / 1000 Ang^3
#
#
#
# Elastic Constant Matrix: (Units=GPa)
#
#
# Indices 1 2 3 4 5 6 
#
# 1 108.9309 19.0784 31.3526 0.0000 0.0000 0.0000
# 2 19.0784 56.4333 46.2293 0.0000 0.0000 0.0000
# 3 31.3526 46.2293 140.5994 0.0000 0.0000 0.0000
# 4 0.0000 0.0000 0.0000 27.6247 0.0000 0.0000
# 5 0.0000 0.0000 0.0000 0.0000 24.0011 0.0000
# 6 0.0000 0.0000 0.0000 0.0000 0.0000 28.7642
#
#
#
# Elastic Compliance Matrix: (Units=1/GPa)
#
#
# Indices 1 2 3 4 5 6 
#
# 1 0.009993 -0.002125 -0.001529 0.000000 0.000000 0.000000
# 2 -0.002125 0.024704 -0.007649 0.000000 0.000000 0.000000
# 3 -0.001529 -0.007649 0.009968 0.000000 0.000000 0.000000
# 4 0.000000 0.000000 0.000000 0.036199 0.000000 0.000000
# 5 0.000000 0.000000 0.000000 0.000000 0.041665 0.000000
# 6 0.000000 0.000000 0.000000 0.000000 0.000000 0.034765
#
#
# Mechanical properties :
#
#
# Convention : Reuss Voigt Hill
#
# Bulk Modulus (GPa) = 45.33483 55.47602 50.40542
# Shear Modulus (GPa) = 26.70156 30.03157 28.36656
#
# Velocity S-wave (km/s) = 3.63571 3.85576 3.74735
# Velocity P-wave (km/s) = 6.32985 6.87643 6.60880
#
# Compressibility (1/GPa) = 0.02205810
#
# Stress axis : x y z
#
# Youngs Moduli (GPa) = 100.07440 40.47863 100.31659
#
# Poissons Ratio (x) = 0.08603 0.15343
# Poissons Ratio (y) = 0.21268 0.76731
# Poissons Ratio (z) = 0.15306 0.30962
#
# Static dielectric constant tensor:
#      x y z
#    x 4.531690 0.000000 0.000000 
#    y 0.000000 3.574820 0.000000 
#    z 0.000000 0.000000 3.699220 
# 
# 
# High freq. dielectric constant tensor:
#      x y z
#    x 1.802070 0.000000 0.000000 
#    y 0.000000 1.768920 0.000000 
#    z 0.000000 0.000000 1.790240 
# 
# From -- ./inp_files/18233.got.cif
#   From: 2010.03.12/outbox.cif.g09.slc.cpg/sg56_10_cif.got.tgz:18233.got - 2010.04.16 15:33:40.
