data_PCOD8227193
_publ_section_title
;
Structure prediction by ZEFSAII (Michael W. Deem and Ramdas Pophale) SiO2 
 PCOD8227193
Probable space group: P B A M
;
_chemical_formula_sum "Si O2"
_cell_formula_units_Z 64
_cell_length_a 11.025344
_cell_length_b 31.835600
_cell_length_c 8.873801
_cell_angle_alpha 90.000000
_cell_angle_beta 90.000000
_cell_angle_gamma 90.000000
_cell_volume 3114.690321
_symmetry_space_group_name_H-M "P B A M"
_symmetry_group_IT_number 55
_symmetry_cell_setting 'orthorhombic'
loop_
_space_group_symop_operation_xyz
x,y,z
-x,-y,z
1/2+x,1/2-y,-z
1/2-x,1/2+y,-z
-x,-y,-z
x,y,-z
1/2-x,1/2+y,z
1/2+x,1/2-y,z
loop_
_atom_site_type_symbol
_atom_site_label
_atom_site_fract_x
_atom_site_fract_y
_atom_site_fract_z
Si Si1 0.378566 0.339641 0.828478
Si Si2 0.781724 0.725145 0.328286
Si Si3 0.661413 0.096300 0.831379
Si Si4 0.637540 0.011156 0.323553
Si Si5 0.783737 0.317121 0.332543
Si Si6 0.912630 0.885602 0.329363
Si Si7 0.979887 0.675887 0.170788
Si Si8 0.881043 0.973427 0.178044
O O1 0.323721 0.295409 0.773378
O O2 0.282704 0.377027 0.814482
O O3 0.488307 0.352219 0.722750
O O4 0.422412 0.333923 0.000000
O O5 0.753231 0.713219 0.500000
O O6 0.794137 0.775083 0.304629
O O7 0.910941 0.706681 0.283016
O O8 0.659336 0.060033 0.708050
O O9 0.549366 0.127079 0.798113
O O10 0.653327 0.076833 0.000000
O O11 0.645053 0.001677 0.500000
O O12 0.500000 0.000000 0.264405
O O13 0.750559 0.986501 0.247998
O O14 0.842977 0.314793 0.500000
O O15 0.711285 0.360156 0.320019
O O16 0.879645 0.318159 0.199108
O O17 0.939220 0.900551 0.500000
O O18 0.907785 0.925507 0.220680
O O19 0.943900 0.687557 0.000000
O O20 0.867655 0.978038 0.000000
O O21 0.000000 0.000000 0.233214
#
# Coordination Sequence:
#
# PCOD8227193 Si02
#       8
#     8   8   8   8   8   8   8   8
#     4  10  21  39  62  92 124 158 205 256 302 362
#     4  10  21  39  62  87 119 163 207 249 304 363
#     4   9  20  39  61  87 120 157 199 246 302 365
#     4  11  25  41  62  94 127 162 208 259 312 379
#     4  10  24  41  59  85 122 163 202 248 302 365
#     4  11  24  41  63  93 127 163 206 255 312 373
#     4  10  22  39  61  90 121 155 202 254 304 360
#     4  11  25  45  68  95 128 167 211 263 324 387
#
# _framework density 20.547789000000002
#
# number of rings (size 3 to 8) (size 9 to 14) (size 15 to 20)
#    0.000    1.750    0.000    3.750    3.500   10.000 
#    0.000    0.000    0.000    0.000    0.000    0.000 
#    0.000    0.000    0.000    0.000    0.000    0.000 
#
# Total GULP energy -793489.398424 kJ/mol
# GULP energy per Si atom -12398.271850 kJ/mol
# Density = 2.050102 g / cm^3
# Si number density = 20.547789 Si / 1000 Ang^3
#
#
#
# Elastic Constant Matrix: (Units=GPa)
#
#
# Indices 1 2 3 4 5 6 
#
# 1 95.1815 19.5637 36.2886 0.0000 0.0000 0.0000
# 2 19.5637 85.5031 33.8629 0.0000 0.0000 0.0000
# 3 36.2886 33.8629 70.2035 0.0000 0.0000 0.0000
# 4 0.0000 0.0000 0.0000 30.3685 0.0000 0.0000
# 5 0.0000 0.0000 0.0000 0.0000 35.3276 0.0000
# 6 0.0000 0.0000 0.0000 0.0000 0.0000 19.0665
#
#
#
# Elastic Compliance Matrix: (Units=1/GPa)
#
#
# Indices 1 2 3 4 5 6 
#
# 1 0.013095 -0.000390 -0.006581 0.000000 0.000000 0.000000
# 2 -0.000390 0.014469 -0.006778 0.000000 0.000000 0.000000
# 3 -0.006581 -0.006778 0.020915 0.000000 0.000000 0.000000
# 4 0.000000 0.000000 0.000000 0.032929 0.000000 0.000000
# 5 0.000000 0.000000 0.000000 0.000000 0.028306 0.000000
# 6 0.000000 0.000000 0.000000 0.000000 0.000000 0.052448
#
#
# Mechanical properties :
#
#
# Convention : Reuss Voigt Hill
#
# Bulk Modulus (GPa) = 47.65867 47.81317 47.73592
# Shear Modulus (GPa) = 25.42531 27.69736 26.56133
#
# Velocity S-wave (km/s) = 3.52145 3.67542 3.59926
# Velocity P-wave (km/s) = 6.30702 6.42895 6.36828
#
# Compressibility (1/GPa) = 0.02098254
#
# Stress axis : x y z
#
# Youngs Moduli (GPa) = 76.36236 69.11365 47.81195
#
# Poissons Ratio (x) = 0.02695 0.31465
# Poissons Ratio (y) = 0.02978 0.32405
# Poissons Ratio (z) = 0.50254 0.46842
#
# Static dielectric constant tensor:
#      x y z
#    x 3.804920 0.000000 0.000000 
#    y 0.000000 3.711990 0.000000 
#    z 0.000000 0.000000 3.781370 
# 
# 
# High freq. dielectric constant tensor:
#      x y z
#    x 1.803830 0.000000 0.000000 
#    y 0.000000 1.807470 0.000000 
#    z 0.000000 0.000000 1.809940 
# 
# From -- ./inp_files/4690.got.cif
#   From: 2010.03.12/outbox.cif.g09.slc.cpg/sg55_3_cif.got.tgz:4690.got - 2010.04.16 15:19:21.
