data_PCOD8227359
_publ_section_title
;
Structure prediction by ZEFSAII (Michael W. Deem and Ramdas Pophale) SiO2 
 PCOD8227359
Probable space group: P B A M
;
_chemical_formula_sum "Si O2"
_cell_formula_units_Z 36
_cell_length_a 11.281198
_cell_length_b 22.139793
_cell_length_c 7.518476
_cell_angle_alpha 90.000000
_cell_angle_beta 90.000000
_cell_angle_gamma 90.000000
_cell_volume 1877.840042
_symmetry_space_group_name_H-M "P B A M"
_symmetry_group_IT_number 55
_symmetry_cell_setting 'orthorhombic'
loop_
_space_group_symop_operation_xyz
x,y,z
-x,-y,z
1/2+x,1/2-y,-z
1/2-x,1/2+y,-z
-x,-y,-z
x,y,-z
1/2-x,1/2+y,z
1/2+x,1/2-y,z
loop_
_atom_site_type_symbol
_atom_site_label
_atom_site_fract_x
_atom_site_fract_y
_atom_site_fract_z
Si Si1 0.235169 0.412418 0.500000
Si Si2 0.775853 0.447559 0.500000
Si Si3 0.482528 0.144897 0.500000
Si Si4 0.858895 0.284678 0.796809
Si Si5 0.845024 0.876143 0.202603
Si Si6 0.383822 0.352701 0.794687
O O1 0.198955 0.481922 0.500000
O O2 0.118784 0.372007 0.500000
O O3 0.310455 0.399232 0.676453
O O4 0.700477 0.430251 0.674273
O O5 0.902581 0.415045 0.500000
O O6 0.458047 0.184262 0.324417
O O7 0.732011 0.315897 0.763960
O O8 0.843715 0.214906 0.745506
O O9 0.902465 0.291449 0.000000
O O10 0.978330 0.859303 0.252101
O O11 0.833297 0.898607 0.000000
O O12 0.358281 0.367917 0.000000
#
# Coordination Sequence:
#
# PCOD8227359 Si02
#       6
#     4   4   4   8   8   8
#     4  12  25  37  55  85 116 150 192 233 274 326
#     4  10  22  41  58  76 112 154 194 237 275 321
#     4  10  22  38  59  83 110 151 195 229 275 333
#     4   9  19  37  60  84 113 146 180 230 288 338
#     4   9  19  37  60  82 109 148 191 231 282 339
#     4  10  22  37  57  88 117 145 184 233 287 339
#
# _framework density 19.170961999999999
#
# number of rings (size 3 to 8) (size 9 to 14) (size 15 to 20)
#    0.000    2.222    0.000    1.667    3.111    3.556 
#    0.000    2.222    0.000    6.667    0.000    0.000 
#    0.000    0.000    0.000    0.000    0.000    0.000 
#
# Total GULP energy -446552.841152 kJ/mol
# GULP energy per Si atom -12404.245588 kJ/mol
# Density = 1.912733 g / cm^3
# Si number density = 19.170962 Si / 1000 Ang^3
#
#
#
# Elastic Constant Matrix: (Units=GPa)
#
#
# Indices 1 2 3 4 5 6 
#
# 1 82.4884 -2.1624 35.0243 0.0000 0.0000 0.0000
# 2 -2.1624 57.9236 24.1705 0.0000 0.0000 0.0000
# 3 35.0243 24.1705 93.1969 0.0000 0.0000 0.0000
# 4 0.0000 0.0000 0.0000 21.0562 0.0000 0.0000
# 5 0.0000 0.0000 0.0000 0.0000 25.7031 0.0000
# 6 0.0000 0.0000 0.0000 0.0000 0.0000 19.4816
#
#
#
# Elastic Compliance Matrix: (Units=1/GPa)
#
#
# Indices 1 2 3 4 5 6 
#
# 1 0.014953 0.003255 -0.006464 0.000000 0.000000 0.000000
# 2 0.003255 0.020068 -0.006428 0.000000 0.000000 0.000000
# 3 -0.006464 -0.006428 0.014826 0.000000 0.000000 0.000000
# 4 0.000000 0.000000 0.000000 0.047492 0.000000 0.000000
# 5 0.000000 0.000000 0.000000 0.000000 0.038906 0.000000
# 6 0.000000 0.000000 0.000000 0.000000 0.000000 0.051330
#
#
# Mechanical properties :
#
#
# Convention : Reuss Voigt Hill
#
# Bulk Modulus (GPa) = 32.70722 38.63040 35.66881
# Shear Modulus (GPa) = 23.03734 25.01995 24.02864
#
# Velocity S-wave (km/s) = 3.47028 3.61653 3.54416
# Velocity P-wave (km/s) = 5.75804 6.13460 5.94930
#
# Compressibility (1/GPa) = 0.03057429
#
# Stress axis : x y z
#
# Youngs Moduli (GPa) = 66.87754 49.83069 67.44832
#
# Poissons Ratio (x) = -0.16222 0.43596
# Poissons Ratio (y) = -0.21771 0.43356
# Poissons Ratio (z) = 0.43227 0.32031
#
# Static dielectric constant tensor:
#      x y z
#    x 3.418560 0.000000 0.000000 
#    y 0.000000 3.313060 0.000000 
#    z 0.000000 0.000000 3.695570 
# 
# 
# High freq. dielectric constant tensor:
#      x y z
#    x 1.745190 0.000000 0.000000 
#    y 0.000000 1.734750 0.000000 
#    z 0.000000 0.000000 1.761380 
# 
# From -- ./inp_files/2170.got.cif
#   From: 2010.03.12/outbox.cif.g09.slc.cpg/sg55_2_cif.got.tgz:2170.got - 2010.04.16 15:19:21.
