data_PCOD8227345
_publ_section_title
;
Structure prediction by ZEFSAII (Michael W. Deem and Ramdas Pophale) SiO2 
 PCOD8227345
Probable space group: P B A M
;
_chemical_formula_sum "Si O2"
_cell_formula_units_Z 64
_cell_length_a 15.519362
_cell_length_b 23.960439
_cell_length_c 8.555572
_cell_angle_alpha 90.000000
_cell_angle_beta 90.000000
_cell_angle_gamma 90.000000
_cell_volume 3181.395664
_symmetry_space_group_name_H-M "P B A M"
_symmetry_group_IT_number 55
_symmetry_cell_setting 'orthorhombic'
loop_
_space_group_symop_operation_xyz
x,y,z
-x,-y,z
1/2+x,1/2-y,-z
1/2-x,1/2+y,-z
-x,-y,-z
x,y,-z
1/2-x,1/2+y,z
1/2+x,1/2-y,z
loop_
_atom_site_type_symbol
_atom_site_label
_atom_site_fract_x
_atom_site_fract_y
_atom_site_fract_z
Si Si1 0.336692 0.274133 0.318756
Si Si2 0.996002 0.411907 0.814465
Si Si3 0.843192 0.779215 0.317271
Si Si4 0.364856 0.997388 0.813726
Si Si5 0.593019 0.608118 0.679749
Si Si6 0.497329 0.213635 0.183561
Si Si7 0.673874 0.500203 0.183531
Si Si8 0.090045 0.113200 0.816082
O O1 0.355629 0.260981 0.500000
O O2 0.241807 0.254788 0.267162
O O3 0.342563 0.340488 0.287385
O O4 0.405862 0.242150 0.213919
O O5 0.082618 0.443009 0.755034
O O6 0.993129 0.349320 0.749391
O O7 0.912646 0.446410 0.754698
O O8 0.994881 0.410922 0.000000
O O9 0.843420 0.792219 0.500000
O O10 0.927037 0.743926 0.275399
O O11 0.842657 0.837779 0.224362
O O12 0.269129 0.995449 0.740843
O O13 0.361376 0.997123 0.000000
O O14 0.594472 0.590279 0.500000
O O15 0.619390 0.555020 0.781047
O O16 0.498140 0.627740 0.728173
O O17 0.517857 0.215699 0.000000
O O18 0.626128 0.445455 0.249425
O O19 0.682794 0.493215 0.000000
O O20 0.072756 0.110979 0.000000
#
# Coordination Sequence:
#
# PCOD8227345 Si02
#       8
#     8   8   8   8   8   8   8   8
#     4  10  24  43  61  84 119 166 204 240 295 361
#     4   8  16  30  53  83 117 151 187 225 285 351
#     4  11  24  42  62  85 120 164 204 243 298 361
#     4   8  15  32  53  80 118 155 183 229 288 345
#     4  11  23  41  62  83 115 158 199 239 292 359
#     4  11  22  36  62  96 121 151 197 253 302 352
#     4  10  22  36  59  88 117 149 191 247 300 346
#     4  11  23  40  61  89 118 149 194 250 304 351
#
# _framework density 20.116956999999999
#
# number of rings (size 3 to 8) (size 9 to 14) (size 15 to 20)
#    0.000    2.000    1.250    2.625    3.500    4.000 
#    0.000    0.000    0.000    0.000    0.000    4.375 
#    0.000    0.000    0.000    0.000    0.000    0.000 
#
# Total GULP energy -793713.996807 kJ/mol
# GULP energy per Si atom -12401.781200 kJ/mol
# Density = 2.007117 g / cm^3
# Si number density = 20.116957 Si / 1000 Ang^3
#
#
#
# Elastic Constant Matrix: (Units=GPa)
#
#
# Indices 1 2 3 4 5 6 
#
# 1 118.3475 46.0667 13.0406 0.0000 0.0000 0.0000
# 2 46.0667 148.3862 17.2192 0.0000 0.0000 0.0000
# 3 13.0406 17.2192 15.8908 0.0000 0.0000 0.0000
# 4 0.0000 0.0000 0.0000 20.8941 0.0000 0.0000
# 5 0.0000 0.0000 0.0000 0.0000 18.3991 0.0000
# 6 0.0000 0.0000 0.0000 0.0000 0.0000 28.1655
#
#
#
# Elastic Compliance Matrix: (Units=1/GPa)
#
#
# Indices 1 2 3 4 5 6 
#
# 1 0.010022 -0.002467 -0.005551 0.000000 0.000000 0.000000
# 2 -0.002467 0.008316 -0.006986 0.000000 0.000000 0.000000
# 3 -0.005551 -0.006986 0.075055 0.000000 0.000000 0.000000
# 4 0.000000 0.000000 0.000000 0.047860 0.000000 0.000000
# 5 0.000000 0.000000 0.000000 0.000000 0.054350 0.000000
# 6 0.000000 0.000000 0.000000 0.000000 0.000000 0.035504
#
#
# Mechanical properties :
#
#
# Convention : Reuss Voigt Hill
#
# Bulk Modulus (GPa) = 15.77681 48.36415 32.07048
# Shear Modulus (GPa) = 17.71514 27.24496 22.48005
#
# Velocity S-wave (km/s) = 2.97072 3.68411 3.34648
# Velocity P-wave (km/s) = 4.43018 6.49543 5.55954
#
# Compressibility (1/GPa) = 0.06338416
#
# Stress axis : x y z
#
# Youngs Moduli (GPa) = 99.78400 120.25294 13.32351
#
# Poissons Ratio (x) = 0.29668 0.07396
# Poissons Ratio (y) = 0.24618 0.09308
# Poissons Ratio (z) = 0.55388 0.84013
#
# Static dielectric constant tensor:
#      x y z
#    x 3.832670 0.000000 0.000000 
#    y 0.000000 3.897780 0.000000 
#    z 0.000000 0.000000 3.303040 
# 
# 
# High freq. dielectric constant tensor:
#      x y z
#    x 1.791590 0.000000 0.000000 
#    y 0.000000 1.800240 0.000000 
#    z 0.000000 0.000000 1.756620 
# 
# From -- ./inp_files/6598.got.cif
#   From: 2010.03.12/outbox.cif.g09.slc.cpg/sg55_4_cif.got.tgz:6598.got - 2010.04.16 15:19:21.
