data_PCOD8227028
_publ_section_title
;
Structure prediction by ZEFSAII (Michael W. Deem and Ramdas Pophale) SiO2 
 PCOD8227028
Probable space group: P B A M
;
_chemical_formula_sum "Si O2"
_cell_formula_units_Z 64
_cell_length_a 29.376257
_cell_length_b 12.804141
_cell_length_c 8.673746
_cell_angle_alpha 90.000000
_cell_angle_beta 90.000000
_cell_angle_gamma 90.000000
_cell_volume 3262.523189
_symmetry_space_group_name_H-M "P B A M"
_symmetry_group_IT_number 55
_symmetry_cell_setting 'orthorhombic'
loop_
_space_group_symop_operation_xyz
x,y,z
-x,-y,z
1/2+x,1/2-y,-z
1/2-x,1/2+y,-z
-x,-y,-z
x,y,-z
1/2-x,1/2+y,z
1/2+x,1/2-y,z
loop_
_atom_site_type_symbol
_atom_site_label
_atom_site_fract_x
_atom_site_fract_y
_atom_site_fract_z
Si Si1 0.148032 0.498868 0.319544
Si Si2 0.554475 0.394534 0.317678
Si Si3 0.370219 0.765440 0.680144
Si Si4 0.616002 0.791022 0.819677
Si Si5 0.951673 0.128153 0.317275
Si Si6 0.255742 0.963222 0.172555
Si Si7 0.719016 0.326207 0.172130
Si Si8 0.795065 0.218278 0.676360
O O1 0.158266 0.511859 0.500000
O O2 0.121563 0.388871 0.288122
O O3 0.116971 0.596168 0.264774
O O4 0.195220 0.503464 0.227907
O O5 0.554719 0.389975 0.500000
O O6 0.589158 0.306795 0.251718
O O7 0.567925 0.513340 0.267838
O O8 0.503941 0.366328 0.260999
O O9 0.363808 0.743661 0.500000
O O10 0.324525 0.731845 0.764093
O O11 0.572900 0.723376 0.767303
O O12 0.660009 0.721191 0.779987
O O13 0.613362 0.812227 0.000000
O O14 0.946881 0.143299 0.500000
O O15 0.215400 0.049127 0.169172
O O16 0.237471 0.878815 0.290634
O O17 0.261940 0.918040 0.000000
O O18 0.762984 0.314811 0.281991
O O19 0.728603 0.282951 0.000000
O O20 0.810662 0.220445 0.500000
#
# Coordination Sequence:
#
# PCOD8227028 Si02
#       8
#     8   8   8   8   8   8   8   8
#     4  11  22  37  58  83 115 157 204 243 288 345
#     4   8  17  37  65  93 119 146 185 239 295 352
#     4  10  21  37  59  88 117 151 196 243 289 347
#     4  12  25  40  58  84 119 156 198 247 300 353
#     4   9  18  38  66  92 117 149 188 235 296 360
#     4  11  23  38  55  79 118 158 195 241 297 345
#     4  11  23  37  55  81 116 156 194 237 290 346
#     4  12  24  38  58  82 112 154 203 246 287 344
#
# _framework density 19.616719
#
# number of rings (size 3 to 8) (size 9 to 14) (size 15 to 20)
#    0.000    1.500    2.500    4.125    1.750    2.000 
#    0.000    2.500    0.000    3.750    0.000    0.000 
#    0.000    0.000    0.000    0.000    0.000    0.000 
#
# Total GULP energy -793209.358042 kJ/mol
# GULP energy per Si atom -12393.896219 kJ/mol
# Density = 1.957207 g / cm^3
# Si number density = 19.616719 Si / 1000 Ang^3
#
#
#
# Elastic Constant Matrix: (Units=GPa)
#
#
# Indices 1 2 3 4 5 6 
#
# 1 60.2303 39.5809 19.3333 0.0000 0.0000 0.0000
# 2 39.5809 131.1864 34.1037 0.0000 0.0000 0.0000
# 3 19.3333 34.1037 81.1980 0.0000 0.0000 0.0000
# 4 0.0000 0.0000 0.0000 26.3457 0.0000 0.0000
# 5 0.0000 0.0000 0.0000 0.0000 -4.1262 0.0000
# 6 0.0000 0.0000 0.0000 0.0000 0.0000 36.4906
#
#
#
# Elastic Compliance Matrix: (Units=1/GPa)
#
#
# Indices 1 2 3 4 5 6 
#
# 1 0.021206 -0.005709 -0.002651 0.000000 0.000000 0.000000
# 2 -0.005709 0.010094 -0.002880 0.000000 0.000000 0.000000
# 3 -0.002651 -0.002880 0.014157 0.000000 0.000000 0.000000
# 4 0.000000 0.000000 0.000000 0.037957 0.000000 0.000000
# 5 0.000000 0.000000 0.000000 0.000000 -0.242354 0.000000
# 6 0.000000 0.000000 0.000000 0.000000 0.000000 0.027404
#
#
# Mechanical properties :
#
#
# Convention : Reuss Voigt Hill
#
# Bulk Modulus (GPa) = 43.52493 50.96118 47.24306
# Shear Modulus (GPa) = -49.31097 23.71514 -12.79791
#
# Velocity S-wave (km/s) = -5.01914 3.48073 -2.55698
# Velocity P-wave (km/s) = 3.36945 6.49529 3.92655
#
# Compressibility (1/GPa) = 0.02297534
#
# Stress axis : x y z
#
# Youngs Moduli (GPa) = 47.15745 99.06943 70.63851
#
# Poissons Ratio (x) = 0.56557 0.18729
# Poissons Ratio (y) = 0.26921 0.20346
# Poissons Ratio (z) = 0.12503 0.28535
#
# Static dielectric constant tensor:
#      x y z
#    x 3.620970 0.000000 0.000000 
#    y 0.000000 3.905070 0.000000 
#    z 0.000000 0.000000 3.430160 
# 
# 
# High freq. dielectric constant tensor:
#      x y z
#    x 1.742540 0.000000 0.000000 
#    y 0.000000 1.783170 0.000000 
#    z 0.000000 0.000000 1.756230 
# 
# From -- ./inp_files/10735.got.cif
#   From: 2010.03.12/outbox.cif.g09.slc.cpg/sg55_6_cif.got.tgz:10735.got - 2010.04.16 15:19:21.
