data_PCOD8227694
_publ_section_title
;
Structure prediction by ZEFSAII (Michael W. Deem and Ramdas Pophale) SiO2 
 PCOD8227694
Probable space group: P B A M
;
_chemical_formula_sum "Si O2"
_cell_formula_units_Z 48
_cell_length_a 14.710567
_cell_length_b 19.779902
_cell_length_c 8.904064
_cell_angle_alpha 90.000000
_cell_angle_beta 90.000000
_cell_angle_gamma 90.000000
_cell_volume 2590.847322
_symmetry_space_group_name_H-M "P B A M"
_symmetry_group_IT_number 55
_symmetry_cell_setting 'orthorhombic'
loop_
_space_group_symop_operation_xyz
x,y,z
-x,-y,z
1/2+x,1/2-y,-z
1/2-x,1/2+y,-z
-x,-y,-z
x,y,-z
1/2-x,1/2+y,z
1/2+x,1/2-y,z
loop_
_atom_site_type_symbol
_atom_site_label
_atom_site_fract_x
_atom_site_fract_y
_atom_site_fract_z
Si Si1 0.380969 0.312968 0.323052
Si Si2 0.282239 0.985969 0.827848
Si Si3 0.301509 0.833234 0.173631
Si Si4 0.933299 0.438283 0.674188
Si Si5 0.496325 0.197453 0.825282
Si Si6 0.080930 0.953174 0.826503
O O1 0.379416 0.313276 0.500000
O O2 0.278963 0.297370 0.265550
O O3 0.447944 0.255031 0.268471
O O4 0.418120 0.384387 0.266184
O O5 0.331744 0.040189 0.722169
O O6 0.311745 0.911021 0.775334
O O7 0.174284 0.994668 0.806142
O O8 0.311174 0.998646 0.000000
O O9 0.395691 0.794774 0.203457
O O10 0.272362 0.831647 0.000000
O O11 0.934255 0.418016 0.500000
O O12 0.000000 0.500000 0.710348
O O13 0.963169 0.375407 0.773028
O O14 0.473107 0.205633 0.000000
O O15 0.065382 0.933735 0.000000
O O16 0.000000 0.000000 0.765006
#
# Coordination Sequence:
#
# PCOD8227694 Si02
#       6
#     8   8   8   8   8   8
#     4  11  23  38  58  86 120 151 184 234 294 349
#     4   9  17  33  57  84 110 143 190 235 276 330
#     4   9  19  37  61  83 106 148 196 233 275 335
#     4  11  22  34  53  85 121 151 182 229 291 344
#     4  11  22  39  62  83 111 152 198 240 278 335
#     4   9  19  39  64  86 111 149 197 238 276 333
#
# _framework density 18.526757
#
# number of rings (size 3 to 8) (size 9 to 14) (size 15 to 20)
#    0.000    2.000    1.667    3.500    0.000    5.000 
#    3.000    0.000    0.000    0.000    0.000    0.000 
#    0.000    0.000    0.000    0.000    0.000    0.000 
#
# Total GULP energy -595348.206600 kJ/mol
# GULP energy per Si atom -12403.087637 kJ/mol
# Density = 1.848459 g / cm^3
# Si number density = 18.526757 Si / 1000 Ang^3
#
#
#
# Elastic Constant Matrix: (Units=GPa)
#
#
# Indices 1 2 3 4 5 6 
#
# 1 109.3182 52.2416 47.0513 0.0000 0.0000 0.0000
# 2 52.2416 71.5822 41.5573 0.0000 0.0000 0.0000
# 3 47.0513 41.5573 88.9938 0.0000 0.0000 0.0000
# 4 0.0000 0.0000 0.0000 22.1714 0.0000 0.0000
# 5 0.0000 0.0000 0.0000 0.0000 2.0133 0.0000
# 6 0.0000 0.0000 0.0000 0.0000 0.0000 32.6637
#
#
#
# Elastic Compliance Matrix: (Units=1/GPa)
#
#
# Indices 1 2 3 4 5 6 
#
# 1 0.014952 -0.008674 -0.003854 0.000000 0.000000 0.000000
# 2 -0.008674 0.024198 -0.006714 0.000000 0.000000 0.000000
# 3 -0.003854 -0.006714 0.016410 0.000000 0.000000 0.000000
# 4 0.000000 0.000000 0.000000 0.045103 0.000000 0.000000
# 5 0.000000 0.000000 0.000000 0.000000 0.496709 0.000000
# 6 0.000000 0.000000 0.000000 0.000000 0.000000 0.030615
#
#
# Mechanical properties :
#
#
# Convention : Reuss Voigt Hill
#
# Bulk Modulus (GPa) = 58.56566 61.28830 59.92698
# Shear Modulus (GPa) = 7.43867 19.97261 13.70564
#
# Velocity S-wave (km/s) = 2.00594 3.28692 2.72283
# Velocity P-wave (km/s) = 6.08647 6.89622 6.50396
#
# Compressibility (1/GPa) = 0.01707485
#
# Stress axis : x y z
#
# Youngs Moduli (GPa) = 66.88074 41.32525 60.93968
#
# Poissons Ratio (x) = 0.35847 0.23489
# Poissons Ratio (y) = 0.58015 0.40913
# Poissons Ratio (z) = 0.25779 0.27744
#
# Static dielectric constant tensor:
#      x y z
#    x 3.612510 0.000000 0.000000 
#    y 0.000000 3.264500 0.000000 
#    z 0.000000 0.000000 3.356700 
# 
# 
# High freq. dielectric constant tensor:
#      x y z
#    x 1.728990 0.000000 0.000000 
#    y 0.000000 1.701050 0.000000 
#    z 0.000000 0.000000 1.718930 
# 
# From -- ./inp_files/5682.got.cif
#   From: 2010.03.12/outbox.cif.g09.slc.cpg/sg55_3_cif.got.tgz:5682.got - 2010.04.16 15:19:21.
