data_PCOD8227643
_publ_section_title
;
Structure prediction by ZEFSAII (Michael W. Deem and Ramdas Pophale) SiO2 
 PCOD8227643
Probable space group: P B A M
;
_chemical_formula_sum "Si O2"
_cell_formula_units_Z 64
_cell_length_a 18.532811
_cell_length_b 13.754308
_cell_length_c 14.034969
_cell_angle_alpha 90.000000
_cell_angle_beta 90.000000
_cell_angle_gamma 90.000000
_cell_volume 3577.597676
_symmetry_space_group_name_H-M "P B A M"
_symmetry_group_IT_number 55
_symmetry_cell_setting 'orthorhombic'
loop_
_space_group_symop_operation_xyz
x,y,z
-x,-y,z
1/2+x,1/2-y,-z
1/2-x,1/2+y,-z
-x,-y,-z
x,y,-z
1/2-x,1/2+y,z
1/2+x,1/2-y,z
loop_
_atom_site_type_symbol
_atom_site_label
_atom_site_fract_x
_atom_site_fract_y
_atom_site_fract_z
Si Si1 0.072288 0.871613 0.395471
Si Si2 0.608441 0.954088 0.887013
Si Si3 0.856197 0.140584 0.795565
Si Si4 0.510880 0.352234 0.888257
Si Si5 0.587701 0.398657 0.604245
Si Si6 0.770959 0.311673 0.887218
Si Si7 0.463148 0.860300 0.112572
Si Si8 0.854808 0.920488 0.203583
O O1 0.097155 0.832718 0.500000
O O2 0.123415 0.828265 0.312827
O O3 0.988415 0.843346 0.377355
O O4 0.075331 0.986951 0.393460
O O5 0.679099 0.899875 0.848295
O O6 0.539099 0.897862 0.845271
O O7 0.602207 0.067751 0.854010
O O8 0.610862 0.947451 0.000000
O O9 0.794651 0.211946 0.835835
O O10 0.927800 0.146368 0.859351
O O11 0.824328 0.030744 0.799200
O O12 0.548410 0.250237 0.856861
O O13 0.562374 0.430095 0.835820
O O14 0.514655 0.371621 0.000000
O O15 0.618583 0.367521 0.500000
O O16 0.643808 0.375610 0.689173
O O17 0.690619 0.345331 0.860301
O O18 0.775600 0.294059 0.000000
O O19 0.469950 0.867495 0.000000
#
# Coordination Sequence:
#
# PCOD8227643 Si02
#       8
#     8   8   8   8   8   8   8   8
#     4   8  14  28  54  82 102 124 160 212 269 319
#     4   8  14  28  47  65  88 125 172 212 245 281
#     4  11  21  36  54  73 103 137 175 220 262 311
#     4  11  20  31  49  75 103 134 173 215 256 304
#     4   8  14  29  53  79 104 127 158 209 269 320
#     4  11  23  36  48  69 107 150 181 211 259 310
#     4   8  14  26  47  69  88 120 171 219 245 276
#     4  11  23  35  50  76 104 136 174 212 263 322
#
# _framework density 17.889099000000002
#
# number of rings (size 3 to 8) (size 9 to 14) (size 15 to 20)
#    0.000    2.500    2.500    2.625    0.000    3.500 
#    0.000    1.875    0.000    0.000    0.000    0.000 
#    0.000    3.000    0.000    0.000    0.000    0.000 
#
# Total GULP energy -792868.009424 kJ/mol
# GULP energy per Si atom -12388.562647 kJ/mol
# Density = 1.784838 g / cm^3
# Si number density = 17.889099 Si / 1000 Ang^3
#
#
#
# Elastic Constant Matrix: (Units=GPa)
#
#
# Indices 1 2 3 4 5 6 
#
# 1 54.8218 16.4236 25.4973 0.0000 0.0000 0.0000
# 2 16.4236 55.2848 28.5753 0.0000 0.0000 0.0000
# 3 25.4973 28.5753 103.3512 0.0000 0.0000 0.0000
# 4 0.0000 0.0000 0.0000 15.1938 0.0000 0.0000
# 5 0.0000 0.0000 0.0000 0.0000 22.5360 0.0000
# 6 0.0000 0.0000 0.0000 0.0000 0.0000 24.5650
#
#
#
# Elastic Compliance Matrix: (Units=1/GPa)
#
#
# Indices 1 2 3 4 5 6 
#
# 1 0.021424 -0.004238 -0.004114 0.000000 0.000000 0.000000
# 2 -0.004238 0.021943 -0.005021 0.000000 0.000000 0.000000
# 3 -0.004114 -0.005021 0.012079 0.000000 0.000000 0.000000
# 4 0.000000 0.000000 0.000000 0.065816 0.000000 0.000000
# 5 0.000000 0.000000 0.000000 0.000000 0.044374 0.000000
# 6 0.000000 0.000000 0.000000 0.000000 0.000000 0.040708
#
#
# Mechanical properties :
#
#
# Convention : Reuss Voigt Hill
#
# Bulk Modulus (GPa) = 34.84419 39.38337 37.11378
# Shear Modulus (GPa) = 20.60529 21.98971 21.29750
#
# Velocity S-wave (km/s) = 3.39755 3.50983 3.45415
# Velocity P-wave (km/s) = 5.90858 6.20390 6.05804
#
# Compressibility (1/GPa) = 0.02869919
#
# Stress axis : x y z
#
# Youngs Moduli (GPa) = 46.67705 45.57347 82.78907
#
# Poissons Ratio (x) = 0.19315 0.34056
# Poissons Ratio (y) = 0.19783 0.41570
# Poissons Ratio (z) = 0.19201 0.22884
#
# Static dielectric constant tensor:
#      x y z
#    x 3.138300 0.000000 0.000000 
#    y 0.000000 3.443820 0.000000 
#    z 0.000000 0.000000 3.445830 
# 
# 
# High freq. dielectric constant tensor:
#      x y z
#    x 1.669600 0.000000 0.000000 
#    y 0.000000 1.675940 0.000000 
#    z 0.000000 0.000000 1.669220 
# 
# From -- ./inp_files/19563.got.cif
#   From: 2010.03.12/outbox.cif.g09.slc.cpg/sg55_10_cif.got.tgz:19563.got - 2010.04.16 15:19:21.
