data_PCOD8227218
_publ_section_title
;
Structure prediction by ZEFSAII (Michael W. Deem and Ramdas Pophale) SiO2 
 PCOD8227218
Probable space group: P B A M
;
_chemical_formula_sum "Si O2"
_cell_formula_units_Z 64
_cell_length_a 11.745987
_cell_length_b 30.347691
_cell_length_c 8.635012
_cell_angle_alpha 90.000000
_cell_angle_beta 90.000000
_cell_angle_gamma 90.000000
_cell_volume 3078.067325
_symmetry_space_group_name_H-M "P B A M"
_symmetry_group_IT_number 55
_symmetry_cell_setting 'orthorhombic'
loop_
_space_group_symop_operation_xyz
x,y,z
-x,-y,z
1/2+x,1/2-y,-z
1/2-x,1/2+y,-z
-x,-y,-z
x,y,-z
1/2-x,1/2+y,z
1/2+x,1/2-y,z
loop_
_atom_site_type_symbol
_atom_site_label
_atom_site_fract_x
_atom_site_fract_y
_atom_site_fract_z
Si Si1 0.609337 0.624319 0.179899
Si Si2 0.363658 0.623803 0.319223
Si Si3 0.254379 0.953348 0.678992
Si Si4 0.753970 0.697102 0.678551
Si Si5 0.485507 0.930912 0.174312
Si Si6 0.516460 0.170006 0.824668
Si Si7 0.765631 0.456404 0.178834
Si Si8 0.795636 0.296171 0.680110
O O1 0.477173 0.622032 0.218952
O O2 0.677423 0.587669 0.274329
O O3 0.657838 0.672408 0.222000
O O4 0.628442 0.615124 0.000000
O O5 0.394670 0.625582 0.500000
O O6 0.289276 0.580766 0.285710
O O7 0.295042 0.667227 0.267029
O O8 0.235859 0.963612 0.500000
O O9 0.386690 0.942609 0.706645
O O10 0.214516 0.996259 0.774751
O O11 0.724457 0.688937 0.500000
O O12 0.877622 0.677936 0.713257
O O13 0.756127 0.748656 0.719104
O O14 0.522710 0.880304 0.191625
O O15 0.598444 0.959190 0.209523
O O16 0.440641 0.940456 0.000000
O O17 0.411601 0.200231 0.775516
O O18 0.552185 0.181537 0.000000
O O19 0.738843 0.445856 0.000000
O O20 0.825057 0.301922 0.500000
#
# Coordination Sequence:
#
# PCOD8227218 Si02
#       8
#     8   8   8   8   8   8   8   8
#     4  12  26  45  66  92 126 168 213 264 321 378
#     4  11  24  44  67  94 127 166 213 264 314 378
#     4  12  25  41  65  96 127 166 213 262 313 378
#     4  11  24  43  66  95 129 171 215 262 318 376
#     4  10  21  39  63  94 132 167 205 257 316 373
#     4  11  22  39  66  98 131 167 210 262 317 373
#     4  11  23  42  66  94 130 169 208 259 317 377
#     4  10  24  43  66  94 130 170 211 259 316 376
#
# _framework density 20.792268
#
# number of rings (size 3 to 8) (size 9 to 14) (size 15 to 20)
#    0.000    1.000    2.500    4.125    1.750    5.000 
#    0.000    2.500    0.000    0.000    0.000    0.000 
#    0.000    0.000    0.000    0.000    0.000    0.000 
#
# Total GULP energy -794088.261569 kJ/mol
# GULP energy per Si atom -12407.629087 kJ/mol
# Density = 2.074494 g / cm^3
# Si number density = 20.792268 Si / 1000 Ang^3
#
#
#
# Elastic Constant Matrix: (Units=GPa)
#
#
# Indices 1 2 3 4 5 6 
#
# 1 87.2581 24.9318 27.8581 0.0000 0.0000 0.0000
# 2 24.9318 102.7173 21.7778 0.0000 0.0000 0.0000
# 3 27.8581 21.7778 66.8637 0.0000 0.0000 0.0000
# 4 0.0000 0.0000 0.0000 25.3153 0.0000 0.0000
# 5 0.0000 0.0000 0.0000 0.0000 36.9350 0.0000
# 6 0.0000 0.0000 0.0000 0.0000 0.0000 22.5703
#
#
#
# Elastic Compliance Matrix: (Units=1/GPa)
#
#
# Indices 1 2 3 4 5 6 
#
# 1 0.013695 -0.002271 -0.004966 0.000000 0.000000 0.000000
# 2 -0.002271 0.010834 -0.002583 0.000000 0.000000 0.000000
# 3 -0.004966 -0.002583 0.017866 0.000000 0.000000 0.000000
# 4 0.000000 0.000000 0.000000 0.039502 0.000000 0.000000
# 5 0.000000 0.000000 0.000000 0.000000 0.027075 0.000000
# 6 0.000000 0.000000 0.000000 0.000000 0.000000 0.044306
#
#
# Mechanical properties :
#
#
# Convention : Reuss Voigt Hill
#
# Bulk Modulus (GPa) = 43.94533 45.10826 44.52679
# Shear Modulus (GPa) = 27.70056 29.11555 28.40806
#
# Velocity S-wave (km/s) = 3.65396 3.74613 3.70033
# Velocity P-wave (km/s) = 6.24366 6.36028 6.30224
#
# Compressibility (1/GPa) = 0.02275555
#
# Stress axis : x y z
#
# Youngs Moduli (GPa) = 73.02139 92.29989 55.97234
#
# Poissons Ratio (x) = 0.20962 0.27796
# Poissons Ratio (y) = 0.16584 0.14455
# Poissons Ratio (z) = 0.36262 0.23837
#
# Static dielectric constant tensor:
#      x y z
#    x 3.652030 0.000000 0.000000 
#    y 0.000000 3.943830 0.000000 
#    z 0.000000 0.000000 3.744050 
# 
# 
# High freq. dielectric constant tensor:
#      x y z
#    x 1.811030 0.000000 0.000000 
#    y 0.000000 1.827670 0.000000 
#    z 0.000000 0.000000 1.817320 
# 
# From -- ./inp_files/4532.got.cif
#   From: 2010.03.12/outbox.cif.g09.slc.cpg/sg55_3_cif.got.tgz:4532.got - 2010.04.16 15:19:21.
