data_PCOD8228843
_publ_section_title
;
Structure prediction by ZEFSAII (Michael W. Deem and Ramdas Pophale) SiO2 
 PCOD8228843
Probable space group: P C C N
;
_chemical_formula_sum "Si O2"
_cell_formula_units_Z 48
_cell_length_a 14.990542
_cell_length_b 27.569505
_cell_length_c 5.220039
_cell_angle_alpha 90.000000
_cell_angle_beta 90.000000
_cell_angle_gamma 90.000000
_cell_volume 2157.347232
_symmetry_space_group_name_H-M "P C C N"
_symmetry_group_IT_number 56
_symmetry_cell_setting 'orthorhombic'
loop_
_space_group_symop_operation_xyz
x,y,z
1/2-x,1/2-y,z
1/2+x,-y,1/2-z
-x,1/2+y,1/2-z
-x,-y,-z
1/2+x,1/2+y,-z
1/2-x,y,1/2+z
x,1/2-y,1/2+z
loop_
_atom_site_type_symbol
_atom_site_label
_atom_site_fract_x
_atom_site_fract_y
_atom_site_fract_z
Si Si1 0.349149 0.770460 0.822940
Si Si2 0.046462 0.142608 0.260253
Si Si3 0.566686 0.366549 0.757553
Si Si4 0.306737 0.952080 0.787206
Si Si5 0.711643 0.695825 0.851598
Si Si6 0.194560 0.063212 0.309358
O O1 0.250000 0.750000 0.872296
O O2 0.398839 0.758132 0.091356
O O3 0.352211 0.827792 0.766643
O O4 0.105874 0.191071 0.200347
O O5 0.109593 0.095893 0.249846
O O6 0.006037 0.147130 0.543379
O O7 0.972117 0.136925 0.042968
O O8 0.603907 0.420008 0.707016
O O9 0.252327 0.939032 0.532711
O O10 0.338042 0.007629 0.788801
O O11 0.750000 0.750000 0.890120
O O12 0.762987 0.668829 0.617546
O O13 0.230995 0.073457 0.593726
#
# Coordination Sequence:
#
# PCOD8228843 Si02
#       6
#     8   8   8   8   8   8
#     4  10  23  43  65  87 118 173 211 258 315 383
#     4  12  24  41  64  98 133 162 208 273 324 378
#     4  12  26  41  64  99 130 164 209 268 334 371
#     4  10  23  41  68  95 128 174 217 255 300 392
#     4  10  21  41  63  84 115 165 210 250 311 372
#     4  10  21  41  68  97 128 174 219 250 308 384
#
# _framework density 22.249545999999999
#
# number of rings (size 3 to 8) (size 9 to 14) (size 15 to 20)
#    0.000    1.333    0.000    5.000    4.667    1.333 
#   18.000    0.000    0.000    0.000    0.000    0.000 
#    0.000    0.000    0.000    0.000    0.000    0.000 
#
# Total GULP energy -595057.089362 kJ/mol
# GULP energy per Si atom -12397.022695 kJ/mol
# Density = 2.219891 g / cm^3
# Si number density = 22.249546 Si / 1000 Ang^3
#
#
#
# Elastic Constant Matrix: (Units=GPa)
#
#
# Indices 1 2 3 4 5 6 
#
# 1 68.1607 25.9193 5.7633 0.0000 0.0000 0.0000
# 2 25.9193 97.6773 -6.5846 0.0000 0.0000 0.0000
# 3 5.7633 -6.5846 161.9121 0.0000 0.0000 0.0000
# 4 0.0000 0.0000 0.0000 31.3734 0.0000 0.0000
# 5 0.0000 0.0000 0.0000 0.0000 29.2216 0.0000
# 6 0.0000 0.0000 0.0000 0.0000 0.0000 37.6403
#
#
#
# Elastic Compliance Matrix: (Units=1/GPa)
#
#
# Indices 1 2 3 4 5 6 
#
# 1 0.016411 -0.004406 -0.000763 0.000000 0.000000 0.000000
# 2 -0.004406 0.011449 0.000622 0.000000 0.000000 0.000000
# 3 -0.000763 0.000622 0.006229 0.000000 0.000000 0.000000
# 4 0.000000 0.000000 0.000000 0.031874 0.000000 0.000000
# 5 0.000000 0.000000 0.000000 0.000000 0.034221 0.000000
# 6 0.000000 0.000000 0.000000 0.000000 0.000000 0.026567
#
#
# Mechanical properties :
#
#
# Convention : Reuss Voigt Hill
#
# Bulk Modulus (GPa) = 40.00870 41.99400 41.00135
# Shear Modulus (GPa) = 34.67944 39.82386 37.25165
#
# Velocity S-wave (km/s) = 3.95227 4.23528 4.09622
# Velocity P-wave (km/s) = 6.23282 6.54460 6.39062
#
# Compressibility (1/GPa) = 0.02499456
#
# Stress axis : x y z
#
# Youngs Moduli (GPa) = 60.93352 87.34387 160.54773
#
# Poissons Ratio (x) = 0.38486 0.12256
# Poissons Ratio (y) = 0.26849 -0.09993
# Poissons Ratio (z) = 0.04651 -0.05437
#
# Static dielectric constant tensor:
#      x y z
#    x 3.789840 0.000000 0.000000 
#    y 0.000000 4.168750 0.000000 
#    z 0.000000 0.000000 5.054500 
# 
# 
# High freq. dielectric constant tensor:
#      x y z
#    x 1.846900 0.000000 0.000000 
#    y 0.000000 1.881870 0.000000 
#    z 0.000000 0.000000 1.916260 
# 
# From -- ./inp_files/537.got.cif
#   From: 2010.03.12/outbox.cif.g09.slc.cpg/sg56_1_cif.got.tgz:537.got - 2010.04.16 15:33:40.
