data_PCOD8228616
_publ_section_title
;
Structure prediction by ZEFSAII (Michael W. Deem and Ramdas Pophale) SiO2 
 PCOD8228616
Probable space group: P C C N
;
_chemical_formula_sum "Si O2"
_cell_formula_units_Z 48
_cell_length_a 11.046379
_cell_length_b 9.117643
_cell_length_c 22.557507
_cell_angle_alpha 90.000000
_cell_angle_beta 90.000000
_cell_angle_gamma 90.000000
_cell_volume 2271.923083
_symmetry_space_group_name_H-M "P C C N"
_symmetry_group_IT_number 56
_symmetry_cell_setting 'orthorhombic'
loop_
_space_group_symop_operation_xyz
x,y,z
1/2-x,1/2-y,z
1/2+x,-y,1/2-z
-x,1/2+y,1/2-z
-x,-y,-z
1/2+x,1/2+y,-z
1/2-x,y,1/2+z
x,1/2-y,1/2+z
loop_
_atom_site_type_symbol
_atom_site_label
_atom_site_fract_x
_atom_site_fract_y
_atom_site_fract_z
Si Si1 0.344111 0.973470 0.326503
Si Si2 0.350078 0.476801 0.692438
Si Si3 0.975491 0.714683 0.461730
Si Si4 0.750000 0.250000 0.361528
Si Si5 0.018632 0.889203 0.082977
Si Si6 0.093356 0.844764 0.358437
Si Si7 0.750000 0.750000 0.886979
O O1 0.209152 0.949499 0.351963
O O2 0.403929 0.811562 0.323819
O O3 0.338967 0.048206 0.262347
O O4 0.420190 0.093443 0.364566
O O5 0.330519 0.647637 0.680337
O O6 0.480993 0.431033 0.668740
O O7 0.243338 0.388703 0.657847
O O8 0.974601 0.544389 0.447968
O O9 0.858896 0.782647 0.430939
O O10 0.977291 0.731819 0.533188
O O11 0.084046 0.803684 0.428855
O O12 0.654187 0.156843 0.399435
#
# Coordination Sequence:
#
# PCOD8228616 Si02
#       7
#     8   8   8   4   8   8   4
#     4  10  22  40  65  94 128 168 217 268 320 386
#     4  11  24  39  66  91 134 170 214 260 326 389
#     4   9  19  40  65  88 122 168 215 262 321 382
#     4  12  24  42  60 100 130 168 218 262 324 386
#     4  10  22  39  64  91 122 168 214 264 318 376
#     4   9  21  41  63  92 126 173 214 262 331 380
#     4  10  20  44  62  94 126 174 206 262 328 388
#
# _framework density 21.127475
#
# number of rings (size 3 to 8) (size 9 to 14) (size 15 to 20)
#    0.000    2.000    1.667    1.000    4.667    4.000 
#    3.000    1.667    0.000    0.000    0.000    0.000 
#    0.000    0.000    0.000    0.000    0.000    0.000 
#
# Total GULP energy -594688.570103 kJ/mol
# GULP energy per Si atom -12389.345210 kJ/mol
# Density = 2.107939 g / cm^3
# Si number density = 21.127475 Si / 1000 Ang^3
#
#
#
# Elastic Constant Matrix: (Units=GPa)
#
#
# Indices 1 2 3 4 5 6 
#
# 1 132.9920 46.9957 67.3579 0.0000 0.0000 0.0000
# 2 46.9957 58.5525 44.0911 0.0000 0.0000 0.0000
# 3 67.3579 44.0911 166.4690 0.0000 0.0000 0.0000
# 4 0.0000 0.0000 0.0000 -11.3479 0.0000 0.0000
# 5 0.0000 0.0000 0.0000 0.0000 24.9550 0.0000
# 6 0.0000 0.0000 0.0000 0.0000 0.0000 37.6807
#
#
#
# Elastic Compliance Matrix: (Units=1/GPa)
#
#
# Indices 1 2 3 4 5 6 
#
# 1 0.011415 -0.007100 -0.002738 0.000000 0.000000 0.000000
# 2 -0.007100 0.025750 -0.003947 0.000000 0.000000 0.000000
# 3 -0.002738 -0.003947 0.008161 0.000000 0.000000 0.000000
# 4 0.000000 0.000000 0.000000 -0.088122 0.000000 0.000000
# 5 0.000000 0.000000 0.000000 0.000000 0.040072 0.000000
# 6 0.000000 0.000000 0.000000 0.000000 0.000000 0.026539
#
#
# Mechanical properties :
#
#
# Convention : Reuss Voigt Hill
#
# Bulk Modulus (GPa) = 56.32467 74.98922 65.65695
# Shear Modulus (GPa) = 87.25471 23.56215 55.40843
#
# Velocity S-wave (km/s) = 6.43341 3.34314 5.12667
# Velocity P-wave (km/s) = 9.05000 7.10443 8.13558
#
# Compressibility (1/GPa) = 0.01775421
#
# Stress axis : x y z
#
# Youngs Moduli (GPa) = 87.60297 38.83538 122.53999
#
# Poissons Ratio (x) = 0.27573 0.33556
# Poissons Ratio (y) = 0.62199 0.48369
# Poissons Ratio (z) = 0.23989 0.15329
#
# Static dielectric constant tensor:
#      x y z
#    x 3.933350 0.000000 0.000000 
#    y 0.000000 3.750990 0.000000 
#    z 0.000000 0.000000 4.225400 
# 
# 
# High freq. dielectric constant tensor:
#      x y z
#    x 1.828080 0.000000 0.000000 
#    y 0.000000 1.815020 0.000000 
#    z 0.000000 0.000000 1.830480 
# 
# From -- ./inp_files/20950.got.cif
#   From: 2010.03.12/outbox.cif.g09.slc.cpg/sg56_11_cif.got.tgz:20950.got - 2010.04.16 15:33:40.
