data_PCOD8228804
_publ_section_title
;
Structure prediction by ZEFSAII (Michael W. Deem and Ramdas Pophale) SiO2 
 PCOD8228804
Probable space group: P C C N
;
_chemical_formula_sum "Si O2"
_cell_formula_units_Z 48
_cell_length_a 7.809981
_cell_length_b 12.964131
_cell_length_c 19.230518
_cell_angle_alpha 90.000000
_cell_angle_beta 90.000000
_cell_angle_gamma 90.000000
_cell_volume 1947.082578
_symmetry_space_group_name_H-M "P C C N"
_symmetry_group_IT_number 56
_symmetry_cell_setting 'orthorhombic'
loop_
_space_group_symop_operation_xyz
x,y,z
1/2-x,1/2-y,z
1/2+x,-y,1/2-z
-x,1/2+y,1/2-z
-x,-y,-z
1/2+x,1/2+y,-z
1/2-x,y,1/2+z
x,1/2-y,1/2+z
loop_
_atom_site_type_symbol
_atom_site_label
_atom_site_fract_x
_atom_site_fract_y
_atom_site_fract_z
Si Si1 0.075905 0.310792 0.648015
Si Si2 0.961650 0.366184 0.242362
Si Si3 0.219747 0.510060 0.176563
Si Si4 0.013976 0.424295 0.937807
Si Si5 0.160277 0.358827 0.384161
Si Si6 0.057143 0.782737 0.001813
O O1 0.250000 0.250000 0.632741
O O2 0.121657 0.428722 0.668892
O O3 0.968259 0.248942 0.708236
O O4 0.963735 0.315158 0.578246
O O5 0.770439 0.405465 0.263884
O O6 0.045986 0.447399 0.190275
O O7 0.068448 0.376733 0.312174
O O8 0.162021 0.572368 0.107249
O O9 0.189296 0.444432 0.894148
O O10 0.000000 0.500000 0.000000
O O11 0.051594 0.316905 0.976817
O O12 0.250000 0.250000 0.376637
O O13 0.017903 0.370065 0.445954
O O14 0.250000 0.750000 0.017110
#
# Coordination Sequence:
#
# PCOD8228804 Si02
#       6
#     8   8   8   8   8   8
#     4  10  22  43  64  88 130 177 219 274 344 415
#     4  11  23  41  62  92 129 169 218 281 342 409
#     4  11  23  39  64  96 128 175 230 280 345 423
#     4  11  22  39  64  92 126 171 223 279 337 414
#     4  10  21  40  63  87 124 171 216 269 337 407
#     4  11  23  40  62  93 126 167 216 275 342 408
#
# _framework density 24.652266000000001
#
# number of rings (size 3 to 8) (size 9 to 14) (size 15 to 20)
#    0.000    1.333    0.000    8.000    0.000    4.000 
#    0.000    7.500    0.000    0.000    0.000    0.000 
#    0.000    0.000    0.000    0.000    0.000    0.000 
#
# Total GULP energy -594720.223815 kJ/mol
# GULP energy per Si atom -12390.004663 kJ/mol
# Density = 2.459616 g / cm^3
# Si number density = 24.652266 Si / 1000 Ang^3
#
#
#
# Elastic Constant Matrix: (Units=GPa)
#
#
# Indices 1 2 3 4 5 6 
#
# 1 74.2360 23.9148 10.2419 0.0000 0.0000 0.0000
# 2 23.9148 60.9979 32.3633 0.0000 0.0000 0.0000
# 3 10.2419 32.3633 108.9766 0.0000 0.0000 0.0000
# 4 0.0000 0.0000 0.0000 20.9942 0.0000 0.0000
# 5 0.0000 0.0000 0.0000 0.0000 51.1592 0.0000
# 6 0.0000 0.0000 0.0000 0.0000 0.0000 29.3052
#
#
#
# Elastic Compliance Matrix: (Units=1/GPa)
#
#
# Indices 1 2 3 4 5 6 
#
# 1 0.015433 -0.006269 0.000411 0.000000 0.000000 0.000000
# 2 -0.006269 0.022007 -0.005946 0.000000 0.000000 0.000000
# 3 0.000411 -0.005946 0.010904 0.000000 0.000000 0.000000
# 4 0.000000 0.000000 0.000000 0.047632 0.000000 0.000000
# 5 0.000000 0.000000 0.000000 0.000000 0.019547 0.000000
# 6 0.000000 0.000000 0.000000 0.000000 0.000000 0.034124
#
#
# Mechanical properties :
#
#
# Convention : Reuss Voigt Hill
#
# Bulk Modulus (GPa) = 40.42759 41.91674 41.17217
# Shear Modulus (GPa) = 27.54827 32.13772 29.84300
#
# Velocity S-wave (km/s) = 3.34649 3.61452 3.48308
# Velocity P-wave (km/s) = 5.60060 5.87024 5.73701
#
# Compressibility (1/GPa) = 0.02473558
#
# Stress axis : x y z
#
# Youngs Moduli (GPa) = 64.79474 45.44071 91.71346
#
# Poissons Ratio (x) = 0.28487 -0.03772
# Poissons Ratio (y) = 0.40620 0.54535
# Poissons Ratio (z) = -0.02665 0.27020
#
# Static dielectric constant tensor:
#      x y z
#    x 1.517320 0.000000 0.000000 
#    y 0.000000 4.056230 0.000000 
#    z 0.000000 0.000000 4.414540 
# 
# 
# High freq. dielectric constant tensor:
#      x y z
#    x 1.982020 0.000000 0.000000 
#    y 0.000000 1.969400 0.000000 
#    z 0.000000 0.000000 1.986630 
# 
# From -- ./inp_files/14790.got.cif
#   From: 2010.03.12/outbox.cif.g09.slc.cpg/sg56_8_cif.got.tgz:14790.got - 2010.04.16 15:33:40.
