data_PCOD8228779
_publ_section_title
;
Structure prediction by ZEFSAII (Michael W. Deem and Ramdas Pophale) SiO2 
 PCOD8228779
Probable space group: P C C N
;
_chemical_formula_sum "Si O2"
_cell_formula_units_Z 64
_cell_length_a 8.709639
_cell_length_b 19.559337
_cell_length_c 18.770373
_cell_angle_alpha 90.000000
_cell_angle_beta 90.000000
_cell_angle_gamma 90.000000
_cell_volume 3197.622469
_symmetry_space_group_name_H-M "P C C N"
_symmetry_group_IT_number 56
_symmetry_cell_setting 'orthorhombic'
loop_
_space_group_symop_operation_xyz
x,y,z
1/2-x,1/2-y,z
1/2+x,-y,1/2-z
-x,1/2+y,1/2-z
-x,-y,-z
1/2+x,1/2+y,-z
1/2-x,y,1/2+z
x,1/2-y,1/2+z
loop_
_atom_site_type_symbol
_atom_site_label
_atom_site_fract_x
_atom_site_fract_y
_atom_site_fract_z
Si Si1 0.270752 0.049708 0.973062
Si Si2 0.651213 0.682928 0.293168
Si Si3 0.685825 0.575717 0.877358
Si Si4 0.889853 0.920969 0.169978
Si Si5 0.251748 0.573922 0.648149
Si Si6 0.884264 0.094819 0.498494
Si Si7 0.369331 0.926243 0.296616
Si Si8 0.156866 0.681283 0.869677
O O1 0.194824 0.085502 0.905296
O O2 0.284579 0.967298 0.966644
O O3 0.156528 0.071624 0.037788
O O4 0.440210 0.076673 0.985770
O O5 0.750000 0.750000 0.280393
O O6 0.709381 0.640440 0.361001
O O7 0.666441 0.639018 0.221286
O O8 0.478412 0.700828 0.314965
O O9 0.780534 0.507216 0.859051
O O10 0.533823 0.586332 0.831184
O O11 0.071865 0.914099 0.160861
O O12 0.834886 0.992943 0.202876
O O13 0.307861 0.613844 0.577737
O O14 0.356102 0.599030 0.714560
O O15 0.887527 0.160397 0.549901
O O16 0.244890 0.884146 0.339872
O O17 0.250000 0.750000 0.875654
#
# Coordination Sequence:
#
# PCOD8228779 Si02
#       8
#     8   8   8   8   8   8   8   8
#     4  10  21  39  66 101 133 166 214 281 329 386
#     4  12  25  45  64  94 131 179 224 273 330 402
#     4  10  22  38  66  97 132 169 217 271 330 393
#     4  11  23  39  67 100 137 166 222 279 338 387
#     4  10  22  37  64 104 131 164 216 278 328 388
#     4  10  22  39  66  98 133 168 215 269 335 392
#     4  11  22  39  68 100 133 171 219 277 333 390
#     4  12  25  46  66  93 131 184 221 266 329 409
#
# _framework density 20.014869999999998
#
# number of rings (size 3 to 8) (size 9 to 14) (size 15 to 20)
#    0.000    1.250    5.000    0.750    3.500    1.500 
#    0.000    2.500    0.000    0.000    0.000    0.000 
#    0.000    0.000    0.000    0.000    0.000    0.000 
#
# Total GULP energy -793437.174290 kJ/mol
# GULP energy per Si atom -12397.455848 kJ/mol
# Density = 1.996932 g / cm^3
# Si number density = 20.014870 Si / 1000 Ang^3
#
#
#
# Elastic Constant Matrix: (Units=GPa)
#
#
# Indices 1 2 3 4 5 6 
#
# 1 83.2344 38.9475 52.6021 0.0000 0.0000 0.0000
# 2 38.9475 87.2043 46.9831 0.0000 0.0000 0.0000
# 3 52.6021 46.9831 158.8502 0.0000 0.0000 0.0000
# 4 0.0000 0.0000 0.0000 51.7372 0.0000 0.0000
# 5 0.0000 0.0000 0.0000 0.0000 33.8535 0.0000
# 6 0.0000 0.0000 0.0000 0.0000 0.0000 24.8309
#
#
#
# Elastic Compliance Matrix: (Units=1/GPa)
#
#
# Indices 1 2 3 4 5 6 
#
# 1 0.017137 -0.005468 -0.004058 0.000000 0.000000 0.000000
# 2 -0.005468 0.015386 -0.002740 0.000000 0.000000 0.000000
# 3 -0.004058 -0.002740 0.008449 0.000000 0.000000 0.000000
# 4 0.000000 0.000000 0.000000 0.019328 0.000000 0.000000
# 5 0.000000 0.000000 0.000000 0.000000 0.029539 0.000000
# 6 0.000000 0.000000 0.000000 0.000000 0.000000 0.040272
#
#
# Mechanical properties :
#
#
# Convention : Reuss Voigt Hill
#
# Bulk Modulus (GPa) = 60.82250 67.37269 64.09759
# Shear Modulus (GPa) = 31.22603 34.80141 33.01372
#
# Velocity S-wave (km/s) = 3.95415 4.17439 4.06576
# Velocity P-wave (km/s) = 7.16252 7.54774 7.35765
#
# Compressibility (1/GPa) = 0.01644129
#
# Stress axis : x y z
#
# Youngs Moduli (GPa) = 58.35307 64.99602 118.35293
#
# Poissons Ratio (x) = 0.35538 0.48023
# Poissons Ratio (y) = 0.31906 0.32429
# Poissons Ratio (z) = 0.23678 0.17809
#
# Static dielectric constant tensor:
#      x y z
#    x 3.772360 0.000000 0.000000 
#    y 0.000000 3.405470 0.000000 
#    z 0.000000 0.000000 3.959840 
# 
# 
# High freq. dielectric constant tensor:
#      x y z
#    x 1.786590 0.000000 0.000000 
#    y 0.000000 1.750120 0.000000 
#    z 0.000000 0.000000 1.797590 
# 
# From -- ./inp_files/15236.got.cif
#   From: 2010.03.12/outbox.cif.g09.slc.cpg/sg56_8_cif.got.tgz:15236.got - 2010.04.16 15:33:40.
