data_PCOD8228591
_publ_section_title
;
Structure prediction by ZEFSAII (Michael W. Deem and Ramdas Pophale) SiO2 
 PCOD8228591
Probable space group: P C C N
;
_chemical_formula_sum "Si O2"
_cell_formula_units_Z 64
_cell_length_a 8.342163
_cell_length_b 27.422993
_cell_length_c 12.853657
_cell_angle_alpha 90.000000
_cell_angle_beta 90.000000
_cell_angle_gamma 90.000000
_cell_volume 2940.493548
_symmetry_space_group_name_H-M "P C C N"
_symmetry_group_IT_number 56
_symmetry_cell_setting 'orthorhombic'
loop_
_space_group_symop_operation_xyz
x,y,z
1/2-x,1/2-y,z
1/2+x,-y,1/2-z
-x,1/2+y,1/2-z
-x,-y,-z
1/2+x,1/2+y,-z
1/2-x,y,1/2+z
x,1/2-y,1/2+z
loop_
_atom_site_type_symbol
_atom_site_label
_atom_site_fract_x
_atom_site_fract_y
_atom_site_fract_z
Si Si1 0.279948 0.037591 0.431674
Si Si2 0.408859 0.729379 0.549105
Si Si3 0.446032 0.663994 0.737280
Si Si4 0.853773 0.706090 0.426085
Si Si5 0.196892 0.851433 0.393360
Si Si6 0.149555 0.115149 0.578469
Si Si7 0.378926 0.427428 0.234921
Si Si8 0.913895 0.438418 0.539933
O O1 0.159507 0.069915 0.499855
O O2 0.207615 0.035796 0.314865
O O3 0.459438 0.061375 0.443644
O O4 0.284167 0.981701 0.472776
O O5 0.250000 0.750000 0.603964
O O6 0.486071 0.695233 0.636207
O O7 0.534568 0.771584 0.517691
O O8 0.340030 0.698975 0.451433
O O9 0.536339 0.684653 0.837246
O O10 0.260702 0.660648 0.776596
O O11 0.504914 0.610163 0.704633
O O12 0.750000 0.750000 0.378031
O O13 0.730137 0.664750 0.470058
O O14 0.330927 0.885406 0.451998
O O15 0.033455 0.880792 0.388070
O O16 0.238520 0.104551 0.685409
O O17 0.482717 0.453047 0.143841
#
# Coordination Sequence:
#
# PCOD8228591 Si02
#       8
#     8   8   8   8   8   8   8   8
#     4  10  20  41  66  92 129 165 211 259 319 388
#     4  12  25  38  65  90 121 172 214 260 322 386
#     4  10  24  43  59  92 127 162 211 267 315 378
#     4  11  23  43  62  89 131 165 210 270 316 382
#     4  11  22  43  60  91 133 162 209 268 323 375
#     4  10  22  39  65  93 123 169 211 260 320 382
#     4   9  20  40  63  88 126 163 206 256 311 381
#     4   9  22  40  65  94 130 167 204 271 324 372
#
# _framework density 21.765053999999999
#
# number of rings (size 3 to 8) (size 9 to 14) (size 15 to 20)
#    0.000    1.750    2.500    1.500    1.750    3.000 
#    2.250    8.750    0.000    0.000    0.000    0.000 
#    0.000    0.000    0.000    0.000    0.000    0.000 
#
# Total GULP energy -793065.920600 kJ/mol
# GULP energy per Si atom -12391.655009 kJ/mol
# Density = 2.171552 g / cm^3
# Si number density = 21.765054 Si / 1000 Ang^3
#
#
#
# Elastic Constant Matrix: (Units=GPa)
#
#
# Indices 1 2 3 4 5 6 
#
# 1 105.8263 19.0205 25.6173 0.0000 0.0000 0.0000
# 2 19.0205 69.4267 18.2825 0.0000 0.0000 0.0000
# 3 25.6173 18.2825 67.4713 0.0000 0.0000 0.0000
# 4 0.0000 0.0000 0.0000 30.0433 0.0000 0.0000
# 5 0.0000 0.0000 0.0000 0.0000 18.5242 0.0000
# 6 0.0000 0.0000 0.0000 0.0000 0.0000 41.1346
#
#
#
# Elastic Compliance Matrix: (Units=1/GPa)
#
#
# Indices 1 2 3 4 5 6 
#
# 1 0.010657 -0.001997 -0.003505 0.000000 0.000000 0.000000
# 2 -0.001997 0.015884 -0.003546 0.000000 0.000000 0.000000
# 3 -0.003505 -0.003546 0.017113 0.000000 0.000000 0.000000
# 4 0.000000 0.000000 0.000000 0.033285 0.000000 0.000000
# 5 0.000000 0.000000 0.000000 0.000000 0.053983 0.000000
# 6 0.000000 0.000000 0.000000 0.000000 0.000000 0.024310
#
#
# Mechanical properties :
#
#
# Convention : Reuss Voigt Hill
#
# Bulk Modulus (GPa) = 39.12603 40.95167 40.03885
# Shear Modulus (GPa) = 27.49543 29.92735 28.71139
#
# Velocity S-wave (km/s) = 3.55813 3.71215 3.63595
# Velocity P-wave (km/s) = 5.90728 6.10160 6.00523
#
# Compressibility (1/GPa) = 0.02555844
#
# Stress axis : x y z
#
# Youngs Moduli (GPa) = 93.83693 62.95451 58.43577
#
# Poissons Ratio (x) = 0.12569 0.20482
# Poissons Ratio (y) = 0.18735 0.20722
# Poissons Ratio (z) = 0.32891 0.22324
#
# Static dielectric constant tensor:
#      x y z
#    x 4.187520 0.000000 0.000000 
#    y 0.000000 4.014920 0.000000 
#    z 0.000000 0.000000 3.592190 
# 
# 
# High freq. dielectric constant tensor:
#      x y z
#    x 1.865830 0.000000 0.000000 
#    y 0.000000 1.860390 0.000000 
#    z 0.000000 0.000000 1.823660 
# 
# From -- ./inp_files/6635.got.cif
#   From: 2010.03.12/outbox.cif.g09.slc.cpg/sg56_4_cif.got.tgz:6635.got - 2010.04.16 15:33:40.
