data_PCOD8228171
_publ_section_title
;
Structure prediction by ZEFSAII (Michael W. Deem and Ramdas Pophale) SiO2 
 PCOD8228171
Probable space group: P C C N
;
_chemical_formula_sum "Si O2"
_cell_formula_units_Z 48
_cell_length_a 17.089277
_cell_length_b 8.374152
_cell_length_c 15.937518
_cell_angle_alpha 90.000000
_cell_angle_beta 90.000000
_cell_angle_gamma 90.000000
_cell_volume 2280.789564
_symmetry_space_group_name_H-M "P C C N"
_symmetry_group_IT_number 56
_symmetry_cell_setting 'orthorhombic'
loop_
_space_group_symop_operation_xyz
x,y,z
1/2-x,1/2-y,z
1/2+x,-y,1/2-z
-x,1/2+y,1/2-z
-x,-y,-z
1/2+x,1/2+y,-z
1/2-x,y,1/2+z
x,1/2-y,1/2+z
loop_
_atom_site_type_symbol
_atom_site_label
_atom_site_fract_x
_atom_site_fract_y
_atom_site_fract_z
Si Si1 0.318880 0.143708 0.753197
Si Si2 0.475481 0.074192 0.692874
Si Si3 0.993625 0.923335 0.365010
Si Si4 0.887296 0.567069 0.010081
Si Si5 0.900926 0.633999 0.612997
Si Si6 0.751548 0.060919 0.102389
O O1 0.250000 0.250000 0.710220
O O2 0.379852 0.067881 0.686107
O O3 0.370641 0.264881 0.808220
O O4 0.283831 0.002684 0.809886
O O5 0.507144 0.246375 0.668347
O O6 0.502344 0.047535 0.788959
O O7 0.513936 0.941134 0.632552
O O8 0.910292 0.950600 0.412202
O O9 0.062565 0.950032 0.431279
O O10 0.906782 0.751165 0.032759
O O11 0.797046 0.518340 0.025187
O O12 0.840800 0.492450 0.592187
O O13 0.750000 0.250000 0.100153
#
# Coordination Sequence:
#
# PCOD8228171 Si02
#       6
#     8   8   8   8   8   8
#     4   9  19  35  55  90 128 167 211 266 322 383
#     4  12  20  38  62  98 123 167 213 280 317 392
#     4  11  22  36  64  87 128 157 215 261 327 381
#     4  10  21  41  57  91 124 173 207 269 319 393
#     4  10  20  34  63  87 125 167 219 255 326 382
#     4  10  19  36  62  88 120 173 221 256 320 395
#
# _framework density 21.045342999999999
#
# number of rings (size 3 to 8) (size 9 to 14) (size 15 to 20)
#    0.000    1.667    5.000    2.500    0.000    0.667 
#    0.000    3.333    0.000    3.000    0.000    0.000 
#    0.000    0.000    0.000    0.000    0.000    0.000 
#
# Total GULP energy -595067.856317 kJ/mol
# GULP energy per Si atom -12397.247007 kJ/mol
# Density = 2.099744 g / cm^3
# Si number density = 21.045343 Si / 1000 Ang^3
#
#
#
# Elastic Constant Matrix: (Units=GPa)
#
#
# Indices 1 2 3 4 5 6 
#
# 1 123.8340 45.8009 36.4249 0.0000 0.0000 0.0000
# 2 45.8009 132.5606 42.8056 0.0000 0.0000 0.0000
# 3 36.4249 42.8056 58.5568 0.0000 0.0000 0.0000
# 4 0.0000 0.0000 0.0000 19.2856 0.0000 0.0000
# 5 0.0000 0.0000 0.0000 0.0000 26.8827 0.0000
# 6 0.0000 0.0000 0.0000 0.0000 0.0000 41.9630
#
#
#
# Elastic Compliance Matrix: (Units=1/GPa)
#
#
# Indices 1 2 3 4 5 6 
#
# 1 0.010252 -0.001941 -0.004958 0.000000 0.000000 0.000000
# 2 -0.001941 0.010242 -0.006280 0.000000 0.000000 0.000000
# 3 -0.004958 -0.006280 0.024752 0.000000 0.000000 0.000000
# 4 0.000000 0.000000 0.000000 0.051852 0.000000 0.000000
# 5 0.000000 0.000000 0.000000 0.000000 0.037199 0.000000
# 6 0.000000 0.000000 0.000000 0.000000 0.000000 0.023831
#
#
# Mechanical properties :
#
#
# Convention : Reuss Voigt Hill
#
# Bulk Modulus (GPa) = 52.94284 62.77936 57.86110
# Shear Modulus (GPa) = 26.20808 30.28758 28.24783
#
# Velocity S-wave (km/s) = 3.53273 3.79774 3.66763
# Velocity P-wave (km/s) = 6.46927 7.00897 6.74452
#
# Compressibility (1/GPa) = 0.01888829
#
# Stress axis : x y z
#
# Youngs Moduli (GPa) = 97.54578 97.63564 40.40056
#
# Poissons Ratio (x) = 0.18951 0.20031
# Poissons Ratio (y) = 0.18934 0.25370
# Poissons Ratio (z) = 0.48364 0.61313
#
# Static dielectric constant tensor:
#      x y z
#    x 4.191940 0.000000 0.000000 
#    y 0.000000 3.855040 0.000000 
#    z 0.000000 0.000000 3.608810 
# 
# 
# High freq. dielectric constant tensor:
#      x y z
#    x 1.828100 0.000000 0.000000 
#    y 0.000000 1.829860 0.000000 
#    z 0.000000 0.000000 1.787260 
# 
# From -- ./inp_files/16543.got.cif
#   From: 2010.03.12/outbox.cif.g09.slc.cpg/sg56_9_cif.got.tgz:16543.got - 2010.04.16 15:33:40.
