data_PCOD8228130
_publ_section_title
;
Structure prediction by ZEFSAII (Michael W. Deem and Ramdas Pophale) SiO2 
 PCOD8228130
Probable space group: P C C N
;
_chemical_formula_sum "Si O2"
_cell_formula_units_Z 52
_cell_length_a 21.384798
_cell_length_b 8.854899
_cell_length_c 13.184456
_cell_angle_alpha 90.000000
_cell_angle_beta 90.000000
_cell_angle_gamma 90.000000
_cell_volume 2496.611573
_symmetry_space_group_name_H-M "P C C N"
_symmetry_group_IT_number 56
_symmetry_cell_setting 'orthorhombic'
loop_
_space_group_symop_operation_xyz
x,y,z
1/2-x,1/2-y,z
1/2+x,-y,1/2-z
-x,1/2+y,1/2-z
-x,-y,-z
1/2+x,1/2+y,-z
1/2-x,y,1/2+z
x,1/2-y,1/2+z
loop_
_atom_site_type_symbol
_atom_site_label
_atom_site_fract_x
_atom_site_fract_y
_atom_site_fract_z
Si Si1 0.340206 0.058533 0.469167
Si Si2 0.966840 0.703580 0.466856
Si Si3 0.046026 0.504786 0.123606
Si Si4 0.750000 0.750000 0.400561
Si Si5 0.588121 0.325289 0.917530
Si Si6 0.646743 0.841347 0.748795
Si Si7 0.434066 0.068354 0.737278
O O1 0.399838 0.162069 0.489883
O O2 0.281218 0.122649 0.529488
O O3 0.326705 0.069842 0.349291
O O4 0.356116 0.888701 0.509788
O O5 0.973125 0.651470 0.350910
O O6 0.021674 0.628647 0.532522
O O7 0.969642 0.887702 0.468047
O O8 0.089823 0.644600 0.088282
O O9 0.085222 0.424950 0.211890
O O10 0.979577 0.557172 0.167390
O O11 0.799179 0.841064 0.332386
O O12 0.590655 0.406834 0.806930
O O13 0.625921 0.667468 0.727188
#
# Coordination Sequence:
#
# PCOD8228130 Si02
#       7
#     8   8   8   4   8   8   8
#     4  11  22  40  65  89 118 169 213 263 311 369
#     4  10  19  35  56  93 129 162 204 253 317 382
#     4  11  20  34  58  94 135 162 195 262 321 381
#     4  12  22  46  66  86 120 164 228 254 300 388
#     4  11  20  34  59  91 131 159 200 261 320 377
#     4  11  23  41  65  91 120 166 214 258 310 374
#     4  10  19  35  57  89 127 162 204 255 313 371
#
# _framework density 20.828229
#
# number of rings (size 3 to 8) (size 9 to 14) (size 15 to 20)
#    0.000    1.231    4.615    7.385    0.000    0.000 
#    0.000    0.769    0.000    1.846    0.000    0.000 
#    0.000    0.000    0.000    0.000    0.000    0.000 
#
# Total GULP energy -644681.319475 kJ/mol
# GULP energy per Si atom -12397.717682 kJ/mol
# Density = 2.078082 g / cm^3
# Si number density = 20.828229 Si / 1000 Ang^3
#
#
#
# Elastic Constant Matrix: (Units=GPa)
#
#
# Indices 1 2 3 4 5 6 
#
# 1 80.0863 3.2154 20.3541 0.0000 0.0000 0.0000
# 2 3.2154 72.3154 1.1014 0.0000 0.0000 0.0000
# 3 20.3541 1.1014 76.5894 0.0000 0.0000 0.0000
# 4 0.0000 0.0000 0.0000 20.3843 0.0000 0.0000
# 5 0.0000 0.0000 0.0000 0.0000 31.1279 0.0000
# 6 0.0000 0.0000 0.0000 0.0000 0.0000 29.8704
#
#
#
# Elastic Compliance Matrix: (Units=1/GPa)
#
#
# Indices 1 2 3 4 5 6 
#
# 1 0.013412 -0.000542 -0.003557 0.000000 0.000000 0.000000
# 2 -0.000542 0.013853 -0.000055 0.000000 0.000000 0.000000
# 3 -0.003557 -0.000055 0.014003 0.000000 0.000000 0.000000
# 4 0.000000 0.000000 0.000000 0.049057 0.000000 0.000000
# 5 0.000000 0.000000 0.000000 0.000000 0.032126 0.000000
# 6 0.000000 0.000000 0.000000 0.000000 0.000000 0.033478
#
#
# Mechanical properties :
#
#
# Convention : Reuss Voigt Hill
#
# Bulk Modulus (GPa) = 30.33952 30.92587 30.63269
# Shear Modulus (GPa) = 28.53499 29.89786 29.21643
#
# Velocity S-wave (km/s) = 3.70539 3.79284 3.74937
# Velocity P-wave (km/s) = 5.73626 5.83619 5.78644
#
# Compressibility (1/GPa) = 0.03296031
#
# Stress axis : x y z
#
# Youngs Moduli (GPa) = 74.55889 72.18519 71.41520
#
# Poissons Ratio (x) = 0.03914 0.25399
# Poissons Ratio (y) = 0.04043 0.00394
# Poissons Ratio (z) = 0.26517 0.00398
#
# Static dielectric constant tensor:
#      x y z
#    x 3.503000 0.000000 0.000000 
#    y 0.000000 4.007010 0.000000 
#    z 0.000000 0.000000 4.000500 
# 
# 
# High freq. dielectric constant tensor:
#      x y z
#    x 1.784460 0.000000 0.000000 
#    y 0.000000 1.817900 0.000000 
#    z 0.000000 0.000000 1.821340 
# 
# From -- ./inp_files/10955.got.cif
#   From: 2010.03.12/outbox.cif.g09.slc.cpg/sg56_6_cif.got.tgz:10955.got - 2010.04.16 15:33:40.
