data_PCOD8228901
_publ_section_title
;
Structure prediction by ZEFSAII (Michael W. Deem and Ramdas Pophale) SiO2 
 PCOD8228901
Probable space group: P C C N
;
_chemical_formula_sum "Si O2"
_cell_formula_units_Z 40
_cell_length_a 12.729012
_cell_length_b 5.288173
_cell_length_c 24.242387
_cell_angle_alpha 90.000000
_cell_angle_beta 90.000000
_cell_angle_gamma 90.000000
_cell_volume 1631.833071
_symmetry_space_group_name_H-M "P C C N"
_symmetry_group_IT_number 56
_symmetry_cell_setting 'orthorhombic'
loop_
_space_group_symop_operation_xyz
x,y,z
1/2-x,1/2-y,z
1/2+x,-y,1/2-z
-x,1/2+y,1/2-z
-x,-y,-z
1/2+x,1/2+y,-z
1/2-x,y,1/2+z
x,1/2-y,1/2+z
loop_
_atom_site_type_symbol
_atom_site_label
_atom_site_fract_x
_atom_site_fract_y
_atom_site_fract_z
Si Si1 0.992609 0.984254 0.151970
Si Si2 0.373694 0.016349 0.150671
Si Si3 0.332869 0.542309 0.534948
Si Si4 0.449606 0.299736 0.960506
Si Si5 0.693365 0.993081 0.729668
O O1 0.919495 0.928055 0.097882
O O2 0.077072 0.762815 0.157571
O O3 0.924951 0.994212 0.207501
O O4 0.042074 0.260355 0.145427
O O5 0.295800 0.035770 0.096695
O O6 0.302737 0.046071 0.204589
O O7 0.250000 0.750000 0.511414
O O8 0.454474 0.607192 0.548677
O O9 0.344344 0.319547 0.489172
O O10 0.500000 0.500000 0.000000
O O11 0.750000 0.250000 0.710930
O O12 0.750000 0.750000 0.702731
#
# Coordination Sequence:
#
# PCOD8228901 Si02
#       5
#     8   8   8   8   8
#     4  11  23  43  69  92 135 184 226 270 356 415
#     4  11  22  42  70  96 131 178 229 287 340 413
#     4  10  22  40  66  99 132 178 234 289 353 403
#     4  10  21  43  62  94 136 177 225 289 336 425
#     4  12  25  43  64 101 137 171 225 283 342 418
#
# _framework density 24.512308999999998
#
# number of rings (size 3 to 8) (size 9 to 14) (size 15 to 20)
#    0.000    1.200    2.000    4.200    0.000    2.400 
#    3.600    0.000    0.000    0.000    0.000    0.000 
#    0.000    0.000    0.000    0.000    0.000    0.000 
#
# Total GULP energy -495678.611077 kJ/mol
# GULP energy per Si atom -12391.965277 kJ/mol
# Density = 2.445652 g / cm^3
# Si number density = 24.512309 Si / 1000 Ang^3
#
#
#
# Elastic Constant Matrix: (Units=GPa)
#
#
# Indices 1 2 3 4 5 6 
#
# 1 61.4115 32.7413 11.4936 0.0000 0.0000 0.0000
# 2 32.7413 153.3408 26.4090 0.0000 0.0000 0.0000
# 3 11.4936 26.4090 77.2925 0.0000 0.0000 0.0000
# 4 0.0000 0.0000 0.0000 20.7099 0.0000 0.0000
# 5 0.0000 0.0000 0.0000 0.0000 8.9118 0.0000
# 6 0.0000 0.0000 0.0000 0.0000 0.0000 54.4917
#
#
#
# Elastic Compliance Matrix: (Units=1/GPa)
#
#
# Indices 1 2 3 4 5 6 
#
# 1 0.018536 -0.003701 -0.001492 0.000000 0.000000 0.000000
# 2 -0.003701 0.007668 -0.002070 0.000000 0.000000 0.000000
# 3 -0.001492 -0.002070 0.013867 0.000000 0.000000 0.000000
# 4 0.000000 0.000000 0.000000 0.048286 0.000000 0.000000
# 5 0.000000 0.000000 0.000000 0.000000 0.112210 0.000000
# 6 0.000000 0.000000 0.000000 0.000000 0.000000 0.018351
#
#
# Mechanical properties :
#
#
# Convention : Reuss Voigt Hill
#
# Bulk Modulus (GPa) = 39.14494 48.14808 43.64651
# Shear Modulus (GPa) = 20.66468 31.58275 26.12372
#
# Velocity S-wave (km/s) = 2.90665 3.59338 3.26811
# Velocity P-wave (km/s) = 5.22197 6.07467 5.66439
#
# Compressibility (1/GPa) = 0.02554609
#
# Stress axis : x y z
#
# Youngs Moduli (GPa) = 53.94943 130.41091 72.11436
#
# Poissons Ratio (x) = 0.48263 0.10758
# Poissons Ratio (y) = 0.19966 0.14925
# Poissons Ratio (z) = 0.08048 0.26991
#
# Static dielectric constant tensor:
#      x y z
#    x 3.898610 0.000000 0.000000 
#    y 0.000000 4.557940 0.000000 
#    z 0.000000 0.000000 4.818680 
# 
# 
# High freq. dielectric constant tensor:
#      x y z
#    x 1.950570 0.000000 0.000000 
#    y 0.000000 1.994360 0.000000 
#    z 0.000000 0.000000 1.984740 
# 
# From -- ./inp_files/22191.got.cif
#   From: 2010.03.12/outbox.cif.g09.slc.cpg/sg56_12_cif.got.tgz:22191.got - 2010.04.16 15:33:40.
