data_PCOD8228405
_publ_section_title
;
Structure prediction by ZEFSAII (Michael W. Deem and Ramdas Pophale) SiO2 
 PCOD8228405
Probable space group: P C C N
;
_chemical_formula_sum "Si O2"
_cell_formula_units_Z 64
_cell_length_a 8.738131
_cell_length_b 15.054616
_cell_length_c 23.437621
_cell_angle_alpha 90.000000
_cell_angle_beta 90.000000
_cell_angle_gamma 90.000000
_cell_volume 3083.200451
_symmetry_space_group_name_H-M "P C C N"
_symmetry_group_IT_number 56
_symmetry_cell_setting 'orthorhombic'
loop_
_space_group_symop_operation_xyz
x,y,z
1/2-x,1/2-y,z
1/2+x,-y,1/2-z
-x,1/2+y,1/2-z
-x,-y,-z
1/2+x,1/2+y,-z
1/2-x,y,1/2+z
x,1/2-y,1/2+z
loop_
_atom_site_type_symbol
_atom_site_label
_atom_site_fract_x
_atom_site_fract_y
_atom_site_fract_z
Si Si1 0.174060 0.658187 0.268151
Si Si2 0.798207 0.647100 0.643367
Si Si3 0.179305 0.844836 0.376748
Si Si4 0.641490 0.910133 0.254118
Si Si5 0.652657 0.531230 0.927536
Si Si6 0.805684 0.492986 0.554386
Si Si7 0.325991 0.341937 0.648436
Si Si8 0.387166 0.920299 0.680360
O O1 0.250000 0.750000 0.286768
O O2 0.228087 0.604447 0.324765
O O3 0.243635 0.630327 0.207677
O O4 0.991098 0.663215 0.264531
O O5 0.750000 0.750000 0.632434
O O6 0.687526 0.597924 0.688383
O O7 0.787385 0.589003 0.585484
O O8 0.970149 0.645300 0.669149
O O9 0.250000 0.750000 0.396913
O O10 0.185008 0.918032 0.426765
O O11 0.004575 0.831008 0.359576
O O12 0.789540 0.899107 0.294630
O O13 0.564510 0.003730 0.273311
O O14 0.472475 0.549565 0.934324
O O15 0.742117 0.618576 0.907203
O O16 0.675603 0.455326 0.880006
O O17 0.725747 0.504004 0.987506
O O18 0.250000 0.250000 0.662377
#
# Coordination Sequence:
#
# PCOD8228405 Si02
#       8
#     8   8   8   8   8   8   8   8
#     4  11  21  35  55  82 115 146 183 233 292 351
#     4  11  22  36  57  88 122 158 201 246 302 368
#     4  11  22  37  60  89 119 155 198 247 303 360
#     4  11  21  35  57  85 116 154 194 238 295 356
#     4   9  21  39  61  82 111 155 203 247 298 355
#     4  10  21  41  61  83 118 157 201 252 300 356
#     4  11  21  36  59  86 117 150 194 246 299 362
#     4  10  20  37  57  82 115 154 195 242 298 354
#
# _framework density 20.757650000000002
#
# number of rings (size 3 to 8) (size 9 to 14) (size 15 to 20)
#    0.000    1.500    0.000    7.875    0.000    4.000 
#    0.000    1.875    0.000    0.000    0.000    0.000 
#    0.000    0.000    0.000    0.000    0.000    0.000 
#
# Total GULP energy -793245.846295 kJ/mol
# GULP energy per Si atom -12394.466348 kJ/mol
# Density = 2.071041 g / cm^3
# Si number density = 20.757650 Si / 1000 Ang^3
#
#
#
# Elastic Constant Matrix: (Units=GPa)
#
#
# Indices 1 2 3 4 5 6 
#
# 1 91.8896 23.1420 16.7537 0.0000 0.0000 0.0000
# 2 23.1420 83.7215 23.5029 0.0000 0.0000 0.0000
# 3 16.7537 23.5029 121.1626 0.0000 0.0000 0.0000
# 4 0.0000 0.0000 0.0000 13.0513 0.0000 0.0000
# 5 0.0000 0.0000 0.0000 0.0000 24.7211 0.0000
# 6 0.0000 0.0000 0.0000 0.0000 0.0000 34.7655
#
#
#
# Elastic Compliance Matrix: (Units=1/GPa)
#
#
# Indices 1 2 3 4 5 6 
#
# 1 0.011824 -0.002971 -0.001059 0.000000 0.000000 0.000000
# 2 -0.002971 0.013379 -0.002184 0.000000 0.000000 0.000000
# 3 -0.001059 -0.002184 0.008823 0.000000 0.000000 0.000000
# 4 0.000000 0.000000 0.000000 0.076621 0.000000 0.000000
# 5 0.000000 0.000000 0.000000 0.000000 0.040451 0.000000
# 6 0.000000 0.000000 0.000000 0.000000 0.000000 0.028764
#
#
# Mechanical properties :
#
#
# Convention : Reuss Voigt Hill
#
# Bulk Modulus (GPa) = 46.30062 47.06343 46.68203
# Shear Modulus (GPa) = 25.06389 30.06591 27.56490
#
# Velocity S-wave (km/s) = 3.47861 3.80995 3.64804
# Velocity P-wave (km/s) = 6.20388 6.48662 6.34683
#
# Compressibility (1/GPa) = 0.02159798
#
# Stress axis : x y z
#
# Youngs Moduli (GPa) = 84.57447 74.74484 113.33405
#
# Poissons Ratio (x) = 0.22208 0.11998
# Poissons Ratio (y) = 0.25128 0.24756
# Poissons Ratio (z) = 0.08953 0.16327
#
# Static dielectric constant tensor:
#      x y z
#    x 3.726160 0.000000 0.000000 
#    y 0.000000 3.755440 0.000000 
#    z 0.000000 0.000000 3.770670 
# 
# 
# High freq. dielectric constant tensor:
#      x y z
#    x 1.812440 0.000000 0.000000 
#    y 0.000000 1.805930 0.000000 
#    z 0.000000 0.000000 1.808490 
# 
# From -- ./inp_files/20683.got.cif
#   From: 2010.03.12/outbox.cif.g09.slc.cpg/sg56_11_cif.got.tgz:20683.got - 2010.04.16 15:33:40.
