data_PCOD8228347
_publ_section_title
;
Structure prediction by ZEFSAII (Michael W. Deem and Ramdas Pophale) SiO2 
 PCOD8228347
Probable space group: P C C N
;
_chemical_formula_sum "Si O2"
_cell_formula_units_Z 64
_cell_length_a 15.770762
_cell_length_b 11.376487
_cell_length_c 17.338322
_cell_angle_alpha 90.000000
_cell_angle_beta 90.000000
_cell_angle_gamma 90.000000
_cell_volume 3110.770106
_symmetry_space_group_name_H-M "P C C N"
_symmetry_group_IT_number 56
_symmetry_cell_setting 'orthorhombic'
loop_
_space_group_symop_operation_xyz
x,y,z
1/2-x,1/2-y,z
1/2+x,-y,1/2-z
-x,1/2+y,1/2-z
-x,-y,-z
1/2+x,1/2+y,-z
1/2-x,y,1/2+z
x,1/2-y,1/2+z
loop_
_atom_site_type_symbol
_atom_site_label
_atom_site_fract_x
_atom_site_fract_y
_atom_site_fract_z
Si Si1 0.109489 0.513707 0.656130
Si Si2 0.948734 0.065549 0.604382
Si Si3 0.459298 0.172821 0.372832
Si Si4 0.307063 0.636894 0.292255
Si Si5 0.502602 0.110611 0.769884
Si Si6 0.270341 0.123152 0.123984
Si Si7 0.090554 0.350668 0.001063
Si Si8 0.342639 0.485129 0.773580
O O1 0.035009 0.579579 0.606826
O O2 0.146814 0.615070 0.711095
O O3 0.184908 0.454391 0.605768
O O4 0.070246 0.405491 0.705542
O O5 0.873562 0.146771 0.637739
O O6 0.013155 0.152124 0.561475
O O7 0.909959 0.969723 0.547257
O O8 0.996622 0.000687 0.673334
O O9 0.496434 0.266916 0.312869
O O10 0.422094 0.234398 0.449065
O O11 0.380993 0.111853 0.330261
O O12 0.250000 0.750000 0.285576
O O13 0.246674 0.524605 0.309628
O O14 0.595223 0.098891 0.731253
O O15 0.250000 0.250000 0.160016
O O16 0.319638 0.147384 0.044144
O O17 0.328978 0.059506 0.186389
#
# Coordination Sequence:
#
# PCOD8228347 Si02
#       8
#     8   8   8   8   8   8   8   8
#     4   9  20  36  56  91 121 144 201 256 294 356
#     4   9  19  38  59  79 112 158 205 226 281 373
#     4  10  20  36  62  92 116 155 200 249 297 353
#     4  10  20  36  58  89 118 151 188 251 306 342
#     4   9  16  34  62  85 116 157 191 241 298 360
#     4  11  22  38  58  86 122 160 193 244 310 358
#     4  10  21  39  61  80 116 167 202 232 292 368
#     4  10  20  35  60  92 119 147 197 253 295 354
#
# _framework density 20.573684
#
# number of rings (size 3 to 8) (size 9 to 14) (size 15 to 20)
#    0.000    2.250    1.250    1.500    0.000    2.000 
#    6.750    0.625    0.000    0.000    0.000    0.000 
#    0.000    0.000    0.000    0.000    0.000    0.000 
#
# Total GULP energy -793358.527675 kJ/mol
# GULP energy per Si atom -12396.226995 kJ/mol
# Density = 2.052686 g / cm^3
# Si number density = 20.573684 Si / 1000 Ang^3
#
#
#
# Elastic Constant Matrix: (Units=GPa)
#
#
# Indices 1 2 3 4 5 6 
#
# 1 105.5162 29.5285 48.0164 0.0000 0.0000 0.0000
# 2 29.5285 62.6370 20.4552 0.0000 0.0000 0.0000
# 3 48.0164 20.4552 73.5814 0.0000 0.0000 0.0000
# 4 0.0000 0.0000 0.0000 25.8069 0.0000 0.0000
# 5 0.0000 0.0000 0.0000 0.0000 31.5702 0.0000
# 6 0.0000 0.0000 0.0000 0.0000 0.0000 32.3377
#
#
#
# Elastic Compliance Matrix: (Units=1/GPa)
#
#
# Indices 1 2 3 4 5 6 
#
# 1 0.014371 -0.004083 -0.008243 0.000000 0.000000 0.000000
# 2 -0.004083 0.018719 -0.002539 0.000000 0.000000 0.000000
# 3 -0.008243 -0.002539 0.019675 0.000000 0.000000 0.000000
# 4 0.000000 0.000000 0.000000 0.038749 0.000000 0.000000
# 5 0.000000 0.000000 0.000000 0.000000 0.031675 0.000000
# 6 0.000000 0.000000 0.000000 0.000000 0.000000 0.030924
#
#
# Mechanical properties :
#
#
# Convention : Reuss Voigt Hill
#
# Bulk Modulus (GPa) = 43.41246 48.63718 46.02482
# Shear Modulus (GPa) = 26.10663 27.52525 26.81594
#
# Velocity S-wave (km/s) = 3.56607 3.66168 3.61419
# Velocity P-wave (km/s) = 6.17273 6.44740 6.31156
#
# Compressibility (1/GPa) = 0.02303486
#
# Stress axis : x y z
#
# Youngs Moduli (GPa) = 69.58560 53.42145 50.82518
#
# Poissons Ratio (x) = 0.21811 0.41894
# Poissons Ratio (y) = 0.28411 0.12907
# Poissons Ratio (z) = 0.57358 0.13566
#
# Static dielectric constant tensor:
#      x y z
#    x 3.912750 0.000000 0.000000 
#    y 0.000000 3.605680 0.000000 
#    z 0.000000 0.000000 3.528030 
# 
# 
# High freq. dielectric constant tensor:
#      x y z
#    x 1.823460 0.000000 0.000000 
#    y 0.000000 1.800670 0.000000 
#    z 0.000000 0.000000 1.775290 
# 
# From -- ./inp_files/16359.got.cif
#   From: 2010.03.12/outbox.cif.g09.slc.cpg/sg56_9_cif.got.tgz:16359.got - 2010.04.16 15:33:40.
