data_PCOD8228959
_publ_section_title
;
Structure prediction by ZEFSAII (Michael W. Deem and Ramdas Pophale) SiO2 
 PCOD8228959
Probable space group: P C C N
;
_chemical_formula_sum "Si O2"
_cell_formula_units_Z 52
_cell_length_a 19.068730
_cell_length_b 15.222060
_cell_length_c 8.295411
_cell_angle_alpha 90.000000
_cell_angle_beta 90.000000
_cell_angle_gamma 90.000000
_cell_volume 2407.870395
_symmetry_space_group_name_H-M "P C C N"
_symmetry_group_IT_number 56
_symmetry_cell_setting 'orthorhombic'
loop_
_space_group_symop_operation_xyz
x,y,z
1/2-x,1/2-y,z
1/2+x,-y,1/2-z
-x,1/2+y,1/2-z
-x,-y,-z
1/2+x,1/2+y,-z
1/2-x,y,1/2+z
x,1/2-y,1/2+z
loop_
_atom_site_type_symbol
_atom_site_label
_atom_site_fract_x
_atom_site_fract_y
_atom_site_fract_z
Si Si1 0.250000 0.750000 0.986825
Si Si2 0.383646 0.151050 0.566406
Si Si3 0.635981 0.472386 0.740688
Si Si4 0.496573 0.425716 0.867752
Si Si5 0.786722 0.380091 0.761098
Si Si6 0.378294 0.030702 0.125013
Si Si7 0.822433 0.797043 0.253227
O O1 0.202163 0.682732 0.085828
O O2 0.301139 0.686425 0.885398
O O3 0.363418 0.058300 0.646170
O O4 0.457105 0.152379 0.464935
O O5 0.324674 0.174420 0.433046
O O6 0.384297 0.227247 0.701267
O O7 0.575159 0.405859 0.804689
O O8 0.708780 0.421267 0.752065
O O9 0.617097 0.500997 0.559185
O O10 0.453351 0.452760 0.706984
O O11 0.500000 0.500000 0.000000
O O12 0.843235 0.456358 0.762652
O O13 0.330265 0.117704 0.132822
O O14 0.750000 0.750000 0.292409
#
# Coordination Sequence:
#
# PCOD8228959 Si02
#       7
#     4   8   8   8   8   8   8
#     4  10  24  42  62  94 132 152 212 282 320 380
#     4  10  22  38  58  88 130 167 212 258 310 380
#     4  11  22  41  67  92 127 170 215 261 322 384
#     4   9  22  40  64  90 125 170 210 260 311 377
#     4  11  23  41  67  95 124 163 210 266 332 377
#     4  11  23  40  69  95 129 174 211 263 321 390
#     4  11  22  36  59  94 131 166 209 258 314 382
#
# _framework density 21.595846999999999
#
# number of rings (size 3 to 8) (size 9 to 14) (size 15 to 20)
#    0.000    1.538    1.538    2.769    6.462    3.692 
#    0.000    3.846   10.154    0.000    0.000    0.000 
#    0.000    0.000    0.000    0.000    0.000    0.000 
#
# Total GULP energy -644294.792168 kJ/mol
# GULP energy per Si atom -12390.284465 kJ/mol
# Density = 2.154669 g / cm^3
# Si number density = 21.595847 Si / 1000 Ang^3
#
#
#
# Elastic Constant Matrix: (Units=GPa)
#
#
# Indices 1 2 3 4 5 6 
#
# 1 72.6647 26.8786 26.1888 0.0000 0.0000 0.0000
# 2 26.8786 109.5163 29.6107 0.0000 0.0000 0.0000
# 3 26.1888 29.6107 118.1809 0.0000 0.0000 0.0000
# 4 0.0000 0.0000 0.0000 59.4594 0.0000 0.0000
# 5 0.0000 0.0000 0.0000 0.0000 24.0180 0.0000
# 6 0.0000 0.0000 0.0000 0.0000 0.0000 27.3384
#
#
#
# Elastic Compliance Matrix: (Units=1/GPa)
#
#
# Indices 1 2 3 4 5 6 
#
# 1 0.015919 -0.003168 -0.002734 0.000000 0.000000 0.000000
# 2 -0.003168 0.010425 -0.001910 0.000000 0.000000 0.000000
# 3 -0.002734 -0.001910 0.009546 0.000000 0.000000 0.000000
# 4 0.000000 0.000000 0.000000 0.016818 0.000000 0.000000
# 5 0.000000 0.000000 0.000000 0.000000 0.041635 0.000000
# 6 0.000000 0.000000 0.000000 0.000000 0.000000 0.036579
#
#
# Mechanical properties :
#
#
# Convention : Reuss Voigt Hill
#
# Bulk Modulus (GPa) = 49.34276 51.74646 50.54461
# Shear Modulus (GPa) = 32.61554 36.67540 34.64547
#
# Velocity S-wave (km/s) = 3.89043 4.12547 4.00967
# Velocity P-wave (km/s) = 6.56342 6.83418 6.70017
#
# Compressibility (1/GPa) = 0.02026640
#
# Stress axis : x y z
#
# Youngs Moduli (GPa) = 62.81828 95.92361 104.75587
#
# Poissons Ratio (x) = 0.30387 0.28639
# Poissons Ratio (y) = 0.19900 0.20009
# Poissons Ratio (z) = 0.17174 0.18322
#
# Static dielectric constant tensor:
#      x y z
#    x 3.990100 0.000000 0.000000 
#    y 0.000000 4.140870 0.000000 
#    z 0.000000 0.000000 4.243470 
# 
# 
# High freq. dielectric constant tensor:
#      x y z
#    x 1.821420 0.000000 0.000000 
#    y 0.000000 1.848250 0.000000 
#    z 0.000000 0.000000 1.873140 
# 
# From -- ./inp_files/4448.got.cif
#   From: 2010.03.12/outbox.cif.g09.slc.cpg/sg56_3_cif.got.tgz:4448.got - 2010.04.16 15:33:40.
