data_PCOD8228674
_publ_section_title
;
Structure prediction by ZEFSAII (Michael W. Deem and Ramdas Pophale) SiO2 
 PCOD8228674
Probable space group: P C C N
;
_chemical_formula_sum "Si O2"
_cell_formula_units_Z 40
_cell_length_a 9.001286
_cell_length_b 9.018702
_cell_length_c 23.895819
_cell_angle_alpha 90.000000
_cell_angle_beta 90.000000
_cell_angle_gamma 90.000000
_cell_volume 1939.860580
_symmetry_space_group_name_H-M "P C C N"
_symmetry_group_IT_number 56
_symmetry_cell_setting 'orthorhombic'
loop_
_space_group_symop_operation_xyz
x,y,z
1/2-x,1/2-y,z
1/2+x,-y,1/2-z
-x,1/2+y,1/2-z
-x,-y,-z
1/2+x,1/2+y,-z
1/2-x,y,1/2+z
x,1/2-y,1/2+z
loop_
_atom_site_type_symbol
_atom_site_label
_atom_site_fract_x
_atom_site_fract_y
_atom_site_fract_z
Si Si1 0.928867 0.073211 0.423376
Si Si2 0.137267 0.969949 0.217321
Si Si3 0.652027 0.607584 0.897131
Si Si4 0.955939 0.353356 0.799120
Si Si5 0.080805 0.783991 0.462026
O O1 0.972021 0.153964 0.365970
O O2 0.947616 0.195462 0.471790
O O3 0.757428 0.018037 0.424578
O O4 0.040408 0.936311 0.430830
O O5 0.058829 0.811660 0.224202
O O6 0.314226 0.953469 0.216553
O O7 0.080519 0.048000 0.160358
O O8 0.097891 0.070807 0.270648
O O9 0.750000 0.750000 0.881985
O O10 0.521872 0.648854 0.940635
O O11 0.250000 0.750000 0.447291
#
# Coordination Sequence:
#
# PCOD8228674 Si02
#       5
#     8   8   8   8   8
#     4   9  21  41  58  87 124 160 196 251 304 364
#     4  10  23  39  64  91 120 163 202 249 306 366
#     4   9  20  39  63  85 122 162 198 242 309 363
#     4  10  23  41  63  90 122 160 205 250 307 365
#     4  10  21  36  64  87 119 157 206 249 295 358
#
# _framework density 20.620038000000001
#
# number of rings (size 3 to 8) (size 9 to 14) (size 15 to 20)
#    0.000    2.400    0.000    0.000   14.000    2.400 
#    0.000    0.000    8.800    0.000    0.000    0.000 
#    0.000    0.000    0.000    0.000    0.000    0.000 
#
# Total GULP energy -496142.786178 kJ/mol
# GULP energy per Si atom -12403.569654 kJ/mol
# Density = 2.057311 g / cm^3
# Si number density = 20.620038 Si / 1000 Ang^3
#
#
#
# Elastic Constant Matrix: (Units=GPa)
#
#
# Indices 1 2 3 4 5 6 
#
# 1 84.7283 20.0748 48.4086 0.0000 0.0000 0.0000
# 2 20.0748 39.8657 30.4025 0.0000 0.0000 0.0000
# 3 48.4086 30.4025 101.2043 0.0000 0.0000 0.0000
# 4 0.0000 0.0000 0.0000 39.2868 0.0000 0.0000
# 5 0.0000 0.0000 0.0000 0.0000 30.2026 0.0000
# 6 0.0000 0.0000 0.0000 0.0000 0.0000 25.4246
#
#
#
# Elastic Compliance Matrix: (Units=1/GPa)
#
#
# Indices 1 2 3 4 5 6 
#
# 1 0.016508 -0.002972 -0.007003 0.000000 0.000000 0.000000
# 2 -0.002972 0.033074 -0.008514 0.000000 0.000000 0.000000
# 3 -0.007003 -0.008514 0.015789 0.000000 0.000000 0.000000
# 4 0.000000 0.000000 0.000000 0.025454 0.000000 0.000000
# 5 0.000000 0.000000 0.000000 0.000000 0.033110 0.000000
# 6 0.000000 0.000000 0.000000 0.000000 0.000000 0.039332
#
#
# Mechanical properties :
#
#
# Convention : Reuss Voigt Hill
#
# Bulk Modulus (GPa) = 35.22160 47.06335 41.14248
# Shear Modulus (GPa) = 23.84265 27.44363 25.64314
#
# Velocity S-wave (km/s) = 3.40411 3.65214 3.53030
# Velocity P-wave (km/s) = 5.70692 6.37634 6.05090
#
# Compressibility (1/GPa) = 0.02839167
#
# Stress axis : x y z
#
# Youngs Moduli (GPa) = 60.57721 30.23541 63.33683
#
# Poissons Ratio (x) = 0.08985 0.44357
# Poissons Ratio (y) = 0.18002 0.53926
# Poissons Ratio (z) = 0.42425 0.25743
#
# Static dielectric constant tensor:
#      x y z
#    x 3.603480 0.000000 0.000000 
#    y 0.000000 3.755830 0.000000 
#    z 0.000000 0.000000 3.708980 
# 
# 
# High freq. dielectric constant tensor:
#      x y z
#    x 1.790400 0.000000 0.000000 
#    y 0.000000 1.812020 0.000000 
#    z 0.000000 0.000000 1.806990 
# 
# From -- ./inp_files/20290.got.cif
#   From: 2010.03.12/outbox.cif.g09.slc.cpg/sg56_11_cif.got.tgz:20290.got - 2010.04.16 15:33:40.
