data_PCOD8228007
_publ_section_title
;
Structure prediction by ZEFSAII (Michael W. Deem and Ramdas Pophale) SiO2 
 PCOD8228007
Probable space group: P C C N
;
_chemical_formula_sum "Si O2"
_cell_formula_units_Z 60
_cell_length_a 14.660786
_cell_length_b 11.903649
_cell_length_c 16.197808
_cell_angle_alpha 90.000000
_cell_angle_beta 90.000000
_cell_angle_gamma 90.000000
_cell_volume 2826.790439
_symmetry_space_group_name_H-M "P C C N"
_symmetry_group_IT_number 56
_symmetry_cell_setting 'orthorhombic'
loop_
_space_group_symop_operation_xyz
x,y,z
1/2-x,1/2-y,z
1/2+x,-y,1/2-z
-x,1/2+y,1/2-z
-x,-y,-z
1/2+x,1/2+y,-z
1/2-x,y,1/2+z
x,1/2-y,1/2+z
loop_
_atom_site_type_symbol
_atom_site_label
_atom_site_fract_x
_atom_site_fract_y
_atom_site_fract_z
Si Si1 0.250000 0.750000 0.605377
Si Si2 0.919727 0.168246 0.478392
Si Si3 0.539286 0.559398 0.795581
Si Si4 0.731256 0.011101 0.337867
Si Si5 0.535195 0.713699 0.379418
Si Si6 0.406657 0.179737 0.869068
Si Si7 0.164166 0.072242 0.519776
Si Si8 0.114913 0.397836 0.271260
O O1 0.161916 0.748209 0.546111
O O2 0.238666 0.858999 0.663023
O O3 0.939776 0.186303 0.575497
O O4 0.008460 0.206744 0.427986
O O5 0.900240 0.036297 0.465937
O O6 0.626322 0.482336 0.813605
O O7 0.542806 0.655249 0.863851
O O8 0.550778 0.605003 0.703191
O O9 0.442297 0.498699 0.812195
O O10 0.742492 0.958032 0.431042
O O11 0.791246 0.940996 0.270942
O O12 0.621046 0.679214 0.435191
O O13 0.540470 0.646232 0.294206
O O14 0.362179 0.296050 0.834777
O O15 0.329852 0.108773 0.922617
#
# Coordination Sequence:
#
# PCOD8228007 Si02
#       8
#     4   8   8   8   8   8   8   8
#     4  10  20  36  62  82 110 154 196 238 288 350
#     4  10  18  36  60  86 111 148 197 241 286 347
#     4  11  21  36  58  86 117 149 187 241 294 337
#     4  10  22  40  59  84 117 154 196 242 291 348
#     4   9  19  34  57  81 112 146 184 236 289 339
#     4  10  19  34  60  84 111 151 195 236 284 348
#     4   9  18  36  60  81 108 149 194 235 283 347
#     4  10  21  37  57  86 119 153 191 237 294 352
#
# _framework density 21.225487000000001
#
# number of rings (size 3 to 8) (size 9 to 14) (size 15 to 20)
#    0.000    2.133    0.000    5.600    0.000    5.867 
#    0.000   15.333    0.000    2.400    0.000    0.000 
#    0.000    0.000    0.000    0.000    0.000    0.000 
#
# Total GULP energy -743475.459068 kJ/mol
# GULP energy per Si atom -12391.257651 kJ/mol
# Density = 2.117718 g / cm^3
# Si number density = 21.225487 Si / 1000 Ang^3
#
#
#
# Elastic Constant Matrix: (Units=GPa)
#
#
# Indices 1 2 3 4 5 6 
#
# 1 52.2160 0.2325 9.4863 0.0000 0.0000 0.0000
# 2 0.2325 100.1926 33.0168 0.0000 0.0000 0.0000
# 3 9.4863 33.0168 80.0459 0.0000 0.0000 0.0000
# 4 0.0000 0.0000 0.0000 27.2051 0.0000 0.0000
# 5 0.0000 0.0000 0.0000 0.0000 19.0794 0.0000
# 6 0.0000 0.0000 0.0000 0.0000 0.0000 25.5946
#
#
#
# Elastic Compliance Matrix: (Units=1/GPa)
#
#
# Indices 1 2 3 4 5 6 
#
# 1 0.019633 0.000835 -0.002671 0.000000 0.000000 0.000000
# 2 0.000835 0.011586 -0.004878 0.000000 0.000000 0.000000
# 3 -0.002671 -0.004878 0.014821 0.000000 0.000000 0.000000
# 4 0.000000 0.000000 0.000000 0.036758 0.000000 0.000000
# 5 0.000000 0.000000 0.000000 0.000000 0.052413 0.000000
# 6 0.000000 0.000000 0.000000 0.000000 0.000000 0.039071
#
#
# Mechanical properties :
#
#
# Convention : Reuss Voigt Hill
#
# Bulk Modulus (GPa) = 30.66371 35.32509 32.99440
# Shear Modulus (GPa) = 25.17869 27.02375 26.10122
#
# Velocity S-wave (km/s) = 3.44793 3.57203 3.51053
# Velocity P-wave (km/s) = 5.50718 5.80443 5.65776
#
# Compressibility (1/GPa) = 0.03261184
#
# Stress axis : x y z
#
# Youngs Moduli (GPa) = 50.93528 86.30897 67.47010
#
# Poissons Ratio (x) = -0.07203 0.18021
# Poissons Ratio (y) = -0.04251 0.32911
# Poissons Ratio (z) = 0.13605 0.42101
#
# Static dielectric constant tensor:
#      x y z
#    x 3.656470 0.000000 0.000000 
#    y 0.000000 3.829410 0.000000 
#    z 0.000000 0.000000 4.109910 
# 
# 
# High freq. dielectric constant tensor:
#      x y z
#    x 1.810430 0.000000 0.000000 
#    y 0.000000 1.834590 0.000000 
#    z 0.000000 0.000000 1.827900 
# 
# From -- ./inp_files/16319.got.cif
#   From: 2010.03.12/outbox.cif.g09.slc.cpg/sg56_9_cif.got.tgz:16319.got - 2010.04.16 15:33:40.
