data_PCOD8228986
_publ_section_title
;
Structure prediction by ZEFSAII (Michael W. Deem and Ramdas Pophale) SiO2 
 PCOD8228986
Probable space group: P C C N
;
_chemical_formula_sum "Si O2"
_cell_formula_units_Z 32
_cell_length_a 12.701397
_cell_length_b 6.986096
_cell_length_c 14.073405
_cell_angle_alpha 90.000000
_cell_angle_beta 90.000000
_cell_angle_gamma 90.000000
_cell_volume 1248.777962
_symmetry_space_group_name_H-M "P C C N"
_symmetry_group_IT_number 56
_symmetry_cell_setting 'orthorhombic'
loop_
_space_group_symop_operation_xyz
x,y,z
1/2-x,1/2-y,z
1/2+x,-y,1/2-z
-x,1/2+y,1/2-z
-x,-y,-z
1/2+x,1/2+y,-z
1/2-x,y,1/2+z
x,1/2-y,1/2+z
loop_
_atom_site_type_symbol
_atom_site_label
_atom_site_fract_x
_atom_site_fract_y
_atom_site_fract_z
Si Si1 0.250000 0.750000 0.148045
Si Si2 0.750000 0.750000 0.164498
Si Si3 0.672973 0.514714 0.998664
Si Si4 0.997724 0.294687 0.598119
Si Si5 0.414867 0.525205 0.256588
O O1 0.242141 0.563858 0.078268
O O2 0.349782 0.709408 0.216586
O O3 0.844010 0.666385 0.228693
O O4 0.723554 0.569278 0.098275
O O5 0.611760 0.699657 0.954485
O O6 0.590713 0.342796 0.019739
O O7 0.973212 0.089596 0.646363
O O8 0.998974 0.462162 0.678899
#
# Coordination Sequence:
#
# PCOD8228986 Si02
#       5
#     4   4   8   8   8
#     4  10  22  40  64  88 124 164 202 250 304 362
#     4  12  24  38  62  92 122 158 206 252 304 362
#     4  10  22  39  60  90 122 160 204 249 302 361
#     4  10  22  40  60  86 122 160 203 250 302 360
#     4  11  23  39  63  90 123 162 203 251 304 360
#
# _framework density 25.625050000000002
#
# number of rings (size 3 to 8) (size 9 to 14) (size 15 to 20)
#    0.000    1.500    0.000    4.500    0.000    7.000 
#    0.000    0.000    0.000    0.000    0.000    0.000 
#    0.000    0.000    0.000    0.000    0.000    0.000 
#
# Total GULP energy -396532.209854 kJ/mol
# GULP energy per Si atom -12391.631558 kJ/mol
# Density = 2.556673 g / cm^3
# Si number density = 25.625050 Si / 1000 Ang^3
#
#
#
# Elastic Constant Matrix: (Units=GPa)
#
#
# Indices 1 2 3 4 5 6 
#
# 1 34.6967 24.1189 8.3674 0.0000 0.0000 0.0000
# 2 24.1189 70.7959 16.1207 0.0000 0.0000 0.0000
# 3 8.3674 16.1207 89.6147 0.0000 0.0000 0.0000
# 4 0.0000 0.0000 0.0000 44.9474 0.0000 0.0000
# 5 0.0000 0.0000 0.0000 0.0000 19.5758 0.0000
# 6 0.0000 0.0000 0.0000 0.0000 0.0000 47.3890
#
#
#
# Elastic Compliance Matrix: (Units=1/GPa)
#
#
# Indices 1 2 3 4 5 6 
#
# 1 0.037902 -0.012624 -0.001268 0.000000 0.000000 0.000000
# 2 -0.012624 0.018933 -0.002227 0.000000 0.000000 0.000000
# 3 -0.001268 -0.002227 0.011678 0.000000 0.000000 0.000000
# 4 0.000000 0.000000 0.000000 0.022248 0.000000 0.000000
# 5 0.000000 0.000000 0.000000 0.000000 0.051083 0.000000
# 6 0.000000 0.000000 0.000000 0.000000 0.000000 0.021102
#
#
# Mechanical properties :
#
#
# Convention : Reuss Voigt Hill
#
# Bulk Modulus (GPa) = 27.56718 32.48014 30.02366
# Shear Modulus (GPa) = 24.12235 32.14914 28.13574
#
# Velocity S-wave (km/s) = 3.07148 3.54587 3.31717
# Velocity P-wave (km/s) = 4.83321 5.42835 5.13940
#
# Compressibility (1/GPa) = 0.03627502
#
# Stress axis : x y z
#
# Youngs Moduli (GPa) = 26.38362 52.81790 85.63173
#
# Poissons Ratio (x) = 0.66677 0.10859
# Poissons Ratio (y) = 0.33306 0.19071
# Poissons Ratio (z) = 0.03346 0.11763
#
# Static dielectric constant tensor:
#      x y z
#    x 4.412050 0.000000 0.000000 
#    y 0.000000 4.066140 0.000000 
#    z 0.000000 0.000000 4.698470 
# 
# 
# High freq. dielectric constant tensor:
#      x y z
#    x 2.005890 0.000000 0.000000 
#    y 0.000000 1.992970 0.000000 
#    z 0.000000 0.000000 2.046480 
# 
# From -- ./inp_files/7572.got.cif
#   From: 2010.03.12/outbox.cif.g09.slc.cpg/sg56_4_cif.got.tgz:7572.got - 2010.04.16 15:33:40.
