data_PCOD8228790
_publ_section_title
;
Structure prediction by ZEFSAII (Michael W. Deem and Ramdas Pophale) SiO2 
 PCOD8228790
Probable space group: P C C N
;
_chemical_formula_sum "Si O2"
_cell_formula_units_Z 52
_cell_length_a 5.395634
_cell_length_b 17.786282
_cell_length_c 26.658308
_cell_angle_alpha 90.000000
_cell_angle_beta 90.000000
_cell_angle_gamma 90.000000
_cell_volume 2558.351644
_symmetry_space_group_name_H-M "P C C N"
_symmetry_group_IT_number 56
_symmetry_cell_setting 'orthorhombic'
loop_
_space_group_symop_operation_xyz
x,y,z
1/2-x,1/2-y,z
1/2+x,-y,1/2-z
-x,1/2+y,1/2-z
-x,-y,-z
1/2+x,1/2+y,-z
1/2-x,y,1/2+z
x,1/2-y,1/2+z
loop_
_atom_site_type_symbol
_atom_site_label
_atom_site_fract_x
_atom_site_fract_y
_atom_site_fract_z
Si Si1 0.250000 0.750000 0.473709
Si Si2 0.826141 0.492346 0.172928
Si Si3 0.865577 0.651362 0.826163
Si Si4 0.750000 0.250000 0.723475
Si Si5 0.251971 0.029307 0.437186
Si Si6 0.255721 0.591806 0.519121
Si Si7 0.477014 0.898696 0.249916
Si Si8 0.750000 0.750000 0.910025
O O1 0.242857 0.679716 0.510278
O O2 0.500229 0.744423 0.441618
O O3 0.698896 0.519019 0.121950
O O4 0.974025 0.563392 0.196276
O O5 0.631402 0.463518 0.214128
O O6 0.995143 0.423155 0.156944
O O7 0.722375 0.632290 0.775552
O O8 0.712929 0.675300 0.875479
O O9 0.029669 0.725314 0.813587
O O10 0.694399 0.175637 0.757225
O O11 0.497454 0.071551 0.454807
O O12 0.997016 0.075040 0.446647
O O13 0.223752 0.950122 0.465700
#
# Coordination Sequence:
#
# PCOD8228790 Si02
#       8
#     4   8   8   4   8   8   8   4
#     4  12  25  42  69  98 130 162 216 281 349 392
#     4  11  24  38  64  95 130 178 226 268 324 394
#     4  11  22  37  59  93 135 162 215 272 323 394
#     4  10  21  40  59  82 136 184 206 273 333 378
#     4  10  23  42  68  92 130 172 216 265 335 392
#     4  10  23  44  66  95 127 165 213 282 328 393
#     4  11  22  39  61  94 135 173 219 278 320 391
#     4  12  24  36  66 100 130 170 210 274 356 400
#
# _framework density 20.325589000000001
#
# number of rings (size 3 to 8) (size 9 to 14) (size 15 to 20)
#    0.000    1.231    3.077    2.308    6.462    1.231 
#    0.000    0.769    3.385    0.000    0.000    0.000 
#    0.000    0.000    0.000    0.000    0.000    0.000 
#
# Total GULP energy -644611.439847 kJ/mol
# GULP energy per Si atom -12396.373843 kJ/mol
# Density = 2.027933 g / cm^3
# Si number density = 20.325589 Si / 1000 Ang^3
#
#
#
# Elastic Constant Matrix: (Units=GPa)
#
#
# Indices 1 2 3 4 5 6 
#
# 1 113.6111 33.8543 32.7384 0.0000 0.0000 0.0000
# 2 33.8543 138.0665 55.3341 0.0000 0.0000 0.0000
# 3 32.7384 55.3341 106.9458 0.0000 0.0000 0.0000
# 4 0.0000 0.0000 0.0000 12.8322 0.0000 0.0000
# 5 0.0000 0.0000 0.0000 0.0000 20.3882 0.0000
# 6 0.0000 0.0000 0.0000 0.0000 0.0000 25.2556
#
#
#
# Elastic Compliance Matrix: (Units=1/GPa)
#
#
# Indices 1 2 3 4 5 6 
#
# 1 0.009903 -0.001531 -0.002240 0.000000 0.000000 0.000000
# 2 -0.001531 0.009374 -0.004382 0.000000 0.000000 0.000000
# 3 -0.002240 -0.004382 0.012303 0.000000 0.000000 0.000000
# 4 0.000000 0.000000 0.000000 0.077929 0.000000 0.000000
# 5 0.000000 0.000000 0.000000 0.000000 0.049048 0.000000
# 6 0.000000 0.000000 0.000000 0.000000 0.000000 0.039595
#
#
# Mechanical properties :
#
#
# Convention : Reuss Voigt Hill
#
# Bulk Modulus (GPa) = 65.45864 66.94189 66.20026
# Shear Modulus (GPa) = 22.77386 27.47496 25.12441
#
# Velocity S-wave (km/s) = 3.35095 3.68059 3.51963
# Velocity P-wave (km/s) = 6.87363 7.14623 7.01125
#
# Compressibility (1/GPa) = 0.01527682
#
# Stress axis : x y z
#
# Youngs Moduli (GPa) = 100.97460 106.67436 81.27942
#
# Poissons Ratio (x) = 0.16329 0.18204
# Poissons Ratio (y) = 0.15457 0.35614
# Poissons Ratio (z) = 0.22615 0.46742
#
# Static dielectric constant tensor:
#      x y z
#    x 3.871190 0.000000 0.000000 
#    y 0.000000 4.147710 0.000000 
#    z 0.000000 0.000000 3.464310 
# 
# 
# High freq. dielectric constant tensor:
#      x y z
#    x 1.808070 0.000000 0.000000 
#    y 0.000000 1.803390 0.000000 
#    z 0.000000 0.000000 1.770490 
# 
# From -- ./inp_files/21782.got.cif
#   From: 2010.03.12/outbox.cif.g09.slc.cpg/sg56_11_cif.got.tgz:21782.got - 2010.04.16 15:33:40.
