data_PCOD8228502
_publ_section_title
;
Structure prediction by ZEFSAII (Michael W. Deem and Ramdas Pophale) SiO2 
 PCOD8228502
Probable space group: P C C N
;
_chemical_formula_sum "Si O2"
_cell_formula_units_Z 56
_cell_length_a 14.634365
_cell_length_b 18.476838
_cell_length_c 9.264492
_cell_angle_alpha 90.000000
_cell_angle_beta 90.000000
_cell_angle_gamma 90.000000
_cell_volume 2505.088910
_symmetry_space_group_name_H-M "P C C N"
_symmetry_group_IT_number 56
_symmetry_cell_setting 'orthorhombic'
loop_
_space_group_symop_operation_xyz
x,y,z
1/2-x,1/2-y,z
1/2+x,-y,1/2-z
-x,1/2+y,1/2-z
-x,-y,-z
1/2+x,1/2+y,-z
1/2-x,y,1/2+z
x,1/2-y,1/2+z
loop_
_atom_site_type_symbol
_atom_site_label
_atom_site_fract_x
_atom_site_fract_y
_atom_site_fract_z
Si Si1 0.859820 0.952305 0.684644
Si Si2 0.864866 0.204533 0.603566
Si Si3 0.250000 0.750000 0.634676
Si Si4 0.304927 0.407950 0.615635
Si Si5 0.750000 0.750000 0.824074
Si Si6 0.489192 0.910586 0.777572
Si Si7 0.427612 0.304569 0.258272
Si Si8 0.988861 0.193930 0.964558
O O1 0.778640 0.945555 0.800178
O O2 0.809443 0.953119 0.531466
O O3 0.931767 0.885952 0.684337
O O4 0.926174 0.019554 0.709458
O O5 0.820255 0.206772 0.762501
O O6 0.794505 0.188484 0.471705
O O7 0.947974 0.147663 0.608325
O O8 0.899911 0.285270 0.559017
O O9 0.283232 0.322277 0.588054
O O10 0.403214 0.420045 0.693149
O O11 0.671184 0.729260 0.710706
O O12 0.480421 0.883549 0.611699
O O13 0.501539 0.254670 0.338089
O O14 0.430734 0.305431 0.082483
#
# Coordination Sequence:
#
# PCOD8228502 Si02
#       8
#     8   8   4   8   4   8   8   8
#     4  11  28  46  69 105 148 195 238 303 374 455
#     4  11  21  41  66  99 136 174 242 299 356 423
#     4  10  22  38  64  98 134 178 232 302 352 420
#     4  11  25  47  72 105 148 188 248 299 379 437
#     4  10  20  38  70 104 136 174 234 304 352 428
#     4  12  25  46  73 103 149 196 243 299 380 444
#     4  11  23  39  69 105 142 182 235 301 368 432
#     4  12  22  42  70 105 134 186 241 298 360 438
#
# _framework density 22.354495
#
# number of rings (size 3 to 8) (size 9 to 14) (size 15 to 20)
#    0.000    0.857    4.286    2.143    4.000    4.571 
#    0.000    0.000    0.000    0.000    0.000    0.000 
#    0.000    0.000    0.000    0.000    0.000    0.000 
#
# Total GULP energy -693838.421192 kJ/mol
# GULP energy per Si atom -12389.971807 kJ/mol
# Density = 2.230362 g / cm^3
# Si number density = 22.354495 Si / 1000 Ang^3
#
#
#
# Elastic Constant Matrix: (Units=GPa)
#
#
# Indices 1 2 3 4 5 6 
#
# 1 118.2923 50.5332 30.2742 0.0000 0.0000 0.0000
# 2 50.5332 96.6922 26.6896 0.0000 0.0000 0.0000
# 3 30.2742 26.6896 118.5240 0.0000 0.0000 0.0000
# 4 0.0000 0.0000 0.0000 24.8069 0.0000 0.0000
# 5 0.0000 0.0000 0.0000 0.0000 28.1615 0.0000
# 6 0.0000 0.0000 0.0000 0.0000 0.0000 46.8698
#
#
#
# Elastic Compliance Matrix: (Units=1/GPa)
#
#
# Indices 1 2 3 4 5 6 
#
# 1 0.011175 -0.005387 -0.001641 0.000000 0.000000 0.000000
# 2 -0.005387 0.013625 -0.001692 0.000000 0.000000 0.000000
# 3 -0.001641 -0.001692 0.009237 0.000000 0.000000 0.000000
# 4 0.000000 0.000000 0.000000 0.040311 0.000000 0.000000
# 5 0.000000 0.000000 0.000000 0.000000 0.035509 0.000000
# 6 0.000000 0.000000 0.000000 0.000000 0.000000 0.021336
#
#
# Mechanical properties :
#
#
# Convention : Reuss Voigt Hill
#
# Bulk Modulus (GPa) = 60.25564 60.94471 60.60018
# Shear Modulus (GPa) = 32.43242 35.03506 33.73374
#
# Velocity S-wave (km/s) = 3.81310 3.96314 3.88885
# Velocity P-wave (km/s) = 6.81171 6.94723 6.87981
#
# Compressibility (1/GPa) = 0.01659596
#
# Stress axis : x y z
#
# Youngs Moduli (GPa) = 89.48494 73.39654 108.25621
#
# Poissons Ratio (x) = 0.39541 0.17768
# Poissons Ratio (y) = 0.48208 0.18317
# Poissons Ratio (z) = 0.14687 0.12419
#
# Static dielectric constant tensor:
#      x y z
#    x 4.330600 0.000000 0.000000 
#    y 0.000000 3.786390 0.000000 
#    z 0.000000 0.000000 4.175110 
# 
# 
# High freq. dielectric constant tensor:
#      x y z
#    x 1.902590 0.000000 0.000000 
#    y 0.000000 1.842250 0.000000 
#    z 0.000000 0.000000 1.892710 
# 
# From -- ./inp_files/3617.got.cif
#   From: 2010.03.12/outbox.cif.g09.slc.cpg/sg56_2_cif.got.tgz:3617.got - 2010.04.16 15:33:40.
