data_PCOD8228805
_publ_section_title
;
Structure prediction by ZEFSAII (Michael W. Deem and Ramdas Pophale) SiO2 
 PCOD8228805
Probable space group: P C C N
;
_chemical_formula_sum "Si O2"
_cell_formula_units_Z 52
_cell_length_a 6.552763
_cell_length_b 20.831551
_cell_length_c 18.710461
_cell_angle_alpha 90.000000
_cell_angle_beta 90.000000
_cell_angle_gamma 90.000000
_cell_volume 2554.056822
_symmetry_space_group_name_H-M "P C C N"
_symmetry_group_IT_number 56
_symmetry_cell_setting 'orthorhombic'
loop_
_space_group_symop_operation_xyz
x,y,z
1/2-x,1/2-y,z
1/2+x,-y,1/2-z
-x,1/2+y,1/2-z
-x,-y,-z
1/2+x,1/2+y,-z
1/2-x,y,1/2+z
x,1/2-y,1/2+z
loop_
_atom_site_type_symbol
_atom_site_label
_atom_site_fract_x
_atom_site_fract_y
_atom_site_fract_z
Si Si1 0.034013 0.585342 0.742579
Si Si2 0.726702 0.082179 0.621681
Si Si3 0.823453 0.959643 0.826105
Si Si4 0.926888 0.348499 0.985492
Si Si5 0.117150 0.693393 0.628357
Si Si6 0.250000 0.250000 0.949965
Si Si7 0.487337 0.024423 0.921180
O O1 0.191785 0.608296 0.803188
O O2 0.056324 0.510130 0.723149
O O3 0.082679 0.631276 0.676816
O O4 0.805516 0.589485 0.776113
O O5 0.480281 0.083260 0.625694
O O6 0.835399 0.122944 0.558970
O O7 0.786359 0.006388 0.614532
O O8 0.684444 0.000496 0.879016
O O9 0.734513 0.319102 0.945661
O O10 0.022241 0.399003 0.928127
O O11 0.109588 0.297076 0.999719
O O12 0.250000 0.750000 0.667868
O O13 0.892312 0.712748 0.605265
O O14 0.500000 0.000000 0.000000
#
# Coordination Sequence:
#
# PCOD8228805 Si02
#       7
#     8   8   8   8   8   4   8
#     4  11  22  38  61  92 131 164 207 251 315 391
#     4  10  23  38  60  97 127 163 199 255 330 374
#     4  11  21  35  58  94 130 165 195 254 328 377
#     4  10  21  40  63  89 123 161 212 267 307 376
#     4  10  23  42  63  89 121 169 217 262 308 368
#     4  10  24  40  64  86 114 166 224 264 316 354
#     4   9  20  35  58  92 123 154 197 244 315 385
#
# _framework density 20.359767000000002
#
# number of rings (size 3 to 8) (size 9 to 14) (size 15 to 20)
#    0.000    1.846    3.077    0.000    2.154    8.615 
#    0.000    3.077    0.000    0.000    0.000    0.000 
#    0.000    0.000    0.000    0.000    0.000    0.000 
#
# Total GULP energy -644219.414667 kJ/mol
# GULP energy per Si atom -12388.834897 kJ/mol
# Density = 2.031343 g / cm^3
# Si number density = 20.359767 Si / 1000 Ang^3
#
#
#
# Elastic Constant Matrix: (Units=GPa)
#
#
# Indices 1 2 3 4 5 6 
#
# 1 130.8527 44.9850 44.4276 0.0000 0.0000 0.0000
# 2 44.9850 83.9735 32.1548 0.0000 0.0000 0.0000
# 3 44.4276 32.1548 88.7964 0.0000 0.0000 0.0000
# 4 0.0000 0.0000 0.0000 27.8994 0.0000 0.0000
# 5 0.0000 0.0000 0.0000 0.0000 28.7755 0.0000
# 6 0.0000 0.0000 0.0000 0.0000 0.0000 29.3933
#
#
#
# Elastic Compliance Matrix: (Units=1/GPa)
#
#
# Indices 1 2 3 4 5 6 
#
# 1 0.010301 -0.004115 -0.003664 0.000000 0.000000 0.000000
# 2 -0.004115 0.015470 -0.003543 0.000000 0.000000 0.000000
# 3 -0.003664 -0.003543 0.014378 0.000000 0.000000 0.000000
# 4 0.000000 0.000000 0.000000 0.035843 0.000000 0.000000
# 5 0.000000 0.000000 0.000000 0.000000 0.034752 0.000000
# 6 0.000000 0.000000 0.000000 0.000000 0.000000 0.034021
#
#
# Mechanical properties :
#
#
# Convention : Reuss Voigt Hill
#
# Bulk Modulus (GPa) = 57.12759 60.75082 58.93921
# Shear Modulus (GPa) = 28.86119 29.35064 29.10591
#
# Velocity S-wave (km/s) = 3.76913 3.80096 3.78508
# Velocity P-wave (km/s) = 6.86016 7.01188 6.93644
#
# Compressibility (1/GPa) = 0.01750468
#
# Stress axis : x y z
#
# Youngs Moduli (GPa) = 97.07933 64.64226 69.55239
#
# Poissons Ratio (x) = 0.26603 0.25481
# Poissons Ratio (y) = 0.39952 0.24641
# Poissons Ratio (z) = 0.35566 0.22902
#
# Static dielectric constant tensor:
#      x y z
#    x 4.002620 0.000000 0.000000 
#    y 0.000000 5.117620 0.000000 
#    z 0.000000 0.000000 3.865370 
# 
# 
# High freq. dielectric constant tensor:
#      x y z
#    x 1.807880 0.000000 0.000000 
#    y 0.000000 1.777690 0.000000 
#    z 0.000000 0.000000 1.791760 
# 
# From -- ./inp_files/17566.got.cif
#   From: 2010.03.12/outbox.cif.g09.slc.cpg/sg56_9_cif.got.tgz:17566.got - 2010.04.16 15:33:40.
