data_PCOD8228315
_publ_section_title
;
Structure prediction by ZEFSAII (Michael W. Deem and Ramdas Pophale) SiO2 
 PCOD8228315
Probable space group: P C C N
;
_chemical_formula_sum "Si O2"
_cell_formula_units_Z 28
_cell_length_a 9.905224
_cell_length_b 14.660277
_cell_length_c 9.006734
_cell_angle_alpha 90.000000
_cell_angle_beta 90.000000
_cell_angle_gamma 90.000000
_cell_volume 1307.897815
_symmetry_space_group_name_H-M "P C C N"
_symmetry_group_IT_number 56
_symmetry_cell_setting 'orthorhombic'
loop_
_space_group_symop_operation_xyz
x,y,z
1/2-x,1/2-y,z
1/2+x,-y,1/2-z
-x,1/2+y,1/2-z
-x,-y,-z
1/2+x,1/2+y,-z
1/2-x,y,1/2+z
x,1/2-y,1/2+z
loop_
_atom_site_type_symbol
_atom_site_label
_atom_site_fract_x
_atom_site_fract_y
_atom_site_fract_z
Si Si1 0.806918 0.348383 0.182690
Si Si2 0.428841 0.595565 0.010655
Si Si3 0.750000 0.750000 0.704502
Si Si4 0.563477 0.784822 0.957995
O O1 0.750000 0.250000 0.230626
O O2 0.864790 0.396213 0.327008
O O3 0.922978 0.338551 0.055108
O O4 0.811118 0.092347 0.111893
O O5 0.500000 0.500000 0.000000
O O6 0.534582 0.676476 0.976065
O O7 0.649310 0.807270 0.809496
O O8 0.845229 0.814499 0.599810
#
# Coordination Sequence:
#
# PCOD8228315 Si02
#       4
#     8   8   4   8
#     4  10  21  42  68  89 120 167 213 249 306 388
#     4  11  24  40  62  94 126 160 205 265 321 365
#     4  10  20  34  64  94 118 158 210 266 284 360
#     4  10  20  38  63  92 123 161 214 247 308 367
#
# _framework density 21.408401000000001
#
# number of rings (size 3 to 8) (size 9 to 14) (size 15 to 20)
#    0.000    1.714    2.857    2.571    4.000    2.286 
#    0.000    1.429    0.000    0.000    0.000    0.000 
#    0.000    0.000    0.000    0.000    0.000    0.000 
#
# Total GULP energy -347079.767154 kJ/mol
# GULP energy per Si atom -12395.705970 kJ/mol
# Density = 2.135967 g / cm^3
# Si number density = 21.408401 Si / 1000 Ang^3
#
#
#
# Elastic Constant Matrix: (Units=GPa)
#
#
# Indices 1 2 3 4 5 6 
#
# 1 140.5633 59.8962 61.8221 0.0000 0.0000 0.0000
# 2 59.8962 99.4756 43.2891 0.0000 0.0000 0.0000
# 3 61.8221 43.2891 137.8513 0.0000 0.0000 0.0000
# 4 0.0000 0.0000 0.0000 16.1397 0.0000 0.0000
# 5 0.0000 0.0000 0.0000 0.0000 50.5482 0.0000
# 6 0.0000 0.0000 0.0000 0.0000 0.0000 28.9009
#
#
#
# Elastic Compliance Matrix: (Units=1/GPa)
#
#
# Indices 1 2 3 4 5 6 
#
# 1 0.010666 -0.005028 -0.003205 0.000000 0.000000 0.000000
# 2 -0.005028 0.014014 -0.002146 0.000000 0.000000 0.000000
# 3 -0.003205 -0.002146 0.009365 0.000000 0.000000 0.000000
# 4 0.000000 0.000000 0.000000 0.061959 0.000000 0.000000
# 5 0.000000 0.000000 0.000000 0.000000 0.019783 0.000000
# 6 0.000000 0.000000 0.000000 0.000000 0.000000 0.034601
#
#
# Mechanical properties :
#
#
# Convention : Reuss Voigt Hill
#
# Bulk Modulus (GPa) = 75.25198 78.65610 76.95404
# Shear Modulus (GPa) = 28.47800 33.30995 30.89398
#
# Velocity S-wave (km/s) = 3.65118 3.94881 3.80291
# Velocity P-wave (km/s) = 7.28024 7.59021 7.43684
#
# Compressibility (1/GPa) = 0.01328869
#
# Stress axis : x y z
#
# Youngs Moduli (GPa) = 93.75565 71.35797 106.77797
#
# Poissons Ratio (x) = 0.35877 0.34218
# Poissons Ratio (y) = 0.47137 0.22914
# Poissons Ratio (z) = 0.30045 0.15313
#
# Static dielectric constant tensor:
#      x y z
#    x 4.659960 0.000000 0.000000 
#    y 0.000000 3.225960 0.000000 
#    z 0.000000 0.000000 4.057880 
# 
# 
# High freq. dielectric constant tensor:
#      x y z
#    x 1.876150 0.000000 0.000000 
#    y 0.000000 1.766710 0.000000 
#    z 0.000000 0.000000 1.859480 
# 
# From -- ./inp_files/2399.got.cif
#   From: 2010.03.12/outbox.cif.g09.slc.cpg/sg56_2_cif.got.tgz:2399.got - 2010.04.16 15:33:40.
