data_PCOD8228838
_publ_section_title
;
Structure prediction by ZEFSAII (Michael W. Deem and Ramdas Pophale) SiO2 
 PCOD8228838
Probable space group: P C C N
;
_chemical_formula_sum "Si O2"
_cell_formula_units_Z 40
_cell_length_a 12.549903
_cell_length_b 4.891922
_cell_length_c 29.693901
_cell_angle_alpha 90.000000
_cell_angle_beta 90.000000
_cell_angle_gamma 90.000000
_cell_volume 1823.002017
_symmetry_space_group_name_H-M "P C C N"
_symmetry_group_IT_number 56
_symmetry_cell_setting 'orthorhombic'
loop_
_space_group_symop_operation_xyz
x,y,z
1/2-x,1/2-y,z
1/2+x,-y,1/2-z
-x,1/2+y,1/2-z
-x,-y,-z
1/2+x,1/2+y,-z
1/2-x,y,1/2+z
x,1/2-y,1/2+z
loop_
_atom_site_type_symbol
_atom_site_label
_atom_site_fract_x
_atom_site_fract_y
_atom_site_fract_z
Si Si1 0.516656 0.424082 0.346649
Si Si2 0.125952 0.273865 0.026516
Si Si3 0.003873 0.718621 0.557928
Si Si4 0.145392 0.090509 0.175926
Si Si5 0.677150 0.979518 0.220042
O O1 0.464822 0.324262 0.393417
O O2 0.553735 0.736662 0.348534
O O3 0.430476 0.450998 0.307687
O O4 0.620121 0.227211 0.336303
O O5 0.250000 0.250000 0.035367
O O6 0.092262 0.581973 0.036736
O O7 0.061544 0.075185 0.060496
O O8 0.098928 0.200156 0.974545
O O9 0.250000 0.250000 0.157811
O O10 0.143185 0.100126 0.229687
O O11 0.750000 0.250000 0.217592
O O12 0.750000 0.750000 0.198297
#
# Coordination Sequence:
#
# PCOD8228838 Si02
#       5
#     8   8   8   8   8
#     4  12  23  39  62  90 123 156 201 263 310 356
#     4  10  21  41  62  82 119 159 190 244 310 371
#     4  10  23  38  59  92 116 148 205 245 298 382
#     4  11  23  39  60  88 123 163 205 249 309 373
#     4  11  23  41  61  86 121 165 211 250 305 374
#
# _framework density 21.941831000000001
#
# number of rings (size 3 to 8) (size 9 to 14) (size 15 to 20)
#    0.000    1.200    0.000    7.200    0.000    5.600 
#    0.000    4.000    0.000    0.000    0.000    0.000 
#    0.000    0.000    0.000    0.000    0.000    0.000 
#
# Total GULP energy -495582.605116 kJ/mol
# GULP energy per Si atom -12389.565128 kJ/mol
# Density = 2.189189 g / cm^3
# Si number density = 21.941831 Si / 1000 Ang^3
#
#
#
# Elastic Constant Matrix: (Units=GPa)
#
#
# Indices 1 2 3 4 5 6 
#
# 1 41.1110 13.8315 5.2558 0.0000 0.0000 0.0000
# 2 13.8315 104.8188 12.3351 0.0000 0.0000 0.0000
# 3 5.2558 12.3351 80.3263 0.0000 0.0000 0.0000
# 4 0.0000 0.0000 0.0000 34.7500 0.0000 0.0000
# 5 0.0000 0.0000 0.0000 0.0000 6.7695 0.0000
# 6 0.0000 0.0000 0.0000 0.0000 0.0000 36.8355
#
#
#
# Elastic Compliance Matrix: (Units=1/GPa)
#
#
# Indices 1 2 3 4 5 6 
#
# 1 0.025563 -0.003235 -0.001176 0.000000 0.000000 0.000000
# 2 -0.003235 0.010125 -0.001343 0.000000 0.000000 0.000000
# 3 -0.001176 -0.001343 0.012732 0.000000 0.000000 0.000000
# 4 0.000000 0.000000 0.000000 0.028777 0.000000 0.000000
# 5 0.000000 0.000000 0.000000 0.000000 0.147722 0.000000
# 6 0.000000 0.000000 0.000000 0.000000 0.000000 0.027148
#
#
# Mechanical properties :
#
#
# Convention : Reuss Voigt Hill
#
# Bulk Modulus (GPa) = 27.09078 32.12232 29.60655
# Shear Modulus (GPa) = 18.12383 28.65989 23.39186
#
# Velocity S-wave (km/s) = 2.87713 3.61803 3.26864
# Velocity P-wave (km/s) = 4.83845 5.66790 5.26952
#
# Compressibility (1/GPa) = 0.03691293
#
# Stress axis : x y z
#
# Youngs Moduli (GPa) = 39.11890 98.76344 78.53961
#
# Poissons Ratio (x) = 0.31948 0.09235
# Poissons Ratio (y) = 0.12654 0.10549
# Poissons Ratio (z) = 0.04600 0.13266
#
# Static dielectric constant tensor:
#      x y z
#    x 3.864130 0.000000 0.000000 
#    y 0.000000 4.260410 0.000000 
#    z 0.000000 0.000000 3.905650 
# 
# 
# High freq. dielectric constant tensor:
#      x y z
#    x 1.847630 0.000000 0.000000 
#    y 0.000000 1.886520 0.000000 
#    z 0.000000 0.000000 1.861100 
# 
# From -- ./inp_files/22170.got.cif
#   From: 2010.03.12/outbox.cif.g09.slc.cpg/sg56_12_cif.got.tgz:22170.got - 2010.04.16 15:33:40.
