data_PCOD8228359
_publ_section_title
;
Structure prediction by ZEFSAII (Michael W. Deem and Ramdas Pophale) SiO2 
 PCOD8228359
Probable space group: P C C N
;
_chemical_formula_sum "Si O2"
_cell_formula_units_Z 60
_cell_length_a 12.383740
_cell_length_b 19.512625
_cell_length_c 12.223259
_cell_angle_alpha 90.000000
_cell_angle_beta 90.000000
_cell_angle_gamma 90.000000
_cell_volume 2953.619439
_symmetry_space_group_name_H-M "P C C N"
_symmetry_group_IT_number 56
_symmetry_cell_setting 'orthorhombic'
loop_
_space_group_symop_operation_xyz
x,y,z
1/2-x,1/2-y,z
1/2+x,-y,1/2-z
-x,1/2+y,1/2-z
-x,-y,-z
1/2+x,1/2+y,-z
1/2-x,y,1/2+z
x,1/2-y,1/2+z
loop_
_atom_site_type_symbol
_atom_site_label
_atom_site_fract_x
_atom_site_fract_y
_atom_site_fract_z
Si Si1 0.051724 0.202861 0.381772
Si Si2 0.496205 0.849679 0.662643
Si Si3 0.902195 0.845008 0.382124
Si Si4 0.825879 0.946261 0.111420
Si Si5 0.413681 0.060038 0.814315
Si Si6 0.377066 0.491642 0.652379
Si Si7 0.347996 0.525962 0.105302
Si Si8 0.250000 0.250000 0.252428
O O1 0.051665 0.191016 0.511275
O O2 0.022994 0.133771 0.313241
O O3 0.169346 0.215233 0.335215
O O4 0.974319 0.269207 0.364532
O O5 0.500141 0.854786 0.794813
O O6 0.612962 0.872201 0.610921
O O7 0.404354 0.900018 0.616361
O O8 0.854199 0.919768 0.409560
O O9 0.804754 0.804227 0.327581
O O10 0.696423 0.936289 0.114490
O O11 0.871116 0.985761 0.216632
O O12 0.869397 0.992217 0.011983
O O13 0.387351 0.029608 0.695107
O O14 0.501671 0.014211 0.878424
O O15 0.280314 0.541819 0.615288
#
# Coordination Sequence:
#
# PCOD8228359 Si02
#       8
#     8   8   8   8   8   8   8   4
#     4  11  22  34  58  88 118 165 196 244 320 368
#     4  10  22  40  56  90 127 152 205 250 302 359
#     4  10  20  37  54  86 124 153 191 259 307 359
#     4  10  21  37  62  89 116 161 197 240 318 356
#     4  11  22  38  60  92 120 152 208 250 300 367
#     4  10  22  38  58  91 119 152 203 254 296 348
#     4  11  21  40  63  85 125 160 201 257 292 364
#     4  10  20  36  56  86 122 150 200 244 318 376
#
# _framework density 20.314059
#
# number of rings (size 3 to 8) (size 9 to 14) (size 15 to 20)
#    0.000    1.600    2.667    4.800    0.000    5.333 
#    0.000    0.667    0.000    0.000    0.000    0.000 
#    0.000    0.000    0.000    0.000    0.000    0.000 
#
# Total GULP energy -743356.993549 kJ/mol
# GULP energy per Si atom -12389.283226 kJ/mol
# Density = 2.026782 g / cm^3
# Si number density = 20.314059 Si / 1000 Ang^3
#
#
#
# Elastic Constant Matrix: (Units=GPa)
#
#
# Indices 1 2 3 4 5 6 
#
# 1 91.0606 40.8096 7.9341 0.0000 0.0000 0.0000
# 2 40.8096 121.9317 38.3654 0.0000 0.0000 0.0000
# 3 7.9341 38.3654 78.7187 0.0000 0.0000 0.0000
# 4 0.0000 0.0000 0.0000 -174.3643 0.0000 0.0000
# 5 0.0000 0.0000 0.0000 0.0000 11.3260 0.0000
# 6 0.0000 0.0000 0.0000 0.0000 0.0000 29.8254
#
#
#
# Elastic Compliance Matrix: (Units=1/GPa)
#
#
# Indices 1 2 3 4 5 6 
#
# 1 0.012980 -0.004645 0.000956 0.000000 0.000000 0.000000
# 2 -0.004645 0.011349 -0.005063 0.000000 0.000000 0.000000
# 3 0.000956 -0.005063 0.015075 0.000000 0.000000 0.000000
# 4 0.000000 0.000000 0.000000 -0.005735 0.000000 0.000000
# 5 0.000000 0.000000 0.000000 0.000000 0.088292 0.000000
# 6 0.000000 0.000000 0.000000 0.000000 0.000000 0.033529
#
#
# Mechanical properties :
#
#
# Convention : Reuss Voigt Hill
#
# Bulk Modulus (GPa) = 45.66427 51.76990 48.71708
# Shear Modulus (GPa) = 27.73247 -13.00245 7.36501
#
# Velocity S-wave (km/s) = 3.69885 -2.53271 1.90616
# Velocity P-wave (km/s) = 6.38513 4.12156 5.37388
#
# Compressibility (1/GPa) = 0.02189896
#
# Stress axis : x y z
#
# Youngs Moduli (GPa) = 77.04071 88.11324 66.33615
#
# Poissons Ratio (x) = 0.40929 -0.06339
# Poissons Ratio (y) = 0.35786 0.33586
# Poissons Ratio (z) = -0.07362 0.44612
#
# Static dielectric constant tensor:
#      x y z
#    x 3.603160 0.000000 0.000000 
#    y 0.000000 3.995270 0.000000 
#    z 0.000000 0.000000 3.677460 
# 
# 
# High freq. dielectric constant tensor:
#      x y z
#    x 1.767220 0.000000 0.000000 
#    y 0.000000 1.792470 0.000000 
#    z 0.000000 0.000000 1.800080 
# 
# From -- ./inp_files/8033.got.cif
#   From: 2010.03.12/outbox.cif.g09.slc.cpg/sg56_5_cif.got.tgz:8033.got - 2010.04.16 15:33:40.
