data_PCOD8228028
_publ_section_title
;
Structure prediction by ZEFSAII (Michael W. Deem and Ramdas Pophale) SiO2 
 PCOD8228028
Probable space group: P C C N
;
_chemical_formula_sum "Si O2"
_cell_formula_units_Z 64
_cell_length_a 16.250066
_cell_length_b 11.576480
_cell_length_c 17.764001
_cell_angle_alpha 90.000000
_cell_angle_beta 90.000000
_cell_angle_gamma 90.000000
_cell_volume 3341.738360
_symmetry_space_group_name_H-M "P C C N"
_symmetry_group_IT_number 56
_symmetry_cell_setting 'orthorhombic'
loop_
_space_group_symop_operation_xyz
x,y,z
1/2-x,1/2-y,z
1/2+x,-y,1/2-z
-x,1/2+y,1/2-z
-x,-y,-z
1/2+x,1/2+y,-z
1/2-x,y,1/2+z
x,1/2-y,1/2+z
loop_
_atom_site_type_symbol
_atom_site_label
_atom_site_fract_x
_atom_site_fract_y
_atom_site_fract_z
Si Si1 0.568724 0.910891 0.654008
Si Si2 0.035000 0.129566 0.142731
Si Si3 0.875314 0.516867 0.818591
Si Si4 0.976831 0.648898 0.942254
Si Si5 0.272695 0.119026 0.445965
Si Si6 0.279369 0.120292 0.621718
Si Si7 0.002736 0.672937 0.192255
Si Si8 0.399925 0.459499 0.416393
O O1 0.603371 0.934241 0.736829
O O2 0.643899 0.908564 0.596657
O O3 0.513251 0.795102 0.652432
O O4 0.509626 0.010633 0.624677
O O5 0.014885 0.214836 0.073068
O O6 0.130599 0.104144 0.155116
O O7 0.001219 0.188601 0.218466
O O8 0.915609 0.599059 0.880373
O O9 0.777883 0.526912 0.834693
O O10 0.908191 0.384634 0.828415
O O11 0.065742 0.586269 0.938491
O O12 0.934474 0.633776 0.023293
O O13 0.250000 0.250000 0.428533
O O14 0.282493 0.093371 0.533542
O O15 0.198794 0.037723 0.415165
O O16 0.250000 0.250000 0.638449
O O17 0.933662 0.580412 0.164940
#
# Coordination Sequence:
#
# PCOD8228028 Si02
#       8
#     8   8   8   8   8   8   8   8
#     4  11  23  37  57  88 122 150 188 246 302 346
#     4  11  23  38  59  85 120 155 187 240 301 351
#     4  10  20  36  60  82 112 152 197 239 285 351
#     4  10  18  38  60  84 111 153 195 236 287 344
#     4  11  21  35  55  89 117 145 196 249 286 336
#     4  11  20  36  59  85 114 150 196 242 290 342
#     4  10  21  38  56  84 115 151 195 235 292 352
#     4  10  20  34  62  85 112 149 198 242 278 337
#
# _framework density 19.151709
#
# number of rings (size 3 to 8) (size 9 to 14) (size 15 to 20)
#    0.000    1.500    5.000    0.750    1.750    1.000 
#    0.000    1.250    0.000    4.500    0.000    0.000 
#    0.000    0.000    0.000    0.000    0.000    0.000 
#
# Total GULP energy -793601.626016 kJ/mol
# GULP energy per Si atom -12400.025406 kJ/mol
# Density = 1.910812 g / cm^3
# Si number density = 19.151709 Si / 1000 Ang^3
#
#
#
# Elastic Constant Matrix: (Units=GPa)
#
#
# Indices 1 2 3 4 5 6 
#
# 1 127.4986 75.2045 26.6298 0.0000 0.0000 0.0000
# 2 75.2045 106.2149 22.9675 0.0000 0.0000 0.0000
# 3 26.6298 22.9675 49.5638 0.0000 0.0000 0.0000
# 4 0.0000 0.0000 0.0000 22.5026 0.0000 0.0000
# 5 0.0000 0.0000 0.0000 0.0000 28.1913 0.0000
# 6 0.0000 0.0000 0.0000 0.0000 0.0000 33.0314
#
#
#
# Elastic Compliance Matrix: (Units=1/GPa)
#
#
# Indices 1 2 3 4 5 6 
#
# 1 0.013920 -0.009156 -0.003236 0.000000 0.000000 0.000000
# 2 -0.009156 0.016486 -0.002720 0.000000 0.000000 0.000000
# 3 -0.003236 -0.002720 0.023175 0.000000 0.000000 0.000000
# 4 0.000000 0.000000 0.000000 0.044439 0.000000 0.000000
# 5 0.000000 0.000000 0.000000 0.000000 0.035472 0.000000
# 6 0.000000 0.000000 0.000000 0.000000 0.000000 0.030274
#
#
# Mechanical properties :
#
#
# Convention : Reuss Voigt Hill
#
# Bulk Modulus (GPa) = 42.81451 59.20898 51.01175
# Shear Modulus (GPa) = 24.77996 27.31009 26.04503
#
# Velocity S-wave (km/s) = 3.60095 3.78032 3.69173
# Velocity P-wave (km/s) = 6.30025 7.07371 6.69815
#
# Compressibility (1/GPa) = 0.02335657
#
# Stress axis : x y z
#
# Youngs Moduli (GPa) = 71.84044 60.65802 43.14974
#
# Poissons Ratio (x) = 0.55538 0.13963
# Poissons Ratio (y) = 0.65777 0.11737
# Poissons Ratio (z) = 0.23248 0.16499
#
# Static dielectric constant tensor:
#      x y z
#    x 3.671120 0.000000 0.000000 
#    y 0.000000 3.467560 0.000000 
#    z 0.000000 0.000000 3.604840 
# 
# 
# High freq. dielectric constant tensor:
#      x y z
#    x 1.737190 0.000000 0.000000 
#    y 0.000000 1.723300 0.000000 
#    z 0.000000 0.000000 1.754410 
# 
# From -- ./inp_files/16351.got.cif
#   From: 2010.03.12/outbox.cif.g09.slc.cpg/sg56_9_cif.got.tgz:16351.got - 2010.04.16 15:33:40.
