data_PCOD8228510
_publ_section_title
;
Structure prediction by ZEFSAII (Michael W. Deem and Ramdas Pophale) SiO2 
 PCOD8228510
Probable space group: P C C N
;
_chemical_formula_sum "Si O2"
_cell_formula_units_Z 52
_cell_length_a 8.644299
_cell_length_b 17.205293
_cell_length_c 17.856055
_cell_angle_alpha 90.000000
_cell_angle_beta 90.000000
_cell_angle_gamma 90.000000
_cell_volume 2655.689939
_symmetry_space_group_name_H-M "P C C N"
_symmetry_group_IT_number 56
_symmetry_cell_setting 'orthorhombic'
loop_
_space_group_symop_operation_xyz
x,y,z
1/2-x,1/2-y,z
1/2+x,-y,1/2-z
-x,1/2+y,1/2-z
-x,-y,-z
1/2+x,1/2+y,-z
1/2-x,y,1/2+z
x,1/2-y,1/2+z
loop_
_atom_site_type_symbol
_atom_site_label
_atom_site_fract_x
_atom_site_fract_y
_atom_site_fract_z
Si Si1 0.577683 0.004929 0.686978
Si Si2 0.351707 0.101845 0.784037
Si Si3 0.004613 0.212311 0.580754
Si Si4 0.798528 0.668614 0.064048
Si Si5 0.750000 0.750000 0.803010
Si Si6 0.510124 0.424924 0.950167
Si Si7 0.313313 0.634318 0.926006
O O1 0.493732 0.054195 0.750322
O O2 0.657027 0.061154 0.626867
O O3 0.700433 0.950660 0.728951
O O4 0.467013 0.947068 0.637610
O O5 0.381864 0.115943 0.872671
O O6 0.336960 0.185638 0.745841
O O7 0.937126 0.298496 0.590372
O O8 0.863347 0.153631 0.590403
O O9 0.086643 0.190745 0.502995
O O10 0.128561 0.202024 0.646510
O O11 0.750000 0.750000 0.102518
O O12 0.645513 0.624850 0.035095
O O13 0.500000 0.500000 0.000000
O O14 0.660558 0.381328 0.984548
#
# Coordination Sequence:
#
# PCOD8228510 Si02
#       7
#     8   8   8   8   4   8   8
#     4  10  23  42  60  88 129 166 210 252 317 379
#     4  11  25  41  64  88 129 167 206 256 315 379
#     4  11  22  35  68  90 123 158 213 260 306 374
#     4  11  20  39  62  91 120 161 210 250 305 375
#     4  12  22  40  64  92 118 174 210 252 318 374
#     4   9  19  37  61  86 122 161 194 259 311 359
#     4  10  20  39  61  96 122 156 208 267 312 358
#
# _framework density 19.580598999999999
#
# number of rings (size 3 to 8) (size 9 to 14) (size 15 to 20)
#    0.000    1.538    4.615    0.000    4.308    1.231 
#    0.000    6.923    6.769    0.000    0.000    0.000 
#    0.000    0.000    0.000    0.000    0.000    0.000 
#
# Total GULP energy -644316.445675 kJ/mol
# GULP energy per Si atom -12390.700878 kJ/mol
# Density = 1.953603 g / cm^3
# Si number density = 19.580599 Si / 1000 Ang^3
#
#
#
# Elastic Constant Matrix: (Units=GPa)
#
#
# Indices 1 2 3 4 5 6 
#
# 1 73.0547 28.5213 40.3804 0.0000 0.0000 0.0000
# 2 28.5213 78.9546 27.6173 0.0000 0.0000 0.0000
# 3 40.3804 27.6173 84.3456 0.0000 0.0000 0.0000
# 4 0.0000 0.0000 0.0000 34.4032 0.0000 0.0000
# 5 0.0000 0.0000 0.0000 0.0000 24.3896 0.0000
# 6 0.0000 0.0000 0.0000 0.0000 0.0000 37.2277
#
#
#
# Elastic Compliance Matrix: (Units=1/GPa)
#
#
# Indices 1 2 3 4 5 6 
#
# 1 0.019851 -0.004344 -0.008081 0.000000 0.000000 0.000000
# 2 -0.004344 0.015254 -0.002915 0.000000 0.000000 0.000000
# 3 -0.008081 -0.002915 0.016679 0.000000 0.000000 0.000000
# 4 0.000000 0.000000 0.000000 0.029067 0.000000 0.000000
# 5 0.000000 0.000000 0.000000 0.000000 0.041001 0.000000
# 6 0.000000 0.000000 0.000000 0.000000 0.000000 0.026862
#
#
# Mechanical properties :
#
#
# Convention : Reuss Voigt Hill
#
# Bulk Modulus (GPa) = 47.38446 47.71033 47.54740
# Shear Modulus (GPa) = 26.81960 28.52650 27.67305
#
# Velocity S-wave (km/s) = 3.70496 3.82105 3.76345
# Velocity P-wave (km/s) = 6.52339 6.62467 6.57422
#
# Compressibility (1/GPa) = 0.02110396
#
# Stress axis : x y z
#
# Youngs Moduli (GPa) = 50.37449 65.55474 59.95425
#
# Poissons Ratio (x) = 0.28479 0.48451
# Poissons Ratio (y) = 0.21884 0.17476
# Poissons Ratio (z) = 0.40709 0.19109
#
# Static dielectric constant tensor:
#      x y z
#    x 3.441140 0.000000 0.000000 
#    y 0.000000 3.895010 0.000000 
#    z 0.000000 0.000000 3.775290 
# 
# 
# High freq. dielectric constant tensor:
#      x y z
#    x 1.742470 0.000000 0.000000 
#    y 0.000000 1.780510 0.000000 
#    z 0.000000 0.000000 1.762600 
# 
# From -- ./inp_files/15066.got.cif
#   From: 2010.03.12/outbox.cif.g09.slc.cpg/sg56_8_cif.got.tgz:15066.got - 2010.04.16 15:33:40.
