data_PCOD8228820
_publ_section_title
;
Structure prediction by ZEFSAII (Michael W. Deem and Ramdas Pophale) SiO2 
 PCOD8228820
Probable space group: P C C N
;
_chemical_formula_sum "Si O2"
_cell_formula_units_Z 60
_cell_length_a 9.434112
_cell_length_b 27.624154
_cell_length_c 11.307585
_cell_angle_alpha 90.000000
_cell_angle_beta 90.000000
_cell_angle_gamma 90.000000
_cell_volume 2946.862521
_symmetry_space_group_name_H-M "P C C N"
_symmetry_group_IT_number 56
_symmetry_cell_setting 'orthorhombic'
loop_
_space_group_symop_operation_xyz
x,y,z
1/2-x,1/2-y,z
1/2+x,-y,1/2-z
-x,1/2+y,1/2-z
-x,-y,-z
1/2+x,1/2+y,-z
1/2-x,y,1/2+z
x,1/2-y,1/2+z
loop_
_atom_site_type_symbol
_atom_site_label
_atom_site_fract_x
_atom_site_fract_y
_atom_site_fract_z
Si Si1 0.750000 0.250000 0.534377
Si Si2 0.152934 0.422511 0.395266
Si Si3 0.693529 0.008550 0.023867
Si Si4 0.451464 0.932115 0.384945
Si Si5 0.454990 0.488451 0.697737
Si Si6 0.680947 0.684016 0.053675
Si Si7 0.470801 0.274798 0.394170
Si Si8 0.541504 0.176727 0.652114
O O1 0.623520 0.274070 0.458213
O O2 0.678349 0.207938 0.612691
O O3 0.290532 0.455404 0.416734
O O4 0.073178 0.441723 0.278821
O O5 0.188659 0.366490 0.375463
O O6 0.070522 0.429101 0.517168
O O7 0.821290 0.043958 0.048637
O O8 0.561354 0.030109 0.096099
O O9 0.679450 0.006111 0.881115
O O10 0.410062 0.879008 0.337365
O O11 0.504122 0.966120 0.277647
O O12 0.843251 0.700901 0.028303
O O13 0.588357 0.720883 0.135019
O O14 0.595451 0.680913 0.931400
O O15 0.487851 0.305227 0.276997
#
# Coordination Sequence:
#
# PCOD8228820 Si02
#       8
#     4   8   8   8   8   8   8   8
#     4  10  22  42  60  94 128 158 208 252 310 394
#     4  10  22  38  63  87 121 163 200 260 309 369
#     4  10  22  38  58  87 119 159 203 253 303 367
#     4  10  23  38  62  84 123 164 199 252 316 366
#     4  10  22  38  59  87 121 158 205 253 306 372
#     4   9  22  41  63  94 120 159 218 253 309 377
#     4  10  21  40  67  89 124 168 198 265 311 367
#     4  10  22  42  62  91 125 166 206 257 318 371
#
# _framework density 20.360636
#
# number of rings (size 3 to 8) (size 9 to 14) (size 15 to 20)
#    0.000    2.133    0.000    2.000    9.333    6.400 
#    9.600    0.000    0.000    0.000    0.000    0.000 
#    0.000    0.000    0.000    0.000    0.000    0.000 
#
# Total GULP energy -743515.279025 kJ/mol
# GULP energy per Si atom -12391.921317 kJ/mol
# Density = 2.031429 g / cm^3
# Si number density = 20.360636 Si / 1000 Ang^3
#
#
#
# Elastic Constant Matrix: (Units=GPa)
#
#
# Indices 1 2 3 4 5 6 
#
# 1 99.9594 31.5580 13.5884 0.0000 0.0000 0.0000
# 2 31.5580 120.4682 19.8227 0.0000 0.0000 0.0000
# 3 13.5884 19.8227 55.5629 0.0000 0.0000 0.0000
# 4 0.0000 0.0000 0.0000 21.6566 0.0000 0.0000
# 5 0.0000 0.0000 0.0000 0.0000 25.5821 0.0000
# 6 0.0000 0.0000 0.0000 0.0000 0.0000 15.4555
#
#
#
# Elastic Compliance Matrix: (Units=1/GPa)
#
#
# Indices 1 2 3 4 5 6 
#
# 1 0.011069 -0.002607 -0.001777 0.000000 0.000000 0.000000
# 2 -0.002607 0.009433 -0.002728 0.000000 0.000000 0.000000
# 3 -0.001777 -0.002728 0.019405 0.000000 0.000000 0.000000
# 4 0.000000 0.000000 0.000000 0.046175 0.000000 0.000000
# 5 0.000000 0.000000 0.000000 0.000000 0.039090 0.000000
# 6 0.000000 0.000000 0.000000 0.000000 0.000000 0.064702
#
#
# Mechanical properties :
#
#
# Convention : Reuss Voigt Hill
#
# Bulk Modulus (GPa) = 38.93554 45.10318 42.01936
# Shear Modulus (GPa) = 23.51190 26.60694 25.05942
#
# Velocity S-wave (km/s) = 3.40188 3.61887 3.51205
# Velocity P-wave (km/s) = 5.88174 6.29776 6.09330
#
# Compressibility (1/GPa) = 0.02568347
#
# Stress axis : x y z
#
# Youngs Moduli (GPa) = 90.34470 106.01359 51.53240
#
# Poissons Ratio (x) = 0.27640 0.09156
# Poissons Ratio (y) = 0.23555 0.14056
# Poissons Ratio (z) = 0.16052 0.28916
#
# Static dielectric constant tensor:
#      x y z
#    x 3.796510 0.000000 0.000000 
#    y 0.000000 4.104620 0.000000 
#    z 0.000000 0.000000 3.612140 
# 
# 
# High freq. dielectric constant tensor:
#      x y z
#    x 1.800210 0.000000 0.000000 
#    y 0.000000 1.798540 0.000000 
#    z 0.000000 0.000000 1.793270 
# 
# From -- ./inp_files/6536.got.cif
#   From: 2010.03.12/outbox.cif.g09.slc.cpg/sg56_4_cif.got.tgz:6536.got - 2010.04.16 15:33:40.
