data_PCOD8228493
_publ_section_title
;
Structure prediction by ZEFSAII (Michael W. Deem and Ramdas Pophale) SiO2 
 PCOD8228493
Probable space group: P C C N
;
_chemical_formula_sum "Si O2"
_cell_formula_units_Z 40
_cell_length_a 9.951469
_cell_length_b 17.777493
_cell_length_c 8.980255
_cell_angle_alpha 90.000000
_cell_angle_beta 90.000000
_cell_angle_gamma 90.000000
_cell_volume 1588.716404
_symmetry_space_group_name_H-M "P C C N"
_symmetry_group_IT_number 56
_symmetry_cell_setting 'orthorhombic'
loop_
_space_group_symop_operation_xyz
x,y,z
1/2-x,1/2-y,z
1/2+x,-y,1/2-z
-x,1/2+y,1/2-z
-x,-y,-z
1/2+x,1/2+y,-z
1/2-x,y,1/2+z
x,1/2-y,1/2+z
loop_
_atom_site_type_symbol
_atom_site_label
_atom_site_fract_x
_atom_site_fract_y
_atom_site_fract_z
Si Si1 0.364093 0.192527 0.387245
Si Si2 0.750909 0.331315 0.349627
Si Si3 0.857762 0.581804 0.109832
Si Si4 0.006987 0.303526 0.681104
Si Si5 0.901938 0.410157 0.103811
O O1 0.250000 0.250000 0.444978
O O2 0.298287 0.109026 0.396072
O O3 0.488208 0.194922 0.502539
O O4 0.426868 0.223858 0.233642
O O5 0.750000 0.250000 0.431095
O O6 0.647213 0.316066 0.215150
O O7 0.882305 0.361113 0.256423
O O8 0.700403 0.391148 0.469795
O O9 0.945168 0.598357 0.958602
O O10 0.912191 0.627495 0.249962
O O11 0.865639 0.494703 0.150089
#
# Coordination Sequence:
#
# PCOD8228493 Si02
#       5
#     8   8   8   8   8
#     4  10  20  38  64  93 125 164 210 266 319 381
#     4  11  25  41  65  89 130 170 217 261 326 389
#     4   9  21  42  66  92 130 166 216 269 324 384
#     4  10  23  39  63  95 126 166 214 262 322 382
#     4  10  23  44  65  93 127 174 211 270 325 389
#
# _framework density 25.17756
#
# number of rings (size 3 to 8) (size 9 to 14) (size 15 to 20)
#    0.000    2.000    0.000    2.400   14.000    0.000 
#    0.000    1.000    0.000    0.000    0.000    0.000 
#    0.000    0.000    0.000    0.000    0.000    0.000 
#
# Total GULP energy -495593.306407 kJ/mol
# GULP energy per Si atom -12389.832660 kJ/mol
# Density = 2.512025 g / cm^3
# Si number density = 25.177560 Si / 1000 Ang^3
#
#
#
# Elastic Constant Matrix: (Units=GPa)
#
#
# Indices 1 2 3 4 5 6 
#
# 1 29.6660 23.4713 -4.8716 0.0000 0.0000 0.0000
# 2 23.4713 149.3799 31.6684 0.0000 0.0000 0.0000
# 3 -4.8716 31.6684 80.9825 0.0000 0.0000 0.0000
# 4 0.0000 0.0000 0.0000 27.1501 0.0000 0.0000
# 5 0.0000 0.0000 0.0000 0.0000 17.2010 0.0000
# 6 0.0000 0.0000 0.0000 0.0000 0.0000 36.6505
#
#
#
# Elastic Compliance Matrix: (Units=1/GPa)
#
#
# Indices 1 2 3 4 5 6 
#
# 1 0.040531 -0.007508 0.005374 0.000000 0.000000 0.000000
# 2 -0.007508 0.008690 -0.003850 0.000000 0.000000 0.000000
# 3 0.005374 -0.003850 0.014177 0.000000 0.000000 0.000000
# 4 0.000000 0.000000 0.000000 0.036832 0.000000 0.000000
# 5 0.000000 0.000000 0.000000 0.000000 0.058136 0.000000
# 6 0.000000 0.000000 0.000000 0.000000 0.000000 0.027285
#
#
# Mechanical properties :
#
#
# Convention : Reuss Voigt Hill
#
# Bulk Modulus (GPa) = 19.44341 40.06274 29.75308
# Shear Modulus (GPa) = 23.28151 30.18434 26.73292
#
# Velocity S-wave (km/s) = 3.04418 3.46621 3.26203
# Velocity P-wave (km/s) = 4.48278 5.65386 5.10203
#
# Compressibility (1/GPa) = 0.05143131
#
# Stress axis : x y z
#
# Youngs Moduli (GPa) = 24.67237 115.07235 70.53598
#
# Poissons Ratio (x) = 0.86394 -0.37907
# Poissons Ratio (y) = 0.18523 0.27156
# Poissons Ratio (z) = -0.13259 0.44302
#
# Static dielectric constant tensor:
#      x y z
#    x 4.728030 0.000000 0.000000 
#    y 0.000000 4.576130 0.000000 
#    z 0.000000 0.000000 4.104640 
# 
# 
# High freq. dielectric constant tensor:
#      x y z
#    x 2.011460 0.000000 0.000000 
#    y 0.000000 2.000520 0.000000 
#    z 0.000000 0.000000 1.995580 
# 
# From -- ./inp_files/2556.got.cif
#   From: 2010.03.12/outbox.cif.g09.slc.cpg/sg56_2_cif.got.tgz:2556.got - 2010.04.16 15:33:40.
