data_PCOD8228796
_publ_section_title
;
Structure prediction by ZEFSAII (Michael W. Deem and Ramdas Pophale) SiO2 
 PCOD8228796
Probable space group: P C C N
;
_chemical_formula_sum "Si O2"
_cell_formula_units_Z 60
_cell_length_a 12.128679
_cell_length_b 25.206661
_cell_length_c 8.725547
_cell_angle_alpha 90.000000
_cell_angle_beta 90.000000
_cell_angle_gamma 90.000000
_cell_volume 2667.604768
_symmetry_space_group_name_H-M "P C C N"
_symmetry_group_IT_number 56
_symmetry_cell_setting 'orthorhombic'
loop_
_space_group_symop_operation_xyz
x,y,z
1/2-x,1/2-y,z
1/2+x,-y,1/2-z
-x,1/2+y,1/2-z
-x,-y,-z
1/2+x,1/2+y,-z
1/2-x,y,1/2+z
x,1/2-y,1/2+z
loop_
_atom_site_type_symbol
_atom_site_label
_atom_site_fract_x
_atom_site_fract_y
_atom_site_fract_z
Si Si1 0.159481 0.053292 0.643797
Si Si2 0.087997 0.308869 0.491032
Si Si3 0.408670 0.715203 0.491405
Si Si4 0.153267 0.495362 0.473643
Si Si5 0.035816 0.383591 0.927777
Si Si6 0.250000 0.750000 0.237957
Si Si7 0.987328 0.084391 0.097612
Si Si8 0.236964 0.160177 0.256123
O O1 0.223821 0.011565 0.535356
O O2 0.131000 0.027378 0.804430
O O3 0.050117 0.067421 0.545636
O O4 0.226621 0.107813 0.665629
O O5 0.160601 0.308266 0.334223
O O6 0.169806 0.302301 0.637134
O O7 0.997394 0.262630 0.489626
O O8 0.022632 0.364649 0.499057
O O9 0.469808 0.660101 0.478711
O O10 0.336457 0.717487 0.338713
O O11 0.324420 0.711862 0.633539
O O12 0.124818 0.558367 0.470494
O O13 0.077184 0.462602 0.591020
O O14 0.155186 0.358661 0.889672
O O15 0.971163 0.400609 0.775143
#
# Coordination Sequence:
#
# PCOD8228796 Si02
#       8
#     8   8   8   8   8   4   8   8
#     4  12  19  39  62  97 137 175 211 275 351 413
#     4  11  22  41  64 100 138 179 225 270 341 418
#     4  11  26  45  71  96 130 186 233 288 347 399
#     4  11  21  37  65  85 129 184 217 270 341 394
#     4  11  22  41  65  99 139 178 220 279 348 421
#     4  10  24  50  66  88 122 180 246 298 320 376
#     4  10  21  40  60  91 124 178 236 267 314 406
#     4  11  19  37  59 100 145 174 201 270 332 423
#
# _framework density 22.492087000000001
#
# number of rings (size 3 to 8) (size 9 to 14) (size 15 to 20)
#    0.000    1.067    6.667    1.600    1.867    1.067 
#    2.400    5.333    0.000    0.000    0.000    0.000 
#    0.000    0.000    0.000    0.000    0.000    0.000 
#
# Total GULP energy -743826.159183 kJ/mol
# GULP energy per Si atom -12397.102653 kJ/mol
# Density = 2.244089 g / cm^3
# Si number density = 22.492087 Si / 1000 Ang^3
#
#
#
# Elastic Constant Matrix: (Units=GPa)
#
#
# Indices 1 2 3 4 5 6 
#
# 1 85.3730 50.8035 43.6812 0.0000 0.0000 0.0000
# 2 50.8035 77.8452 32.7357 0.0000 0.0000 0.0000
# 3 43.6812 32.7357 102.5395 0.0000 0.0000 0.0000
# 4 0.0000 0.0000 0.0000 18.9871 0.0000 0.0000
# 5 0.0000 0.0000 0.0000 0.0000 141.2148 0.0000
# 6 0.0000 0.0000 0.0000 0.0000 0.0000 18.9436
#
#
#
# Elastic Compliance Matrix: (Units=1/GPa)
#
#
# Indices 1 2 3 4 5 6 
#
# 1 0.021456 -0.011734 -0.005394 0.000000 0.000000 0.000000
# 2 -0.011734 0.021256 -0.001787 0.000000 0.000000 0.000000
# 3 -0.005394 -0.001787 0.012621 0.000000 0.000000 0.000000
# 4 0.000000 0.000000 0.000000 0.052667 0.000000 0.000000
# 5 0.000000 0.000000 0.000000 0.000000 0.007081 0.000000
# 6 0.000000 0.000000 0.000000 0.000000 0.000000 0.052788
#
#
# Mechanical properties :
#
#
# Convention : Reuss Voigt Hill
#
# Bulk Modulus (GPa) = 57.13797 57.79983 57.46890
# Shear Modulus (GPa) = 23.63689 45.06493 34.35091
#
# Velocity S-wave (km/s) = 3.24527 4.48100 3.91224
# Velocity P-wave (km/s) = 6.28499 7.24749 6.78334
#
# Compressibility (1/GPa) = 0.01750150
#
# Stress axis : x y z
#
# Youngs Moduli (GPa) = 46.60708 47.04637 79.23526
#
# Poissons Ratio (x) = 0.55206 0.42739
# Poissons Ratio (y) = 0.54690 0.14160
# Poissons Ratio (z) = 0.25140 0.08408
#
# Static dielectric constant tensor:
#      x y z
#    x 4.136250 0.000000 0.000000 
#    y 0.000000 3.967970 0.000000 
#    z 0.000000 0.000000 4.151730 
# 
# 
# High freq. dielectric constant tensor:
#      x y z
#    x 1.875410 0.000000 0.000000 
#    y 0.000000 1.864580 0.000000 
#    z 0.000000 0.000000 1.900050 
# 
# From -- ./inp_files/2898.got.cif
#   From: 2010.03.12/outbox.cif.g09.slc.cpg/sg56_2_cif.got.tgz:2898.got - 2010.04.16 15:33:40.
