data_PCOD8228630
_publ_section_title
;
Structure prediction by ZEFSAII (Michael W. Deem and Ramdas Pophale) SiO2 
 PCOD8228630
Probable space group: P C C N
;
_chemical_formula_sum "Si O2"
_cell_formula_units_Z 56
_cell_length_a 13.193859
_cell_length_b 14.974537
_cell_length_c 13.048033
_cell_angle_alpha 90.000000
_cell_angle_beta 90.000000
_cell_angle_gamma 90.000000
_cell_volume 2577.925059
_symmetry_space_group_name_H-M "P C C N"
_symmetry_group_IT_number 56
_symmetry_cell_setting 'orthorhombic'
loop_
_space_group_symop_operation_xyz
x,y,z
1/2-x,1/2-y,z
1/2+x,-y,1/2-z
-x,1/2+y,1/2-z
-x,-y,-z
1/2+x,1/2+y,-z
1/2-x,y,1/2+z
x,1/2-y,1/2+z
loop_
_atom_site_type_symbol
_atom_site_label
_atom_site_fract_x
_atom_site_fract_y
_atom_site_fract_z
Si Si1 0.209157 0.085350 0.643325
Si Si2 0.750000 0.750000 0.982691
Si Si3 0.750000 0.250000 0.767784
Si Si4 0.765462 0.097728 0.434884
Si Si5 0.600271 0.190897 0.102112
Si Si6 0.025509 0.399494 0.264933
Si Si7 0.539267 0.682052 0.034568
Si Si8 0.087185 0.481222 0.596606
O O1 0.189080 0.175252 0.580617
O O2 0.146549 0.093739 0.748453
O O3 0.171103 0.993371 0.587541
O O4 0.330626 0.079516 0.659090
O O5 0.657912 0.707127 0.045873
O O6 0.734235 0.162562 0.836846
O O7 0.847978 0.244501 0.694404
O O8 0.811807 0.145574 0.534141
O O9 0.647785 0.067012 0.453347
O O10 0.528599 0.117267 0.155773
O O11 0.531169 0.253506 0.031220
O O12 0.000658 0.321264 0.348015
O O13 0.990184 0.492595 0.313912
O O14 0.533586 0.579222 0.991142
#
# Coordination Sequence:
#
# PCOD8228630 Si02
#       8
#     8   4   4   8   8   8   8   8
#     4   9  22  43  71  94 138 179 230 280 340 419
#     4  10  20  50  64 100 138 176 226 284 350 400
#     4  12  24  42  68 102 140 188 232 280 358 416
#     4  10  24  45  65 101 139 182 232 289 349 411
#     4  12  25  41  70 100 143 179 233 294 350 419
#     4  12  23  43  67 102 130 180 236 271 352 424
#     4  11  25  42  69 100 139 181 228 292 344 421
#     4   9  23  45  65  97 139 177 229 285 341 410
#
# _framework density 21.722897
#
# number of rings (size 3 to 8) (size 9 to 14) (size 15 to 20)
#    0.857    0.571    2.857    1.714    4.000    3.429 
#    0.000    0.000    0.000    0.000    0.000    0.000 
#    0.000    0.000    0.000    0.000    0.000    0.000 
#
# Total GULP energy -693806.307570 kJ/mol
# GULP energy per Si atom -12389.398349 kJ/mol
# Density = 2.167345 g / cm^3
# Si number density = 21.722897 Si / 1000 Ang^3
#
#
#
# Elastic Constant Matrix: (Units=GPa)
#
#
# Indices 1 2 3 4 5 6 
#
# 1 81.9855 15.2756 49.8405 0.0000 0.0000 0.0000
# 2 15.2756 107.1394 39.0743 0.0000 0.0000 0.0000
# 3 49.8405 39.0743 120.2887 0.0000 0.0000 0.0000
# 4 0.0000 0.0000 0.0000 29.6131 0.0000 0.0000
# 5 0.0000 0.0000 0.0000 0.0000 36.4657 0.0000
# 6 0.0000 0.0000 0.0000 0.0000 0.0000 29.9447
#
#
#
# Elastic Compliance Matrix: (Units=1/GPa)
#
#
# Indices 1 2 3 4 5 6 
#
# 1 0.016306 0.000158 -0.006808 0.000000 0.000000 0.000000
# 2 0.000158 0.010590 -0.003505 0.000000 0.000000 0.000000
# 3 -0.006808 -0.003505 0.012273 0.000000 0.000000 0.000000
# 4 0.000000 0.000000 0.000000 0.033769 0.000000 0.000000
# 5 0.000000 0.000000 0.000000 0.000000 0.027423 0.000000
# 6 0.000000 0.000000 0.000000 0.000000 0.000000 0.033395
#
#
# Mechanical properties :
#
#
# Convention : Reuss Voigt Hill
#
# Bulk Modulus (GPa) = 53.02674 57.53269 55.27972
# Shear Modulus (GPa) = 31.18148 32.88626 32.03387
#
# Velocity S-wave (km/s) = 3.79280 3.89511 3.84430
# Velocity P-wave (km/s) = 6.60636 6.83897 6.72367
#
# Compressibility (1/GPa) = 0.01885841
#
# Stress axis : x y z
#
# Youngs Moduli (GPa) = 61.32570 94.43297 81.48182
#
# Poissons Ratio (x) = -0.01491 0.55470
# Poissons Ratio (y) = -0.00968 0.28562
# Poissons Ratio (z) = 0.41749 0.33101
#
# Static dielectric constant tensor:
#      x y z
#    x 4.042880 0.000000 0.000000 
#    y 0.000000 4.050590 0.000000 
#    z 0.000000 0.000000 3.689700 
# 
# 
# High freq. dielectric constant tensor:
#      x y z
#    x 1.871190 0.000000 0.000000 
#    y 0.000000 1.855240 0.000000 
#    z 0.000000 0.000000 1.835790 
# 
# From -- ./inp_files/7939.got.cif
#   From: 2010.03.12/outbox.cif.g09.slc.cpg/sg56_4_cif.got.tgz:7939.got - 2010.04.16 15:33:40.
