data_PCOD8228448
_publ_section_title
;
Structure prediction by ZEFSAII (Michael W. Deem and Ramdas Pophale) SiO2 
 PCOD8228448
Probable space group: P C C N
;
_chemical_formula_sum "Si O2"
_cell_formula_units_Z 60
_cell_length_a 12.631583
_cell_length_b 27.545088
_cell_length_c 9.274843
_cell_angle_alpha 90.000000
_cell_angle_beta 90.000000
_cell_angle_gamma 90.000000
_cell_volume 3227.070930
_symmetry_space_group_name_H-M "P C C N"
_symmetry_group_IT_number 56
_symmetry_cell_setting 'orthorhombic'
loop_
_space_group_symop_operation_xyz
x,y,z
1/2-x,1/2-y,z
1/2+x,-y,1/2-z
-x,1/2+y,1/2-z
-x,-y,-z
1/2+x,1/2+y,-z
1/2-x,y,1/2+z
x,1/2-y,1/2+z
loop_
_atom_site_type_symbol
_atom_site_label
_atom_site_fract_x
_atom_site_fract_y
_atom_site_fract_z
Si Si1 0.250000 0.250000 0.830266
Si Si2 0.849506 0.428648 0.306238
Si Si3 0.057170 0.103767 0.694102
Si Si4 0.044130 0.469052 0.694513
Si Si5 0.813969 0.685185 0.922466
Si Si6 0.685575 0.452877 0.093770
Si Si7 0.659257 0.607291 0.004952
Si Si8 0.343156 0.461646 0.477827
O O1 0.318475 0.284465 0.726060
O O2 0.172601 0.281009 0.936132
O O3 0.889364 0.483404 0.345008
O O4 0.735833 0.426488 0.231208
O O5 0.836747 0.411020 0.472237
O O6 0.930581 0.400325 0.203628
O O7 0.089068 0.146925 0.584951
O O8 0.107399 0.052503 0.635456
O O9 0.090670 0.117627 0.854829
O O10 0.093041 0.423260 0.610793
O O11 0.922379 0.478217 0.649674
O O12 0.058126 0.461101 0.866295
O O13 0.700362 0.657207 0.931519
O O14 0.776380 0.488631 0.027093
O O15 0.761739 0.580081 0.066938
#
# Coordination Sequence:
#
# PCOD8228448 Si02
#       8
#     4   8   8   8   8   8   8   8
#     4  10  20  38  58  90 116 146 176 222 296 364
#     4  11  24  36  52  73 109 153 205 253 281 329
#     4  11  22  36  54  81 111 153 192 234 288 345
#     4  11  22  35  54  72 109 155 206 246 288 324
#     4  10  21  36  60  85 121 147 174 229 287 362
#     4  11  23  36  50  72 105 153 203 250 286 310
#     4  11  19  35  53  82 109 154 185 228 282 342
#     4  10  22  32  53  73 103 145 202 241 277 329
#
# _framework density 18.592711000000001
#
# number of rings (size 3 to 8) (size 9 to 14) (size 15 to 20)
#    0.000    1.333    4.000    2.800    7.467    1.067 
#    0.000    0.000    0.000    0.000    0.000    0.000 
#    0.000   18.133    0.000    0.000    0.000    0.000 
#
# Total GULP energy -743406.315990 kJ/mol
# GULP energy per Si atom -12390.105267 kJ/mol
# Density = 1.855039 g / cm^3
# Si number density = 18.592711 Si / 1000 Ang^3
#
#
#
# Elastic Constant Matrix: (Units=GPa)
#
#
# Indices 1 2 3 4 5 6 
#
# 1 81.6807 10.6530 39.1521 0.0000 0.0000 0.0000
# 2 10.6530 54.3024 26.0504 0.0000 0.0000 0.0000
# 3 39.1521 26.0504 111.0017 0.0000 0.0000 0.0000
# 4 0.0000 0.0000 0.0000 27.5089 0.0000 0.0000
# 5 0.0000 0.0000 0.0000 0.0000 31.2334 0.0000
# 6 0.0000 0.0000 0.0000 0.0000 0.0000 15.6450
#
#
#
# Elastic Compliance Matrix: (Units=1/GPa)
#
#
# Indices 1 2 3 4 5 6 
#
# 1 0.014743 -0.000448 -0.005095 0.000000 0.000000 0.000000
# 2 -0.000448 0.020765 -0.004715 0.000000 0.000000 0.000000
# 3 -0.005095 -0.004715 0.011913 0.000000 0.000000 0.000000
# 4 0.000000 0.000000 0.000000 0.036352 0.000000 0.000000
# 5 0.000000 0.000000 0.000000 0.000000 0.032017 0.000000
# 6 0.000000 0.000000 0.000000 0.000000 0.000000 0.063918
#
#
# Mechanical properties :
#
#
# Convention : Reuss Voigt Hill
#
# Bulk Modulus (GPa) = 37.16851 44.29955 40.73403
# Shear Modulus (GPa) = 23.90131 26.28607 25.09369
#
# Velocity S-wave (km/s) = 3.58931 3.76411 3.67775
# Velocity P-wave (km/s) = 6.10015 6.53983 6.32381
#
# Compressibility (1/GPa) = 0.02690449
#
# Stress axis : x y z
#
# Youngs Moduli (GPa) = 67.82657 48.15718 83.94475
#
# Poissons Ratio (x) = 0.02158 0.42771
# Poissons Ratio (y) = 0.03039 0.39582
# Poissons Ratio (z) = 0.34558 0.22707
#
# Static dielectric constant tensor:
#      x y z
#    x 3.375790 0.000000 0.000000 
#    y 0.000000 3.262900 0.000000 
#    z 0.000000 0.000000 3.745970 
# 
# 
# High freq. dielectric constant tensor:
#      x y z
#    x 1.702110 0.000000 0.000000 
#    y 0.000000 1.666960 0.000000 
#    z 0.000000 0.000000 1.749830 
# 
# From -- ./inp_files/2946.got.cif
#   From: 2010.03.12/outbox.cif.g09.slc.cpg/sg56_2_cif.got.tgz:2946.got - 2010.04.16 15:33:40.
