data_PCOD8228915
_publ_section_title
;
Structure prediction by ZEFSAII (Michael W. Deem and Ramdas Pophale) SiO2 
 PCOD8228915
Probable space group: P C C N
;
_chemical_formula_sum "Si O2"
_cell_formula_units_Z 64
_cell_length_a 26.600805
_cell_length_b 9.332836
_cell_length_c 11.981585
_cell_angle_alpha 90.000000
_cell_angle_beta 90.000000
_cell_angle_gamma 90.000000
_cell_volume 2974.559681
_symmetry_space_group_name_H-M "P C C N"
_symmetry_group_IT_number 56
_symmetry_cell_setting 'orthorhombic'
loop_
_space_group_symop_operation_xyz
x,y,z
1/2-x,1/2-y,z
1/2+x,-y,1/2-z
-x,1/2+y,1/2-z
-x,-y,-z
1/2+x,1/2+y,-z
1/2-x,y,1/2+z
x,1/2-y,1/2+z
loop_
_atom_site_type_symbol
_atom_site_label
_atom_site_fract_x
_atom_site_fract_y
_atom_site_fract_z
Si Si1 0.387582 0.839546 0.298889
Si Si2 0.658419 0.536575 0.017523
Si Si3 0.192095 0.738906 0.613175
Si Si4 0.064256 0.575538 0.910226
Si Si5 0.834244 0.989771 0.521128
Si Si6 0.197341 0.233215 0.328185
Si Si7 0.539105 0.504841 0.352536
Si Si8 0.623080 0.773699 0.864746
O O1 0.344793 0.773179 0.217041
O O2 0.410686 0.724379 0.380226
O O3 0.434970 0.901415 0.234376
O O4 0.367319 0.964692 0.376470
O O5 0.697152 0.648181 0.072810
O O6 0.684182 0.420721 0.935401
O O7 0.620042 0.632061 0.942548
O O8 0.250000 0.750000 0.653414
O O9 0.181524 0.849139 0.511185
O O10 0.111112 0.468146 0.919083
O O11 0.020104 0.530104 0.823337
O O12 0.039801 0.584951 0.032586
O O13 0.796939 0.922099 0.611379
O O14 0.838635 0.896603 0.408541
O O15 0.250000 0.250000 0.260279
O O16 0.147487 0.234130 0.253790
O O17 0.567244 0.659567 0.354381
#
# Coordination Sequence:
#
# PCOD8228915 Si02
#       8
#     8   8   8   8   8   8   8   8
#     4  12  22  45  64 100 135 167 222 285 318 406
#     4  11  24  41  65  94 131 170 224 268 325 391
#     4  12  25  42  68  95 136 177 219 276 338 390
#     4  10  22  42  70  93 126 174 212 268 341 387
#     4  10  21  44  61  90 134 167 213 270 326 390
#     4  11  23  39  65  92 129 173 221 265 327 392
#     4  10  21  46  69  92 133 174 211 276 340 392
#     4  10  22  41  63  92 129 170 214 268 320 390
#
# _framework density 21.515789999999999
#
# number of rings (size 3 to 8) (size 9 to 14) (size 15 to 20)
#    0.000    1.250    5.000    0.750    1.750    5.500 
#    4.500    0.625    0.000    0.000    0.000    0.000 
#    0.000    0.000    0.000    0.000    0.000    0.000 
#
# Total GULP energy -792896.573157 kJ/mol
# GULP energy per Si atom -12389.008956 kJ/mol
# Density = 2.146682 g / cm^3
# Si number density = 21.515790 Si / 1000 Ang^3
#
#
#
# Elastic Constant Matrix: (Units=GPa)
#
#
# Indices 1 2 3 4 5 6 
#
# 1 105.2377 21.1643 26.2262 0.0000 0.0000 0.0000
# 2 21.1643 97.9646 43.9641 0.0000 0.0000 0.0000
# 3 26.2262 43.9641 66.8676 0.0000 0.0000 0.0000
# 4 0.0000 0.0000 0.0000 23.8167 0.0000 0.0000
# 5 0.0000 0.0000 0.0000 0.0000 17.8509 0.0000
# 6 0.0000 0.0000 0.0000 0.0000 0.0000 19.3483
#
#
#
# Elastic Compliance Matrix: (Units=1/GPa)
#
#
# Indices 1 2 3 4 5 6 
#
# 1 0.010556 -0.000599 -0.003746 0.000000 0.000000 0.000000
# 2 -0.000599 0.014514 -0.009308 0.000000 0.000000 0.000000
# 3 -0.003746 -0.009308 0.022544 0.000000 0.000000 0.000000
# 4 0.000000 0.000000 0.000000 0.041987 0.000000 0.000000
# 5 0.000000 0.000000 0.000000 0.000000 0.056020 0.000000
# 6 0.000000 0.000000 0.000000 0.000000 0.000000 0.051684
#
#
# Mechanical properties :
#
#
# Convention : Reuss Voigt Hill
#
# Bulk Modulus (GPa) = 49.24210 50.30879 49.77545
# Shear Modulus (GPa) = 21.60927 24.11753 22.86340
#
# Velocity S-wave (km/s) = 3.17258 3.35165 3.26334
# Velocity P-wave (km/s) = 6.02964 6.19767 6.11423
#
# Compressibility (1/GPa) = 0.02030783
#
# Stress axis : x y z
#
# Youngs Moduli (GPa) = 94.72890 68.89707 44.35771
#
# Poissons Ratio (x) = 0.04130 0.16618
# Poissons Ratio (y) = 0.05678 0.41288
# Poissons Ratio (z) = 0.35488 0.64128
#
# Static dielectric constant tensor:
#      x y z
#    x 4.006020 0.000000 0.000000 
#    y 0.000000 4.037550 0.000000 
#    z 0.000000 0.000000 3.846530 
# 
# 
# High freq. dielectric constant tensor:
#      x y z
#    x 1.837500 0.000000 0.000000 
#    y 0.000000 1.850900 0.000000 
#    z 0.000000 0.000000 1.839750 
# 
# From -- ./inp_files/9185.got.cif
#   From: 2010.03.12/outbox.cif.g09.slc.cpg/sg56_5_cif.got.tgz:9185.got - 2010.04.16 15:33:40.
