data_PCOD8228547
_publ_section_title
;
Structure prediction by ZEFSAII (Michael W. Deem and Ramdas Pophale) SiO2 
 PCOD8228547
Probable space group: P C C N
;
_chemical_formula_sum "Si O2"
_cell_formula_units_Z 48
_cell_length_a 9.579643
_cell_length_b 16.680653
_cell_length_c 15.097177
_cell_angle_alpha 90.000000
_cell_angle_beta 90.000000
_cell_angle_gamma 90.000000
_cell_volume 2412.448881
_symmetry_space_group_name_H-M "P C C N"
_symmetry_group_IT_number 56
_symmetry_cell_setting 'orthorhombic'
loop_
_space_group_symop_operation_xyz
x,y,z
1/2-x,1/2-y,z
1/2+x,-y,1/2-z
-x,1/2+y,1/2-z
-x,-y,-z
1/2+x,1/2+y,-z
1/2-x,y,1/2+z
x,1/2-y,1/2+z
loop_
_atom_site_type_symbol
_atom_site_label
_atom_site_fract_x
_atom_site_fract_y
_atom_site_fract_z
Si Si1 0.763733 0.956741 0.850655
Si Si2 0.280733 0.162962 0.870502
Si Si3 0.980241 0.838595 0.785985
Si Si4 0.439835 0.159598 0.216479
Si Si5 0.338963 0.493355 0.473456
Si Si6 0.227935 0.914818 0.298389
O O1 0.906620 0.906255 0.846252
O O2 0.630887 0.896512 0.857714
O O3 0.744708 0.008364 0.762064
O O4 0.755759 0.010978 0.939131
O O5 0.250000 0.250000 0.914655
O O6 0.425774 0.158020 0.815233
O O7 0.152400 0.148210 0.804157
O O8 0.293816 0.096183 0.945183
O O9 0.942884 0.749985 0.821467
O O10 0.144457 0.853397 0.791571
O O11 0.595055 0.131714 0.239561
O O12 0.500000 0.500000 0.500000
O O13 0.298140 0.557918 0.399286
#
# Coordination Sequence:
#
# PCOD8228547 Si02
#       6
#     8   8   8   8   8   8
#     4  11  22  38  65  87 120 163 211 248 309 375
#     4   9  20  39  64  91 123 162 213 256 310 375
#     4  10  21  38  63  90 121 161 205 253 317 365
#     4  10  20  40  63  87 121 166 201 253 311 372
#     4  12  23  38  64  94 121 165 211 255 315 371
#     4  12  22  40  63  90 129 158 205 264 312 367
#
# _framework density 19.896795000000001
#
# number of rings (size 3 to 8) (size 9 to 14) (size 15 to 20)
#    0.000    1.333    5.000    4.000    0.000    2.000 
#    0.000    0.000    0.000    2.000    0.000    0.000 
#    0.000    0.000    0.000    0.000    0.000    0.000 
#
# Total GULP energy -595086.648740 kJ/mol
# GULP energy per Si atom -12397.638515 kJ/mol
# Density = 1.985151 g / cm^3
# Si number density = 19.896795 Si / 1000 Ang^3
#
#
#
# Elastic Constant Matrix: (Units=GPa)
#
#
# Indices 1 2 3 4 5 6 
#
# 1 120.4335 24.2533 28.1067 0.0000 0.0000 0.0000
# 2 24.2533 73.7392 26.0891 0.0000 0.0000 0.0000
# 3 28.1067 26.0891 85.4112 0.0000 0.0000 0.0000
# 4 0.0000 0.0000 0.0000 19.3891 0.0000 0.0000
# 5 0.0000 0.0000 0.0000 0.0000 19.7045 0.0000
# 6 0.0000 0.0000 0.0000 0.0000 0.0000 30.6683
#
#
#
# Elastic Compliance Matrix: (Units=1/GPa)
#
#
# Indices 1 2 3 4 5 6 
#
# 1 0.009307 -0.002217 -0.002385 0.000000 0.000000 0.000000
# 2 -0.002217 0.015733 -0.004076 0.000000 0.000000 0.000000
# 3 -0.002385 -0.004076 0.013738 0.000000 0.000000 0.000000
# 4 0.000000 0.000000 0.000000 0.051575 0.000000 0.000000
# 5 0.000000 0.000000 0.000000 0.000000 0.050750 0.000000
# 6 0.000000 0.000000 0.000000 0.000000 0.000000 0.032607
#
#
# Mechanical properties :
#
#
# Convention : Reuss Voigt Hill
#
# Bulk Modulus (GPa) = 46.68443 48.49800 47.59122
# Shear Modulus (GPa) = 25.22626 27.36136 26.29381
#
# Velocity S-wave (km/s) = 3.56456 3.71234 3.63920
# Velocity P-wave (km/s) = 6.36048 6.54240 6.45208
#
# Compressibility (1/GPa) = 0.02142042
#
# Stress axis : x y z
#
# Youngs Moduli (GPa) = 107.45176 63.56229 72.79058
#
# Poissons Ratio (x) = 0.14092 0.17363
# Poissons Ratio (y) = 0.23822 0.29669
# Poissons Ratio (z) = 0.25631 0.25908
#
# Static dielectric constant tensor:
#      x y z
#    x 3.679880 0.000000 0.000000 
#    y 0.000000 3.796950 0.000000 
#    z 0.000000 0.000000 3.487730 
# 
# 
# High freq. dielectric constant tensor:
#      x y z
#    x 1.780280 0.000000 0.000000 
#    y 0.000000 1.782270 0.000000 
#    z 0.000000 0.000000 1.753160 
# 
# From -- ./inp_files/10641.got.cif
#   From: 2010.03.12/outbox.cif.g09.slc.cpg/sg56_6_cif.got.tgz:10641.got - 2010.04.16 15:33:40.
