data_PCOD8228511
_publ_section_title
;
Structure prediction by ZEFSAII (Michael W. Deem and Ramdas Pophale) SiO2 
 PCOD8228511
Probable space group: P C C N
;
_chemical_formula_sum "Si O2"
_cell_formula_units_Z 60
_cell_length_a 16.718706
_cell_length_b 15.885337
_cell_length_c 10.897403
_cell_angle_alpha 90.000000
_cell_angle_beta 90.000000
_cell_angle_gamma 90.000000
_cell_volume 2894.157124
_symmetry_space_group_name_H-M "P C C N"
_symmetry_group_IT_number 56
_symmetry_cell_setting 'orthorhombic'
loop_
_space_group_symop_operation_xyz
x,y,z
1/2-x,1/2-y,z
1/2+x,-y,1/2-z
-x,1/2+y,1/2-z
-x,-y,-z
1/2+x,1/2+y,-z
1/2-x,y,1/2+z
x,1/2-y,1/2+z
loop_
_atom_site_type_symbol
_atom_site_label
_atom_site_fract_x
_atom_site_fract_y
_atom_site_fract_z
Si Si1 0.337246 0.488170 0.536760
Si Si2 0.750000 0.250000 0.191628
Si Si3 0.964386 0.730521 0.189143
Si Si4 0.802665 0.407120 0.554819
Si Si5 0.073977 0.929701 0.740770
Si Si6 0.453749 0.556574 0.352541
Si Si7 0.915823 0.676732 0.929201
Si Si8 0.382150 0.828384 0.676454
O O1 0.251486 0.510880 0.477524
O O2 0.356269 0.559890 0.638111
O O3 0.412114 0.490229 0.442676
O O4 0.342235 0.391179 0.585047
O O5 0.752623 0.336801 0.117602
O O6 0.668351 0.251151 0.271177
O O7 0.016785 0.650152 0.226766
O O8 0.026698 0.802960 0.149881
O O9 0.912864 0.759127 0.310909
O O10 0.909559 0.718751 0.066250
O O11 0.880155 0.434192 0.630825
O O12 0.836202 0.361652 0.438164
O O13 0.018000 0.011579 0.734425
O O14 0.497650 0.631290 0.427303
O O15 0.382510 0.595184 0.272687
#
# Coordination Sequence:
#
# PCOD8228511 Si02
#       8
#     8   4   8   8   8   8   8   8
#     4  11  21  39  61  84 129 174 211 250 323 394
#     4  12  22  34  52  86 134 168 198 238 312 408
#     4  11  20  35  61  93 127 158 212 262 316 365
#     4  12  25  35  57  90 131 168 205 256 317 387
#     4  11  21  38  62  89 117 169 217 259 308 386
#     4  10  20  39  62  84 124 170 216 248 309 383
#     4  10  21  37  61  93 120 166 212 267 315 377
#     4  11  24  35  54  93 129 163 196 254 318 378
#
# _framework density 20.731424000000001
#
# number of rings (size 3 to 8) (size 9 to 14) (size 15 to 20)
#    0.000    1.067    5.333    2.800    3.733    0.533 
#    0.000    1.333    0.000    0.000    0.000   31.733 
#    0.000    0.000    0.000    0.000    0.000    0.000 
#
# Total GULP energy -743552.896875 kJ/mol
# GULP energy per Si atom -12392.548281 kJ/mol
# Density = 2.068424 g / cm^3
# Si number density = 20.731424 Si / 1000 Ang^3
#
#
#
# Elastic Constant Matrix: (Units=GPa)
#
#
# Indices 1 2 3 4 5 6 
#
# 1 44.2563 23.5140 31.6446 0.0000 0.0000 0.0000
# 2 23.5140 79.6152 51.5778 0.0000 0.0000 0.0000
# 3 31.6446 51.5778 116.1926 0.0000 0.0000 0.0000
# 4 0.0000 0.0000 0.0000 36.2299 0.0000 0.0000
# 5 0.0000 0.0000 0.0000 0.0000 -5.1188 0.0000
# 6 0.0000 0.0000 0.0000 0.0000 0.0000 25.7969
#
#
#
# Elastic Compliance Matrix: (Units=1/GPa)
#
#
# Indices 1 2 3 4 5 6 
#
# 1 0.029362 -0.004901 -0.005821 0.000000 0.000000 0.000000
# 2 -0.004901 0.018448 -0.006855 0.000000 0.000000 0.000000
# 3 -0.005821 -0.006855 0.013234 0.000000 0.000000 0.000000
# 4 0.000000 0.000000 0.000000 0.027602 0.000000 0.000000
# 5 0.000000 0.000000 0.000000 0.000000 -0.195360 0.000000
# 6 0.000000 0.000000 0.000000 0.000000 0.000000 0.038764
#
#
# Mechanical properties :
#
#
# Convention : Reuss Voigt Hill
#
# Bulk Modulus (GPa) = 38.62210 50.39299 44.50754
# Shear Modulus (GPa) = -206.90175 20.27013 -93.31581
#
# Velocity S-wave (km/s) = -10.00088 3.13029 -6.71636
# Velocity P-wave (km/s) = 10.70919 6.11762 6.21536
#
# Compressibility (1/GPa) = 0.02589191
#
# Stress axis : x y z
#
# Youngs Moduli (GPa) = 34.05789 54.20505 75.56009
#
# Poissons Ratio (x) = 0.26564 0.43985
# Poissons Ratio (y) = 0.16691 0.51793
# Poissons Ratio (z) = 0.19826 0.37155
#
# Static dielectric constant tensor:
#      x y z
#    x 3.501840 0.000000 0.000000 
#    y 0.000000 3.139880 0.000000 
#    z 0.000000 0.000000 4.161360 
# 
# 
# High freq. dielectric constant tensor:
#      x y z
#    x 1.783270 0.000000 0.000000 
#    y 0.000000 1.802500 0.000000 
#    z 0.000000 0.000000 1.816150 
# 
# From -- ./inp_files/8400.got.cif
#   From: 2010.03.12/outbox.cif.g09.slc.cpg/sg56_5_cif.got.tgz:8400.got - 2010.04.16 15:33:40.
