data_PCOD8228690
_publ_section_title
;
Structure prediction by ZEFSAII (Michael W. Deem and Ramdas Pophale) SiO2 
 PCOD8228690
Probable space group: P C C N
;
_chemical_formula_sum "Si O2"
_cell_formula_units_Z 60
_cell_length_a 11.598579
_cell_length_b 20.165558
_cell_length_c 12.678351
_cell_angle_alpha 90.000000
_cell_angle_beta 90.000000
_cell_angle_gamma 90.000000
_cell_volume 2965.362559
_symmetry_space_group_name_H-M "P C C N"
_symmetry_group_IT_number 56
_symmetry_cell_setting 'orthorhombic'
loop_
_space_group_symop_operation_xyz
x,y,z
1/2-x,1/2-y,z
1/2+x,-y,1/2-z
-x,1/2+y,1/2-z
-x,-y,-z
1/2+x,1/2+y,-z
1/2-x,y,1/2+z
x,1/2-y,1/2+z
loop_
_atom_site_type_symbol
_atom_site_label
_atom_site_fract_x
_atom_site_fract_y
_atom_site_fract_z
Si Si1 0.566113 0.810139 0.097339
Si Si2 0.837105 0.974435 0.304856
Si Si3 0.415589 0.912877 0.350275
Si Si4 0.753889 0.417970 0.967820
Si Si5 0.325594 0.810771 0.186713
Si Si6 0.662373 0.635880 0.805738
Si Si7 0.250000 0.250000 0.046312
Si Si8 0.992456 0.072781 0.543285
O O1 0.437735 0.783931 0.123375
O O2 0.632402 0.818810 0.206686
O O3 0.635460 0.758693 0.024752
O O4 0.557391 0.880855 0.040302
O O5 0.887696 0.020205 0.213330
O O6 0.779271 0.016021 0.400170
O O7 0.742327 0.923457 0.262351
O O8 0.943292 0.927995 0.344609
O O9 0.365100 0.921804 0.467842
O O10 0.360208 0.850390 0.291209
O O11 0.551600 0.899144 0.359414
O O12 0.858000 0.406854 0.052654
O O13 0.747687 0.355800 0.889564
O O14 0.250000 0.750000 0.226484
O O15 0.729174 0.683300 0.887285
O O16 0.000000 0.000000 0.500000
#
# Coordination Sequence:
#
# PCOD8228690 Si02
#       8
#     8   8   8   8   8   8   4   8
#     4  10  22  41  60  84 120 160 198 254 297 362
#     4  10  21  37  61  89 117 159 202 245 306 362
#     4  10  23  38  60  90 123 154 198 256 304 357
#     4   9  20  36  59  87 117 150 198 252 308 355
#     4   9  20  40  60  84 117 158 202 247 304 366
#     4  11  24  41  63  90 124 159 207 251 300 373
#     4  12  24  42  62  90 122 164 208 244 312 364
#     4   9  17  36  62  82 110 155 198 238 301 366
#
# _framework density 20.233613999999999
#
# number of rings (size 3 to 8) (size 9 to 14) (size 15 to 20)
#    0.000    2.133    1.333    2.800    7.467    1.067 
#    7.200    0.000    0.000    0.000    0.000    0.000 
#    0.000    0.000    0.000    0.000    0.000    0.000 
#
# Total GULP energy -743820.207514 kJ/mol
# GULP energy per Si atom -12397.003459 kJ/mol
# Density = 2.018756 g / cm^3
# Si number density = 20.233614 Si / 1000 Ang^3
#
#
#
# Elastic Constant Matrix: (Units=GPa)
#
#
# Indices 1 2 3 4 5 6 
#
# 1 62.0269 22.9480 6.8160 0.0000 0.0000 0.0000
# 2 22.9480 66.0918 0.8006 0.0000 0.0000 0.0000
# 3 6.8160 0.8006 44.0386 0.0000 0.0000 0.0000
# 4 0.0000 0.0000 0.0000 11.8941 0.0000 0.0000
# 5 0.0000 0.0000 0.0000 0.0000 33.6763 0.0000
# 6 0.0000 0.0000 0.0000 0.0000 0.0000 37.4841
#
#
#
# Elastic Compliance Matrix: (Units=1/GPa)
#
#
# Indices 1 2 3 4 5 6 
#
# 1 0.018837 -0.006506 -0.002797 0.000000 0.000000 0.000000
# 2 -0.006506 0.017381 0.000691 0.000000 0.000000 0.000000
# 3 -0.002797 0.000691 0.023128 0.000000 0.000000 0.000000
# 4 0.000000 0.000000 0.000000 0.084075 0.000000 0.000000
# 5 0.000000 0.000000 0.000000 0.000000 0.029695 0.000000
# 6 0.000000 0.000000 0.000000 0.000000 0.000000 0.026678
#
#
# Mechanical properties :
#
#
# Convention : Reuss Voigt Hill
#
# Bulk Modulus (GPa) = 23.74142 25.92073 24.83108
# Shear Modulus (GPa) = 21.63954 26.05041 23.84497
#
# Velocity S-wave (km/s) = 3.27385 3.59204 3.43663
# Velocity P-wave (km/s) = 5.10391 5.48108 5.29585
#
# Compressibility (1/GPa) = 0.04212048
#
# Stress axis : x y z
#
# Youngs Moduli (GPa) = 53.08821 57.53333 43.23820
#
# Poissons Ratio (x) = 0.37434 0.12094
# Poissons Ratio (y) = 0.34542 -0.02988
# Poissons Ratio (z) = 0.14849 -0.03976
#
# Static dielectric constant tensor:
#      x y z
#    x 3.913260 0.000000 0.000000 
#    y 0.000000 3.491410 0.000000 
#    z 0.000000 0.000000 3.612930 
# 
# 
# High freq. dielectric constant tensor:
#      x y z
#    x 1.794260 0.000000 0.000000 
#    y 0.000000 1.784090 0.000000 
#    z 0.000000 0.000000 1.775260 
# 
# From -- ./inp_files/7328.got.cif
#   From: 2010.03.12/outbox.cif.g09.slc.cpg/sg56_4_cif.got.tgz:7328.got - 2010.04.16 15:33:40.
