data_PCOD8228718
_publ_section_title
;
Structure prediction by ZEFSAII (Michael W. Deem and Ramdas Pophale) SiO2 
 PCOD8228718
Probable space group: P C C N
;
_chemical_formula_sum "Si O2"
_cell_formula_units_Z 48
_cell_length_a 16.297272
_cell_length_b 12.769621
_cell_length_c 11.002435
_cell_angle_alpha 90.000000
_cell_angle_beta 90.000000
_cell_angle_gamma 90.000000
_cell_volume 2289.716602
_symmetry_space_group_name_H-M "P C C N"
_symmetry_group_IT_number 56
_symmetry_cell_setting 'orthorhombic'
loop_
_space_group_symop_operation_xyz
x,y,z
1/2-x,1/2-y,z
1/2+x,-y,1/2-z
-x,1/2+y,1/2-z
-x,-y,-z
1/2+x,1/2+y,-z
1/2-x,y,1/2+z
x,1/2-y,1/2+z
loop_
_atom_site_type_symbol
_atom_site_label
_atom_site_fract_x
_atom_site_fract_y
_atom_site_fract_z
Si Si1 0.453638 0.719683 0.532400
Si Si2 0.352827 0.466308 0.238314
Si Si3 0.452190 0.268315 0.215066
Si Si4 0.798617 0.652880 0.836040
Si Si5 0.802046 0.345799 0.425559
Si Si6 0.652604 0.031597 0.003016
O O1 0.508907 0.726710 0.411342
O O2 0.494789 0.746903 0.662416
O O3 0.378301 0.797686 0.501023
O O4 0.417619 0.603719 0.555881
O O5 0.423271 0.388082 0.188067
O O6 0.264368 0.410038 0.249311
O O7 0.343324 0.573566 0.166082
O O8 0.383346 0.500793 0.368471
O O9 0.372345 0.198121 0.245136
O O10 0.750000 0.750000 0.900125
O O11 0.837321 0.576946 0.934533
O O12 0.750000 0.250000 0.362029
O O13 0.740026 0.408085 0.514158
#
# Coordination Sequence:
#
# PCOD8228718 Si02
#       6
#     8   8   8   8   8   8
#     4  11  24  40  61  91 126 161 198 247 307 365
#     4  10  21  38  62  87 116 158 204 250 300 357
#     4  11  24  39  60  91 126 160 197 247 305 363
#     4   9  21  39  59  86 117 156 204 250 296 354
#     4   9  21  39  59  85 116 157 206 253 299 358
#     4  10  21  39  63  86 117 162 207 249 299 360
#
# _framework density 20.963293
#
# number of rings (size 3 to 8) (size 9 to 14) (size 15 to 20)
#    0.000    2.000    0.000    2.000    0.000   16.667 
#    0.000    0.000    0.000    0.000    0.000    0.000 
#    0.000    0.000    0.000    0.000    0.000    0.000 
#
# Total GULP energy -594656.328408 kJ/mol
# GULP energy per Si atom -12388.673508 kJ/mol
# Density = 2.091558 g / cm^3
# Si number density = 20.963293 Si / 1000 Ang^3
#
#
#
# Elastic Constant Matrix: (Units=GPa)
#
#
# Indices 1 2 3 4 5 6 
#
# 1 85.5941 36.9177 32.6763 0.0000 0.0000 0.0000
# 2 36.9177 122.0349 26.7515 0.0000 0.0000 0.0000
# 3 32.6763 26.7515 87.8823 0.0000 0.0000 0.0000
# 4 0.0000 0.0000 0.0000 25.9036 0.0000 0.0000
# 5 0.0000 0.0000 0.0000 0.0000 30.8364 0.0000
# 6 0.0000 0.0000 0.0000 0.0000 0.0000 28.8408
#
#
#
# Elastic Compliance Matrix: (Units=1/GPa)
#
#
# Indices 1 2 3 4 5 6 
#
# 1 0.014913 -0.003531 -0.004470 0.000000 0.000000 0.000000
# 2 -0.003531 0.009617 -0.001614 0.000000 0.000000 0.000000
# 3 -0.004470 -0.001614 0.013532 0.000000 0.000000 0.000000
# 4 0.000000 0.000000 0.000000 0.038605 0.000000 0.000000
# 5 0.000000 0.000000 0.000000 0.000000 0.032429 0.000000
# 6 0.000000 0.000000 0.000000 0.000000 0.000000 0.034673
#
#
# Mechanical properties :
#
#
# Convention : Reuss Voigt Hill
#
# Bulk Modulus (GPa) = 53.10578 54.24469 53.67523
# Shear Modulus (GPa) = 29.53752 30.39387 29.96569
#
# Velocity S-wave (km/s) = 3.75775 3.81184 3.78489
# Velocity P-wave (km/s) = 6.64946 6.73095 6.69033
#
# Compressibility (1/GPa) = 0.01883034
#
# Stress axis : x y z
#
# Youngs Moduli (GPa) = 67.05735 103.98720 73.89788
#
# Poissons Ratio (x) = 0.36723 0.33031
# Poissons Ratio (y) = 0.23681 0.11929
# Poissons Ratio (z) = 0.29973 0.16786
#
# Static dielectric constant tensor:
#      x y z
#    x 4.016950 0.000000 0.000000 
#    y 0.000000 4.297500 0.000000 
#    z 0.000000 0.000000 3.382790 
# 
# 
# High freq. dielectric constant tensor:
#      x y z
#    x 1.836160 0.000000 0.000000 
#    y 0.000000 1.847500 0.000000 
#    z 0.000000 0.000000 1.781390 
# 
# From -- ./inp_files/7812.got.cif
#   From: 2010.03.12/outbox.cif.g09.slc.cpg/sg56_4_cif.got.tgz:7812.got - 2010.04.16 15:33:40.
