data_PCOD8228659
_publ_section_title
;
Structure prediction by ZEFSAII (Michael W. Deem and Ramdas Pophale) SiO2 
 PCOD8228659
Probable space group: P C C N
;
_chemical_formula_sum "Si O2"
_cell_formula_units_Z 56
_cell_length_a 16.234881
_cell_length_b 33.624277
_cell_length_c 5.063397
_cell_angle_alpha 90.000000
_cell_angle_beta 90.000000
_cell_angle_gamma 90.000000
_cell_volume 2764.038222
_symmetry_space_group_name_H-M "P C C N"
_symmetry_group_IT_number 56
_symmetry_cell_setting 'orthorhombic'
loop_
_space_group_symop_operation_xyz
x,y,z
1/2-x,1/2-y,z
1/2+x,-y,1/2-z
-x,1/2+y,1/2-z
-x,-y,-z
1/2+x,1/2+y,-z
1/2-x,y,1/2+z
x,1/2-y,1/2+z
loop_
_atom_site_type_symbol
_atom_site_label
_atom_site_fract_x
_atom_site_fract_y
_atom_site_fract_z
Si Si1 0.196147 0.063660 0.675070
Si Si2 0.301540 0.154946 0.186459
Si Si3 0.902721 0.772853 0.478861
Si Si4 0.801540 0.345054 0.813541
Si Si5 0.803853 0.063660 0.324930
Si Si6 0.441684 0.500000 0.747251
Si Si7 0.402721 0.727147 0.521138
O O1 0.233972 0.053167 0.390374
O O2 0.168428 0.109539 0.672836
O O3 0.114768 0.039028 0.738649
O O4 0.273504 0.163580 0.485161
O O5 0.376818 0.182798 0.101333
O O6 0.867787 0.758138 0.759900
O O7 0.000000 0.772577 0.500000
O O8 0.773504 0.336420 0.514839
O O9 0.831572 0.390461 0.827164
O O10 0.876818 0.317202 0.898667
O O11 0.766028 0.053167 0.609626
O O12 0.885232 0.039028 0.261351
O O13 0.500000 0.500000 0.500000
O O14 0.500000 0.500000 0.000000
O O15 0.367787 0.758138 0.740100
#
# Coordination Sequence:
#
# PCOD8228659 Si02
#       7
#     8   8   8   8   8   8   8
#     4  10  21  40  61  82 115 155 188 227 287 346
#     4  10  21  36  57  83 107 141 189 231 270 323
#     4  10  21  36  53  77 111 148 182 223 281 335
#     4  10  21  36  57  83 107 141 189 231 270 323
#     4  10  21  40  61  82 115 155 188 227 287 346
#     4  12  24  38  60  92 118 144 190 236 278 334
#     4  10  21  36  53  77 111 148 182 223 281 335
#
# _framework density 20.260211999999999
#
# number of rings (size 3 to 8) (size 9 to 14) (size 15 to 20)
#    0.000    1.714    0.000    4.286    0.000    4.571 
#    0.000    4.286    0.000    0.000    0.000    0.000 
#    0.000    0.000    0.000    0.000    0.000    0.000 
#
# Total GULP energy -694413.568037 kJ/mol
# GULP energy per Si atom -12400.242286 kJ/mol
# Density = 2.021410 g / cm^3
# Si number density = 20.260212 Si / 1000 Ang^3
#
#
#
# Elastic Constant Matrix: (Units=GPa)
#
#
# Indices 1 2 3 4 5 6 
#
# 1 68.2345 61.4523 41.3552 0.0000 0.0000 0.0000
# 2 61.4523 131.2988 49.4196 0.0000 0.0000 0.0000
# 3 41.3552 49.4196 127.2922 0.0000 0.0000 0.0000
# 4 0.0000 0.0000 0.0000 29.8919 0.0000 0.0000
# 5 0.0000 0.0000 0.0000 0.0000 35.8684 0.0000
# 6 0.0000 0.0000 0.0000 0.0000 0.0000 28.5453
#
#
#
# Elastic Compliance Matrix: (Units=1/GPa)
#
#
# Indices 1 2 3 4 5 6 
#
# 1 0.027460 -0.011119 -0.004604 0.000000 0.000000 0.000000
# 2 -0.011119 0.013422 -0.001599 0.000000 0.000000 0.000000
# 3 -0.004604 -0.001599 0.009972 0.000000 0.000000 0.000000
# 4 0.000000 0.000000 0.000000 0.033454 0.000000 0.000000
# 5 0.000000 0.000000 0.000000 0.000000 0.027880 0.000000
# 6 0.000000 0.000000 0.000000 0.000000 0.000000 0.035032
#
#
# Mechanical properties :
#
#
# Convention : Reuss Voigt Hill
#
# Bulk Modulus (GPa) = 61.68932 70.14219 65.91575
# Shear Modulus (GPa) = 26.69980 30.50102 28.60041
#
# Velocity S-wave (km/s) = 3.63415 3.88424 3.76127
# Velocity P-wave (km/s) = 6.93715 7.40353 7.17413
#
# Compressibility (1/GPa) = 0.01621026
#
# Stress axis : x y z
#
# Youngs Moduli (GPa) = 36.41679 74.50451 100.27634
#
# Poissons Ratio (x) = 0.82842 0.46171
# Poissons Ratio (y) = 0.40492 0.16029
# Poissons Ratio (z) = 0.16768 0.11910
#
# Static dielectric constant tensor:
#      x y z
#    x 3.350750 0.000000 0.000000 
#    y 0.000000 3.786830 0.000000 
#    z 0.000000 0.000000 4.174170 
# 
# 
# High freq. dielectric constant tensor:
#      x y z
#    x 1.768060 0.000000 0.000000 
#    y 0.000000 1.801520 0.000000 
#    z 0.000000 0.000000 1.817980 
# 
# From -- ./inp_files/585.got.cif
#   From: 2010.03.12/outbox.cif.g09.slc.cpg/sg56_1_cif.got.tgz:585.got - 2010.04.16 15:33:40.
