data_PCOD8228263
_publ_section_title
;
Structure prediction by ZEFSAII (Michael W. Deem and Ramdas Pophale) SiO2 
 PCOD8228263
Probable space group: P C C N
;
_chemical_formula_sum "Si O2"
_cell_formula_units_Z 52
_cell_length_a 13.274444
_cell_length_b 17.827977
_cell_length_c 11.639123
_cell_angle_alpha 90.000000
_cell_angle_beta 90.000000
_cell_angle_gamma 90.000000
_cell_volume 2754.473906
_symmetry_space_group_name_H-M "P C C N"
_symmetry_group_IT_number 56
_symmetry_cell_setting 'orthorhombic'
loop_
_space_group_symop_operation_xyz
x,y,z
1/2-x,1/2-y,z
1/2+x,-y,1/2-z
-x,1/2+y,1/2-z
-x,-y,-z
1/2+x,1/2+y,-z
1/2-x,y,1/2+z
x,1/2-y,1/2+z
loop_
_atom_site_type_symbol
_atom_site_label
_atom_site_fract_x
_atom_site_fract_y
_atom_site_fract_z
Si Si1 0.061989 0.577498 0.604699
Si Si2 0.888629 0.142470 0.540769
Si Si3 0.669836 0.494691 0.690119
Si Si4 0.750000 0.250000 0.909616
Si Si5 0.948048 0.280617 0.267457
Si Si6 0.512675 0.876284 0.179994
Si Si7 0.609592 0.038370 0.634638
O O1 0.148323 0.543736 0.687526
O O2 0.008830 0.651524 0.656451
O O3 0.115254 0.590800 0.480169
O O4 0.967773 0.523833 0.596481
O O5 0.867609 0.060524 0.590599
O O6 0.787575 0.180339 0.488343
O O7 0.935117 0.198621 0.634689
O O8 0.976102 0.128327 0.449714
O O9 0.616425 0.576495 0.684280
O O10 0.788522 0.503711 0.671590
O O11 0.660989 0.270289 0.824103
O O12 0.023464 0.209371 0.274610
O O13 0.426135 0.914047 0.256765
#
# Coordination Sequence:
#
# PCOD8228263 Si02
#       7
#     8   8   8   4   8   8   8
#     4   9  21  39  55  86 111 149 190 229 287 336
#     4  10  21  33  54  82 119 144 183 237 288 342
#     4  10  21  37  58  82 112 150 193 229 283 342
#     4  10  20  30  52  86 110 146 184 224 298 350
#     4  10  21  34  53  81 116 143 181 235 285 335
#     4  10  23  36  55  86 113 148 190 236 282 338
#     4  10  21  37  61  79 114 152 189 235 275 345
#
# _framework density 18.878378000000001
#
# number of rings (size 3 to 8) (size 9 to 14) (size 15 to 20)
#    0.000    2.154    0.000    1.846   17.231    0.000 
#    0.000    0.769    0.000    0.000    0.000    0.000 
#    0.000    0.000    0.000    0.000    0.000    0.000 
#
# Total GULP energy -644407.669435 kJ/mol
# GULP energy per Si atom -12392.455181 kJ/mol
# Density = 1.883541 g / cm^3
# Si number density = 18.878378 Si / 1000 Ang^3
#
#
#
# Elastic Constant Matrix: (Units=GPa)
#
#
# Indices 1 2 3 4 5 6 
#
# 1 61.3270 27.0388 49.1797 0.0000 0.0000 0.0000
# 2 27.0388 108.8115 48.8354 0.0000 0.0000 0.0000
# 3 49.1797 48.8354 130.5895 0.0000 0.0000 0.0000
# 4 0.0000 0.0000 0.0000 27.9723 0.0000 0.0000
# 5 0.0000 0.0000 0.0000 0.0000 16.0537 0.0000
# 6 0.0000 0.0000 0.0000 0.0000 0.0000 4.6967
#
#
#
# Elastic Compliance Matrix: (Units=1/GPa)
#
#
# Indices 1 2 3 4 5 6 
#
# 1 0.023821 -0.002275 -0.008120 0.000000 0.000000 0.000000
# 2 -0.002275 0.011261 -0.003354 0.000000 0.000000 0.000000
# 3 -0.008120 -0.003354 0.011970 0.000000 0.000000 0.000000
# 4 0.000000 0.000000 0.000000 0.035750 0.000000 0.000000
# 5 0.000000 0.000000 0.000000 0.000000 0.062291 0.000000
# 6 0.000000 0.000000 0.000000 0.000000 0.000000 0.212917
#
#
# Mechanical properties :
#
#
# Convention : Reuss Voigt Hill
#
# Bulk Modulus (GPa) = 51.14347 61.20401 56.17374
# Shear Modulus (GPa) = 12.75427 21.45614 17.10520
#
# Velocity S-wave (km/s) = 2.60205 3.37493 3.01337
# Velocity P-wave (km/s) = 6.01477 6.90488 6.47514
#
# Compressibility (1/GPa) = 0.01955284
#
# Stress axis : x y z
#
# Youngs Moduli (GPa) = 41.98019 88.80197 83.54190
#
# Poissons Ratio (x) = 0.20202 0.67837
# Poissons Ratio (y) = 0.09550 0.28024
# Poissons Ratio (z) = 0.34088 0.29788
#
# Static dielectric constant tensor:
#      x y z
#    x 3.152100 0.000000 0.000000 
#    y 0.000000 2.292770 0.000000 
#    z 0.000000 0.000000 3.785310 
# 
# 
# High freq. dielectric constant tensor:
#      x y z
#    x 1.699440 0.000000 0.000000 
#    y 0.000000 1.736900 0.000000 
#    z 0.000000 0.000000 1.756650 
# 
# From -- ./inp_files/7998.got.cif
#   From: 2010.03.12/outbox.cif.g09.slc.cpg/sg56_4_cif.got.tgz:7998.got - 2010.04.16 15:33:40.
