data_PCOD8228145
_publ_section_title
;
Structure prediction by ZEFSAII (Michael W. Deem and Ramdas Pophale) SiO2 
 PCOD8228145
Probable space group: P C C N
;
_chemical_formula_sum "Si O2"
_cell_formula_units_Z 60
_cell_length_a 15.212934
_cell_length_b 12.738169
_cell_length_c 14.943740
_cell_angle_alpha 90.000000
_cell_angle_beta 90.000000
_cell_angle_gamma 90.000000
_cell_volume 2895.871524
_symmetry_space_group_name_H-M "P C C N"
_symmetry_group_IT_number 56
_symmetry_cell_setting 'orthorhombic'
loop_
_space_group_symop_operation_xyz
x,y,z
1/2-x,1/2-y,z
1/2+x,-y,1/2-z
-x,1/2+y,1/2-z
-x,-y,-z
1/2+x,1/2+y,-z
1/2-x,y,1/2+z
x,1/2-y,1/2+z
loop_
_atom_site_type_symbol
_atom_site_label
_atom_site_fract_x
_atom_site_fract_y
_atom_site_fract_z
Si Si1 0.135443 0.561848 0.704414
Si Si2 0.454589 0.731323 0.685756
Si Si3 0.776923 0.525441 0.663532
Si Si4 0.422621 0.217261 0.158732
Si Si5 0.862188 0.474559 0.495120
Si Si6 0.250000 0.250000 0.763075
Si Si7 0.982536 0.670489 0.513017
Si Si8 0.554300 0.003198 0.773597
O O1 0.127241 0.688090 0.692941
O O2 0.207007 0.540702 0.779925
O O3 0.166612 0.514090 0.608920
O O4 0.042629 0.508072 0.730498
O O5 0.502601 0.732912 0.780355
O O6 0.519572 0.767534 0.606860
O O7 0.428991 0.610069 0.670440
O O8 0.776332 0.483514 0.560196
O O9 0.755487 0.648945 0.672274
O O10 0.875838 0.501225 0.694097
O O11 0.331163 0.260848 0.195743
O O12 0.440631 0.252167 0.058531
O O13 0.426479 0.091085 0.157934
O O14 0.922748 0.570106 0.525619
O O15 0.917315 0.366298 0.509126
#
# Coordination Sequence:
#
# PCOD8228145 Si02
#       8
#     8   8   8   8   8   4   8   8
#     4  10  22  39  61  87 117 152 194 242 286 344
#     4  10  20  37  59  83 114 152 195 240 286 340
#     4  11  21  37  61  87 116 151 191 239 292 344
#     4  10  20  36  57  84 116 153 192 238 294 344
#     4  10  19  35  60  87 112 149 200 240 280 343
#     4  10  20  34  52  82 120 146 182 240 294 346
#     4  10  19  35  61  85 111 154 200 238 283 341
#     4  10  21  38  60  86 120 155 191 238 291 342
#
# _framework density 20.719149999999999
#
# number of rings (size 3 to 8) (size 9 to 14) (size 15 to 20)
#    0.000    1.867    0.000    7.200    0.000    1.067 
#    0.000   15.333    0.000    4.800    0.000    0.000 
#    0.000    0.000    0.000    0.000    0.000    0.000 
#
# Total GULP energy -743843.365586 kJ/mol
# GULP energy per Si atom -12397.389426 kJ/mol
# Density = 2.067199 g / cm^3
# Si number density = 20.719150 Si / 1000 Ang^3
#
#
#
# Elastic Constant Matrix: (Units=GPa)
#
#
# Indices 1 2 3 4 5 6 
#
# 1 83.5731 23.6567 45.2998 0.0000 0.0000 0.0000
# 2 23.6567 112.3864 27.8112 0.0000 0.0000 0.0000
# 3 45.2998 27.8112 99.0921 0.0000 0.0000 0.0000
# 4 0.0000 0.0000 0.0000 21.6164 0.0000 0.0000
# 5 0.0000 0.0000 0.0000 0.0000 31.9223 0.0000
# 6 0.0000 0.0000 0.0000 0.0000 0.0000 18.5247
#
#
#
# Elastic Compliance Matrix: (Units=1/GPa)
#
#
# Indices 1 2 3 4 5 6 
#
# 1 0.016202 -0.001695 -0.006931 0.000000 0.000000 0.000000
# 2 -0.001695 0.009739 -0.001958 0.000000 0.000000 0.000000
# 3 -0.006931 -0.001958 0.013810 0.000000 0.000000 0.000000
# 4 0.000000 0.000000 0.000000 0.046261 0.000000 0.000000
# 5 0.000000 0.000000 0.000000 0.000000 0.031326 0.000000
# 6 0.000000 0.000000 0.000000 0.000000 0.000000 0.053982
#
#
# Mechanical properties :
#
#
# Convention : Reuss Voigt Hill
#
# Bulk Modulus (GPa) = 53.81593 54.28744 54.05169
# Shear Modulus (GPa) = 25.16554 27.63160 26.39857
#
# Velocity S-wave (km/s) = 3.48890 3.65585 3.57335
# Velocity P-wave (km/s) = 6.50079 6.63918 6.57035
#
# Compressibility (1/GPa) = 0.01858186
#
# Stress axis : x y z
#
# Youngs Moduli (GPa) = 61.71939 102.67607 72.41234
#
# Poissons Ratio (x) = 0.17407 0.50189
# Poissons Ratio (y) = 0.10464 0.14181
# Poissons Ratio (z) = 0.42778 0.20108
#
# Static dielectric constant tensor:
#      x y z
#    x 3.609940 0.000000 0.000000 
#    y 0.000000 3.970420 0.000000 
#    z 0.000000 0.000000 3.638210 
# 
# 
# High freq. dielectric constant tensor:
#      x y z
#    x 1.789020 0.000000 0.000000 
#    y 0.000000 1.817120 0.000000 
#    z 0.000000 0.000000 1.805980 
# 
# From -- ./inp_files/12405.got.cif
#   From: 2010.03.12/outbox.cif.g09.slc.cpg/sg56_7_cif.got.tgz:12405.got - 2010.04.16 15:33:40.
