data_PCOD8228807
_publ_section_title
;
Structure prediction by ZEFSAII (Michael W. Deem and Ramdas Pophale) SiO2 
 PCOD8228807
Probable space group: P C C N
;
_chemical_formula_sum "Si O2"
_cell_formula_units_Z 64
_cell_length_a 15.649830
_cell_length_b 18.183102
_cell_length_c 10.690544
_cell_angle_alpha 90.000000
_cell_angle_beta 90.000000
_cell_angle_gamma 90.000000
_cell_volume 3042.127448
_symmetry_space_group_name_H-M "P C C N"
_symmetry_group_IT_number 56
_symmetry_cell_setting 'orthorhombic'
loop_
_space_group_symop_operation_xyz
x,y,z
1/2-x,1/2-y,z
1/2+x,-y,1/2-z
-x,1/2+y,1/2-z
-x,-y,-z
1/2+x,1/2+y,-z
1/2-x,y,1/2+z
x,1/2-y,1/2+z
loop_
_atom_site_type_symbol
_atom_site_label
_atom_site_fract_x
_atom_site_fract_y
_atom_site_fract_z
Si Si1 0.096641 0.059017 0.757134
Si Si2 0.485271 0.703256 0.685801
Si Si3 0.333723 0.602612 0.736602
Si Si4 0.225997 0.086611 0.964766
Si Si5 0.396953 0.348257 0.511089
Si Si6 0.894097 0.811385 0.903555
Si Si7 0.966558 0.137296 0.909980
Si Si8 0.283660 0.582352 0.006461
O O1 0.172555 0.095917 0.837688
O O2 0.086132 0.101033 0.628877
O O3 0.007797 0.070546 0.830469
O O4 0.114757 0.973721 0.734877
O O5 0.403463 0.666413 0.749576
O O6 0.511802 0.659576 0.559634
O O7 0.574279 0.698794 0.762176
O O8 0.458856 0.788086 0.670184
O O9 0.283124 0.616393 0.606161
O O10 0.271046 0.606164 0.859576
O O11 0.321706 0.112668 0.932026
O O12 0.186824 0.135102 0.078393
O O13 0.225232 0.004626 0.018121
O O14 0.365005 0.266944 0.543755
O O15 0.975861 0.846144 0.971072
O O16 0.876392 0.108563 0.954543
#
# Coordination Sequence:
#
# PCOD8228807 Si02
#       8
#     8   8   8   8   8   8   8   8
#     4  10  22  41  63  94 133 162 215 267 324 395
#     4  11  24  40  67  95 130 171 217 272 328 398
#     4  11  25  45  67  99 130 169 226 272 335 392
#     4  10  23  39  63  93 131 173 213 260 328 389
#     4  11  22  40  61  95 131 166 211 269 321 394
#     4  10  21  40  63  92 128 171 212 260 319 395
#     4  10  22  43  66  91 126 173 216 266 330 387
#     4  11  24  44  69  95 132 173 222 281 327 393
#
# _framework density 21.037908999999999
#
# number of rings (size 3 to 8) (size 9 to 14) (size 15 to 20)
#    0.000    1.500    3.750    0.375    3.500    3.500 
#    0.000    1.250    0.000    0.000    0.000    0.000 
#    0.000    0.000    0.000    0.000    0.000    0.000 
#
# Total GULP energy -793394.338182 kJ/mol
# GULP energy per Si atom -12396.786534 kJ/mol
# Density = 2.099003 g / cm^3
# Si number density = 21.037909 Si / 1000 Ang^3
#
#
#
# Elastic Constant Matrix: (Units=GPa)
#
#
# Indices 1 2 3 4 5 6 
#
# 1 69.1809 35.9349 18.6182 0.0000 0.0000 0.0000
# 2 35.9349 45.8135 13.4087 0.0000 0.0000 0.0000
# 3 18.6182 13.4087 87.6824 0.0000 0.0000 0.0000
# 4 0.0000 0.0000 0.0000 22.3971 0.0000 0.0000
# 5 0.0000 0.0000 0.0000 0.0000 34.5795 0.0000
# 6 0.0000 0.0000 0.0000 0.0000 0.0000 36.3444
#
#
#
# Elastic Compliance Matrix: (Units=1/GPa)
#
#
# Indices 1 2 3 4 5 6 
#
# 1 0.024869 -0.018802 -0.002405 0.000000 0.000000 0.000000
# 2 -0.018802 0.037066 -0.001676 0.000000 0.000000 0.000000
# 3 -0.002405 -0.001676 0.012172 0.000000 0.000000 0.000000
# 4 0.000000 0.000000 0.000000 0.044649 0.000000 0.000000
# 5 0.000000 0.000000 0.000000 0.000000 0.028919 0.000000
# 6 0.000000 0.000000 0.000000 0.000000 0.000000 0.027515
#
#
# Mechanical properties :
#
#
# Convention : Reuss Voigt Hill
#
# Bulk Modulus (GPa) = 35.28608 37.62227 36.45418
# Shear Modulus (GPa) = 21.70117 27.64520 24.67318
#
# Velocity S-wave (km/s) = 3.21522 3.62894 3.42833
# Velocity P-wave (km/s) = 5.53106 5.95658 5.74776
#
# Compressibility (1/GPa) = 0.02833979
#
# Stress axis : x y z
#
# Youngs Moduli (GPa) = 40.21112 26.97876 82.15715
#
# Poissons Ratio (x) = 0.50727 0.19761
# Poissons Ratio (y) = 0.75607 0.13768
# Poissons Ratio (z) = 0.09672 0.04521
#
# Static dielectric constant tensor:
#      x y z
#    x 3.702910 0.000000 0.000000 
#    y 0.000000 3.867940 0.000000 
#    z 0.000000 0.000000 4.049020 
# 
# 
# High freq. dielectric constant tensor:
#      x y z
#    x 1.813060 0.000000 0.000000 
#    y 0.000000 1.825660 0.000000 
#    z 0.000000 0.000000 1.829340 
# 
# From -- ./inp_files/8055.got.cif
#   From: 2010.03.12/outbox.cif.g09.slc.cpg/sg56_5_cif.got.tgz:8055.got - 2010.04.16 15:33:40.
