data_PCOD8228849
_publ_section_title
;
Structure prediction by ZEFSAII (Michael W. Deem and Ramdas Pophale) SiO2 
 PCOD8228849
Probable space group: P C C N
;
_chemical_formula_sum "Si O2"
_cell_formula_units_Z 36
_cell_length_a 12.526577
_cell_length_b 5.431184
_cell_length_c 24.043581
_cell_angle_alpha 90.000000
_cell_angle_beta 90.000000
_cell_angle_gamma 90.000000
_cell_volume 1635.784466
_symmetry_space_group_name_H-M "P C C N"
_symmetry_group_IT_number 56
_symmetry_cell_setting 'orthorhombic'
loop_
_space_group_symop_operation_xyz
x,y,z
1/2-x,1/2-y,z
1/2+x,-y,1/2-z
-x,1/2+y,1/2-z
-x,-y,-z
1/2+x,1/2+y,-z
1/2-x,y,1/2+z
x,1/2-y,1/2+z
loop_
_atom_site_type_symbol
_atom_site_label
_atom_site_fract_x
_atom_site_fract_y
_atom_site_fract_z
Si Si1 0.250000 0.250000 0.088803
Si Si2 0.475087 0.786367 0.717399
Si Si3 0.250000 0.750000 0.660650
Si Si4 0.250000 0.750000 0.933965
Si Si5 0.635719 0.873403 0.618760
Si Si6 0.390732 0.133669 0.992346
O O1 0.247826 0.499461 0.124869
O O2 0.355990 0.261899 0.050136
O O3 0.512137 0.536701 0.747610
O O4 0.352467 0.755719 0.700492
O O5 0.548496 0.814421 0.663820
O O6 0.342409 0.663611 0.890611
O O7 0.208541 0.537949 0.974467
O O8 0.750000 0.750000 0.633208
O O9 0.587587 0.813855 0.558390
O O10 0.500000 0.000000 0.000000
#
# Coordination Sequence:
#
# PCOD8228849 Si02
#       6
#     4   8   4   4   8   8
#     4  12  24  46  70 110 158 190 230 294 368 436
#     4  12  30  50  79 104 139 195 245 313 374 420
#     4  12  29  49  72 112 150 184 247 309 366 444
#     4  10  21  41  64 100 142 184 241 283 346 420
#     4  10  24  43  70 104 139 183 247 295 350 438
#     4  11  23  39  68 103 146 196 231 281 355 436
#
# _framework density 22.00779
#
# number of rings (size 3 to 8) (size 9 to 14) (size 15 to 20)
#    0.000    0.889    3.333    3.333   12.444    0.889 
#    0.000    0.000    0.000    0.000    0.000    0.000 
#    0.000    0.000    0.000    0.000    0.000    0.000 
#
# Total GULP energy -446044.498530 kJ/mol
# GULP energy per Si atom -12390.124959 kJ/mol
# Density = 2.195770 g / cm^3
# Si number density = 22.007790 Si / 1000 Ang^3
#
#
#
# Elastic Constant Matrix: (Units=GPa)
#
#
# Indices 1 2 3 4 5 6 
#
# 1 159.3956 43.4313 79.0491 0.0000 0.0000 0.0000
# 2 43.4313 162.2550 82.3869 0.0000 0.0000 0.0000
# 3 79.0491 82.3869 139.9478 0.0000 0.0000 0.0000
# 4 0.0000 0.0000 0.0000 -238.6393 0.0000 0.0000
# 5 0.0000 0.0000 0.0000 0.0000 49.0868 0.0000
# 6 0.0000 0.0000 0.0000 0.0000 0.0000 34.7126
#
#
#
# Elastic Compliance Matrix: (Units=1/GPa)
#
#
# Indices 1 2 3 4 5 6 
#
# 1 0.008721 0.000238 -0.005066 0.000000 0.000000 0.000000
# 2 0.000238 0.008797 -0.005313 0.000000 0.000000 0.000000
# 3 -0.005066 -0.005313 0.013135 0.000000 0.000000 0.000000
# 4 0.000000 0.000000 0.000000 -0.004190 0.000000 0.000000
# 5 0.000000 0.000000 0.000000 0.000000 0.020372 0.000000
# 6 0.000000 0.000000 0.000000 0.000000 0.000000 0.028808
#
#
# Mechanical properties :
#
#
# Convention : Reuss Voigt Hill
#
# Bulk Modulus (GPa) = 96.42782 96.81479 96.62130
# Shear Modulus (GPa) = 50.30981 -13.85257 18.22862
#
# Velocity S-wave (km/s) = 4.78640 -2.51158 2.88111
# Velocity P-wave (km/s) = 8.62882 5.97293 7.42066
#
# Compressibility (1/GPa) = 0.01037045
#
# Stress axis : x y z
#
# Youngs Moduli (GPa) = 114.66019 113.67008 76.13083
#
# Poissons Ratio (x) = -0.02706 0.38571
# Poissons Ratio (y) = -0.02729 0.40452
# Poissons Ratio (z) = 0.58091 0.60398
#
# Static dielectric constant tensor:
#      x y z
#    x 4.574470 0.000000 0.000000 
#    y 0.000000 4.099030 0.000000 
#    z 0.000000 0.000000 4.256040 
# 
# 
# High freq. dielectric constant tensor:
#      x y z
#    x 1.877340 0.000000 0.000000 
#    y 0.000000 1.882400 0.000000 
#    z 0.000000 0.000000 1.868950 
# 
# From -- ./inp_files/17387.got.cif
#   From: 2010.03.12/outbox.cif.g09.slc.cpg/sg56_9_cif.got.tgz:17387.got - 2010.04.16 15:33:40.
