data_PCOD8228673
_publ_section_title
;
Structure prediction by ZEFSAII (Michael W. Deem and Ramdas Pophale) SiO2 
 PCOD8228673
Probable space group: P C C N
;
_chemical_formula_sum "Si O2"
_cell_formula_units_Z 44
_cell_length_a 12.373718
_cell_length_b 18.737189
_cell_length_c 9.027215
_cell_angle_alpha 90.000000
_cell_angle_beta 90.000000
_cell_angle_gamma 90.000000
_cell_volume 2092.947997
_symmetry_space_group_name_H-M "P C C N"
_symmetry_group_IT_number 56
_symmetry_cell_setting 'orthorhombic'
loop_
_space_group_symop_operation_xyz
x,y,z
1/2-x,1/2-y,z
1/2+x,-y,1/2-z
-x,1/2+y,1/2-z
-x,-y,-z
1/2+x,1/2+y,-z
1/2-x,y,1/2+z
x,1/2-y,1/2+z
loop_
_atom_site_type_symbol
_atom_site_label
_atom_site_fract_x
_atom_site_fract_y
_atom_site_fract_z
Si Si1 0.745965 0.925044 0.214379
Si Si2 0.250000 0.750000 0.371215
Si Si3 0.426098 0.312560 0.727399
Si Si4 0.140925 0.662819 0.617815
Si Si5 0.350257 0.200860 0.934774
Si Si6 0.628985 0.494289 0.974691
O O1 0.827556 0.867644 0.282115
O O2 0.676049 0.881887 0.094256
O O3 0.666566 0.954548 0.341117
O O4 0.811140 0.986862 0.128470
O O5 0.158787 0.716042 0.478745
O O6 0.296558 0.688135 0.265566
O O7 0.517031 0.343745 0.833296
O O8 0.393869 0.234843 0.784932
O O9 0.449381 0.298751 0.553976
O O10 0.172930 0.583972 0.567366
O O11 0.250000 0.250000 0.993343
O O12 0.500000 0.500000 0.000000
#
# Coordination Sequence:
#
# PCOD8228673 Si02
#       6
#     8   4   8   8   8   8
#     4  11  23  42  64  96 138 175 221 277 333 408
#     4  10  24  44  68  92 130 176 226 302 326 404
#     4  11  21  37  64  98 129 174 221 275 335 403
#     4  11  23  43  67  94 130 173 232 277 346 402
#     4  10  21  36  63  97 136 164 210 274 340 390
#     4  12  25  44  69  98 139 184 223 279 346 416
#
# _framework density 21.022977000000001
#
# number of rings (size 3 to 8) (size 9 to 14) (size 15 to 20)
#    0.000    1.091    3.636    3.818    2.545    1.455 
#    0.000    5.455    0.000    0.000    0.000    0.000 
#    0.000    0.000    0.000    0.000    0.000    0.000 
#
# Total GULP energy -545220.735297 kJ/mol
# GULP energy per Si atom -12391.380348 kJ/mol
# Density = 2.097513 g / cm^3
# Si number density = 21.022977 Si / 1000 Ang^3
#
#
#
# Elastic Constant Matrix: (Units=GPa)
#
#
# Indices 1 2 3 4 5 6 
#
# 1 80.7450 33.4721 47.9846 0.0000 0.0000 0.0000
# 2 33.4721 111.4376 43.1783 0.0000 0.0000 0.0000
# 3 47.9846 43.1783 131.9793 0.0000 0.0000 0.0000
# 4 0.0000 0.0000 0.0000 27.3656 0.0000 0.0000
# 5 0.0000 0.0000 0.0000 0.0000 32.4437 0.0000
# 6 0.0000 0.0000 0.0000 0.0000 0.0000 25.3124
#
#
#
# Elastic Compliance Matrix: (Units=1/GPa)
#
#
# Indices 1 2 3 4 5 6 
#
# 1 0.016652 -0.003041 -0.005059 0.000000 0.000000 0.000000
# 2 -0.003041 0.010832 -0.002438 0.000000 0.000000 0.000000
# 3 -0.005059 -0.002438 0.010214 0.000000 0.000000 0.000000
# 4 0.000000 0.000000 0.000000 0.036542 0.000000 0.000000
# 5 0.000000 0.000000 0.000000 0.000000 0.030823 0.000000
# 6 0.000000 0.000000 0.000000 0.000000 0.000000 0.039506
#
#
# Mechanical properties :
#
#
# Convention : Reuss Voigt Hill
#
# Bulk Modulus (GPa) = 60.16643 63.71466 61.94055
# Shear Modulus (GPa) = 29.20792 30.32613 29.76703
#
# Velocity S-wave (km/s) = 3.73142 3.80218 3.76696
# Velocity P-wave (km/s) = 6.87358 7.04616 6.96041
#
# Compressibility (1/GPa) = 0.01662056
#
# Stress axis : x y z
#
# Youngs Moduli (GPa) = 60.05269 92.32081 97.90518
#
# Poissons Ratio (x) = 0.28079 0.49533
# Poissons Ratio (y) = 0.18265 0.23869
# Poissons Ratio (z) = 0.30382 0.22507
#
# Static dielectric constant tensor:
#      x y z
#    x 3.700660 0.000000 0.000000 
#    y 0.000000 3.832590 0.000000 
#    z 0.000000 0.000000 3.874700 
# 
# 
# High freq. dielectric constant tensor:
#      x y z
#    x 1.802340 0.000000 0.000000 
#    y 0.000000 1.826550 0.000000 
#    z 0.000000 0.000000 1.844780 
# 
# From -- ./inp_files/3317.got.cif
#   From: 2010.03.12/outbox.cif.g09.slc.cpg/sg56_2_cif.got.tgz:3317.got - 2010.04.16 15:33:40.
