data_PCOD8228684
_publ_section_title
;
Structure prediction by ZEFSAII (Michael W. Deem and Ramdas Pophale) SiO2 
 PCOD8228684
Probable space group: P C C N
;
_chemical_formula_sum "Si O2"
_cell_formula_units_Z 56
_cell_length_a 5.475854
_cell_length_b 22.209354
_cell_length_c 20.472594
_cell_angle_alpha 90.000000
_cell_angle_beta 90.000000
_cell_angle_gamma 90.000000
_cell_volume 2489.778203
_symmetry_space_group_name_H-M "P C C N"
_symmetry_group_IT_number 56
_symmetry_cell_setting 'orthorhombic'
loop_
_space_group_symop_operation_xyz
x,y,z
1/2-x,1/2-y,z
1/2+x,-y,1/2-z
-x,1/2+y,1/2-z
-x,-y,-z
1/2+x,1/2+y,-z
1/2-x,y,1/2+z
x,1/2-y,1/2+z
loop_
_atom_site_type_symbol
_atom_site_label
_atom_site_fract_x
_atom_site_fract_y
_atom_site_fract_z
Si Si1 0.951031 0.350140 0.126658
Si Si2 0.866280 0.185221 0.486091
Si Si3 0.138880 0.034571 0.826122
Si Si4 0.750000 0.750000 0.315969
Si Si5 0.582408 0.152990 0.365647
Si Si6 0.750000 0.750000 0.588885
Si Si7 0.643539 0.183596 0.741144
Si Si8 0.640309 0.969512 0.828462
O O1 0.735310 0.357605 0.180432
O O2 0.062593 0.283421 0.136301
O O3 0.139877 0.404517 0.137015
O O4 0.861436 0.353202 0.052272
O O5 0.750000 0.250000 0.498846
O O6 0.714605 0.144950 0.434902
O O7 0.135993 0.197483 0.456684
O O8 0.140987 0.038790 0.748660
O O9 0.120121 0.101744 0.855330
O O10 0.394406 0.005684 0.850887
O O11 0.893583 0.000422 0.850961
O O12 0.644358 0.804097 0.269736
O O13 0.452481 0.218830 0.364587
O O14 0.788327 0.150321 0.308352
O O15 0.750000 0.250000 0.738153
#
# Coordination Sequence:
#
# PCOD8228684 Si02
#       8
#     8   8   8   4   8   4   8   8
#     4  11  22  40  64  96 131 177 220 274 335 403
#     4  10  22  40  61  93 134 173 216 262 339 412
#     4  10  23  44  66  97 130 178 225 286 335 404
#     4  10  23  35  62  96 139 163 216 284 343 401
#     4  11  23  41  65  94 130 174 222 274 337 401
#     4  10  23  41  64  90 133 179 210 270 339 417
#     4  10  21  37  57  97 126 161 212 277 331 394
#     4  10  23  43  68  95 133 174 230 279 345 392
#
# _framework density 22.491963999999999
#
# number of rings (size 3 to 8) (size 9 to 14) (size 15 to 20)
#    0.000    1.714    1.429    3.000    4.000    7.429 
#    0.000    1.429    0.000    0.000    0.000    0.000 
#    0.000    0.000    0.000    0.000    0.000    0.000 
#
# Total GULP energy -694170.826903 kJ/mol
# GULP energy per Si atom -12395.907623 kJ/mol
# Density = 2.244077 g / cm^3
# Si number density = 22.491964 Si / 1000 Ang^3
#
#
#
# Elastic Constant Matrix: (Units=GPa)
#
#
# Indices 1 2 3 4 5 6 
#
# 1 93.8834 8.6183 33.3284 0.0000 0.0000 0.0000
# 2 8.6183 60.6374 23.6656 0.0000 0.0000 0.0000
# 3 33.3284 23.6656 114.6937 0.0000 0.0000 0.0000
# 4 0.0000 0.0000 0.0000 22.4968 0.0000 0.0000
# 5 0.0000 0.0000 0.0000 0.0000 16.1368 0.0000
# 6 0.0000 0.0000 0.0000 0.0000 0.0000 33.5505
#
#
#
# Elastic Compliance Matrix: (Units=1/GPa)
#
#
# Indices 1 2 3 4 5 6 
#
# 1 0.011884 -0.000371 -0.003377 0.000000 0.000000 0.000000
# 2 -0.000371 0.017947 -0.003595 0.000000 0.000000 0.000000
# 3 -0.003377 -0.003595 0.010442 0.000000 0.000000 0.000000
# 4 0.000000 0.000000 0.000000 0.044451 0.000000 0.000000
# 5 0.000000 0.000000 0.000000 0.000000 0.061970 0.000000
# 6 0.000000 0.000000 0.000000 0.000000 0.000000 0.029806
#
#
# Mechanical properties :
#
#
# Convention : Reuss Voigt Hill
#
# Bulk Modulus (GPa) = 39.08235 44.49323 41.78779
# Shear Modulus (GPa) = 25.03549 28.01030 26.52290
#
# Velocity S-wave (km/s) = 3.33991 3.53278 3.43770
# Velocity P-wave (km/s) = 5.68219 6.03866 5.86313
#
# Compressibility (1/GPa) = 0.02558700
#
# Stress axis : x y z
#
# Youngs Moduli (GPa) = 84.14429 55.71829 95.76718
#
# Poissons Ratio (x) = 0.02068 0.32339
# Poissons Ratio (y) = 0.03123 0.34432
# Poissons Ratio (z) = 0.28414 0.20033
#
# Static dielectric constant tensor:
#      x y z
#    x 4.974550 0.000000 0.000000 
#    y 0.000000 3.902700 0.000000 
#    z 0.000000 0.000000 3.866360 
# 
# 
# High freq. dielectric constant tensor:
#      x y z
#    x 1.892680 0.000000 0.000000 
#    y 0.000000 1.869300 0.000000 
#    z 0.000000 0.000000 1.862700 
# 
# From -- ./inp_files/20145.got.cif
#   From: 2010.03.12/outbox.cif.g09.slc.cpg/sg56_11_cif.got.tgz:20145.got - 2010.04.16 15:33:40.
