data_PCOD8228336
_publ_section_title
;
Structure prediction by ZEFSAII (Michael W. Deem and Ramdas Pophale) SiO2 
 PCOD8228336
Probable space group: P C C N
;
_chemical_formula_sum "Si O2"
_cell_formula_units_Z 44
_cell_length_a 16.546305
_cell_length_b 15.375298
_cell_length_c 8.174341
_cell_angle_alpha 90.000000
_cell_angle_beta 90.000000
_cell_angle_gamma 90.000000
_cell_volume 2079.588074
_symmetry_space_group_name_H-M "P C C N"
_symmetry_group_IT_number 56
_symmetry_cell_setting 'orthorhombic'
loop_
_space_group_symop_operation_xyz
x,y,z
1/2-x,1/2-y,z
1/2+x,-y,1/2-z
-x,1/2+y,1/2-z
-x,-y,-z
1/2+x,1/2+y,-z
1/2-x,y,1/2+z
x,1/2-y,1/2+z
loop_
_atom_site_type_symbol
_atom_site_label
_atom_site_fract_x
_atom_site_fract_y
_atom_site_fract_z
Si Si1 0.664648 0.637577 0.991270
Si Si2 0.168112 0.949227 0.103360
Si Si3 0.750000 0.750000 0.246265
Si Si4 0.477176 0.860689 0.510307
Si Si5 0.198988 0.647559 0.919899
Si Si6 0.608229 0.284713 0.282188
O O1 0.701764 0.544938 0.935511
O O2 0.676955 0.710278 0.852364
O O3 0.571431 0.627053 0.035064
O O4 0.713727 0.669287 0.148022
O O5 0.178108 0.930658 0.296723
O O6 0.072416 0.947625 0.060476
O O7 0.210742 0.873748 0.989820
O O8 0.455702 0.838091 0.324109
O O9 0.445606 0.787544 0.633040
O O10 0.181589 0.740043 0.825725
O O11 0.145712 0.648225 0.085957
#
# Coordination Sequence:
#
# PCOD8228336 Si02
#       6
#     8   8   4   8   8   8
#     4  11  22  42  59  83 107 142 193 236 286 336
#     4  11  22  35  56  84 118 151 181 229 281 331
#     4  10  24  40  64  78 102 146 192 244 280 328
#     4  10  20  35  58  83 114 149 182 231 279 328
#     4  10  21  35  54  85 118 153 186 220 270 333
#     4   9  20  36  56  85 117 150 189 223 269 333
#
# _framework density 21.158037
#
# number of rings (size 3 to 8) (size 9 to 14) (size 15 to 20)
#    0.000    1.818    0.000    3.818    0.000   12.364 
#    0.000    0.909    0.000    0.000    0.000    0.000 
#    0.000    0.000    0.000    0.000    0.000    0.000 
#
# Total GULP energy -545279.563955 kJ/mol
# GULP energy per Si atom -12392.717363 kJ/mol
# Density = 2.110988 g / cm^3
# Si number density = 21.158037 Si / 1000 Ang^3
#
#
#
# Elastic Constant Matrix: (Units=GPa)
#
#
# Indices 1 2 3 4 5 6 
#
# 1 100.5533 6.0128 27.8751 0.0000 0.0000 0.0000
# 2 6.0128 72.5555 16.7257 0.0000 0.0000 0.0000
# 3 27.8751 16.7257 100.9056 0.0000 0.0000 0.0000
# 4 0.0000 0.0000 0.0000 30.2280 0.0000 0.0000
# 5 0.0000 0.0000 0.0000 0.0000 19.1862 0.0000
# 6 0.0000 0.0000 0.0000 0.0000 0.0000 16.6206
#
#
#
# Elastic Compliance Matrix: (Units=1/GPa)
#
#
# Indices 1 2 3 4 5 6 
#
# 1 0.010773 -0.000215 -0.002940 0.000000 0.000000 0.000000
# 2 -0.000215 0.014334 -0.002317 0.000000 0.000000 0.000000
# 3 -0.002940 -0.002317 0.011107 0.000000 0.000000 0.000000
# 4 0.000000 0.000000 0.000000 0.033082 0.000000 0.000000
# 5 0.000000 0.000000 0.000000 0.000000 0.052121 0.000000
# 6 0.000000 0.000000 0.000000 0.000000 0.000000 0.060166
#
#
# Mechanical properties :
#
#
# Convention : Reuss Voigt Hill
#
# Bulk Modulus (GPa) = 39.57270 41.69351 40.63311
# Shear Modulus (GPa) = 24.88178 28.10033 26.49106
#
# Velocity S-wave (km/s) = 3.43300 3.64829 3.54228
# Velocity P-wave (km/s) = 5.87009 6.12333 5.99805
#
# Compressibility (1/GPa) = 0.02526995
#
# Stress axis : x y z
#
# Youngs Moduli (GPa) = 92.82505 69.76221 90.03715
#
# Poissons Ratio (x) = 0.01499 0.26474
# Poissons Ratio (y) = 0.01995 0.20858
# Poissons Ratio (z) = 0.27294 0.16161
#
# Static dielectric constant tensor:
#      x y z
#    x 3.632790 0.000000 0.000000 
#    y 0.000000 3.681320 0.000000 
#    z 0.000000 0.000000 4.059550 
# 
# 
# High freq. dielectric constant tensor:
#      x y z
#    x 1.820830 0.000000 0.000000 
#    y 0.000000 1.818660 0.000000 
#    z 0.000000 0.000000 1.844020 
# 
# From -- ./inp_files/3964.got.cif
#   From: 2010.03.12/outbox.cif.g09.slc.cpg/sg56_2_cif.got.tgz:3964.got - 2010.04.16 15:33:40.
