data_PCOD8228568
_publ_section_title
;
Structure prediction by ZEFSAII (Michael W. Deem and Ramdas Pophale) SiO2 
 PCOD8228568
Probable space group: P C C N
;
_chemical_formula_sum "Si O2"
_cell_formula_units_Z 64
_cell_length_a 15.472259
_cell_length_b 13.289161
_cell_length_c 13.515654
_cell_angle_alpha 90.000000
_cell_angle_beta 90.000000
_cell_angle_gamma 90.000000
_cell_volume 2778.998773
_symmetry_space_group_name_H-M "P C C N"
_symmetry_group_IT_number 56
_symmetry_cell_setting 'orthorhombic'
loop_
_space_group_symop_operation_xyz
x,y,z
1/2-x,1/2-y,z
1/2+x,-y,1/2-z
-x,1/2+y,1/2-z
-x,-y,-z
1/2+x,1/2+y,-z
1/2-x,y,1/2+z
x,1/2-y,1/2+z
loop_
_atom_site_type_symbol
_atom_site_label
_atom_site_fract_x
_atom_site_fract_y
_atom_site_fract_z
Si Si1 0.592232 0.854025 0.917291
Si Si2 0.170167 0.155433 0.106220
Si Si3 0.299941 0.509120 0.253405
Si Si4 0.538678 0.255555 0.945884
Si Si5 0.506210 0.085990 0.280278
Si Si6 0.203821 0.853037 0.618536
Si Si7 0.223993 0.020053 0.481566
Si Si8 0.017012 0.919247 0.917173
O O1 0.675176 0.778673 0.891453
O O2 0.534134 0.880732 0.823262
O O3 0.634710 0.954435 0.961033
O O4 0.538641 0.807780 0.007237
O O5 0.202987 0.103877 0.004078
O O6 0.067464 0.141710 0.113749
O O7 0.212783 0.098122 0.199023
O O8 0.392513 0.559457 0.231073
O O9 0.221461 0.580966 0.217199
O O10 0.288910 0.487341 0.366921
O O11 0.499659 0.320470 0.855477
O O12 0.604573 0.172836 0.904222
O O13 0.577990 0.332374 0.032054
O O14 0.453455 0.986668 0.321988
O O15 0.250000 0.750000 0.636781
O O16 0.249057 0.911200 0.526312
O O17 0.000000 0.000000 0.000000
#
# Coordination Sequence:
#
# PCOD8228568 Si02
#       8
#     8   8   8   8   8   8   8   8
#     4  11  24  43  67 103 138 183 234 281 345 401
#     4   9  21  44  65  96 137 178 227 278 329 413
#     4  10  22  43  67  97 134 178 223 284 350 402
#     4  10  21  41  67  98 137 179 228 281 340 405
#     4  10  20  40  67  99 138 174 233 281 336 411
#     4  11  23  45  66  95 136 173 227 282 336 421
#     4  11  25  44  66  99 140 181 222 285 345 405
#     4   8  17  37  65  93 130 177 222 279 332 396
#
# _framework density 23.029876999999999
#
# number of rings (size 3 to 8) (size 9 to 14) (size 15 to 20)
#    0.000    2.000    1.250    1.125    3.500    2.500 
#   20.250    2.500    0.000    0.000    0.000    0.000 
#    0.000    0.000    0.000    0.000    0.000    0.000 
#
# Total GULP energy -792888.731580 kJ/mol
# GULP energy per Si atom -12388.886431 kJ/mol
# Density = 2.297746 g / cm^3
# Si number density = 23.029877 Si / 1000 Ang^3
#
#
#
# Elastic Constant Matrix: (Units=GPa)
#
#
# Indices 1 2 3 4 5 6 
#
# 1 62.3626 29.6843 41.5163 0.0000 0.0000 0.0000
# 2 29.6843 105.4450 56.9149 0.0000 0.0000 0.0000
# 3 41.5163 56.9149 166.8788 0.0000 0.0000 0.0000
# 4 0.0000 0.0000 0.0000 34.2342 0.0000 0.0000
# 5 0.0000 0.0000 0.0000 0.0000 35.2927 0.0000
# 6 0.0000 0.0000 0.0000 0.0000 0.0000 -212.1147
#
#
#
# Elastic Compliance Matrix: (Units=1/GPa)
#
#
# Indices 1 2 3 4 5 6 
#
# 1 0.020312 -0.003665 -0.003803 0.000000 0.000000 0.000000
# 2 -0.003665 0.012285 -0.003278 0.000000 0.000000 0.000000
# 3 -0.003803 -0.003278 0.008056 0.000000 0.000000 0.000000
# 4 0.000000 0.000000 0.000000 0.029211 0.000000 0.000000
# 5 0.000000 0.000000 0.000000 0.000000 0.028334 0.000000
# 6 0.000000 0.000000 0.000000 0.000000 0.000000 -0.004714
#
#
# Mechanical properties :
#
#
# Convention : Reuss Voigt Hill
#
# Bulk Modulus (GPa) = 52.19121 65.65746 58.92433
# Shear Modulus (GPa) = 41.19871 -14.74618 13.22627
#
# Velocity S-wave (km/s) = 4.23416 -2.53317 2.39907
# Velocity P-wave (km/s) = 6.82757 4.47388 5.77197
#
# Compressibility (1/GPa) = 0.01916031
#
# Stress axis : x y z
#
# Youngs Moduli (GPa) = 49.23260 81.40182 124.12390
#
# Poissons Ratio (x) = 0.29836 0.47206
# Poissons Ratio (y) = 0.18045 0.40687
# Poissons Ratio (z) = 0.18724 0.26683
#
# Static dielectric constant tensor:
#      x y z
#    x 2.831350 0.000000 0.000000 
#    y 0.000000 5.152260 0.000000 
#    z 0.000000 0.000000 4.018240 
# 
# 
# High freq. dielectric constant tensor:
#      x y z
#    x 1.899010 0.000000 0.000000 
#    y 0.000000 1.932730 0.000000 
#    z 0.000000 0.000000 1.900930 
# 
# From -- ./inp_files/8430.got.cif
#   From: 2010.03.12/outbox.cif.g09.slc.cpg/sg56_5_cif.got.tgz:8430.got - 2010.04.16 15:33:40.
