data_PCOD8228369
_publ_section_title
;
Structure prediction by ZEFSAII (Michael W. Deem and Ramdas Pophale) SiO2 
 PCOD8228369
Probable space group: P C C N
;
_chemical_formula_sum "Si O2"
_cell_formula_units_Z 44
_cell_length_a 5.061826
_cell_length_b 24.752341
_cell_length_c 16.130713
_cell_angle_alpha 90.000000
_cell_angle_beta 90.000000
_cell_angle_gamma 90.000000
_cell_volume 2021.049991
_symmetry_space_group_name_H-M "P C C N"
_symmetry_group_IT_number 56
_symmetry_cell_setting 'orthorhombic'
loop_
_space_group_symop_operation_xyz
x,y,z
1/2-x,1/2-y,z
1/2+x,-y,1/2-z
-x,1/2+y,1/2-z
-x,-y,-z
1/2+x,1/2+y,-z
1/2-x,y,1/2+z
x,1/2-y,1/2+z
loop_
_atom_site_type_symbol
_atom_site_label
_atom_site_fract_x
_atom_site_fract_y
_atom_site_fract_z
Si Si1 0.791648 0.864829 0.720039
Si Si2 0.106399 0.799184 0.425366
Si Si3 0.635571 0.055494 0.526993
Si Si4 0.226495 0.605548 0.817575
Si Si5 0.250000 0.250000 0.211669
Si Si6 0.856051 0.614719 0.032164
O O1 0.562142 0.890066 0.777364
O O2 0.827710 0.800408 0.729884
O O3 0.747496 0.878991 0.624835
O O4 0.061170 0.894441 0.745155
O O5 0.250000 0.750000 0.473677
O O6 0.284298 0.846055 0.383758
O O7 0.982306 0.768894 0.347132
O O8 0.921005 0.826541 0.493990
O O9 0.737739 0.052616 0.623331
O O10 0.393845 0.097015 0.521427
O O11 0.891673 0.073585 0.471979
O O12 0.500000 0.000000 0.500000
#
# Coordination Sequence:
#
# PCOD8228369 Si02
#       6
#     8   8   8   8   4   8
#     4  11  22  40  59  95 138 166 211 266 334 375
#     4  10  20  37  60  89 129 174 225 249 310 393
#     4  11  23  46  71  94 122 174 230 274 336 400
#     4  10  21  40  64  88 127 174 209 263 323 397
#     4  10  20  36  60  86 130 184 214 240 316 404
#     4  11  25  40  64 102 134 164 218 292 320 382
#
# _framework density 21.770861
#
# number of rings (size 3 to 8) (size 9 to 14) (size 15 to 20)
#    0.000    1.455    1.818    4.909    2.545    0.727 
#    6.545    3.636    0.000    0.000    0.000    0.000 
#    0.000    0.000    0.000    0.000    0.000    0.000 
#
# Total GULP energy -545146.850078 kJ/mol
# GULP energy per Si atom -12389.701138 kJ/mol
# Density = 2.172131 g / cm^3
# Si number density = 21.770861 Si / 1000 Ang^3
#
#
#
# Elastic Constant Matrix: (Units=GPa)
#
#
# Indices 1 2 3 4 5 6 
#
# 1 114.5236 21.7775 30.3642 0.0000 0.0000 0.0000
# 2 21.7775 55.6252 28.7665 0.0000 0.0000 0.0000
# 3 30.3642 28.7665 100.4825 0.0000 0.0000 0.0000
# 4 0.0000 0.0000 0.0000 19.3624 0.0000 0.0000
# 5 0.0000 0.0000 0.0000 0.0000 35.6952 0.0000
# 6 0.0000 0.0000 0.0000 0.0000 0.0000 32.3941
#
#
#
# Elastic Compliance Matrix: (Units=1/GPa)
#
#
# Indices 1 2 3 4 5 6 
#
# 1 0.009829 -0.002714 -0.002193 0.000000 0.000000 0.000000
# 2 -0.002714 0.021851 -0.005435 0.000000 0.000000 0.000000
# 3 -0.002193 -0.005435 0.012171 0.000000 0.000000 0.000000
# 4 0.000000 0.000000 0.000000 0.051647 0.000000 0.000000
# 5 0.000000 0.000000 0.000000 0.000000 0.028015 0.000000
# 6 0.000000 0.000000 0.000000 0.000000 0.000000 0.030870
#
#
# Mechanical properties :
#
#
# Convention : Reuss Voigt Hill
#
# Bulk Modulus (GPa) = 43.16728 48.04975 45.60852
# Shear Modulus (GPa) = 27.35378 30.13853 28.74616
#
# Velocity S-wave (km/s) = 3.54848 3.72472 3.63767
# Velocity P-wave (km/s) = 6.05475 6.37312 6.21597
#
# Compressibility (1/GPa) = 0.02316569
#
# Stress axis : x y z
#
# Youngs Moduli (GPa) = 101.73516 45.76466 82.16352
#
# Poissons Ratio (x) = 0.12421 0.18021
# Poissons Ratio (y) = 0.27611 0.44659
# Poissons Ratio (z) = 0.22314 0.24875
#
# Static dielectric constant tensor:
#      x y z
#    x 4.003510 0.000000 0.000000 
#    y 0.000000 12.847600 0.000000 
#    z 0.000000 0.000000 3.787710 
# 
# 
# High freq. dielectric constant tensor:
#      x y z
#    x 1.866510 0.000000 0.000000 
#    y 0.000000 1.843850 0.000000 
#    z 0.000000 0.000000 1.846250 
# 
# From -- ./inp_files/9633.got.cif
#   From: 2010.03.12/outbox.cif.g09.slc.cpg/sg56_5_cif.got.tgz:9633.got - 2010.04.16 15:33:40.
