data_PCOD8228872
_publ_section_title
;
Structure prediction by ZEFSAII (Michael W. Deem and Ramdas Pophale) SiO2 
 PCOD8228872
Probable space group: P C C N
;
_chemical_formula_sum "Si O2"
_cell_formula_units_Z 64
_cell_length_a 10.748944
_cell_length_b 14.703270
_cell_length_c 17.476553
_cell_angle_alpha 90.000000
_cell_angle_beta 90.000000
_cell_angle_gamma 90.000000
_cell_volume 2762.075280
_symmetry_space_group_name_H-M "P C C N"
_symmetry_group_IT_number 56
_symmetry_cell_setting 'orthorhombic'
loop_
_space_group_symop_operation_xyz
x,y,z
1/2-x,1/2-y,z
1/2+x,-y,1/2-z
-x,1/2+y,1/2-z
-x,-y,-z
1/2+x,1/2+y,-z
1/2-x,y,1/2+z
x,1/2-y,1/2+z
loop_
_atom_site_type_symbol
_atom_site_label
_atom_site_fract_x
_atom_site_fract_y
_atom_site_fract_z
Si Si1 0.095341 0.144893 0.167865
Si Si2 0.753848 0.462254 0.674138
Si Si3 0.392350 0.219922 0.042789
Si Si4 0.681606 0.644936 0.238317
Si Si5 0.521709 0.938958 0.861103
Si Si6 0.099677 0.623348 0.200040
Si Si7 0.001098 0.488890 0.410992
Si Si8 0.485351 0.279231 0.879603
O O1 0.040096 0.218143 0.107407
O O2 0.228868 0.184030 0.195220
O O3 0.010661 0.131619 0.240349
O O4 0.111562 0.047218 0.125504
O O5 0.736970 0.567133 0.697828
O O6 0.628250 0.431069 0.631796
O O7 0.777052 0.398578 0.749610
O O8 0.871624 0.462488 0.617207
O O9 0.250000 0.250000 0.036479
O O10 0.414571 0.114825 0.067783
O O11 0.451913 0.235466 0.960317
O O12 0.558962 0.603164 0.278632
O O13 0.633741 0.722903 0.179145
O O14 0.569640 0.043124 0.861079
O O15 0.100721 0.719628 0.154044
O O16 0.979779 0.385098 0.386780
O O17 0.000000 0.500000 0.500000
#
# Coordination Sequence:
#
# PCOD8228872 Si02
#       8
#     8   8   8   8   8   8   8   8
#     4  11  21  42  69 101 132 172 246 287 354 422
#     4   9  21  41  71  99 128 184 233 286 359 423
#     4  12  26  40  67 108 141 188 233 298 365 430
#     4  10  21  41  71  97 129 181 235 300 346 422
#     4  11  22  44  71  98 146 178 234 302 366 415
#     4  10  23  41  70 104 134 186 240 296 356 426
#     4  10  21  44  72  94 134 189 233 281 360 443
#     4  11  25  42  68 100 142 183 240 291 355 430
#
# _framework density 23.170984000000001
#
# number of rings (size 3 to 8) (size 9 to 14) (size 15 to 20)
#    0.000    1.500    3.750    1.500    1.750    0.500 
#    0.000    8.125    2.750    0.000    0.000    0.000 
#    0.000    0.000    0.000    0.000    0.000    0.000 
#
# Total GULP energy -793064.111143 kJ/mol
# GULP energy per Si atom -12391.626737 kJ/mol
# Density = 2.311825 g / cm^3
# Si number density = 23.170984 Si / 1000 Ang^3
#
#
#
# Elastic Constant Matrix: (Units=GPa)
#
#
# Indices 1 2 3 4 5 6 
#
# 1 61.6827 17.5328 10.7527 0.0000 0.0000 0.0000
# 2 17.5328 119.4564 44.7714 0.0000 0.0000 0.0000
# 3 10.7527 44.7714 106.9033 0.0000 0.0000 0.0000
# 4 0.0000 0.0000 0.0000 25.1001 0.0000 0.0000
# 5 0.0000 0.0000 0.0000 0.0000 17.6533 0.0000
# 6 0.0000 0.0000 0.0000 0.0000 0.0000 22.4464
#
#
#
# Elastic Compliance Matrix: (Units=1/GPa)
#
#
# Indices 1 2 3 4 5 6 
#
# 1 0.016973 -0.002196 -0.000788 0.000000 0.000000 0.000000
# 2 -0.002196 0.010214 -0.004057 0.000000 0.000000 0.000000
# 3 -0.000788 -0.004057 0.011132 0.000000 0.000000 0.000000
# 4 0.000000 0.000000 0.000000 0.039840 0.000000 0.000000
# 5 0.000000 0.000000 0.000000 0.000000 0.056647 0.000000
# 6 0.000000 0.000000 0.000000 0.000000 0.000000 0.044551
#
#
# Mechanical properties :
#
#
# Convention : Reuss Voigt Hill
#
# Bulk Modulus (GPa) = 41.25546 48.23960 44.74753
# Shear Modulus (GPa) = 24.81168 27.37234 26.09201
#
# Velocity S-wave (km/s) = 3.27587 3.44076 3.35933
# Velocity P-wave (km/s) = 5.67026 6.05387 5.86520
#
# Compressibility (1/GPa) = 0.02423922
#
# Stress axis : x y z
#
# Youngs Moduli (GPa) = 58.91542 97.90462 89.82748
#
# Poissons Ratio (x) = 0.21500 0.07074
# Poissons Ratio (y) = 0.12938 0.36441
# Poissons Ratio (z) = 0.04640 0.39718
#
# Static dielectric constant tensor:
#      x y z
#    x 4.099380 0.000000 0.000000 
#    y 0.000000 5.266960 0.000000 
#    z 0.000000 0.000000 4.339550 
# 
# 
# High freq. dielectric constant tensor:
#      x y z
#    x 1.887790 0.000000 0.000000 
#    y 0.000000 1.932090 0.000000 
#    z 0.000000 0.000000 1.915580 
# 
# From -- ./inp_files/15804.got.cif
#   From: 2010.03.12/outbox.cif.g09.slc.cpg/sg56_8_cif.got.tgz:15804.got - 2010.04.16 15:33:40.
