data_PCOD8228420
_publ_section_title
;
Structure prediction by ZEFSAII (Michael W. Deem and Ramdas Pophale) SiO2 
 PCOD8228420
Probable space group: P C C N
;
_chemical_formula_sum "Si O2"
_cell_formula_units_Z 48
_cell_length_a 15.108293
_cell_length_b 9.442820
_cell_length_c 18.012226
_cell_angle_alpha 90.000000
_cell_angle_beta 90.000000
_cell_angle_gamma 90.000000
_cell_volume 2569.712264
_symmetry_space_group_name_H-M "P C C N"
_symmetry_group_IT_number 56
_symmetry_cell_setting 'orthorhombic'
loop_
_space_group_symop_operation_xyz
x,y,z
1/2-x,1/2-y,z
1/2+x,-y,1/2-z
-x,1/2+y,1/2-z
-x,-y,-z
1/2+x,1/2+y,-z
1/2-x,y,1/2+z
x,1/2-y,1/2+z
loop_
_atom_site_type_symbol
_atom_site_label
_atom_site_fract_x
_atom_site_fract_y
_atom_site_fract_z
Si Si1 0.582303 0.444432 0.865576
Si Si2 0.550859 0.304000 0.099695
Si Si3 0.804030 0.609964 0.107792
Si Si4 0.964270 0.751546 0.045483
Si Si5 0.833790 0.001535 0.009333
Si Si6 0.668744 0.357842 0.712361
O O1 0.512828 0.575629 0.864393
O O2 0.539162 0.299589 0.896490
O O3 0.624387 0.413575 0.786929
O O4 0.664087 0.477531 0.920956
O O5 0.637340 0.362373 0.056977
O O6 0.587951 0.208182 0.165733
O O7 0.500973 0.208279 0.036468
O O8 0.750000 0.750000 0.133052
O O9 0.906607 0.632233 0.086677
O O10 0.763602 0.547979 0.031591
O O11 0.792489 0.497017 0.172946
O O12 0.905989 0.887920 0.031538
O O13 0.750000 0.250000 0.727048
#
# Coordination Sequence:
#
# PCOD8228420 Si02
#       6
#     8   8   8   8   8   8
#     4   9  20  37  59  82 116 153 187 238 290 339
#     4   9  18  38  59  80 112 151 194 234 281 339
#     4  10  20  37  61  85 113 151 194 239 288 347
#     4   8  17  35  62  83 105 151 196 231 283 340
#     4   8  15  37  61  77 108 153 190 229 284 338
#     4  12  24  37  55  91 124 152 188 235 303 348
#
# _framework density 18.679134000000001
#
# number of rings (size 3 to 8) (size 9 to 14) (size 15 to 20)
#    0.000    2.667    1.667    2.000    2.333    0.667 
#    6.000    5.833    0.000    0.000    0.000    0.000 
#    0.000    0.000    0.000    0.000    0.000    0.000 
#
# Total GULP energy -594722.053455 kJ/mol
# GULP energy per Si atom -12390.042780 kJ/mol
# Density = 1.863662 g / cm^3
# Si number density = 18.679134 Si / 1000 Ang^3
#
#
#
# Elastic Constant Matrix: (Units=GPa)
#
#
# Indices 1 2 3 4 5 6 
#
# 1 77.2623 38.4535 47.7078 0.0000 0.0000 0.0000
# 2 38.4535 75.7238 53.6564 0.0000 0.0000 0.0000
# 3 47.7078 53.6564 132.4193 0.0000 0.0000 0.0000
# 4 0.0000 0.0000 0.0000 24.1691 0.0000 0.0000
# 5 0.0000 0.0000 0.0000 0.0000 29.1040 0.0000
# 6 0.0000 0.0000 0.0000 0.0000 0.0000 26.7160
#
#
#
# Elastic Compliance Matrix: (Units=1/GPa)
#
#
# Indices 1 2 3 4 5 6 
#
# 1 0.018762 -0.006646 -0.004066 0.000000 0.000000 0.000000
# 2 -0.006646 0.020879 -0.006066 0.000000 0.000000 0.000000
# 3 -0.004066 -0.006066 0.011475 0.000000 0.000000 0.000000
# 4 0.000000 0.000000 0.000000 0.041375 0.000000 0.000000
# 5 0.000000 0.000000 0.000000 0.000000 0.034360 0.000000
# 6 0.000000 0.000000 0.000000 0.000000 0.000000 0.037431
#
#
# Mechanical properties :
#
#
# Convention : Reuss Voigt Hill
#
# Bulk Modulus (GPa) = 56.95144 62.78231 59.86687
# Shear Modulus (GPa) = 24.54714 25.70367 25.12540
#
# Velocity S-wave (km/s) = 3.62905 3.71356 3.67155
# Velocity P-wave (km/s) = 6.93654 7.21604 7.07767
#
# Compressibility (1/GPa) = 0.01755882
#
# Stress axis : x y z
#
# Youngs Moduli (GPa) = 53.30049 47.89535 87.14858
#
# Poissons Ratio (x) = 0.31831 0.35438
# Poissons Ratio (y) = 0.35423 0.52862
# Poissons Ratio (z) = 0.21674 0.29052
#
# Static dielectric constant tensor:
#      x y z
#    x 4.348980 0.000000 0.000000 
#    y 0.000000 3.580090 0.000000 
#    z 0.000000 0.000000 3.432490 
# 
# 
# High freq. dielectric constant tensor:
#      x y z
#    x 1.720450 0.000000 0.000000 
#    y 0.000000 1.712650 0.000000 
#    z 0.000000 0.000000 1.718400 
# 
# From -- ./inp_files/12212.got.cif
#   From: 2010.03.12/outbox.cif.g09.slc.cpg/sg56_7_cif.got.tgz:12212.got - 2010.04.16 15:33:40.
