data_PCOD8228402
_publ_section_title
;
Structure prediction by ZEFSAII (Michael W. Deem and Ramdas Pophale) SiO2 
 PCOD8228402
Probable space group: P C C N
;
_chemical_formula_sum "Si O2"
_cell_formula_units_Z 52
_cell_length_a 10.950058
_cell_length_b 9.112991
_cell_length_c 25.804502
_cell_angle_alpha 90.000000
_cell_angle_beta 90.000000
_cell_angle_gamma 90.000000
_cell_volume 2574.973969
_symmetry_space_group_name_H-M "P C C N"
_symmetry_group_IT_number 56
_symmetry_cell_setting 'orthorhombic'
loop_
_space_group_symop_operation_xyz
x,y,z
1/2-x,1/2-y,z
1/2+x,-y,1/2-z
-x,1/2+y,1/2-z
-x,-y,-z
1/2+x,1/2+y,-z
1/2-x,y,1/2+z
x,1/2-y,1/2+z
loop_
_atom_site_type_symbol
_atom_site_label
_atom_site_fract_x
_atom_site_fract_y
_atom_site_fract_z
Si Si1 0.750000 0.250000 0.863001
Si Si2 0.169589 0.549359 0.546004
Si Si3 0.631799 0.103997 0.768219
Si Si4 0.668898 0.886738 0.024160
Si Si5 0.350348 0.873520 0.891039
Si Si6 0.390524 0.583892 0.276670
Si Si7 0.983428 0.206596 0.030122
O O1 0.681262 0.368660 0.899130
O O2 0.651073 0.163820 0.827197
O O3 0.291782 0.463567 0.530097
O O4 0.141611 0.660784 0.498505
O O5 0.059843 0.433708 0.547869
O O6 0.598130 0.242658 0.732583
O O7 0.762505 0.029920 0.750556
O O8 0.516673 0.995720 0.759127
O O9 0.750000 0.750000 0.039462
O O10 0.687196 0.994598 0.071777
O O11 0.536706 0.820320 0.012428
O O12 0.250000 0.750000 0.881849
O O13 0.384511 0.948640 0.837340
O O14 0.465056 0.792293 0.916515
#
# Coordination Sequence:
#
# PCOD8228402 Si02
#       7
#     4   8   8   8   8   8   8
#     4  10  22  38  64  92 124 168 214 256 326 382
#     4  10  20  37  56  89 130 170 200 254 304 366
#     4  10  24  47  66  95 127 159 213 282 326 390
#     4  10  22  38  55  92 134 163 212 248 297 378
#     4  12  21  39  64  89 121 167 209 261 318 373
#     4  10  24  46  67  93 126 161 212 271 332 387
#     4  10  22  35  58  88 131 168 208 251 297 374
#
# _framework density 20.194379000000001
#
# number of rings (size 3 to 8) (size 9 to 14) (size 15 to 20)
#    0.000    1.846    3.077    1.385    4.308    3.077 
#    2.769    0.000    0.000    0.000    0.000    0.000 
#    0.000    0.000    0.000    0.000    0.000    0.000 
#
# Total GULP energy -644207.900318 kJ/mol
# GULP energy per Si atom -12388.613468 kJ/mol
# Density = 2.014842 g / cm^3
# Si number density = 20.194379 Si / 1000 Ang^3
#
#
#
# Elastic Constant Matrix: (Units=GPa)
#
#
# Indices 1 2 3 4 5 6 
#
# 1 114.3365 50.1352 32.2567 0.0000 0.0000 0.0000
# 2 50.1352 87.5606 35.3928 0.0000 0.0000 0.0000
# 3 32.2567 35.3928 117.9692 0.0000 0.0000 0.0000
# 4 0.0000 0.0000 0.0000 22.1509 0.0000 0.0000
# 5 0.0000 0.0000 0.0000 0.0000 24.2983 0.0000
# 6 0.0000 0.0000 0.0000 0.0000 0.0000 30.7385
#
#
#
# Elastic Compliance Matrix: (Units=1/GPa)
#
#
# Indices 1 2 3 4 5 6 
#
# 1 0.011870 -0.006242 -0.001373 0.000000 0.000000 0.000000
# 2 -0.006242 0.016279 -0.003177 0.000000 0.000000 0.000000
# 3 -0.001373 -0.003177 0.009805 0.000000 0.000000 0.000000
# 4 0.000000 0.000000 0.000000 0.045145 0.000000 0.000000
# 5 0.000000 0.000000 0.000000 0.000000 0.041155 0.000000
# 6 0.000000 0.000000 0.000000 0.000000 0.000000 0.032532
#
#
# Mechanical properties :
#
#
# Convention : Reuss Voigt Hill
#
# Bulk Modulus (GPa) = 61.08539 61.71508 61.40024
# Shear Modulus (GPa) = 27.19930 28.90964 28.05447
#
# Velocity S-wave (km/s) = 3.67396 3.78771 3.73127
# Velocity P-wave (km/s) = 6.95066 7.05379 7.00241
#
# Compressibility (1/GPa) = 0.01637053
#
# Stress axis : x y z
#
# Youngs Moduli (GPa) = 84.24305 61.42966 101.98384
#
# Poissons Ratio (x) = 0.38343 0.14004
# Poissons Ratio (y) = 0.52582 0.32403
# Poissons Ratio (z) = 0.11568 0.19518
#
# Static dielectric constant tensor:
#      x y z
#    x 3.604170 0.000000 0.000000 
#    y 0.000000 3.788270 0.000000 
#    z 0.000000 0.000000 3.617080 
# 
# 
# High freq. dielectric constant tensor:
#      x y z
#    x 1.789070 0.000000 0.000000 
#    y 0.000000 1.796110 0.000000 
#    z 0.000000 0.000000 1.780050 
# 
# From -- ./inp_files/22268.got.cif
#   From: 2010.03.12/outbox.cif.g09.slc.cpg/sg56_12_cif.got.tgz:22268.got - 2010.04.16 15:33:40.
