data_PCOD8228625
_publ_section_title
;
Structure prediction by ZEFSAII (Michael W. Deem and Ramdas Pophale) SiO2 
 PCOD8228625
Probable space group: P C C N
;
_chemical_formula_sum "Si O2"
_cell_formula_units_Z 40
_cell_length_a 13.712708
_cell_length_b 9.146635
_cell_length_c 14.832761
_cell_angle_alpha 90.000000
_cell_angle_beta 90.000000
_cell_angle_gamma 90.000000
_cell_volume 1860.401050
_symmetry_space_group_name_H-M "P C C N"
_symmetry_group_IT_number 56
_symmetry_cell_setting 'orthorhombic'
loop_
_space_group_symop_operation_xyz
x,y,z
1/2-x,1/2-y,z
1/2+x,-y,1/2-z
-x,1/2+y,1/2-z
-x,-y,-z
1/2+x,1/2+y,-z
1/2-x,y,1/2+z
x,1/2-y,1/2+z
loop_
_atom_site_type_symbol
_atom_site_label
_atom_site_fract_x
_atom_site_fract_y
_atom_site_fract_z
Si Si1 0.087323 0.728493 0.747930
Si Si2 0.750000 0.250000 0.038364
Si Si3 0.065789 0.353465 0.103690
Si Si4 0.762428 0.052824 0.202729
Si Si5 0.059494 0.687666 0.060805
Si Si6 0.750000 0.750000 0.292067
O O1 0.128272 0.891226 0.772686
O O2 0.181527 0.626971 0.733340
O O3 0.027864 0.734558 0.654200
O O4 0.021542 0.661123 0.825626
O O5 0.739238 0.103543 0.100100
O O6 0.844880 0.233385 0.977342
O O7 0.089573 0.521644 0.084239
O O8 0.157683 0.262377 0.140906
O O9 0.030038 0.289305 0.007667
O O10 0.750782 0.882293 0.221098
#
# Coordination Sequence:
#
# PCOD8228625 Si02
#       6
#     8   4   8   8   8   4
#     4  10  21  44  72  97 130 190 237 274 360 424
#     4  10  20  44  76 106 126 190 252 268 358 424
#     4  11  25  41  69 106 136 182 239 291 354 412
#     4  10  21  42  70 101 138 182 231 286 347 433
#     4  11  22  43  77  96 138 186 236 296 334 429
#     4  12  26  40  66 104 154 174 226 310 364 392
#
# _framework density 21.50074
#
# number of rings (size 3 to 8) (size 9 to 14) (size 15 to 20)
#    0.000    1.600    6.000    1.200    2.800    0.000 
#    0.000    5.000    0.000    0.000    0.000    0.000 
#    0.000    0.000    0.000    0.000    0.000    0.000 
#
# Total GULP energy -495736.787376 kJ/mol
# GULP energy per Si atom -12393.419684 kJ/mol
# Density = 2.145180 g / cm^3
# Si number density = 21.500740 Si / 1000 Ang^3
#
#
#
# Elastic Constant Matrix: (Units=GPa)
#
#
# Indices 1 2 3 4 5 6 
#
# 1 86.8179 27.8827 25.3590 0.0000 0.0000 0.0000
# 2 27.8827 114.4371 33.2028 0.0000 0.0000 0.0000
# 3 25.3590 33.2028 127.2659 0.0000 0.0000 0.0000
# 4 0.0000 0.0000 0.0000 29.8160 0.0000 0.0000
# 5 0.0000 0.0000 0.0000 0.0000 22.2361 0.0000
# 6 0.0000 0.0000 0.0000 0.0000 0.0000 22.2100
#
#
#
# Elastic Compliance Matrix: (Units=1/GPa)
#
#
# Indices 1 2 3 4 5 6 
#
# 1 0.012905 -0.002595 -0.001895 0.000000 0.000000 0.000000
# 2 -0.002595 0.009976 -0.002086 0.000000 0.000000 0.000000
# 3 -0.001895 -0.002086 0.008779 0.000000 0.000000 0.000000
# 4 0.000000 0.000000 0.000000 0.033539 0.000000 0.000000
# 5 0.000000 0.000000 0.000000 0.000000 0.044972 0.000000
# 6 0.000000 0.000000 0.000000 0.000000 0.000000 0.045025
#
#
# Mechanical properties :
#
#
# Convention : Reuss Voigt Hill
#
# Bulk Modulus (GPa) = 54.02365 55.71223 54.86794
# Shear Modulus (GPa) = 28.65079 30.99085 29.82082
#
# Velocity S-wave (km/s) = 3.65437 3.80068 3.72824
# Velocity P-wave (km/s) = 6.55644 6.72519 6.64135
#
# Compressibility (1/GPa) = 0.01851041
#
# Stress axis : x y z
#
# Youngs Moduli (GPa) = 77.48908 100.24337 113.90580
#
# Poissons Ratio (x) = 0.26010 0.21580
# Poissons Ratio (y) = 0.20106 0.23756
# Poissons Ratio (z) = 0.14681 0.20907
#
# Static dielectric constant tensor:
#      x y z
#    x 3.908860 0.000000 0.000000 
#    y 0.000000 3.679820 0.000000 
#    z 0.000000 0.000000 4.055000 
# 
# 
# High freq. dielectric constant tensor:
#      x y z
#    x 1.841590 0.000000 0.000000 
#    y 0.000000 1.819150 0.000000 
#    z 0.000000 0.000000 1.856980 
# 
# From -- ./inp_files/12099.got.cif
#   From: 2010.03.12/outbox.cif.g09.slc.cpg/sg56_7_cif.got.tgz:12099.got - 2010.04.16 15:33:40.
