data_PCOD8228734
_publ_section_title
;
Structure prediction by ZEFSAII (Michael W. Deem and Ramdas Pophale) SiO2 
 PCOD8228734
Probable space group: P C C N
;
_chemical_formula_sum "Si O2"
_cell_formula_units_Z 48
_cell_length_a 8.076510
_cell_length_b 17.643996
_cell_length_c 16.129572
_cell_angle_alpha 90.000000
_cell_angle_beta 90.000000
_cell_angle_gamma 90.000000
_cell_volume 2298.494820
_symmetry_space_group_name_H-M "P C C N"
_symmetry_group_IT_number 56
_symmetry_cell_setting 'orthorhombic'
loop_
_space_group_symop_operation_xyz
x,y,z
1/2-x,1/2-y,z
1/2+x,-y,1/2-z
-x,1/2+y,1/2-z
-x,-y,-z
1/2+x,1/2+y,-z
1/2-x,y,1/2+z
x,1/2-y,1/2+z
loop_
_atom_site_type_symbol
_atom_site_label
_atom_site_fract_x
_atom_site_fract_y
_atom_site_fract_z
Si Si1 0.148401 0.325556 0.600471
Si Si2 0.652508 0.553638 0.661867
Si Si3 0.034367 0.814241 0.731485
Si Si4 0.628504 0.942343 0.811634
Si Si5 0.554947 0.923930 0.544064
Si Si6 0.604932 0.352520 0.801579
O O1 0.250000 0.250000 0.580387
O O2 0.263044 0.398188 0.621067
O O3 0.053799 0.352303 0.517910
O O4 0.016259 0.306443 0.672198
O O5 0.608408 0.640307 0.684031
O O6 0.753379 0.519360 0.741121
O O7 0.485816 0.505900 0.644911
O O8 0.763565 0.557651 0.580320
O O9 0.053193 0.734681 0.684748
O O10 0.205628 0.860257 0.726432
O O11 0.509424 0.880383 0.772136
O O12 0.425237 0.902302 0.616205
O O13 0.500000 0.000000 0.500000
#
# Coordination Sequence:
#
# PCOD8228734 Si02
#       6
#     8   8   8   8   8   8
#     4  11  24  44  67  98 132 168 221 275 339 397
#     4  10  23  38  67  91 131 171 225 266 329 385
#     4  10  22  42  70  96 120 176 229 271 319 400
#     4  10  21  38  67  92 122 174 224 266 312 398
#     4  11  28  43  62  97 143 175 214 280 341 396
#     4  10  22  43  66  93 133 170 223 272 328 391
#
# _framework density 20.883233000000001
#
# number of rings (size 3 to 8) (size 9 to 14) (size 15 to 20)
#    0.000    1.667    1.667    1.000   16.333    0.667 
#    0.000    3.333    0.000    0.000    0.000    0.000 
#    0.000    0.000    0.000    0.000    0.000    0.000 
#
# Total GULP energy -595276.238245 kJ/mol
# GULP energy per Si atom -12401.588297 kJ/mol
# Density = 2.083570 g / cm^3
# Si number density = 20.883233 Si / 1000 Ang^3
#
#
#
# Elastic Constant Matrix: (Units=GPa)
#
#
# Indices 1 2 3 4 5 6 
#
# 1 86.5722 22.0147 21.0912 0.0000 0.0000 0.0000
# 2 22.0147 76.9075 27.5335 0.0000 0.0000 0.0000
# 3 21.0912 27.5335 80.1515 0.0000 0.0000 0.0000
# 4 0.0000 0.0000 0.0000 34.1502 0.0000 0.0000
# 5 0.0000 0.0000 0.0000 0.0000 25.9822 0.0000
# 6 0.0000 0.0000 0.0000 0.0000 0.0000 47.5794
#
#
#
# Elastic Compliance Matrix: (Units=1/GPa)
#
#
# Indices 1 2 3 4 5 6 
#
# 1 0.012855 -0.002815 -0.002416 0.000000 0.000000 0.000000
# 2 -0.002815 0.015442 -0.004564 0.000000 0.000000 0.000000
# 3 -0.002416 -0.004564 0.014680 0.000000 0.000000 0.000000
# 4 0.000000 0.000000 0.000000 0.029282 0.000000 0.000000
# 5 0.000000 0.000000 0.000000 0.000000 0.038488 0.000000
# 6 0.000000 0.000000 0.000000 0.000000 0.000000 0.021017
#
#
# Mechanical properties :
#
#
# Convention : Reuss Voigt Hill
#
# Bulk Modulus (GPa) = 42.75671 42.76775 42.76223
# Shear Modulus (GPa) = 31.41670 33.07515 32.24592
#
# Velocity S-wave (km/s) = 3.88286 3.98403 3.93377
# Velocity P-wave (km/s) = 6.37345 6.45657 6.41514
#
# Compressibility (1/GPa) = 0.02338814
#
# Stress axis : x y z
#
# Youngs Moduli (GPa) = 77.78817 64.75696 68.12040
#
# Poissons Ratio (x) = 0.18229 0.16457
# Poissons Ratio (y) = 0.21897 0.31090
# Poissons Ratio (z) = 0.18792 0.29555
#
# Static dielectric constant tensor:
#      x y z
#    x 3.982920 0.000000 0.000000 
#    y 0.000000 3.780160 0.000000 
#    z 0.000000 0.000000 3.539330 
# 
# 
# High freq. dielectric constant tensor:
#      x y z
#    x 1.826550 0.000000 0.000000 
#    y 0.000000 1.831710 0.000000 
#    z 0.000000 0.000000 1.795670 
# 
# From -- ./inp_files/10642.got.cif
#   From: 2010.03.12/outbox.cif.g09.slc.cpg/sg56_6_cif.got.tgz:10642.got - 2010.04.16 15:33:40.
