data_PCOD8228553
_publ_section_title
;
Structure prediction by ZEFSAII (Michael W. Deem and Ramdas Pophale) SiO2 
 PCOD8228553
Probable space group: P C C N
;
_chemical_formula_sum "Si O2"
_cell_formula_units_Z 52
_cell_length_a 9.377396
_cell_length_b 11.013394
_cell_length_c 25.577442
_cell_angle_alpha 90.000000
_cell_angle_beta 90.000000
_cell_angle_gamma 90.000000
_cell_volume 2641.560374
_symmetry_space_group_name_H-M "P C C N"
_symmetry_group_IT_number 56
_symmetry_cell_setting 'orthorhombic'
loop_
_space_group_symop_operation_xyz
x,y,z
1/2-x,1/2-y,z
1/2+x,-y,1/2-z
-x,1/2+y,1/2-z
-x,-y,-z
1/2+x,1/2+y,-z
1/2-x,y,1/2+z
x,1/2-y,1/2+z
loop_
_atom_site_type_symbol
_atom_site_label
_atom_site_fract_x
_atom_site_fract_y
_atom_site_fract_z
Si Si1 0.118288 0.917891 0.601024
Si Si2 0.750000 0.250000 0.978141
Si Si3 0.074059 0.512815 0.633535
Si Si4 0.933848 0.363617 0.113064
Si Si5 0.632760 0.119942 0.571881
Si Si6 0.582365 0.728600 0.800659
Si Si7 0.914949 0.253455 0.804350
O O1 0.127695 0.809177 0.558502
O O2 0.271330 0.979656 0.608269
O O3 0.063184 0.862793 0.655257
O O4 0.008537 0.022625 0.584126
O O5 0.809354 0.136349 0.012664
O O6 0.052477 0.397197 0.670449
O O7 0.036689 0.629713 0.667691
O O8 0.964882 0.497400 0.583953
O O9 0.962623 0.241302 0.080152
O O10 0.763774 0.386568 0.113537
O O11 0.002528 0.341269 0.170447
O O12 0.750000 0.750000 0.797269
O O13 0.518928 0.719537 0.743089
O O14 0.750000 0.250000 0.785998
#
# Coordination Sequence:
#
# PCOD8228553 Si02
#       7
#     8   4   8   8   8   8   8
#     4  11  20  40  61  84 126 157 198 253 299 359
#     4  10  20  40  64  90 118 160 200 242 316 366
#     4  10  21  40  58  88 124 155 198 250 296 350
#     4   9  20  38  58  86 122 153 192 250 297 345
#     4   9  22  38  61  92 114 155 200 248 302 357
#     4  11  22  35  59  88 116 157 207 236 288 364
#     4  10  24  37  55  88 121 163 194 240 304 351
#
# _framework density 19.685334000000001
#
# number of rings (size 3 to 8) (size 9 to 14) (size 15 to 20)
#    0.000    2.154    3.846    0.000    6.462    4.308 
#    0.000    0.000    0.000    3.692    0.000    0.000 
#    0.000    0.000    0.000    0.000    0.000    0.000 
#
# Total GULP energy -644464.088422 kJ/mol
# GULP energy per Si atom -12393.540162 kJ/mol
# Density = 1.964053 g / cm^3
# Si number density = 19.685334 Si / 1000 Ang^3
#
#
#
# Elastic Constant Matrix: (Units=GPa)
#
#
# Indices 1 2 3 4 5 6 
#
# 1 86.9666 49.3380 47.4783 0.0000 0.0000 0.0000
# 2 49.3380 85.3263 24.2905 0.0000 0.0000 0.0000
# 3 47.4783 24.2905 96.4948 0.0000 0.0000 0.0000
# 4 0.0000 0.0000 0.0000 25.0538 0.0000 0.0000
# 5 0.0000 0.0000 0.0000 0.0000 24.8254 0.0000
# 6 0.0000 0.0000 0.0000 0.0000 0.0000 40.0008
#
#
#
# Elastic Compliance Matrix: (Units=1/GPa)
#
#
# Indices 1 2 3 4 5 6 
#
# 1 0.021758 -0.010269 -0.008120 0.000000 0.000000 0.000000
# 2 -0.010269 0.017471 0.000655 0.000000 0.000000 0.000000
# 3 -0.008120 0.000655 0.014194 0.000000 0.000000 0.000000
# 4 0.000000 0.000000 0.000000 0.039914 0.000000 0.000000
# 5 0.000000 0.000000 0.000000 0.000000 0.040281 0.000000
# 6 0.000000 0.000000 0.000000 0.000000 0.000000 0.024999
#
#
# Mechanical properties :
#
#
# Convention : Reuss Voigt Hill
#
# Bulk Modulus (GPa) = 55.70044 56.77790 56.23917
# Shear Modulus (GPa) = 24.99094 27.82139 26.40616
#
# Velocity S-wave (km/s) = 3.56690 3.76347 3.66650
# Velocity P-wave (km/s) = 6.73205 6.91306 6.82315
#
# Compressibility (1/GPa) = 0.01795318
#
# Stress axis : x y z
#
# Youngs Moduli (GPa) = 45.96027 57.23672 70.45259
#
# Poissons Ratio (x) = 0.58778 0.57211
# Poissons Ratio (y) = 0.47198 -0.04613
# Poissons Ratio (z) = 0.37322 -0.03748
#
# Static dielectric constant tensor:
#      x y z
#    x 3.584400 0.000000 0.000000 
#    y 0.000000 3.678210 0.000000 
#    z 0.000000 0.000000 3.574370 
# 
# 
# High freq. dielectric constant tensor:
#      x y z
#    x 1.758450 0.000000 0.000000 
#    y 0.000000 1.767860 0.000000 
#    z 0.000000 0.000000 1.758370 
# 
# From -- ./inp_files/22056.got.cif
#   From: 2010.03.12/outbox.cif.g09.slc.cpg/sg56_12_cif.got.tgz:22056.got - 2010.04.16 15:33:40.
