data_PCOD8228879
_publ_section_title
;
Structure prediction by ZEFSAII (Michael W. Deem and Ramdas Pophale) SiO2 
 PCOD8228879
Probable space group: P C C N
;
_chemical_formula_sum "Si O2"
_cell_formula_units_Z 48
_cell_length_a 13.528214
_cell_length_b 10.693509
_cell_length_c 15.850948
_cell_angle_alpha 90.000000
_cell_angle_beta 90.000000
_cell_angle_gamma 90.000000
_cell_volume 2293.062780
_symmetry_space_group_name_H-M "P C C N"
_symmetry_group_IT_number 56
_symmetry_cell_setting 'orthorhombic'
loop_
_space_group_symop_operation_xyz
x,y,z
1/2-x,1/2-y,z
1/2+x,-y,1/2-z
-x,1/2+y,1/2-z
-x,-y,-z
1/2+x,1/2+y,-z
1/2-x,y,1/2+z
x,1/2-y,1/2+z
loop_
_atom_site_type_symbol
_atom_site_label
_atom_site_fract_x
_atom_site_fract_y
_atom_site_fract_z
Si Si1 0.853524 0.965810 0.971754
Si Si2 0.913342 0.488141 0.737589
Si Si3 0.400836 0.904383 0.824661
Si Si4 0.747464 0.608070 0.623879
Si Si5 0.959023 0.334954 0.585497
Si Si6 0.761571 0.382118 0.328149
O O1 0.819376 0.014232 0.881004
O O2 0.885988 0.086670 0.026069
O O3 0.934121 0.855818 0.957924
O O4 0.764542 0.902744 0.023239
O O5 0.841627 0.558054 0.673657
O O6 0.967332 0.383027 0.681820
O O7 0.849035 0.430307 0.812594
O O8 0.994771 0.577371 0.778661
O O9 0.420090 0.808509 0.903546
O O10 0.320733 0.850995 0.758445
O O11 0.355496 0.036405 0.857217
O O12 0.750000 0.750000 0.653166
O O13 0.750000 0.250000 0.377079
#
# Coordination Sequence:
#
# PCOD8228879 Si02
#       6
#     8   8   8   8   8   8
#     4  10  23  41  64  91 130 177 206 273 332 386
#     4  10  22  39  64  96 121 169 216 268 322 380
#     4  11  23  41  68  94 128 171 218 274 323 388
#     4  10  25  42  62  94 139 170 213 275 332 393
#     4  10  21  42  64  92 128 166 221 262 332 388
#     4  11  22  37  66  97 126 161 221 267 318 393
#
# _framework density 20.932701999999999
#
# number of rings (size 3 to 8) (size 9 to 14) (size 15 to 20)
#    0.000    1.667    3.333    0.000    4.667    1.333 
#    0.000    2.500    0.000    0.000    0.000    0.000 
#    0.000    0.000    0.000    0.000    0.000    0.000 
#
# Total GULP energy -594840.505597 kJ/mol
# GULP energy per Si atom -12392.510533 kJ/mol
# Density = 2.088506 g / cm^3
# Si number density = 20.932702 Si / 1000 Ang^3
#
#
#
# Elastic Constant Matrix: (Units=GPa)
#
#
# Indices 1 2 3 4 5 6 
#
# 1 88.5313 30.8544 25.3857 0.0000 0.0000 0.0000
# 2 30.8544 115.2778 23.5052 0.0000 0.0000 0.0000
# 3 25.3857 23.5052 70.0133 0.0000 0.0000 0.0000
# 4 0.0000 0.0000 0.0000 29.9197 0.0000 0.0000
# 5 0.0000 0.0000 0.0000 0.0000 26.3138 0.0000
# 6 0.0000 0.0000 0.0000 0.0000 0.0000 27.6764
#
#
#
# Elastic Compliance Matrix: (Units=1/GPa)
#
#
# Indices 1 2 3 4 5 6 
#
# 1 0.013390 -0.002785 -0.003920 0.000000 0.000000 0.000000
# 2 -0.002785 0.009891 -0.002311 0.000000 0.000000 0.000000
# 3 -0.003920 -0.002311 0.016480 0.000000 0.000000 0.000000
# 4 0.000000 0.000000 0.000000 0.033423 0.000000 0.000000
# 5 0.000000 0.000000 0.000000 0.000000 0.038003 0.000000
# 6 0.000000 0.000000 0.000000 0.000000 0.000000 0.036132
#
#
# Mechanical properties :
#
#
# Convention : Reuss Voigt Hill
#
# Bulk Modulus (GPa) = 46.01958 48.14590 47.08274
# Shear Modulus (GPa) = 28.96976 29.72047 29.34511
#
# Velocity S-wave (km/s) = 3.72418 3.77212 3.74823
# Velocity P-wave (km/s) = 6.36592 6.48245 6.42445
#
# Compressibility (1/GPa) = 0.02172988
#
# Stress axis : x y z
#
# Youngs Moduli (GPa) = 74.68283 101.09973 60.67860
#
# Poissons Ratio (x) = 0.28152 0.23787
# Poissons Ratio (y) = 0.20796 0.14023
# Poissons Ratio (z) = 0.29277 0.23365
#
# Static dielectric constant tensor:
#      x y z
#    x 3.764760 0.000000 0.000000 
#    y 0.000000 3.712240 0.000000 
#    z 0.000000 0.000000 3.744260 
# 
# 
# High freq. dielectric constant tensor:
#      x y z
#    x 1.819130 0.000000 0.000000 
#    y 0.000000 1.811470 0.000000 
#    z 0.000000 0.000000 1.810780 
# 
# From -- ./inp_files/15600.got.cif
#   From: 2010.03.12/outbox.cif.g09.slc.cpg/sg56_8_cif.got.tgz:15600.got - 2010.04.16 15:33:40.
