data_PCOD8228974
_publ_section_title
;
Structure prediction by ZEFSAII (Michael W. Deem and Ramdas Pophale) SiO2 
 PCOD8228974
Probable space group: P C C N
;
_chemical_formula_sum "Si O2"
_cell_formula_units_Z 24
_cell_length_a 8.486983
_cell_length_b 10.205622
_cell_length_c 14.121095
_cell_angle_alpha 90.000000
_cell_angle_beta 90.000000
_cell_angle_gamma 90.000000
_cell_volume 1223.097802
_symmetry_space_group_name_H-M "P C C N"
_symmetry_group_IT_number 56
_symmetry_cell_setting 'orthorhombic'
loop_
_space_group_symop_operation_xyz
x,y,z
1/2-x,1/2-y,z
1/2+x,-y,1/2-z
-x,1/2+y,1/2-z
-x,-y,-z
1/2+x,1/2+y,-z
1/2-x,y,1/2+z
x,1/2-y,1/2+z
loop_
_atom_site_type_symbol
_atom_site_label
_atom_site_fract_x
_atom_site_fract_y
_atom_site_fract_z
Si Si1 0.181150 0.610864 0.445221
Si Si2 0.888054 0.000722 0.864575
Si Si3 0.198458 0.105266 0.805602
O O1 0.250000 0.750000 0.415695
O O2 0.206239 0.585229 0.557104
O O3 0.267343 0.497105 0.383516
O O4 0.993465 0.608970 0.419894
O O5 0.762896 0.930258 0.797850
O O6 0.007135 0.094859 0.804689
O O7 0.250000 0.250000 0.835536
#
# Coordination Sequence:
#
# PCOD8228974 Si02
#       3
#     8   8   8
#     4   9  21  40  62  83 125 158 197 244 297 358
#     4   9  22  40  57  92 120 154 205 240 300 361
#     4  10  22  38  63  90 119 154 202 250 292 359
#
# _framework density 19.622306999999999
#
# number of rings (size 3 to 8) (size 9 to 14) (size 15 to 20)
#    2.000    0.667    0.000    0.000    4.667    5.333 
#    0.000    3.333    0.000    0.000    0.000    0.000 
#    0.000    0.000    0.000    0.000    0.000    0.000 
#
# Total GULP energy -297358.410780 kJ/mol
# GULP energy per Si atom -12389.933782 kJ/mol
# Density = 1.957765 g / cm^3
# Si number density = 19.622307 Si / 1000 Ang^3
#
#
#
# Elastic Constant Matrix: (Units=GPa)
#
#
# Indices 1 2 3 4 5 6 
#
# 1 18.6468 17.8737 35.0147 0.0000 0.0000 0.0000
# 2 17.8737 143.4735 59.1415 0.0000 0.0000 0.0000
# 3 35.0147 59.1415 129.7400 0.0000 0.0000 0.0000
# 4 0.0000 0.0000 0.0000 22.8457 0.0000 0.0000
# 5 0.0000 0.0000 0.0000 0.0000 41.4077 0.0000
# 6 0.0000 0.0000 0.0000 0.0000 0.0000 19.5389
#
#
#
# Elastic Compliance Matrix: (Units=1/GPa)
#
#
# Indices 1 2 3 4 5 6 
#
# 1 0.109105 -0.001791 -0.028629 0.000000 0.000000 0.000000
# 2 -0.001791 0.008612 -0.003442 0.000000 0.000000 0.000000
# 3 -0.028629 -0.003442 0.017004 0.000000 0.000000 0.000000
# 4 0.000000 0.000000 0.000000 0.043772 0.000000 0.000000
# 5 0.000000 0.000000 0.000000 0.000000 0.024150 0.000000
# 6 0.000000 0.000000 0.000000 0.000000 0.000000 0.051180
#
#
# Mechanical properties :
#
#
# Convention : Reuss Voigt Hill
#
# Bulk Modulus (GPa) = 14.92641 57.32447 36.12544
# Shear Modulus (GPa) = 14.53999 28.74714 21.64357
#
# Velocity S-wave (km/s) = 2.72507 3.83171 3.32476
# Velocity P-wave (km/s) = 4.18625 6.98952 5.76099
#
# Compressibility (1/GPa) = 0.06699536
#
# Stress axis : x y z
#
# Youngs Moduli (GPa) = 9.16550 116.11638 58.81139
#
# Poissons Ratio (x) = 0.20794 1.68373
# Poissons Ratio (y) = 0.01641 0.20246
# Poissons Ratio (z) = 0.26240 0.39973
#
# Static dielectric constant tensor:
#      x y z
#    x 3.226900 0.000000 0.000000 
#    y 0.000000 3.277550 0.000000 
#    z 0.000000 0.000000 3.448740 
# 
# 
# High freq. dielectric constant tensor:
#      x y z
#    x 1.733300 0.000000 0.000000 
#    y 0.000000 1.749560 0.000000 
#    z 0.000000 0.000000 1.770130 
# 
# From -- ./inp_files/2362.got.cif
#   From: 2010.03.12/outbox.cif.g09.slc.cpg/sg56_2_cif.got.tgz:2362.got - 2010.04.16 15:33:40.
