data_PCOD8228486
_publ_section_title
;
Structure prediction by ZEFSAII (Michael W. Deem and Ramdas Pophale) SiO2 
 PCOD8228486
Probable space group: P C C N
;
_chemical_formula_sum "Si O2"
_cell_formula_units_Z 36
_cell_length_a 9.174862
_cell_length_b 7.394983
_cell_length_c 22.612848
_cell_angle_alpha 90.000000
_cell_angle_beta 90.000000
_cell_angle_gamma 90.000000
_cell_volume 1534.235347
_symmetry_space_group_name_H-M "P C C N"
_symmetry_group_IT_number 56
_symmetry_cell_setting 'orthorhombic'
loop_
_space_group_symop_operation_xyz
x,y,z
1/2-x,1/2-y,z
1/2+x,-y,1/2-z
-x,1/2+y,1/2-z
-x,-y,-z
1/2+x,1/2+y,-z
1/2-x,y,1/2+z
x,1/2-y,1/2+z
loop_
_atom_site_type_symbol
_atom_site_label
_atom_site_fract_x
_atom_site_fract_y
_atom_site_fract_z
Si Si1 0.071546 0.569343 0.820027
Si Si2 0.250000 0.250000 0.528493
Si Si3 0.748302 0.465056 0.569011
Si Si4 0.744359 0.534672 0.288278
Si Si5 0.463238 0.408175 0.119394
O O1 0.134054 0.479331 0.879953
O O2 0.193976 0.560959 0.769604
O O3 0.921954 0.470102 0.799689
O O4 0.042383 0.779985 0.832544
O O5 0.290687 0.425523 0.489788
O O6 0.110219 0.284687 0.569138
O O7 0.750000 0.250000 0.556001
O O8 0.910844 0.529449 0.589643
O O9 0.750000 0.750000 0.280542
O O10 0.841923 0.475428 0.345372
#
# Coordination Sequence:
#
# PCOD8228486 Si02
#       5
#     8   4   8   8   8
#     4  10  20  38  63  97 129 175 219 282 341 413
#     4  12  22  44  74  94 142 188 224 294 326 402
#     4  10  24  40  69  99 138 178 235 272 342 406
#     4  10  20  38  67  89 136 173 222 281 354 401
#     4  10  21  44  65  96 137 181 223 286 343 402
#
# _framework density 23.464459000000002
#
# number of rings (size 3 to 8) (size 9 to 14) (size 15 to 20)
#    0.000    1.778    3.333    2.000    1.556    5.333 
#    0.000    0.000    0.000    0.000    0.000    0.000 
#    0.000    0.000    0.000    0.000    0.000    0.000 
#
# Total GULP energy -446328.813365 kJ/mol
# GULP energy per Si atom -12398.022593 kJ/mol
# Density = 2.341105 g / cm^3
# Si number density = 23.464459 Si / 1000 Ang^3
#
#
#
# Elastic Constant Matrix: (Units=GPa)
#
#
# Indices 1 2 3 4 5 6 
#
# 1 129.3466 20.7230 46.9888 0.0000 0.0000 0.0000
# 2 20.7230 54.0275 42.9494 0.0000 0.0000 0.0000
# 3 46.9888 42.9494 143.1628 0.0000 0.0000 0.0000
# 4 0.0000 0.0000 0.0000 16.3188 0.0000 0.0000
# 5 0.0000 0.0000 0.0000 0.0000 36.4478 0.0000
# 6 0.0000 0.0000 0.0000 0.0000 0.0000 20.8976
#
#
#
# Elastic Compliance Matrix: (Units=1/GPa)
#
#
# Indices 1 2 3 4 5 6 
#
# 1 0.008861 -0.001427 -0.002480 0.000000 0.000000 0.000000
# 2 -0.001427 0.024536 -0.006892 0.000000 0.000000 0.000000
# 3 -0.002480 -0.006892 0.009867 0.000000 0.000000 0.000000
# 4 0.000000 0.000000 0.000000 0.061279 0.000000 0.000000
# 5 0.000000 0.000000 0.000000 0.000000 0.027437 0.000000
# 6 0.000000 0.000000 0.000000 0.000000 0.000000 0.047852
#
#
# Mechanical properties :
#
#
# Convention : Reuss Voigt Hill
#
# Bulk Modulus (GPa) = 46.15950 60.87323 53.51636
# Shear Modulus (GPa) = 23.96337 29.12454 26.54395
#
# Velocity S-wave (km/s) = 3.19919 3.52692 3.36704
# Velocity P-wave (km/s) = 5.77591 6.52569 6.16221
#
# Compressibility (1/GPa) = 0.02166401
#
# Stress axis : x y z
#
# Youngs Moduli (GPa) = 112.85680 40.75711 101.34969
#
# Poissons Ratio (x) = 0.05816 0.25136
# Poissons Ratio (y) = 0.16105 0.69854
# Poissons Ratio (z) = 0.27990 0.28091
#
# Static dielectric constant tensor:
#      x y z
#    x 4.952100 0.000000 0.000000 
#    y 0.000000 3.565160 0.000000 
#    z 0.000000 0.000000 4.309990 
# 
# 
# High freq. dielectric constant tensor:
#      x y z
#    x 1.954940 0.000000 0.000000 
#    y 0.000000 1.877240 0.000000 
#    z 0.000000 0.000000 1.936700 
# 
# From -- ./inp_files/17885.got.cif
#   From: 2010.03.12/outbox.cif.g09.slc.cpg/sg56_9_cif.got.tgz:17885.got - 2010.04.16 15:33:40.
