data_PCOD8228627
_publ_section_title
;
Structure prediction by ZEFSAII (Michael W. Deem and Ramdas Pophale) SiO2 
 PCOD8228627
Probable space group: P C C N
;
_chemical_formula_sum "Si O2"
_cell_formula_units_Z 44
_cell_length_a 12.721340
_cell_length_b 9.681133
_cell_length_c 17.379687
_cell_angle_alpha 90.000000
_cell_angle_beta 90.000000
_cell_angle_gamma 90.000000
_cell_volume 2140.429842
_symmetry_space_group_name_H-M "P C C N"
_symmetry_group_IT_number 56
_symmetry_cell_setting 'orthorhombic'
loop_
_space_group_symop_operation_xyz
x,y,z
1/2-x,1/2-y,z
1/2+x,-y,1/2-z
-x,1/2+y,1/2-z
-x,-y,-z
1/2+x,1/2+y,-z
1/2-x,y,1/2+z
x,1/2-y,1/2+z
loop_
_atom_site_type_symbol
_atom_site_label
_atom_site_fract_x
_atom_site_fract_y
_atom_site_fract_z
Si Si1 0.058753 0.137486 0.973467
Si Si2 0.420201 0.605272 0.541006
Si Si3 0.888323 0.843598 0.860606
Si Si4 0.884172 0.455906 0.652200
Si Si5 0.250000 0.750000 0.942953
Si Si6 0.828391 0.951233 0.317271
O O1 0.977017 0.250073 0.943700
O O2 0.131941 0.092639 0.901532
O O3 0.121046 0.193505 0.048051
O O4 0.000000 0.000000 0.000000
O O5 0.500000 0.500000 0.500000
O O6 0.313935 0.635910 0.492513
O O7 0.390432 0.547509 0.623918
O O8 0.793205 0.944767 0.840349
O O9 0.880714 0.700158 0.814609
O O10 0.993003 0.923072 0.836251
O O11 0.833485 0.324738 0.611179
O O12 0.831162 0.481573 0.733504
#
# Coordination Sequence:
#
# PCOD8228627 Si02
#       6
#     8   8   8   8   4   8
#     4  10  20  45  70  93 137 180 213 283 335 393
#     4  12  24  44  73 103 133 182 238 276 331 423
#     4  10  22  47  62  94 143 173 232 279 338 412
#     4  11  25  43  67 100 136 178 222 294 338 400
#     4  12  24  46  70 100 136 180 244 272 342 414
#     4  11  25  40  68 102 133 184 222 286 351 397
#
# _framework density 20.556619999999999
#
# number of rings (size 3 to 8) (size 9 to 14) (size 15 to 20)
#    0.000    1.091    5.455    1.091    5.091    3.636 
#    3.273    0.000    0.000    0.000    0.000    0.000 
#    0.000    0.000    0.000    0.000    0.000    0.000 
#
# Total GULP energy -545642.960266 kJ/mol
# GULP energy per Si atom -12400.976370 kJ/mol
# Density = 2.050983 g / cm^3
# Si number density = 20.556620 Si / 1000 Ang^3
#
#
#
# Elastic Constant Matrix: (Units=GPa)
#
#
# Indices 1 2 3 4 5 6 
#
# 1 98.1025 23.6331 31.0819 0.0000 0.0000 0.0000
# 2 23.6331 85.8153 20.1935 0.0000 0.0000 0.0000
# 3 31.0819 20.1935 121.0524 0.0000 0.0000 0.0000
# 4 0.0000 0.0000 0.0000 27.8826 0.0000 0.0000
# 5 0.0000 0.0000 0.0000 0.0000 21.1726 0.0000
# 6 0.0000 0.0000 0.0000 0.0000 0.0000 46.4500
#
#
#
# Elastic Compliance Matrix: (Units=1/GPa)
#
#
# Indices 1 2 3 4 5 6 
#
# 1 0.011629 -0.002602 -0.002552 0.000000 0.000000 0.000000
# 2 -0.002602 0.012711 -0.001452 0.000000 0.000000 0.000000
# 3 -0.002552 -0.001452 0.009158 0.000000 0.000000 0.000000
# 4 0.000000 0.000000 0.000000 0.035865 0.000000 0.000000
# 5 0.000000 0.000000 0.000000 0.000000 0.047231 0.000000
# 6 0.000000 0.000000 0.000000 0.000000 0.000000 0.021529
#
#
# Mechanical properties :
#
#
# Convention : Reuss Voigt Hill
#
# Bulk Modulus (GPa) = 49.29490 50.53193 49.91342
# Shear Modulus (GPa) = 31.62620 34.43848 33.03234
#
# Velocity S-wave (km/s) = 3.92662 4.09748 4.01296
# Velocity P-wave (km/s) = 6.67757 6.85719 6.76797
#
# Compressibility (1/GPa) = 0.02028607
#
# Stress axis : x y z
#
# Youngs Moduli (GPa) = 85.99388 78.67032 109.18982
#
# Poissons Ratio (x) = 0.20470 0.27863
# Poissons Ratio (y) = 0.22376 0.15858
# Poissons Ratio (z) = 0.21944 0.11426
#
# Static dielectric constant tensor:
#      x y z
#    x 3.798280 0.000000 0.000000 
#    y 0.000000 4.004760 0.000000 
#    z 0.000000 0.000000 4.088200 
# 
# 
# High freq. dielectric constant tensor:
#      x y z
#    x 1.804050 0.000000 0.000000 
#    y 0.000000 1.810370 0.000000 
#    z 0.000000 0.000000 1.804290 
# 
# From -- ./inp_files/16098.got.cif
#   From: 2010.03.12/outbox.cif.g09.slc.cpg/sg56_9_cif.got.tgz:16098.got - 2010.04.16 15:33:40.
