data_PCOD8228660
_publ_section_title
;
Structure prediction by ZEFSAII (Michael W. Deem and Ramdas Pophale) SiO2 
 PCOD8228660
Probable space group: P C C N
;
_chemical_formula_sum "Si O2"
_cell_formula_units_Z 64
_cell_length_a 19.431766
_cell_length_b 5.242416
_cell_length_c 31.127821
_cell_angle_alpha 90.000000
_cell_angle_beta 90.000000
_cell_angle_gamma 90.000000
_cell_volume 3170.972479
_symmetry_space_group_name_H-M "P C C N"
_symmetry_group_IT_number 56
_symmetry_cell_setting 'orthorhombic'
loop_
_space_group_symop_operation_xyz
x,y,z
1/2-x,1/2-y,z
1/2+x,-y,1/2-z
-x,1/2+y,1/2-z
-x,-y,-z
1/2+x,1/2+y,-z
1/2-x,y,1/2+z
x,1/2-y,1/2+z
loop_
_atom_site_type_symbol
_atom_site_label
_atom_site_fract_x
_atom_site_fract_y
_atom_site_fract_z
Si Si1 0.671013 0.747083 0.575178
Si Si2 0.532868 0.205856 0.031033
Si Si3 0.670969 0.737690 0.905395
Si Si4 0.471575 0.789839 0.304222
Si Si5 0.106541 0.388109 0.509212
Si Si6 0.612916 0.268391 0.611824
Si Si7 0.831978 0.240672 0.359138
Si Si8 0.057059 0.708757 0.207278
O O1 0.750000 0.750000 0.559595
O O2 0.621823 0.704450 0.532490
O O3 0.663773 0.511501 0.608298
O O4 0.651007 0.009233 0.598417
O O5 0.467128 0.392058 0.033292
O O6 0.549070 0.149664 0.080805
O O7 0.603866 0.324665 0.010540
O O8 0.500000 0.000000 0.000000
O O9 0.750000 0.750000 0.893895
O O10 0.663944 0.679984 0.956034
O O11 0.638451 0.500843 0.879678
O O12 0.641032 0.010148 0.890059
O O13 0.412838 0.767193 0.339941
O O14 0.433398 0.782160 0.258382
O O15 0.522459 0.552086 0.308254
O O16 0.512327 0.053947 0.309861
O O17 0.750000 0.250000 0.353425
O O18 0.866490 0.214326 0.312526
#
# Coordination Sequence:
#
# PCOD8228660 Si02
#       8
#     8   8   8   8   8   8   8   8
#     4  11  23  41  60  80 116 158 198 243 286 335
#     4  10  21  36  53  83 119 148 192 241 291 345
#     4  10  22  37  56  84 115 152 198 233 276 349
#     4  10  22  39  63  91 118 148 194 239 288 353
#     4  10  22  36  54  82 114 155 194 237 289 341
#     4  11  23  39  60  88 116 151 196 245 291 344
#     4  10  22  38  56  86 120 151 190 236 286 349
#     4  10  21  39  62  90 118 153 186 234 298 349
#
# _framework density 20.183084000000001
#
# number of rings (size 3 to 8) (size 9 to 14) (size 15 to 20)
#    0.000    1.750    1.250    2.250    5.250    0.000 
#    0.000    3.750    0.000    1.500    0.000    0.000 
#    0.000    0.000    0.000    0.000    0.000    0.000 
#
# Total GULP energy -792919.088448 kJ/mol
# GULP energy per Si atom -12389.360757 kJ/mol
# Density = 2.013715 g / cm^3
# Si number density = 20.183084 Si / 1000 Ang^3
#
#
#
# Elastic Constant Matrix: (Units=GPa)
#
#
# Indices 1 2 3 4 5 6 
#
# 1 55.5390 15.9052 41.5753 0.0000 0.0000 0.0000
# 2 15.9052 121.9225 34.2572 0.0000 0.0000 0.0000
# 3 41.5753 34.2572 112.8608 0.0000 0.0000 0.0000
# 4 0.0000 0.0000 0.0000 18.1255 0.0000 0.0000
# 5 0.0000 0.0000 0.0000 0.0000 36.0175 0.0000
# 6 0.0000 0.0000 0.0000 0.0000 0.0000 18.5230
#
#
#
# Elastic Compliance Matrix: (Units=1/GPa)
#
#
# Indices 1 2 3 4 5 6 
#
# 1 0.024921 -0.000734 -0.008957 0.000000 0.000000 0.000000
# 2 -0.000734 0.008988 -0.002458 0.000000 0.000000 0.000000
# 3 -0.008957 -0.002458 0.012906 0.000000 0.000000 0.000000
# 4 0.000000 0.000000 0.000000 0.055171 0.000000 0.000000
# 5 0.000000 0.000000 0.000000 0.000000 0.027764 0.000000
# 6 0.000000 0.000000 0.000000 0.000000 0.000000 0.053987
#
#
# Mechanical properties :
#
#
# Convention : Reuss Voigt Hill
#
# Bulk Modulus (GPa) = 44.41169 52.64416 48.52793
# Shear Modulus (GPa) = 23.19732 27.77217 25.48475
#
# Velocity S-wave (km/s) = 3.39388 3.71349 3.55727
# Velocity P-wave (km/s) = 6.11638 6.67282 6.40065
#
# Compressibility (1/GPa) = 0.02251659
#
# Stress axis : x y z
#
# Youngs Moduli (GPa) = 40.12683 111.25584 77.48200
#
# Poissons Ratio (x) = 0.08168 0.69404
# Poissons Ratio (y) = 0.02946 0.19044
# Poissons Ratio (z) = 0.35943 0.27344
#
# Static dielectric constant tensor:
#      x y z
#    x 2.894520 0.000000 0.000000 
#    y 0.000000 3.910820 0.000000 
#    z 0.000000 0.000000 3.350510 
# 
# 
# High freq. dielectric constant tensor:
#      x y z
#    x 1.768700 0.000000 0.000000 
#    y 0.000000 1.810350 0.000000 
#    z 0.000000 0.000000 1.778490 
# 
# From -- ./inp_files/23705.got.cif
#   From: 2010.03.12/outbox.cif.g09.slc.cpg/sg56_12_cif.got.tgz:23705.got - 2010.04.16 15:33:40.
