data_PCOD8228824
_publ_section_title
;
Structure prediction by ZEFSAII (Michael W. Deem and Ramdas Pophale) SiO2 
 PCOD8228824
Probable space group: P C C N
;
_chemical_formula_sum "Si O2"
_cell_formula_units_Z 48
_cell_length_a 29.858725
_cell_length_b 8.277802
_cell_length_c 8.991182
_cell_angle_alpha 90.000000
_cell_angle_beta 90.000000
_cell_angle_gamma 90.000000
_cell_volume 2222.302024
_symmetry_space_group_name_H-M "P C C N"
_symmetry_group_IT_number 56
_symmetry_cell_setting 'orthorhombic'
loop_
_space_group_symop_operation_xyz
x,y,z
1/2-x,1/2-y,z
1/2+x,-y,1/2-z
-x,1/2+y,1/2-z
-x,-y,-z
1/2+x,1/2+y,-z
1/2-x,y,1/2+z
x,1/2-y,1/2+z
loop_
_atom_site_type_symbol
_atom_site_label
_atom_site_fract_x
_atom_site_fract_y
_atom_site_fract_z
Si Si1 0.785329 0.957175 0.022171
Si Si2 0.898453 0.132595 0.472359
Si Si3 0.750000 0.250000 0.854814
Si Si4 0.035899 0.067644 0.389478
Si Si5 0.020508 0.634851 0.604824
Si Si6 0.750000 0.750000 0.282946
Si Si7 0.341295 0.822623 0.310762
O O1 0.767116 0.894631 0.180893
O O2 0.833057 0.035729 0.065675
O O3 0.788876 0.817380 0.895913
O O4 0.751455 0.093094 0.960593
O O5 0.938775 0.265055 0.469354
O O6 0.875069 0.112353 0.313544
O O7 0.862800 0.177153 0.598239
O O8 0.917105 0.955700 0.521920
O O9 0.705530 0.241188 0.754686
O O10 0.021619 0.250026 0.348626
O O11 0.039976 0.953935 0.246980
O O12 0.000000 0.000000 0.500000
O O13 0.000000 0.500000 0.500000
#
# Coordination Sequence:
#
# PCOD8228824 Si02
#       7
#     8   8   4   8   8   4   8
#     4  11  23  42  68  98 134 186 242 301 354 425
#     4  11  24  42  67 103 146 177 233 303 343 424
#     4  12  24  40  78  98 130 196 256 288 360 420
#     4  10  21  40  68 101 132 180 224 275 350 420
#     4  11  23  43  74 100 138 183 223 283 356 436
#     4  10  24  42  66  96 138 178 250 300 360 418
#     4  12  24  41  69 101 140 183 248 293 352 412
#
# _framework density 21.599222999999999
#
# number of rings (size 3 to 8) (size 9 to 14) (size 15 to 20)
#    0.000    1.000    5.000    2.500    2.333    0.000 
#    0.000    1.667    0.000    0.000    0.000    0.000 
#    0.000    0.000    0.000    0.000    0.000    0.000 
#
# Total GULP energy -594818.253108 kJ/mol
# GULP energy per Si atom -12392.046940 kJ/mol
# Density = 2.155006 g / cm^3
# Si number density = 21.599223 Si / 1000 Ang^3
#
#
#
# Elastic Constant Matrix: (Units=GPa)
#
#
# Indices 1 2 3 4 5 6 
#
# 1 104.0037 41.8145 39.5024 0.0000 0.0000 0.0000
# 2 41.8145 99.7616 38.0445 0.0000 0.0000 0.0000
# 3 39.5024 38.0445 119.7281 0.0000 0.0000 0.0000
# 4 0.0000 0.0000 0.0000 44.3420 0.0000 0.0000
# 5 0.0000 0.0000 0.0000 0.0000 49.9641 0.0000
# 6 0.0000 0.0000 0.0000 0.0000 0.0000 37.0503
#
#
#
# Elastic Compliance Matrix: (Units=1/GPa)
#
#
# Indices 1 2 3 4 5 6 
#
# 1 0.012315 -0.004110 -0.002757 0.000000 0.000000 0.000000
# 2 -0.004110 0.012778 -0.002704 0.000000 0.000000 0.000000
# 3 -0.002757 -0.002704 0.010121 0.000000 0.000000 0.000000
# 4 0.000000 0.000000 0.000000 0.022552 0.000000 0.000000
# 5 0.000000 0.000000 0.000000 0.000000 0.020014 0.000000
# 6 0.000000 0.000000 0.000000 0.000000 0.000000 0.026990
#
#
# Mechanical properties :
#
#
# Convention : Reuss Voigt Hill
#
# Bulk Modulus (GPa) = 62.22395 62.46847 62.34621
# Shear Modulus (GPa) = 38.67865 39.88009 39.27937
#
# Velocity S-wave (km/s) = 4.23631 4.30160 4.26908
# Velocity P-wave (km/s) = 7.26632 7.32503 7.29573
#
# Compressibility (1/GPa) = 0.01607098
#
# Stress axis : x y z
#
# Youngs Moduli (GPa) = 81.20365 78.25996 98.80303
#
# Poissons Ratio (x) = 0.32167 0.27240
# Poissons Ratio (y) = 0.33377 0.26718
# Poissons Ratio (z) = 0.22388 0.21163
#
# Static dielectric constant tensor:
#      x y z
#    x 4.545150 0.000000 0.000000 
#    y 0.000000 4.442090 0.000000 
#    z 0.000000 0.000000 4.159420 
# 
# 
# High freq. dielectric constant tensor:
#      x y z
#    x 1.826840 0.000000 0.000000 
#    y 0.000000 1.840240 0.000000 
#    z 0.000000 0.000000 1.876970 
# 
# From -- ./inp_files/2279.got.cif
#   From: 2010.03.12/outbox.cif.g09.slc.cpg/sg56_2_cif.got.tgz:2279.got - 2010.04.16 15:33:40.
