data_PCOD8228614
_publ_section_title
;
Structure prediction by ZEFSAII (Michael W. Deem and Ramdas Pophale) SiO2 
 PCOD8228614
Probable space group: P C C N
;
_chemical_formula_sum "Si O2"
_cell_formula_units_Z 64
_cell_length_a 11.966853
_cell_length_b 17.058889
_cell_length_c 13.761521
_cell_angle_alpha 90.000000
_cell_angle_beta 90.000000
_cell_angle_gamma 90.000000
_cell_volume 2809.293645
_symmetry_space_group_name_H-M "P C C N"
_symmetry_group_IT_number 56
_symmetry_cell_setting 'orthorhombic'
loop_
_space_group_symop_operation_xyz
x,y,z
1/2-x,1/2-y,z
1/2+x,-y,1/2-z
-x,1/2+y,1/2-z
-x,-y,-z
1/2+x,1/2+y,-z
1/2-x,y,1/2+z
x,1/2-y,1/2+z
loop_
_atom_site_type_symbol
_atom_site_label
_atom_site_fract_x
_atom_site_fract_y
_atom_site_fract_z
Si Si1 0.879399 0.583750 0.702326
Si Si2 0.682426 0.424084 0.251020
Si Si3 0.506272 0.197168 0.809243
Si Si4 0.584813 0.153383 0.216065
Si Si5 0.499642 0.628246 0.479751
Si Si6 0.105223 0.060012 0.002137
Si Si7 0.329341 0.998918 0.042489
Si Si8 0.193702 0.328311 0.672839
O O1 0.846350 0.493991 0.678098
O O2 0.897097 0.617870 0.592782
O O3 0.786897 0.624321 0.768290
O O4 0.999355 0.583531 0.756576
O O5 0.576179 0.368752 0.255175
O O6 0.789281 0.376154 0.215401
O O7 0.701668 0.465874 0.353074
O O8 0.572349 0.278478 0.795863
O O9 0.388184 0.203874 0.756473
O O10 0.491327 0.179661 0.923354
O O11 0.545556 0.183095 0.108406
O O12 0.617903 0.587217 0.453684
O O13 0.409636 0.558601 0.484580
O O14 0.212428 0.004360 0.988192
O O15 0.125747 0.116484 0.096575
O O16 0.000000 0.000000 0.000000
O O17 0.250000 0.250000 0.623992
#
# Coordination Sequence:
#
# PCOD8228614 Si02
#       8
#     8   8   8   8   8   8   8   8
#     4  12  25  43  72 100 139 187 240 298 363 434
#     4  11  23  42  74 101 145 184 239 307 356 442
#     4  11  26  45  69 104 145 193 242 293 376 438
#     4  12  24  45  67 107 145 189 238 301 378 432
#     4  10  22  42  76 100 138 192 244 293 361 459
#     4  12  25  43  71 109 143 183 245 314 369 440
#     4  10  20  43  70 106 131 180 243 298 364 428
#     4  12  26  48  69 103 149 194 241 304 378 450
#
# _framework density 22.781528000000002
#
# number of rings (size 3 to 8) (size 9 to 14) (size 15 to 20)
#    0.000    0.750    3.750    3.375    1.750    1.500 
#    0.000    6.250    0.000    0.000    0.000    0.000 
#    0.000    0.000    0.000    0.000    0.000    0.000 
#
# Total GULP energy -793098.678858 kJ/mol
# GULP energy per Si atom -12392.166857 kJ/mol
# Density = 2.272968 g / cm^3
# Si number density = 22.781528 Si / 1000 Ang^3
#
#
#
# Elastic Constant Matrix: (Units=GPa)
#
#
# Indices 1 2 3 4 5 6 
#
# 1 72.6540 23.4563 38.9434 0.0000 0.0000 0.0000
# 2 23.4563 104.7043 31.4120 0.0000 0.0000 0.0000
# 3 38.9434 31.4120 129.4807 0.0000 0.0000 0.0000
# 4 0.0000 0.0000 0.0000 31.4824 0.0000 0.0000
# 5 0.0000 0.0000 0.0000 0.0000 28.3961 0.0000
# 6 0.0000 0.0000 0.0000 0.0000 0.0000 28.9137
#
#
#
# Elastic Compliance Matrix: (Units=1/GPa)
#
#
# Indices 1 2 3 4 5 6 
#
# 1 0.016972 -0.002449 -0.004511 0.000000 0.000000 0.000000
# 2 -0.002449 0.010654 -0.001848 0.000000 0.000000 0.000000
# 3 -0.004511 -0.001848 0.009528 0.000000 0.000000 0.000000
# 4 0.000000 0.000000 0.000000 0.031764 0.000000 0.000000
# 5 0.000000 0.000000 0.000000 0.000000 0.035216 0.000000
# 6 0.000000 0.000000 0.000000 0.000000 0.000000 0.034586
#
#
# Mechanical properties :
#
#
# Convention : Reuss Voigt Hill
#
# Bulk Modulus (GPa) = 51.17978 54.94025 53.06001
# Shear Modulus (GPa) = 30.70354 31.96027 31.33191
#
# Velocity S-wave (km/s) = 3.67514 3.74960 3.71255
# Velocity P-wave (km/s) = 6.36578 6.55091 6.45901
#
# Compressibility (1/GPa) = 0.01953897
#
# Stress axis : x y z
#
# Youngs Moduli (GPa) = 58.91985 93.86355 104.95263
#
# Poissons Ratio (x) = 0.22987 0.47339
# Poissons Ratio (y) = 0.14429 0.19396
# Poissons Ratio (z) = 0.26576 0.17346
#
# Static dielectric constant tensor:
#      x y z
#    x 4.332450 0.000000 0.000000 
#    y 0.000000 4.243110 0.000000 
#    z 0.000000 0.000000 4.477540 
# 
# 
# High freq. dielectric constant tensor:
#      x y z
#    x 1.910730 0.000000 0.000000 
#    y 0.000000 1.886810 0.000000 
#    z 0.000000 0.000000 1.913120 
# 
# From -- ./inp_files/11859.got.cif
#   From: 2010.03.12/outbox.cif.g09.slc.cpg/sg56_6_cif.got.tgz:11859.got - 2010.04.16 15:33:40.
