data_PCOD8228953
_publ_section_title
;
Structure prediction by ZEFSAII (Michael W. Deem and Ramdas Pophale) SiO2 
 PCOD8228953
Probable space group: P C C N
;
_chemical_formula_sum "Si O2"
_cell_formula_units_Z 40
_cell_length_a 15.834771
_cell_length_b 21.884298
_cell_length_c 5.047948
_cell_angle_alpha 90.000000
_cell_angle_beta 90.000000
_cell_angle_gamma 90.000000
_cell_volume 1749.279794
_symmetry_space_group_name_H-M "P C C N"
_symmetry_group_IT_number 56
_symmetry_cell_setting 'orthorhombic'
loop_
_space_group_symop_operation_xyz
x,y,z
1/2-x,1/2-y,z
1/2+x,-y,1/2-z
-x,1/2+y,1/2-z
-x,-y,-z
1/2+x,1/2+y,-z
1/2-x,y,1/2+z
x,1/2-y,1/2+z
loop_
_atom_site_type_symbol
_atom_site_label
_atom_site_fract_x
_atom_site_fract_y
_atom_site_fract_z
Si Si1 0.137461 0.211355 0.438742
Si Si2 0.797661 0.586553 0.196769
Si Si3 0.525925 0.359254 0.556363
Si Si4 0.288861 0.681930 0.367029
Si Si5 0.481394 0.067976 0.584484
O O1 0.152068 0.232358 0.740133
O O2 0.041660 0.186401 0.425570
O O3 0.202794 0.159771 0.344390
O O4 0.772358 0.561992 0.905459
O O5 0.887951 0.565089 0.295223
O O6 0.610344 0.320141 0.608486
O O7 0.542157 0.410461 0.327550
O O8 0.490495 0.387857 0.829534
O O9 0.250000 0.750000 0.328485
O O10 0.241533 0.646681 0.604244
O O11 0.500000 0.000000 0.500000
#
# Coordination Sequence:
#
# PCOD8228953 Si02
#       5
#     8   8   8   8   8
#     4  11  23  36  61  94 128 175 207 251 324 394
#     4  11  23  42  64  94 131 164 218 271 332 399
#     4  11  23  41  65  94 135 171 235 267 324 433
#     4  10  22  37  59  92 131 181 210 262 327 384
#     4  11  24  46  70  94 126 179 226 291 342 393
#
# _framework density 22.866551999999999
#
# number of rings (size 3 to 8) (size 9 to 14) (size 15 to 20)
#    0.000    1.200    0.000    7.800    5.600    2.400 
#    0.000    6.000    0.000    0.000    0.000    0.000 
#    0.000    0.000    0.000    0.000    0.000    0.000 
#
# Total GULP energy -495618.127846 kJ/mol
# GULP energy per Si atom -12390.453196 kJ/mol
# Density = 2.281451 g / cm^3
# Si number density = 22.866552 Si / 1000 Ang^3
#
#
#
# Elastic Constant Matrix: (Units=GPa)
#
#
# Indices 1 2 3 4 5 6 
#
# 1 95.1397 16.8769 24.8889 0.0000 0.0000 0.0000
# 2 16.8769 51.9902 9.7099 0.0000 0.0000 0.0000
# 3 24.8889 9.7099 154.0483 0.0000 0.0000 0.0000
# 4 0.0000 0.0000 0.0000 22.8837 0.0000 0.0000
# 5 0.0000 0.0000 0.0000 0.0000 38.5041 0.0000
# 6 0.0000 0.0000 0.0000 0.0000 0.0000 23.1830
#
#
#
# Elastic Compliance Matrix: (Units=1/GPa)
#
#
# Indices 1 2 3 4 5 6 
#
# 1 0.011553 -0.003442 -0.001650 0.000000 0.000000 0.000000
# 2 -0.003442 0.020489 -0.000735 0.000000 0.000000 0.000000
# 3 -0.001650 -0.000735 0.006804 0.000000 0.000000 0.000000
# 4 0.000000 0.000000 0.000000 0.043699 0.000000 0.000000
# 5 0.000000 0.000000 0.000000 0.000000 0.025971 0.000000
# 6 0.000000 0.000000 0.000000 0.000000 0.000000 0.043135
#
#
# Mechanical properties :
#
#
# Convention : Reuss Voigt Hill
#
# Bulk Modulus (GPa) = 36.77524 44.90328 40.83926
# Shear Modulus (GPa) = 29.00730 33.56099 31.28415
#
# Velocity S-wave (km/s) = 3.56553 3.83520 3.70282
# Velocity P-wave (km/s) = 5.75049 6.26829 6.01496
#
# Compressibility (1/GPa) = 0.02719221
#
# Stress axis : x y z
#
# Youngs Moduli (GPa) = 86.55744 48.80640 146.96506
#
# Poissons Ratio (x) = 0.16800 0.24243
# Poissons Ratio (y) = 0.29795 0.10806
# Poissons Ratio (z) = 0.14279 0.03589
#
# Static dielectric constant tensor:
#      x y z
#    x 4.055930 0.000000 0.000000 
#    y 0.000000 3.809760 0.000000 
#    z 0.000000 0.000000 5.613590 
# 
# 
# High freq. dielectric constant tensor:
#      x y z
#    x 1.903980 0.000000 0.000000 
#    y 0.000000 1.858280 0.000000 
#    z 0.000000 0.000000 1.942210 
# 
# From -- ./inp_files/468.got.cif
#   From: 2010.03.12/outbox.cif.g09.slc.cpg/sg56_1_cif.got.tgz:468.got - 2010.04.16 15:33:40.
