data_PCOD8228259
_publ_section_title
;
Structure prediction by ZEFSAII (Michael W. Deem and Ramdas Pophale) SiO2 
 PCOD8228259
Probable space group: P C C N
;
_chemical_formula_sum "Si O2"
_cell_formula_units_Z 56
_cell_length_a 13.003692
_cell_length_b 15.180867
_cell_length_c 12.529062
_cell_angle_alpha 90.000000
_cell_angle_beta 90.000000
_cell_angle_gamma 90.000000
_cell_volume 2473.328536
_symmetry_space_group_name_H-M "P C C N"
_symmetry_group_IT_number 56
_symmetry_cell_setting 'orthorhombic'
loop_
_space_group_symop_operation_xyz
x,y,z
1/2-x,1/2-y,z
1/2+x,-y,1/2-z
-x,1/2+y,1/2-z
-x,-y,-z
1/2+x,1/2+y,-z
1/2-x,y,1/2+z
x,1/2-y,1/2+z
loop_
_atom_site_type_symbol
_atom_site_label
_atom_site_fract_x
_atom_site_fract_y
_atom_site_fract_z
Si Si1 0.068822 0.844500 0.353143
Si Si2 0.750000 0.250000 0.236450
Si Si3 0.946504 0.661051 0.057452
Si Si4 0.250000 0.250000 0.990401
Si Si5 0.379713 0.897990 0.191885
Si Si6 0.505281 0.971066 0.665514
Si Si7 0.337764 0.989923 0.982831
Si Si8 0.637729 0.921768 0.474563
O O1 0.140153 0.761205 0.323149
O O2 0.151676 0.902988 0.414529
O O3 0.982946 0.810658 0.437557
O O4 0.020226 0.897581 0.254065
O O5 0.773981 0.158803 0.298259
O O6 0.924835 0.557072 0.056752
O O7 0.032653 0.671704 0.148931
O O8 0.841094 0.712239 0.084944
O O9 0.193751 0.171560 0.058307
O O10 0.415804 0.952832 0.295384
O O11 0.355981 0.973429 0.107123
O O12 0.548025 0.914774 0.564283
O O13 0.404096 0.026947 0.629601
O O14 0.223244 0.022426 0.964160
#
# Coordination Sequence:
#
# PCOD8228259 Si02
#       8
#     8   4   8   4   8   8   8   8
#     4  11  22  42  66  92 128 170 211 266 318 390
#     4  12  28  34  60 106 132 156 216 262 336 362
#     4  10  21  42  67  91 127 173 213 264 319 385
#     4  10  24  44  60  98 134 170 210 266 334 384
#     4  11  22  42  66  92 128 170 211 266 318 390
#     4  11  22  43  68  92 126 173 220 263 310 390
#     4  10  19  44  66  92 118 177 216 254 311 395
#     4  10  24  39  66  94 130 165 217 267 317 377
#
# _framework density 22.641552999999998
#
# number of rings (size 3 to 8) (size 9 to 14) (size 15 to 20)
#    0.000    1.429    2.857    2.571    4.000    2.286 
#    0.000    1.429    0.000    0.000    0.000    0.000 
#    0.000    0.000    0.000    0.000    0.000    0.000 
#
# Total GULP energy -693805.697543 kJ/mol
# GULP energy per Si atom -12389.387456 kJ/mol
# Density = 2.259002 g / cm^3
# Si number density = 22.641553 Si / 1000 Ang^3
#
#
#
# Elastic Constant Matrix: (Units=GPa)
#
#
# Indices 1 2 3 4 5 6 
#
# 1 94.5338 31.6563 15.9725 0.0000 0.0000 0.0000
# 2 31.6563 68.0783 7.7091 0.0000 0.0000 0.0000
# 3 15.9725 7.7091 70.4574 0.0000 0.0000 0.0000
# 4 0.0000 0.0000 0.0000 13.9357 0.0000 0.0000
# 5 0.0000 0.0000 0.0000 0.0000 17.1731 0.0000
# 6 0.0000 0.0000 0.0000 0.0000 0.0000 39.0723
#
#
#
# Elastic Compliance Matrix: (Units=1/GPa)
#
#
# Indices 1 2 3 4 5 6 
#
# 1 0.012885 -0.005732 -0.002294 0.000000 0.000000 0.000000
# 2 -0.005732 0.017423 -0.000607 0.000000 0.000000 0.000000
# 3 -0.002294 -0.000607 0.014779 0.000000 0.000000 0.000000
# 4 0.000000 0.000000 0.000000 0.071758 0.000000 0.000000
# 5 0.000000 0.000000 0.000000 0.000000 0.058231 0.000000
# 6 0.000000 0.000000 0.000000 0.000000 0.000000 0.025594
#
#
# Mechanical properties :
#
#
# Convention : Reuss Voigt Hill
#
# Bulk Modulus (GPa) = 35.94245 38.19392 37.06819
# Shear Modulus (GPa) = 22.00616 25.88501 23.94558
#
# Velocity S-wave (km/s) = 3.12097 3.38487 3.25560
# Velocity P-wave (km/s) = 5.37553 5.67292 5.52623
#
# Compressibility (1/GPa) = 0.02782225
#
# Stress axis : x y z
#
# Youngs Moduli (GPa) = 77.60836 57.39543 67.66174
#
# Poissons Ratio (x) = 0.32898 0.15521
# Poissons Ratio (y) = 0.44484 0.04107
# Poissons Ratio (z) = 0.17803 0.03484
#
# Static dielectric constant tensor:
#      x y z
#    x 4.260030 0.000000 0.000000 
#    y 0.000000 4.062930 0.000000 
#    z 0.000000 0.000000 3.851060 
# 
# 
# High freq. dielectric constant tensor:
#      x y z
#    x 1.909670 0.000000 0.000000 
#    y 0.000000 1.892190 0.000000 
#    z 0.000000 0.000000 1.863790 
# 
# From -- ./inp_files/7934.got.cif
#   From: 2010.03.12/outbox.cif.g09.slc.cpg/sg56_4_cif.got.tgz:7934.got - 2010.04.16 15:33:40.
