data_PCOD8228818
_publ_section_title
;
Structure prediction by ZEFSAII (Michael W. Deem and Ramdas Pophale) SiO2 
 PCOD8228818
Probable space group: P C C N
;
_chemical_formula_sum "Si O2"
_cell_formula_units_Z 60
_cell_length_a 8.406394
_cell_length_b 12.061295
_cell_length_c 26.839542
_cell_angle_alpha 90.000000
_cell_angle_beta 90.000000
_cell_angle_gamma 90.000000
_cell_volume 2721.314787
_symmetry_space_group_name_H-M "P C C N"
_symmetry_group_IT_number 56
_symmetry_cell_setting 'orthorhombic'
loop_
_space_group_symop_operation_xyz
x,y,z
1/2-x,1/2-y,z
1/2+x,-y,1/2-z
-x,1/2+y,1/2-z
-x,-y,-z
1/2+x,1/2+y,-z
1/2-x,y,1/2+z
x,1/2-y,1/2+z
loop_
_atom_site_type_symbol
_atom_site_label
_atom_site_fract_x
_atom_site_fract_y
_atom_site_fract_z
Si Si1 0.914598 0.820948 0.373890
Si Si2 0.824426 0.022235 0.197168
Si Si3 0.473135 0.982916 0.195092
Si Si4 0.442338 0.676265 0.608333
Si Si5 0.977837 0.427339 0.393023
Si Si6 0.807733 0.508611 0.947276
Si Si7 0.750000 0.250000 0.150435
Si Si8 0.231737 0.368248 0.955440
O O1 0.750000 0.750000 0.372599
O O2 0.923047 0.904229 0.420447
O O3 0.082007 0.753513 0.380432
O O4 0.926530 0.893919 0.323500
O O5 0.767073 0.144485 0.184945
O O6 0.903511 0.027796 0.250501
O O7 0.660888 0.952795 0.197357
O O8 0.952059 0.972250 0.158623
O O9 0.395561 0.891433 0.158171
O O10 0.395878 0.805463 0.616003
O O11 0.358212 0.619806 0.559993
O O12 0.626643 0.655754 0.593819
O O13 0.104334 0.413842 0.435916
O O14 0.860392 0.517882 0.417699
O O15 0.819698 0.537286 0.005593
O O16 0.250000 0.250000 0.984288
#
# Coordination Sequence:
#
# PCOD8228818 Si02
#       8
#     8   8   8   8   8   8   4   8
#     4  10  22  42  64  94 131 171 218 277 332 395
#     4  11  24  42  64  95 127 169 219 272 332 398
#     4  10  24  41  64  96 129 170 219 271 332 395
#     4  10  22  42  63  94 133 174 215 271 330 396
#     4  11  23  41  67  96 134 174 218 274 333 399
#     4  11  22  39  66  96 131 169 221 274 326 393
#     4  10  24  44  64  92 132 172 220 274 336 398
#     4  10  21  40  66  93 129 174 220 266 331 400
#
# _framework density 22.048165999999998
#
# number of rings (size 3 to 8) (size 9 to 14) (size 15 to 20)
#    0.000    1.600    1.333    2.400    5.600    2.133 
#    0.000    0.000    0.000    0.000    0.000    0.000 
#    0.000    0.000    0.000    0.000    0.000    0.000 
#
# Total GULP energy -743396.350962 kJ/mol
# GULP energy per Si atom -12389.939183 kJ/mol
# Density = 2.199798 g / cm^3
# Si number density = 22.048166 Si / 1000 Ang^3
#
#
#
# Elastic Constant Matrix: (Units=GPa)
#
#
# Indices 1 2 3 4 5 6 
#
# 1 70.3254 17.9103 6.2748 0.0000 0.0000 0.0000
# 2 17.9103 88.9950 40.4987 0.0000 0.0000 0.0000
# 3 6.2748 40.4987 101.9149 0.0000 0.0000 0.0000
# 4 0.0000 0.0000 0.0000 20.1291 0.0000 0.0000
# 5 0.0000 0.0000 0.0000 0.0000 18.0929 0.0000
# 6 0.0000 0.0000 0.0000 0.0000 0.0000 43.0482
#
#
#
# Elastic Compliance Matrix: (Units=1/GPa)
#
#
# Indices 1 2 3 4 5 6 
#
# 1 0.014997 -0.003172 0.000337 0.000000 0.000000 0.000000
# 2 -0.003172 0.014388 -0.005522 0.000000 0.000000 0.000000
# 3 0.000337 -0.005522 0.011986 0.000000 0.000000 0.000000
# 4 0.000000 0.000000 0.000000 0.049679 0.000000 0.000000
# 5 0.000000 0.000000 0.000000 0.000000 0.055270 0.000000
# 6 0.000000 0.000000 0.000000 0.000000 0.000000 0.023230
#
#
# Mechanical properties :
#
#
# Convention : Reuss Voigt Hill
#
# Bulk Modulus (GPa) = 40.55585 43.40030 41.97807
# Shear Modulus (GPa) = 25.70922 29.35747 27.53335
#
# Velocity S-wave (km/s) = 3.41845 3.65295 3.53764
# Velocity P-wave (km/s) = 5.83225 6.12529 5.98057
#
# Compressibility (1/GPa) = 0.02465736
#
# Stress axis : x y z
#
# Youngs Moduli (GPa) = 66.67874 69.50336 83.43254
#
# Poissons Ratio (x) = 0.22043 -0.02811
# Poissons Ratio (y) = 0.21147 0.46072
# Poissons Ratio (z) = -0.02247 0.38381
#
# Static dielectric constant tensor:
#      x y z
#    x 4.520550 0.000000 0.000000 
#    y 0.000000 4.160680 0.000000 
#    z 0.000000 0.000000 3.670430 
# 
# 
# High freq. dielectric constant tensor:
#      x y z
#    x 1.890430 0.000000 0.000000 
#    y 0.000000 1.868450 0.000000 
#    z 0.000000 0.000000 1.848670 
# 
# From -- ./inp_files/22104.got.cif
#   From: 2010.03.12/outbox.cif.g09.slc.cpg/sg56_12_cif.got.tgz:22104.got - 2010.04.16 15:33:40.
