data_PCOD8228169
_publ_section_title
;
Structure prediction by ZEFSAII (Michael W. Deem and Ramdas Pophale) SiO2 
 PCOD8228169
Probable space group: P C C N
;
_chemical_formula_sum "Si O2"
_cell_formula_units_Z 48
_cell_length_a 27.044558
_cell_length_b 4.970961
_cell_length_c 17.519450
_cell_angle_alpha 90.000000
_cell_angle_beta 90.000000
_cell_angle_gamma 90.000000
_cell_volume 2355.270062
_symmetry_space_group_name_H-M "P C C N"
_symmetry_group_IT_number 56
_symmetry_cell_setting 'orthorhombic'
loop_
_space_group_symop_operation_xyz
x,y,z
1/2-x,1/2-y,z
1/2+x,-y,1/2-z
-x,1/2+y,1/2-z
-x,-y,-z
1/2+x,1/2+y,-z
1/2-x,y,1/2+z
x,1/2-y,1/2+z
loop_
_atom_site_type_symbol
_atom_site_label
_atom_site_fract_x
_atom_site_fract_y
_atom_site_fract_z
Si Si1 0.695238 0.710835 0.279360
Si Si2 0.594349 0.804477 0.216465
Si Si3 0.597714 0.198263 0.962895
Si Si4 0.304564 0.711548 0.118383
Si Si5 0.439038 0.803568 0.371863
Si Si6 0.054228 0.300320 0.615512
O O1 0.750000 0.750000 0.243216
O O2 0.653812 0.767157 0.215334
O O3 0.688511 0.407938 0.309199
O O4 0.687893 0.909065 0.351475
O O5 0.568823 0.607416 0.155950
O O6 0.574087 0.740553 0.300323
O O7 0.580783 0.107389 0.194080
O O8 0.655911 0.229355 0.947060
O O9 0.565873 0.396542 0.909645
O O10 0.580350 0.897243 0.944477
O O11 0.591425 0.256482 0.051565
O O12 0.250000 0.750000 0.082475
O O13 0.496139 0.750252 0.387901
#
# Coordination Sequence:
#
# PCOD8228169 Si02
#       6
#     8   8   8   8   8   8
#     4  10  20  37  63  88 112 152 203 247 290 353
#     4  12  22  41  60  89 122 156 201 247 302 349
#     4  12  22  41  61  89 119 159 203 248 299 351
#     4  10  19  36  61  88 110 148 202 250 289 347
#     4  12  26  38  59  92 129 158 192 254 304 352
#     4  12  23  41  64  84 120 167 213 234 286 362
#
# _framework density 20.379826999999999
#
# number of rings (size 3 to 8) (size 9 to 14) (size 15 to 20)
#    0.000    0.667    3.333    6.000    0.000    0.000 
#    0.000    1.667    0.000    0.000    0.000    0.000 
#    0.000    0.000    0.000    0.000    0.000    0.000 
#
# Total GULP energy -595586.977158 kJ/mol
# GULP energy per Si atom -12408.062024 kJ/mol
# Density = 2.033344 g / cm^3
# Si number density = 20.379827 Si / 1000 Ang^3
#
#
#
# Elastic Constant Matrix: (Units=GPa)
#
#
# Indices 1 2 3 4 5 6 
#
# 1 140.4968 17.5211 17.1278 0.0000 0.0000 0.0000
# 2 17.5211 72.7703 10.0395 0.0000 0.0000 0.0000
# 3 17.1278 10.0395 70.9042 0.0000 0.0000 0.0000
# 4 0.0000 0.0000 0.0000 26.0036 0.0000 0.0000
# 5 0.0000 0.0000 0.0000 0.0000 8.3393 0.0000
# 6 0.0000 0.0000 0.0000 0.0000 0.0000 29.0685
#
#
#
# Elastic Compliance Matrix: (Units=1/GPa)
#
#
# Indices 1 2 3 4 5 6 
#
# 1 0.007509 -0.001589 -0.001589 0.000000 0.000000 0.000000
# 2 -0.001589 0.014352 -0.001648 0.000000 0.000000 0.000000
# 3 -0.001589 -0.001648 0.014721 0.000000 0.000000 0.000000
# 4 0.000000 0.000000 0.000000 0.038456 0.000000 0.000000
# 5 0.000000 0.000000 0.000000 0.000000 0.119914 0.000000
# 6 0.000000 0.000000 0.000000 0.000000 0.000000 0.034402
#
#
# Mechanical properties :
#
#
# Convention : Reuss Voigt Hill
#
# Bulk Modulus (GPa) = 37.13374 41.50534 39.31954
# Shear Modulus (GPa) = 20.16267 28.64780 24.40524
#
# Velocity S-wave (km/s) = 3.14880 3.75333 3.46427
# Velocity P-wave (km/s) = 5.61073 6.26046 5.94448
#
# Compressibility (1/GPa) = 0.02692969
#
# Stress axis : x y z
#
# Youngs Moduli (GPa) = 133.16541 69.67758 67.93126
#
# Poissons Ratio (x) = 0.11071 0.10794
# Poissons Ratio (y) = 0.21158 0.11197
# Poissons Ratio (z) = 0.21160 0.11485
#
# Static dielectric constant tensor:
#      x y z
#    x 4.023540 0.000000 0.000000 
#    y 0.000000 3.854240 0.000000 
#    z 0.000000 0.000000 3.326150 
# 
# 
# High freq. dielectric constant tensor:
#      x y z
#    x 1.814940 0.000000 0.000000 
#    y 0.000000 1.817240 0.000000 
#    z 0.000000 0.000000 1.762970 
# 
# From -- ./inp_files/9707.got.cif
#   From: 2010.03.12/outbox.cif.g09.slc.cpg/sg56_5_cif.got.tgz:9707.got - 2010.04.16 15:33:40.
