data_PCOD8228316
_publ_section_title
;
Structure prediction by ZEFSAII (Michael W. Deem and Ramdas Pophale) SiO2 
 PCOD8228316
Probable space group: P C C N
;
_chemical_formula_sum "Si O2"
_cell_formula_units_Z 56
_cell_length_a 20.876824
_cell_length_b 15.076970
_cell_length_c 9.114469
_cell_angle_alpha 90.000000
_cell_angle_beta 90.000000
_cell_angle_gamma 90.000000
_cell_volume 2868.863419
_symmetry_space_group_name_H-M "P C C N"
_symmetry_group_IT_number 56
_symmetry_cell_setting 'orthorhombic'
loop_
_space_group_symop_operation_xyz
x,y,z
1/2-x,1/2-y,z
1/2+x,-y,1/2-z
-x,1/2+y,1/2-z
-x,-y,-z
1/2+x,1/2+y,-z
1/2-x,y,1/2+z
x,1/2-y,1/2+z
loop_
_atom_site_type_symbol
_atom_site_label
_atom_site_fract_x
_atom_site_fract_y
_atom_site_fract_z
Si Si1 0.760188 0.532532 0.095117
Si Si2 0.119034 0.197328 0.671799
Si Si3 0.965091 0.578244 0.417923
Si Si4 0.323692 0.378147 0.132466
Si Si5 0.531138 0.753583 0.068007
Si Si6 0.663424 0.499887 0.322749
Si Si7 0.025691 0.930009 0.618219
O O1 0.806740 0.570430 0.219164
O O2 0.707098 0.472048 0.181693
O O3 0.728550 0.610119 0.995783
O O4 0.802025 0.475777 0.977833
O O5 0.171198 0.275526 0.677922
O O6 0.090344 0.195416 0.508499
O O7 0.058344 0.217083 0.777889
O O8 0.154326 0.105485 0.701827
O O9 0.888742 0.582758 0.440431
O O10 0.995537 0.670625 0.474750
O O11 0.000000 0.500000 0.500000
O O12 0.974417 0.563831 0.246847
O O13 0.474105 0.826361 0.071849
O O14 0.595882 0.451057 0.320576
O O15 0.000000 0.000000 0.500000
#
# Coordination Sequence:
#
# PCOD8228316 Si02
#       7
#     8   8   8   8   8   8   8
#     4  10  22  36  51  82 118 160 208 238 282 367
#     4  11  20  35  56  83 126 156 195 252 289 369
#     4  11  23  38  61  90 120 154 198 256 319 367
#     4  10  20  35  52  79 117 160 192 240 293 349
#     4  11  21  37  55  89 126 152 192 251 307 364
#     4  11  22  36  58  83 118 160 201 244 301 355
#     4  12  22  38  62  88 117 162 200 248 309 366
#
# _framework density 19.519926000000002
#
# number of rings (size 3 to 8) (size 9 to 14) (size 15 to 20)
#    0.000    1.143    4.286    5.143    0.000    3.429 
#    0.000    0.000    0.000    0.000    0.000   17.000 
#    0.000    0.000    0.000    0.000    0.000    0.000 
#
# Total GULP energy -694031.374995 kJ/mol
# GULP energy per Si atom -12393.417411 kJ/mol
# Density = 1.947550 g / cm^3
# Si number density = 19.519926 Si / 1000 Ang^3
#
#
#
# Elastic Constant Matrix: (Units=GPa)
#
#
# Indices 1 2 3 4 5 6 
#
# 1 71.5108 27.5915 10.5476 0.0000 0.0000 0.0000
# 2 27.5915 69.1441 27.5605 0.0000 0.0000 0.0000
# 3 10.5476 27.5605 87.5046 0.0000 0.0000 0.0000
# 4 0.0000 0.0000 0.0000 23.0659 0.0000 0.0000
# 5 0.0000 0.0000 0.0000 0.0000 40.4793 0.0000
# 6 0.0000 0.0000 0.0000 0.0000 0.0000 29.2165
#
#
#
# Elastic Compliance Matrix: (Units=1/GPa)
#
#
# Indices 1 2 3 4 5 6 
#
# 1 0.016529 -0.006635 0.000097 0.000000 0.000000 0.000000
# 2 -0.006635 0.019202 -0.005248 0.000000 0.000000 0.000000
# 3 0.000097 -0.005248 0.013069 0.000000 0.000000 0.000000
# 4 0.000000 0.000000 0.000000 0.043354 0.000000 0.000000
# 5 0.000000 0.000000 0.000000 0.000000 0.024704 0.000000
# 6 0.000000 0.000000 0.000000 0.000000 0.000000 0.034227
#
#
# Mechanical properties :
#
#
# Convention : Reuss Voigt Hill
#
# Bulk Modulus (GPa) = 39.63626 39.95097 39.79361
# Shear Modulus (GPa) = 27.31242 29.38302 28.34772
#
# Velocity S-wave (km/s) = 3.74466 3.88401 3.81497
# Velocity P-wave (km/s) = 6.24870 6.37379 6.31155
#
# Compressibility (1/GPa) = 0.02522942
#
# Stress axis : x y z
#
# Youngs Moduli (GPa) = 60.49791 52.07790 76.51571
#
# Poissons Ratio (x) = 0.34552 -0.00744
# Poissons Ratio (y) = 0.40139 0.40157
# Poissons Ratio (z) = -0.00588 0.27331
#
# Static dielectric constant tensor:
#      x y z
#    x 3.578660 0.000000 0.000000 
#    y 0.000000 2.962530 0.000000 
#    z 0.000000 0.000000 3.939990 
# 
# 
# High freq. dielectric constant tensor:
#      x y z
#    x 1.752630 0.000000 0.000000 
#    y 0.000000 1.716140 0.000000 
#    z 0.000000 0.000000 1.789610 
# 
# From -- ./inp_files/4494.got.cif
#   From: 2010.03.12/outbox.cif.g09.slc.cpg/sg56_3_cif.got.tgz:4494.got - 2010.04.16 15:33:40.
