data_PCOD8228024
_publ_section_title
;
Structure prediction by ZEFSAII (Michael W. Deem and Ramdas Pophale) SiO2 
 PCOD8228024
Probable space group: P C C N
;
_chemical_formula_sum "Si O2"
_cell_formula_units_Z 64
_cell_length_a 28.578049
_cell_length_b 11.737322
_cell_length_c 9.045985
_cell_angle_alpha 90.000000
_cell_angle_beta 90.000000
_cell_angle_gamma 90.000000
_cell_volume 3034.292607
_symmetry_space_group_name_H-M "P C C N"
_symmetry_group_IT_number 56
_symmetry_cell_setting 'orthorhombic'
loop_
_space_group_symop_operation_xyz
x,y,z
1/2-x,1/2-y,z
1/2+x,-y,1/2-z
-x,1/2+y,1/2-z
-x,-y,-z
1/2+x,1/2+y,-z
1/2-x,y,1/2+z
x,1/2-y,1/2+z
loop_
_atom_site_type_symbol
_atom_site_label
_atom_site_fract_x
_atom_site_fract_y
_atom_site_fract_z
Si Si1 0.471792 0.256729 0.544843
Si Si2 0.219130 0.862391 0.820997
Si Si3 0.436506 0.097520 0.296299
Si Si4 0.327089 0.101859 0.014799
Si Si5 0.874333 0.422383 0.812861
Si Si6 0.974486 0.373075 0.788395
Si Si7 0.232483 0.492439 0.582597
Si Si8 0.303103 0.214787 0.734838
O O1 0.445058 0.159060 0.451987
O O2 0.434640 0.317195 0.654285
O O3 0.512371 0.203512 0.646964
O O4 0.493042 0.347039 0.429018
O O5 0.250000 0.750000 0.829966
O O6 0.168588 0.844230 0.743372
O O7 0.248053 0.956955 0.734415
O O8 0.208379 0.908374 0.985707
O O9 0.388567 0.023263 0.304728
O O10 0.478600 0.006501 0.258546
O O11 0.274740 0.057492 0.986005
O O12 0.329044 0.178409 0.162274
O O13 0.360479 0.991337 0.036283
O O14 0.337104 0.178735 0.870765
O O15 0.920351 0.344305 0.836777
O O16 0.197008 0.390520 0.619526
O O17 0.250000 0.250000 0.781847
#
# Coordination Sequence:
#
# PCOD8228024 Si02
#       8
#     8   8   8   8   8   8   8   8
#     4  10  18  37  71  90 121 173 198 233 335 385
#     4  11  22  41  59  79 113 167 209 254 305 353
#     4   9  20  37  62  96 126 156 205 253 300 389
#     4  10  20  34  55  81 116 148 187 244 312 350
#     4   9  23  39  57  87 131 147 206 270 291 351
#     4   9  20  39  60  93 126 161 204 257 302 383
#     4  10  20  37  58  80 104 148 207 247 298 366
#     4  10  19  32  58  82 103 147 193 247 303 377
#
# _framework density 21.092231000000002
#
# number of rings (size 3 to 8) (size 9 to 14) (size 15 to 20)
#    0.750    1.500    1.250    2.250    3.500    1.000 
#    6.750    0.000    2.750    0.000    0.000    0.000 
#    0.000    0.000    0.000    0.000    0.000    0.000 
#
# Total GULP energy -792864.996916 kJ/mol
# GULP energy per Si atom -12388.515577 kJ/mol
# Density = 2.104422 g / cm^3
# Si number density = 21.092231 Si / 1000 Ang^3
#
#
#
# Elastic Constant Matrix: (Units=GPa)
#
#
# Indices 1 2 3 4 5 6 
#
# 1 49.8937 14.7824 12.4478 0.0000 0.0000 0.0000
# 2 14.7824 73.4913 18.3019 0.0000 0.0000 0.0000
# 3 12.4478 18.3019 86.6802 0.0000 0.0000 0.0000
# 4 0.0000 0.0000 0.0000 29.5639 0.0000 0.0000
# 5 0.0000 0.0000 0.0000 0.0000 8.4176 0.0000
# 6 0.0000 0.0000 0.0000 0.0000 0.0000 33.9106
#
#
#
# Elastic Compliance Matrix: (Units=1/GPa)
#
#
# Indices 1 2 3 4 5 6 
#
# 1 0.021746 -0.003796 -0.002321 0.000000 0.000000 0.000000
# 2 -0.003796 0.015025 -0.002627 0.000000 0.000000 0.000000
# 3 -0.002321 -0.002627 0.012425 0.000000 0.000000 0.000000
# 4 0.000000 0.000000 0.000000 0.033825 0.000000 0.000000
# 5 0.000000 0.000000 0.000000 0.000000 0.118799 0.000000
# 6 0.000000 0.000000 0.000000 0.000000 0.000000 0.029489
#
#
# Mechanical properties :
#
#
# Convention : Reuss Voigt Hill
#
# Bulk Modulus (GPa) = 31.53915 33.45882 32.49898
# Shear Modulus (GPa) = 19.27765 25.34729 22.31247
#
# Velocity S-wave (km/s) = 3.02647 3.47037 3.25599
# Velocity P-wave (km/s) = 5.21518 5.65292 5.43846
#
# Compressibility (1/GPa) = 0.03170662
#
# Stress axis : x y z
#
# Youngs Moduli (GPa) = 45.98452 66.55621 80.48445
#
# Poissons Ratio (x) = 0.25265 0.18684
# Poissons Ratio (y) = 0.17456 0.21145
# Poissons Ratio (z) = 0.10675 0.17486
#
# Static dielectric constant tensor:
#      x y z
#    x 3.496140 0.000000 0.000000 
#    y 0.000000 3.842060 0.000000 
#    z 0.000000 0.000000 3.627430 
# 
# 
# High freq. dielectric constant tensor:
#      x y z
#    x 1.795180 0.000000 0.000000 
#    y 0.000000 1.824480 0.000000 
#    z 0.000000 0.000000 1.821320 
# 
# From -- ./inp_files/5214.got.cif
#   From: 2010.03.12/outbox.cif.g09.slc.cpg/sg56_3_cif.got.tgz:5214.got - 2010.04.16 15:33:40.
