data_PCOD8228345
_publ_section_title
;
Structure prediction by ZEFSAII (Michael W. Deem and Ramdas Pophale) SiO2 
 PCOD8228345
Probable space group: P C C N
;
_chemical_formula_sum "Si O2"
_cell_formula_units_Z 48
_cell_length_a 12.141454
_cell_length_b 14.060463
_cell_length_c 14.569490
_cell_angle_alpha 90.000000
_cell_angle_beta 90.000000
_cell_angle_gamma 90.000000
_cell_volume 2487.222687
_symmetry_space_group_name_H-M "P C C N"
_symmetry_group_IT_number 56
_symmetry_cell_setting 'orthorhombic'
loop_
_space_group_symop_operation_xyz
x,y,z
1/2-x,1/2-y,z
1/2+x,-y,1/2-z
-x,1/2+y,1/2-z
-x,-y,-z
1/2+x,1/2+y,-z
1/2-x,y,1/2+z
x,1/2-y,1/2+z
loop_
_atom_site_type_symbol
_atom_site_label
_atom_site_fract_x
_atom_site_fract_y
_atom_site_fract_z
Si Si1 0.283205 0.642642 0.658009
Si Si2 0.356571 0.187904 0.223999
Si Si3 0.826104 0.055799 0.521613
Si Si4 0.962983 0.839730 0.666823
Si Si5 0.441689 0.128099 0.038327
Si Si6 0.227416 0.017689 0.291240
O O1 0.250000 0.750000 0.681004
O O2 0.257192 0.620284 0.550324
O O3 0.412352 0.625521 0.676594
O O4 0.214422 0.571166 0.722401
O O5 0.250000 0.250000 0.240146
O O6 0.452024 0.237975 0.283374
O O7 0.390119 0.192942 0.117508
O O8 0.331869 0.081836 0.260896
O O9 0.930595 0.111461 0.564126
O O10 0.873632 0.969413 0.461339
O O11 0.749495 0.021919 0.605806
O O12 0.930685 0.821781 0.560525
O O13 0.886081 0.922057 0.710493
#
# Coordination Sequence:
#
# PCOD8228345 Si02
#       6
#     8   8   8   8   8   8
#     4  11  23  38  59  86 118 155 199 242 294 349
#     4  10  20  35  59  91 116 149 195 244 290 345
#     4   9  19  36  56  81 110 155 197 230 287 349
#     4   9  22  39  56  92 118 149 199 239 293 354
#     4   9  17  35  61  76 114 158 187 232 290 352
#     4  10  21  37  62  85 112 157 196 239 288 350
#
# _framework density 19.298632999999999
#
# number of rings (size 3 to 8) (size 9 to 14) (size 15 to 20)
#    0.000    2.333    1.667    1.000    2.333    4.000 
#    3.000    0.000    0.000    2.000    0.000    0.000 
#    0.000    0.000    0.000    0.000    0.000    0.000 
#
# Total GULP energy -595114.332769 kJ/mol
# GULP energy per Si atom -12398.215266 kJ/mol
# Density = 1.925471 g / cm^3
# Si number density = 19.298633 Si / 1000 Ang^3
#
#
#
# Elastic Constant Matrix: (Units=GPa)
#
#
# Indices 1 2 3 4 5 6 
#
# 1 42.8199 21.1211 39.0659 0.0000 0.0000 0.0000
# 2 21.1211 104.3402 57.9341 0.0000 0.0000 0.0000
# 3 39.0659 57.9341 124.4539 0.0000 0.0000 0.0000
# 4 0.0000 0.0000 0.0000 36.8008 0.0000 0.0000
# 5 0.0000 0.0000 0.0000 0.0000 21.2345 0.0000
# 6 0.0000 0.0000 0.0000 0.0000 0.0000 19.2303
#
#
#
# Elastic Compliance Matrix: (Units=1/GPa)
#
#
# Indices 1 2 3 4 5 6 
#
# 1 0.032845 -0.001246 -0.009730 0.000000 0.000000 0.000000
# 2 -0.001246 0.012972 -0.005647 0.000000 0.000000 0.000000
# 3 -0.009730 -0.005647 0.013718 0.000000 0.000000 0.000000
# 4 0.000000 0.000000 0.000000 0.027173 0.000000 0.000000
# 5 0.000000 0.000000 0.000000 0.000000 0.047093 0.000000
# 6 0.000000 0.000000 0.000000 0.000000 0.000000 0.052001
#
#
# Mechanical properties :
#
#
# Convention : Reuss Voigt Hill
#
# Bulk Modulus (GPa) = 38.03964 56.42847 47.23406
# Shear Modulus (GPa) = 21.94784 25.68599 23.81692
#
# Velocity S-wave (km/s) = 3.37601 3.65221 3.51682
# Velocity P-wave (km/s) = 5.91189 6.86207 6.40462
#
# Compressibility (1/GPa) = 0.02628836
#
# Stress axis : x y z
#
# Youngs Moduli (GPa) = 30.44580 77.08939 72.89586
#
# Poissons Ratio (x) = 0.09607 0.70927
# Poissons Ratio (y) = 0.03794 0.41167
# Poissons Ratio (z) = 0.29624 0.43535
#
# Static dielectric constant tensor:
#      x y z
#    x 3.312520 0.000000 0.000000 
#    y 0.000000 3.587560 0.000000 
#    z 0.000000 0.000000 3.524610 
# 
# 
# High freq. dielectric constant tensor:
#      x y z
#    x 1.723770 0.000000 0.000000 
#    y 0.000000 1.746410 0.000000 
#    z 0.000000 0.000000 1.756660 
# 
# From -- ./inp_files/11627.got.cif
#   From: 2010.03.12/outbox.cif.g09.slc.cpg/sg56_6_cif.got.tgz:11627.got - 2010.04.16 15:33:40.
