data_PCOD8228558
_publ_section_title
;
Structure prediction by ZEFSAII (Michael W. Deem and Ramdas Pophale) SiO2 
 PCOD8228558
Probable space group: P C C N
;
_chemical_formula_sum "Si O2"
_cell_formula_units_Z 44
_cell_length_a 11.000597
_cell_length_b 13.359196
_cell_length_c 13.867849
_cell_angle_alpha 90.000000
_cell_angle_beta 90.000000
_cell_angle_gamma 90.000000
_cell_volume 2038.007044
_symmetry_space_group_name_H-M "P C C N"
_symmetry_group_IT_number 56
_symmetry_cell_setting 'orthorhombic'
loop_
_space_group_symop_operation_xyz
x,y,z
1/2-x,1/2-y,z
1/2+x,-y,1/2-z
-x,1/2+y,1/2-z
-x,-y,-z
1/2+x,1/2+y,-z
1/2-x,y,1/2+z
x,1/2-y,1/2+z
loop_
_atom_site_type_symbol
_atom_site_label
_atom_site_fract_x
_atom_site_fract_y
_atom_site_fract_z
Si Si1 0.667576 0.154276 0.033114
Si Si2 0.914502 0.664427 0.641389
Si Si3 0.549885 0.779208 0.438049
Si Si4 0.366903 0.690019 0.684342
Si Si5 0.122174 0.938753 0.869649
Si Si6 0.250000 0.250000 0.712656
O O1 0.750000 0.250000 0.054098
O O2 0.531214 0.177073 0.074390
O O3 0.737213 0.063196 0.088654
O O4 0.655112 0.135813 0.918410
O O5 0.879989 0.717893 0.540148
O O6 0.938687 0.547436 0.626886
O O7 0.802938 0.665324 0.716820
O O8 0.027372 0.726701 0.683942
O O9 0.457959 0.872414 0.442100
O O10 0.644527 0.795764 0.352721
O O11 0.250000 0.750000 0.719870
O O12 0.391762 0.603371 0.761367
#
# Coordination Sequence:
#
# PCOD8228558 Si02
#       6
#     8   8   8   8   8   4
#     4   8  18  36  63  95 118 163 209 267 317 371
#     4  11  25  40  64  96 128 168 209 268 321 388
#     4  10  21  42  62  87 129 167 213 259 321 383
#     4  10  20  40  65  93 129 162 215 268 317 377
#     4  11  21  39  68  96 123 165 215 262 325 387
#     4  12  24  42  60  86 130 178 200 262 340 372
#
# _framework density 21.58972
#
# number of rings (size 3 to 8) (size 9 to 14) (size 15 to 20)
#    0.000    1.818    1.818    3.818    0.000    2.909 
#    0.000    0.000    0.000    5.455    0.000    0.000 
#    0.000    0.000    0.000    0.000    0.000    0.000 
#
# Total GULP energy -545272.683645 kJ/mol
# GULP energy per Si atom -12392.560992 kJ/mol
# Density = 2.154058 g / cm^3
# Si number density = 21.589720 Si / 1000 Ang^3
#
#
#
# Elastic Constant Matrix: (Units=GPa)
#
#
# Indices 1 2 3 4 5 6 
#
# 1 106.7978 35.1262 64.8849 0.0000 0.0000 0.0000
# 2 35.1262 74.8922 32.9111 0.0000 0.0000 0.0000
# 3 64.8849 32.9111 124.1987 0.0000 0.0000 0.0000
# 4 0.0000 0.0000 0.0000 19.6304 0.0000 0.0000
# 5 0.0000 0.0000 0.0000 0.0000 32.6736 0.0000
# 6 0.0000 0.0000 0.0000 0.0000 0.0000 12.1853
#
#
#
# Elastic Compliance Matrix: (Units=1/GPa)
#
#
# Indices 1 2 3 4 5 6 
#
# 1 0.014697 -0.003983 -0.006623 0.000000 0.000000 0.000000
# 2 -0.003983 0.016192 -0.002210 0.000000 0.000000 0.000000
# 3 -0.006623 -0.002210 0.012097 0.000000 0.000000 0.000000
# 4 0.000000 0.000000 0.000000 0.050941 0.000000 0.000000
# 5 0.000000 0.000000 0.000000 0.000000 0.030606 0.000000
# 6 0.000000 0.000000 0.000000 0.000000 0.000000 0.082066
#
#
# Mechanical properties :
#
#
# Convention : Reuss Voigt Hill
#
# Bulk Modulus (GPa) = 57.62051 63.52588 60.57320
# Shear Modulus (GPa) = 21.00704 24.42895 22.71799
#
# Velocity S-wave (km/s) = 3.12270 3.36744 3.24737
# Velocity P-wave (km/s) = 6.30464 6.67889 6.49446
#
# Compressibility (1/GPa) = 0.01735493
#
# Stress axis : x y z
#
# Youngs Moduli (GPa) = 68.04045 61.76002 82.66450
#
# Poissons Ratio (x) = 0.24599 0.54747
# Poissons Ratio (y) = 0.27100 0.18267
# Poissons Ratio (z) = 0.45062 0.13648
#
# Static dielectric constant tensor:
#      x y z
#    x 4.130730 0.000000 0.000000 
#    y 0.000000 3.434210 0.000000 
#    z 0.000000 0.000000 4.111580 
# 
# 
# High freq. dielectric constant tensor:
#      x y z
#    x 1.850200 0.000000 0.000000 
#    y 0.000000 1.797690 0.000000 
#    z 0.000000 0.000000 1.872340 
# 
# From -- ./inp_files/11540.got.cif
#   From: 2010.03.12/outbox.cif.g09.slc.cpg/sg56_6_cif.got.tgz:11540.got - 2010.04.16 15:33:40.
