data_PCOD8228194
_publ_section_title
;
Structure prediction by ZEFSAII (Michael W. Deem and Ramdas Pophale) SiO2 
 PCOD8228194
Probable space group: P C C N
;
_chemical_formula_sum "Si O2"
_cell_formula_units_Z 60
_cell_length_a 12.022778
_cell_length_b 14.660740
_cell_length_c 17.285051
_cell_angle_alpha 90.000000
_cell_angle_beta 90.000000
_cell_angle_gamma 90.000000
_cell_volume 3046.711873
_symmetry_space_group_name_H-M "P C C N"
_symmetry_group_IT_number 56
_symmetry_cell_setting 'orthorhombic'
loop_
_space_group_symop_operation_xyz
x,y,z
1/2-x,1/2-y,z
1/2+x,-y,1/2-z
-x,1/2+y,1/2-z
-x,-y,-z
1/2+x,1/2+y,-z
1/2-x,y,1/2+z
x,1/2-y,1/2+z
loop_
_atom_site_type_symbol
_atom_site_label
_atom_site_fract_x
_atom_site_fract_y
_atom_site_fract_z
Si Si1 0.780571 0.549183 0.806062
Si Si2 0.820428 0.161784 0.038571
Si Si3 0.889211 0.892850 0.055901
Si Si4 0.106521 0.974958 0.083028
Si Si5 0.449385 0.254351 0.051843
Si Si6 0.510577 0.953899 0.916668
Si Si7 0.750000 0.750000 0.336148
Si Si8 0.726443 0.009628 0.140526
O O1 0.667239 0.511723 0.841816
O O2 0.777892 0.658494 0.787532
O O3 0.783270 0.498713 0.724251
O O4 0.880529 0.522991 0.865174
O O5 0.750000 0.250000 0.017899
O O6 0.766264 0.105674 0.107785
O O7 0.942425 0.185708 0.068894
O O8 0.821323 0.102309 0.960471
O O9 0.988876 0.930102 0.110852
O O10 0.769989 0.922495 0.090001
O O11 0.900610 0.784738 0.034067
O O12 0.912036 0.939584 0.972919
O O13 0.486947 0.150729 0.057957
O O14 0.355001 0.277851 0.112998
O O15 0.407494 0.986314 0.862955
O O16 0.500000 0.000000 0.000000
#
# Coordination Sequence:
#
# PCOD8228194 Si02
#       8
#     8   8   8   8   8   8   4   8
#     4  11  24  40  61  90 132 168 205 260 330 389
#     4  10  19  37  64  90 117 159 214 264 313 374
#     4   9  18  36  63  92 107 160 214 261 304 376
#     4   9  18  35  64  85 113 154 213 255 300 375
#     4  10  20  37  66  87 117 159 221 262 305 378
#     4  11  24  42  64  95 128 173 214 267 322 383
#     4  10  22  38  58  86 122 170 208 256 314 392
#     4  11  24  38  64  92 131 166 207 269 329 386
#
# _framework density 19.693362
#
# number of rings (size 3 to 8) (size 9 to 14) (size 15 to 20)
#    0.000    1.867    2.667    2.400    3.733    0.000 
#    2.400    0.667    0.000    0.000    0.000    0.000 
#    0.000    0.000    0.000    0.000    0.000    0.000 
#
# Total GULP energy -743347.214869 kJ/mol
# GULP energy per Si atom -12389.120248 kJ/mol
# Density = 1.964854 g / cm^3
# Si number density = 19.693362 Si / 1000 Ang^3
#
#
#
# Elastic Constant Matrix: (Units=GPa)
#
#
# Indices 1 2 3 4 5 6 
#
# 1 88.8664 28.2672 10.9066 0.0000 0.0000 0.0000
# 2 28.2672 80.2991 28.6879 0.0000 0.0000 0.0000
# 3 10.9066 28.6879 52.7377 0.0000 0.0000 0.0000
# 4 0.0000 0.0000 0.0000 19.9301 0.0000 0.0000
# 5 0.0000 0.0000 0.0000 0.0000 26.7674 0.0000
# 6 0.0000 0.0000 0.0000 0.0000 0.0000 31.5758
#
#
#
# Elastic Compliance Matrix: (Units=1/GPa)
#
#
# Indices 1 2 3 4 5 6 
#
# 1 0.012674 -0.004376 -0.000241 0.000000 0.000000 0.000000
# 2 -0.004376 0.016968 -0.008325 0.000000 0.000000 0.000000
# 3 -0.000241 -0.008325 0.023540 0.000000 0.000000 0.000000
# 4 0.000000 0.000000 0.000000 0.050175 0.000000 0.000000
# 5 0.000000 0.000000 0.000000 0.000000 0.037359 0.000000
# 6 0.000000 0.000000 0.000000 0.000000 0.000000 0.031670
#
#
# Mechanical properties :
#
#
# Convention : Reuss Voigt Hill
#
# Bulk Modulus (GPa) = 36.63130 39.73630 38.18380
# Shear Modulus (GPa) = 24.11150 25.92410 25.01780
#
# Velocity S-wave (km/s) = 3.50286 3.63214 3.56809
# Velocity P-wave (km/s) = 5.91619 6.14909 6.03376
#
# Compressibility (1/GPa) = 0.02729906
#
# Stress axis : x y z
#
# Youngs Moduli (GPa) = 78.90034 58.93424 42.48025
#
# Poissons Ratio (x) = 0.25787 0.01024
# Poissons Ratio (y) = 0.34523 0.35366
# Poissons Ratio (z) = 0.01901 0.49064
#
# Static dielectric constant tensor:
#      x y z
#    x 3.892610 0.000000 0.000000 
#    y 0.000000 4.022200 0.000000 
#    z 0.000000 0.000000 3.220590 
# 
# 
# High freq. dielectric constant tensor:
#      x y z
#    x 1.786010 0.000000 0.000000 
#    y 0.000000 1.774450 0.000000 
#    z 0.000000 0.000000 1.727750 
# 
# From -- ./inp_files/15759.got.cif
#   From: 2010.03.12/outbox.cif.g09.slc.cpg/sg56_8_cif.got.tgz:15759.got - 2010.04.16 15:33:40.
