data_PCOD8228764
_publ_section_title
;
Structure prediction by ZEFSAII (Michael W. Deem and Ramdas Pophale) SiO2 
 PCOD8228764
Probable space group: P C C N
;
_chemical_formula_sum "Si O2"
_cell_formula_units_Z 64
_cell_length_a 8.648495
_cell_length_b 22.088589
_cell_length_c 16.161046
_cell_angle_alpha 90.000000
_cell_angle_beta 90.000000
_cell_angle_gamma 90.000000
_cell_volume 3087.293933
_symmetry_space_group_name_H-M "P C C N"
_symmetry_group_IT_number 56
_symmetry_cell_setting 'orthorhombic'
loop_
_space_group_symop_operation_xyz
x,y,z
1/2-x,1/2-y,z
1/2+x,-y,1/2-z
-x,1/2+y,1/2-z
-x,-y,-z
1/2+x,1/2+y,-z
1/2-x,y,1/2+z
x,1/2-y,1/2+z
loop_
_atom_site_type_symbol
_atom_site_label
_atom_site_fract_x
_atom_site_fract_y
_atom_site_fract_z
Si Si1 0.492949 0.372727 0.365879
Si Si2 0.011892 0.510697 0.360289
Si Si3 0.490873 0.360689 0.065089
Si Si4 0.158124 0.393832 0.408166
Si Si5 0.080048 0.221578 0.220831
Si Si6 0.568067 0.333825 0.792935
Si Si7 0.259302 0.555536 0.728787
Si Si8 0.748274 0.183309 0.960672
O O1 0.339814 0.404796 0.399803
O O2 0.446706 0.325711 0.294342
O O3 0.605987 0.425527 0.334852
O O4 0.574119 0.339556 0.443978
O O5 0.065917 0.457307 0.422229
O O6 0.162247 0.521507 0.304194
O O7 0.962455 0.572316 0.402582
O O8 0.858708 0.491128 0.311868
O O9 0.455059 0.310308 0.133705
O O10 0.373621 0.351311 0.987958
O O11 0.665415 0.357337 0.029243
O O12 0.094507 0.361953 0.324445
O O13 0.250000 0.250000 0.222269
O O14 0.959705 0.276825 0.233293
O O15 0.666468 0.384043 0.742048
O O16 0.665397 0.315048 0.872826
O O17 0.750000 0.250000 0.998670
#
# Coordination Sequence:
#
# PCOD8228764 Si02
#       8
#     8   8   8   8   8   8   8   8
#     4  11  21  41  69  97 123 173 228 258 325 411
#     4  11  22  43  66  94 133 174 222 277 328 385
#     4  11  26  42  61  98 136 170 215 277 338 379
#     4  10  22  42  68  90 131 176 212 264 335 396
#     4  12  23  40  69  99 135 168 222 281 324 390
#     4   9  20  39  64  96 124 174 214 263 328 398
#     4  10  22  37  67  97 126 167 228 271 320 386
#     4  10  21  39  63  91 133 177 211 260 337 405
#
# _framework density 20.730129000000002
#
# number of rings (size 3 to 8) (size 9 to 14) (size 15 to 20)
#    0.000    1.500    3.750    1.875    0.000    2.000 
#    0.000    3.750    0.000    0.000    0.000    0.000 
#    0.000    0.000    0.000    0.000    0.000    0.000 
#
# Total GULP energy -793456.501062 kJ/mol
# GULP energy per Si atom -12397.757829 kJ/mol
# Density = 2.068295 g / cm^3
# Si number density = 20.730129 Si / 1000 Ang^3
#
#
#
# Elastic Constant Matrix: (Units=GPa)
#
#
# Indices 1 2 3 4 5 6 
#
# 1 112.6348 21.1887 40.6740 0.0000 0.0000 0.0000
# 2 21.1887 96.7727 39.4171 0.0000 0.0000 0.0000
# 3 40.6740 39.4171 78.6998 0.0000 0.0000 0.0000
# 4 0.0000 0.0000 0.0000 28.7509 0.0000 0.0000
# 5 0.0000 0.0000 0.0000 0.0000 17.3487 0.0000
# 6 0.0000 0.0000 0.0000 0.0000 0.0000 38.3557
#
#
#
# Elastic Compliance Matrix: (Units=1/GPa)
#
#
# Indices 1 2 3 4 5 6 
#
# 1 0.010916 -0.000116 -0.005584 0.000000 0.000000 0.000000
# 2 -0.000116 0.012983 -0.006443 0.000000 0.000000 0.000000
# 3 -0.005584 -0.006443 0.018819 0.000000 0.000000 0.000000
# 4 0.000000 0.000000 0.000000 0.034782 0.000000 0.000000
# 5 0.000000 0.000000 0.000000 0.000000 0.057641 0.000000
# 6 0.000000 0.000000 0.000000 0.000000 0.000000 0.026072
#
#
# Mechanical properties :
#
#
# Convention : Reuss Voigt Hill
#
# Bulk Modulus (GPa) = 54.24785 54.51853 54.38319
# Shear Modulus (GPa) = 26.09017 29.34622 27.71819
#
# Velocity S-wave (km/s) = 3.55147 3.76657 3.66060
# Velocity P-wave (km/s) = 6.56069 6.72847 6.64511
#
# Compressibility (1/GPa) = 0.01843391
#
# Stress axis : x y z
#
# Youngs Moduli (GPa) = 91.60477 77.02321 53.13689
#
# Poissons Ratio (x) = 0.00892 0.29671
# Poissons Ratio (y) = 0.01061 0.34235
# Poissons Ratio (z) = 0.51151 0.49624
#
# Static dielectric constant tensor:
#      x y z
#    x 3.915650 0.000000 0.000000 
#    y 0.000000 3.871420 0.000000 
#    z 0.000000 0.000000 3.571130 
# 
# 
# High freq. dielectric constant tensor:
#      x y z
#    x 1.819950 0.000000 0.000000 
#    y 0.000000 1.818900 0.000000 
#    z 0.000000 0.000000 1.787670 
# 
# From -- ./inp_files/11069.got.cif
#   From: 2010.03.12/outbox.cif.g09.slc.cpg/sg56_6_cif.got.tgz:11069.got - 2010.04.16 15:33:40.
