data_PCOD8228836
_publ_section_title
;
Structure prediction by ZEFSAII (Michael W. Deem and Ramdas Pophale) SiO2 
 PCOD8228836
Probable space group: P C C N
;
_chemical_formula_sum "Si O2"
_cell_formula_units_Z 56
_cell_length_a 12.622293
_cell_length_b 14.059390
_cell_length_c 14.756232
_cell_angle_alpha 90.000000
_cell_angle_beta 90.000000
_cell_angle_gamma 90.000000
_cell_volume 2618.666606
_symmetry_space_group_name_H-M "P C C N"
_symmetry_group_IT_number 56
_symmetry_cell_setting 'orthorhombic'
loop_
_space_group_symop_operation_xyz
x,y,z
1/2-x,1/2-y,z
1/2+x,-y,1/2-z
-x,1/2+y,1/2-z
-x,-y,-z
1/2+x,1/2+y,-z
1/2-x,y,1/2+z
x,1/2-y,1/2+z
loop_
_atom_site_type_symbol
_atom_site_label
_atom_site_fract_x
_atom_site_fract_y
_atom_site_fract_z
Si Si1 0.296225 0.346753 0.420818
Si Si2 0.336127 0.826437 0.581624
Si Si3 0.987364 0.328222 0.978085
Si Si4 0.899142 0.667964 0.833263
Si Si5 0.199777 0.945529 0.455878
Si Si6 0.820394 0.634979 0.273689
Si Si7 0.900027 0.065004 0.739383
O O1 0.250000 0.250000 0.468449
O O2 0.424104 0.349529 0.402631
O O3 0.269776 0.444395 0.473753
O O4 0.251928 0.352263 0.319155
O O5 0.250000 0.750000 0.608985
O O6 0.439842 0.774240 0.544666
O O7 0.299807 0.888850 0.495100
O O8 0.353336 0.881114 0.674589
O O9 0.902652 0.413909 0.984372
O O10 0.058932 0.319183 0.066451
O O11 0.780304 0.623091 0.841891
O O12 0.893399 0.773759 0.791842
O O13 0.980187 0.600295 0.777780
O O14 0.174355 0.920277 0.350304
O O15 0.898505 0.544917 0.269774
#
# Coordination Sequence:
#
# PCOD8228836 Si02
#       7
#     8   8   8   8   8   8   8
#     4  11  21  37  62  87 120 166 207 257 305 383
#     4  10  22  41  63  94 125 160 212 265 318 388
#     4  10  22  38  63  88 124 163 208 258 326 383
#     4  10  21  41  61  90 127 167 208 263 323 382
#     4   9  22  42  60  92 127 162 205 263 318 383
#     4  10  22  42  61  90 130 163 213 266 319 387
#     4  10  22  41  66  91 123 169 215 260 322 383
#
# _framework density 21.384930000000001
#
# number of rings (size 3 to 8) (size 9 to 14) (size 15 to 20)
#    0.000    2.000    1.429    1.286    4.000    2.857 
#   12.857    1.429    0.000    0.000    0.000    0.000 
#    0.000    0.000    0.000    0.000    0.000    0.000 
#
# Total GULP energy -693816.515058 kJ/mol
# GULP energy per Si atom -12389.580626 kJ/mol
# Density = 2.133626 g / cm^3
# Si number density = 21.384930 Si / 1000 Ang^3
#
#
#
# Elastic Constant Matrix: (Units=GPa)
#
#
# Indices 1 2 3 4 5 6 
#
# 1 64.9401 44.1178 27.2908 0.0000 0.0000 0.0000
# 2 44.1178 159.5827 39.8582 0.0000 0.0000 0.0000
# 3 27.2908 39.8582 69.8033 0.0000 0.0000 0.0000
# 4 0.0000 0.0000 0.0000 26.1770 0.0000 0.0000
# 5 0.0000 0.0000 0.0000 0.0000 28.5176 0.0000
# 6 0.0000 0.0000 0.0000 0.0000 0.0000 42.3098
#
#
#
# Elastic Compliance Matrix: (Units=1/GPa)
#
#
# Indices 1 2 3 4 5 6 
#
# 1 0.020696 -0.004316 -0.005627 0.000000 0.000000 0.000000
# 2 -0.004316 0.008209 -0.003000 0.000000 0.000000 0.000000
# 3 -0.005627 -0.003000 0.018239 0.000000 0.000000 0.000000
# 4 0.000000 0.000000 0.000000 0.038202 0.000000 0.000000
# 5 0.000000 0.000000 0.000000 0.000000 0.035066 0.000000
# 6 0.000000 0.000000 0.000000 0.000000 0.000000 0.023635
#
#
# Mechanical properties :
#
#
# Convention : Reuss Voigt Hill
#
# Bulk Modulus (GPa) = 47.04156 57.42884 52.23520
# Shear Modulus (GPa) = 28.24580 31.60481 29.92531
#
# Velocity S-wave (km/s) = 3.63826 3.84852 3.74487
# Velocity P-wave (km/s) = 6.30036 6.83090 6.57099
#
# Compressibility (1/GPa) = 0.02125780
#
# Stress axis : x y z
#
# Youngs Moduli (GPa) = 48.31944 121.82030 54.82814
#
# Poissons Ratio (x) = 0.52579 0.30851
# Poissons Ratio (y) = 0.20855 0.16448
# Poissons Ratio (z) = 0.27188 0.36544
#
# Static dielectric constant tensor:
#      x y z
#    x 4.342020 0.000000 0.000000 
#    y 0.000000 4.052810 0.000000 
#    z 0.000000 0.000000 3.961680 
# 
# 
# High freq. dielectric constant tensor:
#      x y z
#    x 1.827160 0.000000 0.000000 
#    y 0.000000 1.848730 0.000000 
#    z 0.000000 0.000000 1.844340 
# 
# From -- ./inp_files/11693.got.cif
#   From: 2010.03.12/outbox.cif.g09.slc.cpg/sg56_6_cif.got.tgz:11693.got - 2010.04.16 15:33:40.
