data_PCOD8228447
_publ_section_title
;
Structure prediction by ZEFSAII (Michael W. Deem and Ramdas Pophale) SiO2 
 PCOD8228447
Probable space group: P C C N
;
_chemical_formula_sum "Si O2"
_cell_formula_units_Z 52
_cell_length_a 12.495208
_cell_length_b 25.134106
_cell_length_c 8.878426
_cell_angle_alpha 90.000000
_cell_angle_beta 90.000000
_cell_angle_gamma 90.000000
_cell_volume 2788.321911
_symmetry_space_group_name_H-M "P C C N"
_symmetry_group_IT_number 56
_symmetry_cell_setting 'orthorhombic'
loop_
_space_group_symop_operation_xyz
x,y,z
1/2-x,1/2-y,z
1/2+x,-y,1/2-z
-x,1/2+y,1/2-z
-x,-y,-z
1/2+x,1/2+y,-z
1/2-x,y,1/2+z
x,1/2-y,1/2+z
loop_
_atom_site_type_symbol
_atom_site_label
_atom_site_fract_x
_atom_site_fract_y
_atom_site_fract_z
Si Si1 0.323269 0.676329 0.959434
Si Si2 0.284977 0.921250 0.824777
Si Si3 0.555006 0.039587 0.697789
Si Si4 0.648556 0.569199 0.266239
Si Si5 0.750000 0.250000 0.783055
Si Si6 0.646652 0.537660 0.603479
Si Si7 0.528750 0.399048 0.911478
O O1 0.229369 0.631596 0.928909
O O2 0.333606 0.719618 0.826534
O O3 0.302987 0.704679 0.117964
O O4 0.440248 0.650704 0.981700
O O5 0.166187 0.931397 0.757446
O O6 0.366806 0.912172 0.689340
O O7 0.324738 0.974685 0.914592
O O8 0.469059 0.049702 0.828924
O O9 0.509857 0.054017 0.533151
O O10 0.576074 0.977179 0.695567
O O11 0.648923 0.567780 0.445026
O O12 0.769405 0.567951 0.210105
O O13 0.576020 0.616276 0.190749
#
# Coordination Sequence:
#
# PCOD8228447 Si02
#       7
#     8   8   8   8   4   8   8
#     4  10  21  36  55  82 110 150 176 233 284 360
#     4  10  22  32  55  78 115 153 192 231 283 336
#     4  10  22  32  51  74 109 152 199 235 270 321
#     4  11  23  34  52  71 110 153 202 240 273 317
#     4  10  20  38  58  80 110 142 180 226 304 352
#     4  11  23  36  51  77 112 159 205 237 267 318
#     4  11  21  36  52  78 112 151 186 231 283 339
#
# _framework density 18.649208000000002
#
# number of rings (size 3 to 8) (size 9 to 14) (size 15 to 20)
#    0.000    1.538    3.077    1.846   12.923    0.000 
#    0.000    0.000    0.000    0.000    0.000    0.000 
#    0.000   33.231    0.000    0.000    0.000    0.000 
#
# Total GULP energy -644195.410209 kJ/mol
# GULP energy per Si atom -12388.373273 kJ/mol
# Density = 1.860676 g / cm^3
# Si number density = 18.649208 Si / 1000 Ang^3
#
#
#
# Elastic Constant Matrix: (Units=GPa)
#
#
# Indices 1 2 3 4 5 6 
#
# 1 82.1135 21.9174 23.5909 0.0000 0.0000 0.0000
# 2 21.9174 45.6614 32.6691 0.0000 0.0000 0.0000
# 3 23.5909 32.6691 105.6582 0.0000 0.0000 0.0000
# 4 0.0000 0.0000 0.0000 26.2427 0.0000 0.0000
# 5 0.0000 0.0000 0.0000 0.0000 39.3540 0.0000
# 6 0.0000 0.0000 0.0000 0.0000 0.0000 12.9486
#
#
#
# Elastic Compliance Matrix: (Units=1/GPa)
#
#
# Indices 1 2 3 4 5 6 
#
# 1 0.014118 -0.005806 -0.001357 0.000000 0.000000 0.000000
# 2 -0.005806 0.030509 -0.008137 0.000000 0.000000 0.000000
# 3 -0.001357 -0.008137 0.012283 0.000000 0.000000 0.000000
# 4 0.000000 0.000000 0.000000 0.038106 0.000000 0.000000
# 5 0.000000 0.000000 0.000000 0.000000 0.025410 0.000000
# 6 0.000000 0.000000 0.000000 0.000000 0.000000 0.077229
#
#
# Mechanical properties :
#
#
# Convention : Reuss Voigt Hill
#
# Bulk Modulus (GPa) = 38.00737 43.30975 40.65856
# Shear Modulus (GPa) = 21.09492 26.05944 23.57718
#
# Velocity S-wave (km/s) = 3.36690 3.74217 3.55948
# Velocity P-wave (km/s) = 5.96146 6.47654 6.22433
#
# Compressibility (1/GPa) = 0.02631069
#
# Stress axis : x y z
#
# Youngs Moduli (GPa) = 70.83277 32.77756 81.41072
#
# Poissons Ratio (x) = 0.19029 0.11048
# Poissons Ratio (y) = 0.41122 0.66243
# Poissons Ratio (z) = 0.09613 0.26671
#
# Static dielectric constant tensor:
#      x y z
#    x 3.473080 0.000000 0.000000 
#    y 0.000000 3.441140 0.000000 
#    z 0.000000 0.000000 3.536800 
# 
# 
# High freq. dielectric constant tensor:
#      x y z
#    x 1.710010 0.000000 0.000000 
#    y 0.000000 1.681020 0.000000 
#    z 0.000000 0.000000 1.746640 
# 
# From -- ./inp_files/2869.got.cif
#   From: 2010.03.12/outbox.cif.g09.slc.cpg/sg56_2_cif.got.tgz:2869.got - 2010.04.16 15:33:40.
