data_PCOD8228236
_publ_section_title
;
Structure prediction by ZEFSAII (Michael W. Deem and Ramdas Pophale) SiO2 
 PCOD8228236
Probable space group: P C C N
;
_chemical_formula_sum "Si O2"
_cell_formula_units_Z 64
_cell_length_a 9.555857
_cell_length_b 17.226236
_cell_length_c 18.909847
_cell_angle_alpha 90.000000
_cell_angle_beta 90.000000
_cell_angle_gamma 90.000000
_cell_volume 3112.777294
_symmetry_space_group_name_H-M "P C C N"
_symmetry_group_IT_number 56
_symmetry_cell_setting 'orthorhombic'
loop_
_space_group_symop_operation_xyz
x,y,z
1/2-x,1/2-y,z
1/2+x,-y,1/2-z
-x,1/2+y,1/2-z
-x,-y,-z
1/2+x,1/2+y,-z
1/2-x,y,1/2+z
x,1/2-y,1/2+z
loop_
_atom_site_type_symbol
_atom_site_label
_atom_site_fract_x
_atom_site_fract_y
_atom_site_fract_z
Si Si1 0.903679 0.723219 0.250370
Si Si2 0.278449 0.522394 0.316893
Si Si3 0.353678 0.677717 0.264457
Si Si4 0.020292 0.795187 0.600049
Si Si5 0.389290 0.445012 0.460559
Si Si6 0.040530 0.054197 0.196635
Si Si7 0.633932 0.988401 0.452783
Si Si8 0.674714 0.149705 0.390298
O O1 0.750000 0.750000 0.271929
O O2 0.961938 0.642395 0.279110
O O3 0.997028 0.788929 0.287631
O O4 0.916481 0.719615 0.165337
O O5 0.305276 0.615098 0.322623
O O6 0.343112 0.479862 0.384894
O O7 0.356253 0.491371 0.248090
O O8 0.111652 0.512132 0.306183
O O9 0.250000 0.750000 0.257303
O O10 0.382679 0.635486 0.188719
O O11 0.167399 0.826436 0.627597
O O12 0.070744 0.711046 0.568223
O O13 0.949545 0.857054 0.546694
O O14 0.500000 0.500000 0.500000
O O15 0.250868 0.438326 0.507443
O O16 0.101410 0.056828 0.118326
O O17 0.500000 0.000000 0.500000
O O18 0.689150 0.074249 0.437547
#
# Coordination Sequence:
#
# PCOD8228236 Si02
#       8
#     8   8   8   8   8   8   8   8
#     4  11  24  40  67 105 138 168 227 299 350 403
#     4  12  26  42  71 105 135 178 235 286 349 409
#     4  11  20  40  69 100 134 172 226 287 349 411
#     4  10  20  40  68  99 130 172 236 279 341 416
#     4  12  26  43  68 103 142 185 234 285 342 422
#     4  12  26  44  71 102 138 177 233 288 348 413
#     4  12  26  45  66  99 147 185 226 281 355 413
#     4  10  19  39  70  96 129 182 224 281 341 422
#
# _framework density 20.560417999999999
#
# number of rings (size 3 to 8) (size 9 to 14) (size 15 to 20)
#    0.000    0.750    8.750    0.000    3.500    2.000 
#    0.000    3.750    0.000    0.000    0.000    0.000 
#    0.000    0.000    0.000    0.000    0.000    0.000 
#
# Total GULP energy -793017.481687 kJ/mol
# GULP energy per Si atom -12390.898151 kJ/mol
# Density = 2.051362 g / cm^3
# Si number density = 20.560418 Si / 1000 Ang^3
#
#
#
# Elastic Constant Matrix: (Units=GPa)
#
#
# Indices 1 2 3 4 5 6 
#
# 1 129.0985 16.0865 37.0014 0.0000 0.0000 0.0000
# 2 16.0865 78.0472 15.0211 0.0000 0.0000 0.0000
# 3 37.0014 15.0211 62.8352 0.0000 0.0000 0.0000
# 4 0.0000 0.0000 0.0000 25.1928 0.0000 0.0000
# 5 0.0000 0.0000 0.0000 0.0000 31.8952 0.0000
# 6 0.0000 0.0000 0.0000 0.0000 0.0000 37.3623
#
#
#
# Elastic Compliance Matrix: (Units=1/GPa)
#
#
# Indices 1 2 3 4 5 6 
#
# 1 0.009380 -0.000912 -0.005306 0.000000 0.000000 0.000000
# 2 -0.000912 0.013519 -0.002695 0.000000 0.000000 0.000000
# 3 -0.005306 -0.002695 0.019683 0.000000 0.000000 0.000000
# 4 0.000000 0.000000 0.000000 0.039694 0.000000 0.000000
# 5 0.000000 0.000000 0.000000 0.000000 0.031353 0.000000
# 6 0.000000 0.000000 0.000000 0.000000 0.000000 0.026765
#
#
# Mechanical properties :
#
#
# Convention : Reuss Voigt Hill
#
# Bulk Modulus (GPa) = 40.39155 45.13322 42.76238
# Shear Modulus (GPa) = 30.03505 32.34821 31.19163
#
# Velocity S-wave (km/s) = 3.82621 3.97082 3.89919
# Velocity P-wave (km/s) = 6.26161 6.55914 6.41210
#
# Compressibility (1/GPa) = 0.02475765
#
# Stress axis : x y z
#
# Youngs Moduli (GPa) = 106.60559 73.96770 50.80492
#
# Poissons Ratio (x) = 0.06748 0.26955
# Poissons Ratio (y) = 0.09725 0.13690
# Poissons Ratio (z) = 0.56561 0.19932
#
# Static dielectric constant tensor:
#      x y z
#    x 3.866690 0.000000 0.000000 
#    y 0.000000 3.743220 0.000000 
#    z 0.000000 0.000000 3.636060 
# 
# 
# High freq. dielectric constant tensor:
#      x y z
#    x 1.820450 0.000000 0.000000 
#    y 0.000000 1.813740 0.000000 
#    z 0.000000 0.000000 1.776110 
# 
# From -- ./inp_files/18400.got.cif
#   From: 2010.03.12/outbox.cif.g09.slc.cpg/sg56_10_cif.got.tgz:18400.got - 2010.04.16 15:33:40.
