data_PCOD8228890
_publ_section_title
;
Structure prediction by ZEFSAII (Michael W. Deem and Ramdas Pophale) SiO2 
 PCOD8228890
Probable space group: P C C N
;
_chemical_formula_sum "Si O2"
_cell_formula_units_Z 40
_cell_length_a 15.867023
_cell_length_b 9.779503
_cell_length_c 10.809410
_cell_angle_alpha 90.000000
_cell_angle_beta 90.000000
_cell_angle_gamma 90.000000
_cell_volume 1677.313434
_symmetry_space_group_name_H-M "P C C N"
_symmetry_group_IT_number 56
_symmetry_cell_setting 'orthorhombic'
loop_
_space_group_symop_operation_xyz
x,y,z
1/2-x,1/2-y,z
1/2+x,-y,1/2-z
-x,1/2+y,1/2-z
-x,-y,-z
1/2+x,1/2+y,-z
1/2-x,y,1/2+z
x,1/2-y,1/2+z
loop_
_atom_site_type_symbol
_atom_site_label
_atom_site_fract_x
_atom_site_fract_y
_atom_site_fract_z
Si Si1 0.407318 0.975479 0.641426
Si Si2 0.773124 0.097871 0.381597
Si Si3 0.626738 0.529882 0.576804
Si Si4 0.952637 0.699224 0.537101
Si Si5 0.209483 0.121996 0.814494
O O1 0.316163 0.967062 0.575536
O O2 0.459677 0.841452 0.601700
O O3 0.402405 0.974569 0.790404
O O4 0.448119 0.118020 0.593495
O O5 0.750000 0.250000 0.339222
O O6 0.849482 0.093957 0.482700
O O7 0.805115 0.014460 0.263473
O O8 0.556949 0.635635 0.518667
O O9 0.717547 0.604696 0.582158
O O10 0.880825 0.654481 0.631420
O O11 0.250000 0.250000 0.734585
#
# Coordination Sequence:
#
# PCOD8228890 Si02
#       5
#     8   8   8   8   8
#     4  10  23  43  63  96 134 168 221 283 337 389
#     4  11  24  41  64  98 133 176 219 281 335 401
#     4  10  22  39  67  94 129 178 225 265 336 408
#     4  10  21  42  67  97 128 175 223 283 331 400
#     4   9  20  38  68  92 125 174 227 272 320 407
#
# _framework density 23.847662
#
# number of rings (size 3 to 8) (size 9 to 14) (size 15 to 20)
#    0.000    2.000    2.000    0.000    8.400    4.800 
#    7.200    2.000    0.000    0.000    0.000    0.000 
#    0.000    0.000    0.000    0.000    0.000    0.000 
#
# Total GULP energy -495554.278246 kJ/mol
# GULP energy per Si atom -12388.856956 kJ/mol
# Density = 2.379338 g / cm^3
# Si number density = 23.847662 Si / 1000 Ang^3
#
#
#
# Elastic Constant Matrix: (Units=GPa)
#
#
# Indices 1 2 3 4 5 6 
#
# 1 51.8231 -5.6780 8.9002 0.0000 0.0000 0.0000
# 2 -5.6780 122.2115 33.7974 0.0000 0.0000 0.0000
# 3 8.9002 33.7974 71.7939 0.0000 0.0000 0.0000
# 4 0.0000 0.0000 0.0000 23.6990 0.0000 0.0000
# 5 0.0000 0.0000 0.0000 0.0000 27.9896 0.0000
# 6 0.0000 0.0000 0.0000 0.0000 0.0000 30.9379
#
#
#
# Elastic Compliance Matrix: (Units=1/GPa)
#
#
# Indices 1 2 3 4 5 6 
#
# 1 0.020079 0.001864 -0.003367 0.000000 0.000000 0.000000
# 2 0.001864 0.009580 -0.004741 0.000000 0.000000 0.000000
# 3 -0.003367 -0.004741 0.016578 0.000000 0.000000 0.000000
# 4 0.000000 0.000000 0.000000 0.042196 0.000000 0.000000
# 5 0.000000 0.000000 0.000000 0.000000 0.035728 0.000000
# 6 0.000000 0.000000 0.000000 0.000000 0.000000 0.032323
#
#
# Mechanical properties :
#
#
# Convention : Reuss Voigt Hill
#
# Bulk Modulus (GPa) = 29.62995 35.54085 32.58540
# Shear Modulus (GPa) = 27.74377 30.44590 29.09484
#
# Velocity S-wave (km/s) = 3.41453 3.57695 3.49668
# Velocity P-wave (km/s) = 5.29122 5.65642 5.47686
#
# Compressibility (1/GPa) = 0.03374963
#
# Stress axis : x y z
#
# Youngs Moduli (GPa) = 49.80372 104.38131 60.32102
#
# Poissons Ratio (x) = -0.19456 0.20308
# Poissons Ratio (y) = -0.09283 0.28598
# Poissons Ratio (z) = 0.16767 0.49487
#
# Static dielectric constant tensor:
#      x y z
#    x 4.429030 0.000000 0.000000 
#    y 0.000000 4.507890 0.000000 
#    z 0.000000 0.000000 3.814040 
# 
# 
# High freq. dielectric constant tensor:
#      x y z
#    x 1.950570 0.000000 0.000000 
#    y 0.000000 1.942530 0.000000 
#    z 0.000000 0.000000 1.918070 
# 
# From -- ./inp_files/8171.got.cif
#   From: 2010.03.12/outbox.cif.g09.slc.cpg/sg56_5_cif.got.tgz:8171.got - 2010.04.16 15:33:40.
