data_PCOD8228396
_publ_section_title
;
Structure prediction by ZEFSAII (Michael W. Deem and Ramdas Pophale) SiO2 
 PCOD8228396
Probable space group: P C C N
;
_chemical_formula_sum "Si O2"
_cell_formula_units_Z 60
_cell_length_a 31.737969
_cell_length_b 10.217395
_cell_length_c 9.289841
_cell_angle_alpha 90.000000
_cell_angle_beta 90.000000
_cell_angle_gamma 90.000000
_cell_volume 3012.503748
_symmetry_space_group_name_H-M "P C C N"
_symmetry_group_IT_number 56
_symmetry_cell_setting 'orthorhombic'
loop_
_space_group_symop_operation_xyz
x,y,z
1/2-x,1/2-y,z
1/2+x,-y,1/2-z
-x,1/2+y,1/2-z
-x,-y,-z
1/2+x,1/2+y,-z
1/2-x,y,1/2+z
x,1/2-y,1/2+z
loop_
_atom_site_type_symbol
_atom_site_label
_atom_site_fract_x
_atom_site_fract_y
_atom_site_fract_z
Si Si1 0.695278 0.342609 0.326707
Si Si2 0.507698 0.797328 0.685446
Si Si3 0.066515 0.878185 0.774358
Si Si4 0.124367 0.498737 0.054243
Si Si5 0.250000 0.750000 0.916208
Si Si6 0.126177 0.653886 0.769965
Si Si7 0.063669 0.220296 0.569345
Si Si8 0.937456 0.484452 0.427729
O O1 0.664806 0.470280 0.342765
O O2 0.718152 0.328241 0.480710
O O3 0.726979 0.355968 0.190383
O O4 0.669518 0.209272 0.295402
O O5 0.478778 0.685986 0.754958
O O6 0.536789 0.859930 0.811075
O O7 0.537451 0.718933 0.576519
O O8 0.481455 0.915975 0.616009
O O9 0.083935 0.926912 0.620754
O O10 0.098457 0.769443 0.839148
O O11 0.064395 0.989701 0.897823
O O12 0.110119 0.346067 0.049628
O O13 0.134586 0.547738 0.894099
O O14 0.101714 0.593412 0.635564
O O15 0.067478 0.368132 0.628491
#
# Coordination Sequence:
#
# PCOD8228396 Si02
#       8
#     8   8   8   8   4   8   8   8
#     4  10  20  38  64 100 129 145 184 238 299 368
#     4  11  23  38  56  80 112 154 224 276 314 344
#     4  10  21  37  58  79 111 160 204 267 316 345
#     4  11  23  37  57  86 123 159 201 241 306 374
#     4  10  20  36  68 104 128 146 180 236 310 358
#     4  10  20  37  60  87 120 156 196 244 306 360
#     4  12  25  38  55  81 115 165 215 261 309 361
#     4  11  23  40  56  79 119 163 217 266 314 352
#
# _framework density 19.916989000000001
#
# number of rings (size 3 to 8) (size 9 to 14) (size 15 to 20)
#    0.000    1.333    2.667    4.400    5.600    0.533 
#    0.000    0.000    0.000    0.000    0.000    5.600 
#    0.000    0.000    0.000    0.000    0.000    0.000 
#
# Total GULP energy -743786.661720 kJ/mol
# GULP energy per Si atom -12396.444362 kJ/mol
# Density = 1.987166 g / cm^3
# Si number density = 19.916989 Si / 1000 Ang^3
#
#
#
# Elastic Constant Matrix: (Units=GPa)
#
#
# Indices 1 2 3 4 5 6 
#
# 1 110.4583 41.1618 50.9590 0.0000 0.0000 0.0000
# 2 41.1618 83.7259 32.0926 0.0000 0.0000 0.0000
# 3 50.9590 32.0926 118.8120 0.0000 0.0000 0.0000
# 4 0.0000 0.0000 0.0000 23.8153 0.0000 0.0000
# 5 0.0000 0.0000 0.0000 0.0000 30.5601 0.0000
# 6 0.0000 0.0000 0.0000 0.0000 0.0000 27.6986
#
#
#
# Elastic Compliance Matrix: (Units=1/GPa)
#
#
# Indices 1 2 3 4 5 6 
#
# 1 0.012722 -0.004644 -0.004202 0.000000 0.000000 0.000000
# 2 -0.004644 0.015018 -0.002065 0.000000 0.000000 0.000000
# 3 -0.004202 -0.002065 0.010777 0.000000 0.000000 0.000000
# 4 0.000000 0.000000 0.000000 0.041990 0.000000 0.000000
# 5 0.000000 0.000000 0.000000 0.000000 0.032722 0.000000
# 6 0.000000 0.000000 0.000000 0.000000 0.000000 0.036103
#
#
# Mechanical properties :
#
#
# Convention : Reuss Voigt Hill
#
# Bulk Modulus (GPa) = 59.89688 62.38033 61.13861
# Shear Modulus (GPa) = 28.29335 29.00031 28.64683
#
# Velocity S-wave (km/s) = 3.77313 3.81997 3.79662
# Velocity P-wave (km/s) = 7.00860 7.13053 7.06983
#
# Compressibility (1/GPa) = 0.01669536
#
# Stress axis : x y z
#
# Youngs Moduli (GPa) = 78.60131 66.58565 92.79194
#
# Poissons Ratio (x) = 0.30922 0.38994
# Poissons Ratio (y) = 0.36502 0.19160
# Poissons Ratio (z) = 0.33031 0.13749
#
# Static dielectric constant tensor:
#      x y z
#    x 3.713840 0.000000 0.000000 
#    y 0.000000 3.453550 0.000000 
#    z 0.000000 0.000000 3.654150 
# 
# 
# High freq. dielectric constant tensor:
#      x y z
#    x 1.763580 0.000000 0.000000 
#    y 0.000000 1.748690 0.000000 
#    z 0.000000 0.000000 1.796950 
# 
# From -- ./inp_files/5190.got.cif
#   From: 2010.03.12/outbox.cif.g09.slc.cpg/sg56_3_cif.got.tgz:5190.got - 2010.04.16 15:33:40.
