data_PCOD8228314
_publ_section_title
;
Structure prediction by ZEFSAII (Michael W. Deem and Ramdas Pophale) SiO2 
 PCOD8228314
Probable space group: P C C N
;
_chemical_formula_sum "Si O2"
_cell_formula_units_Z 44
_cell_length_a 13.001033
_cell_length_b 6.483506
_cell_length_c 24.411859
_cell_angle_alpha 90.000000
_cell_angle_beta 90.000000
_cell_angle_gamma 90.000000
_cell_volume 2057.731143
_symmetry_space_group_name_H-M "P C C N"
_symmetry_group_IT_number 56
_symmetry_cell_setting 'orthorhombic'
loop_
_space_group_symop_operation_xyz
x,y,z
1/2-x,1/2-y,z
1/2+x,-y,1/2-z
-x,1/2+y,1/2-z
-x,-y,-z
1/2+x,1/2+y,-z
1/2-x,y,1/2+z
x,1/2-y,1/2+z
loop_
_atom_site_type_symbol
_atom_site_label
_atom_site_fract_x
_atom_site_fract_y
_atom_site_fract_z
Si Si1 0.906516 0.687731 0.649714
Si Si2 0.649269 0.115274 0.735349
Si Si3 0.485692 0.139105 0.580216
Si Si4 0.750000 0.750000 0.065192
Si Si5 0.486136 0.083844 0.181832
Si Si6 0.165021 0.591304 0.504574
O O1 0.829397 0.544137 0.685577
O O2 0.847768 0.802631 0.601637
O O3 0.991460 0.544568 0.621815
O O4 0.957834 0.864308 0.685026
O O5 0.750000 0.250000 0.747888
O O6 0.553326 0.258264 0.717643
O O7 0.621198 0.970685 0.787595
O O8 0.466000 0.339645 0.619033
O O9 0.574715 0.186958 0.534642
O O10 0.382703 0.060798 0.550087
O O11 0.739514 0.543584 0.031845
O O12 0.250000 0.750000 0.529742
#
# Coordination Sequence:
#
# PCOD8228314 Si02
#       6
#     8   8   8   4   8   8
#     4  10  20  38  61  91 123 164 212 268 315 380
#     4  11  23  39  65  94 125 171 218 264 320 389
#     4   9  22  38  63  92 127 166 212 262 329 383
#     4  10  20  34  64  92 112 162 222 258 312 378
#     4  11  21  41  64  91 133 168 213 271 324 386
#     4  10  20  39  62  93 126 164 212 270 320 390
#
# _framework density 21.382774000000001
#
# number of rings (size 3 to 8) (size 9 to 14) (size 15 to 20)
#    0.000    1.818    1.818    2.182    0.000    6.545 
#    0.000    8.182    4.000    0.000    0.000    0.000 
#    0.000    0.000    0.000    0.000    0.000    0.000 
#
# Total GULP energy -545104.660888 kJ/mol
# GULP energy per Si atom -12388.742293 kJ/mol
# Density = 2.133411 g / cm^3
# Si number density = 21.382774 Si / 1000 Ang^3
#
#
#
# Elastic Constant Matrix: (Units=GPa)
#
#
# Indices 1 2 3 4 5 6 
#
# 1 107.5452 53.3779 52.1562 0.0000 0.0000 0.0000
# 2 53.3779 78.5391 46.3269 0.0000 0.0000 0.0000
# 3 52.1562 46.3269 102.0516 0.0000 0.0000 0.0000
# 4 0.0000 0.0000 0.0000 38.9120 0.0000 0.0000
# 5 0.0000 0.0000 0.0000 0.0000 31.7323 0.0000
# 6 0.0000 0.0000 0.0000 0.0000 0.0000 39.8838
#
#
#
# Elastic Compliance Matrix: (Units=1/GPa)
#
#
# Indices 1 2 3 4 5 6 
#
# 1 0.015256 -0.007879 -0.004220 0.000000 0.000000 0.000000
# 2 -0.007879 0.021458 -0.005714 0.000000 0.000000 0.000000
# 3 -0.004220 -0.005714 0.014550 0.000000 0.000000 0.000000
# 4 0.000000 0.000000 0.000000 0.025699 0.000000 0.000000
# 5 0.000000 0.000000 0.000000 0.000000 0.031514 0.000000
# 6 0.000000 0.000000 0.000000 0.000000 0.000000 0.025073
#
#
# Mechanical properties :
#
#
# Convention : Reuss Voigt Hill
#
# Bulk Modulus (GPa) = 63.95183 65.76197 64.85690
# Shear Modulus (GPa) = 28.67178 31.19060 29.93119
#
# Velocity S-wave (km/s) = 3.66578 3.82341 3.74542
# Velocity P-wave (km/s) = 6.92028 7.09314 7.00724
#
# Compressibility (1/GPa) = 0.01563677
#
# Stress axis : x y z
#
# Youngs Moduli (GPa) = 65.54962 46.60283 68.72989
#
# Poissons Ratio (x) = 0.36719 0.29004
# Poissons Ratio (y) = 0.51647 0.39273
# Poissons Ratio (z) = 0.27662 0.26630
#
# Static dielectric constant tensor:
#      x y z
#    x 3.622400 0.000000 0.000000 
#    y 0.000000 3.839660 0.000000 
#    z 0.000000 0.000000 4.006110 
# 
# 
# High freq. dielectric constant tensor:
#      x y z
#    x 1.817730 0.000000 0.000000 
#    y 0.000000 1.844160 0.000000 
#    z 0.000000 0.000000 1.841230 
# 
# From -- ./inp_files/22390.got.cif
#   From: 2010.03.12/outbox.cif.g09.slc.cpg/sg56_12_cif.got.tgz:22390.got - 2010.04.16 15:33:40.
