data_PCOD8228329
_publ_section_title
;
Structure prediction by ZEFSAII (Michael W. Deem and Ramdas Pophale) SiO2 
 PCOD8228329
Probable space group: P C C N
;
_chemical_formula_sum "Si O2"
_cell_formula_units_Z 64
_cell_length_a 20.675948
_cell_length_b 8.979991
_cell_length_c 18.323095
_cell_angle_alpha 90.000000
_cell_angle_beta 90.000000
_cell_angle_gamma 90.000000
_cell_volume 3402.045878
_symmetry_space_group_name_H-M "P C C N"
_symmetry_group_IT_number 56
_symmetry_cell_setting 'orthorhombic'
loop_
_space_group_symop_operation_xyz
x,y,z
1/2-x,1/2-y,z
1/2+x,-y,1/2-z
-x,1/2+y,1/2-z
-x,-y,-z
1/2+x,1/2+y,-z
1/2-x,y,1/2+z
x,1/2-y,1/2+z
loop_
_atom_site_type_symbol
_atom_site_label
_atom_site_fract_x
_atom_site_fract_y
_atom_site_fract_z
Si Si1 0.637572 0.418768 0.829724
Si Si2 0.130742 0.924627 0.841591
Si Si3 0.130742 0.575373 0.841590
Si Si4 0.750000 0.572737 0.578857
Si Si5 0.994634 0.922842 0.672899
Si Si6 0.750001 0.575410 0.912797
Si Si7 0.137571 0.581229 0.170278
Si Si8 0.505365 0.577156 0.172898
O O1 0.638548 0.458374 0.744118
O O2 0.685633 0.524259 0.872320
O O3 0.661251 0.249998 0.840291
O O4 0.565488 0.439637 0.864023
O O5 0.132178 0.750000 0.858754
O O6 0.138548 0.958376 0.755884
O O7 0.187148 0.006780 0.883541
O O8 0.062572 0.993218 0.870947
O O9 0.187150 0.493221 0.883537
O O10 0.062573 0.506779 0.870946
O O11 0.750000 0.750000 0.586452
O O12 0.749998 0.517388 0.495478
O O13 0.065487 0.939638 0.635979
O O14 0.976545 0.749998 0.682660
O O15 0.999999 0.999997 0.750001
O O16 0.750000 0.750000 0.911467
O O17 0.814368 0.524264 0.872318
#
# Coordination Sequence:
#
# PCOD8228329 Si02
#       8
#     8   8   8   8   8   8   8   8
#     4   9  19  35  56  81 108 136 172 215 261 314
#     4  10  20  35  57  84 108 137 177 219 265 320
#     4  10  20  35  57  84 108 137 177 219 265 320
#     4  11  24  39  52  74 108 143 180 223 264 312
#     4   9  17  31  53  82 111 138 171 217 266 314
#     4  11  24  37  52  76 106 141 182 221 262 312
#     4   9  19  35  56  81 108 136 172 215 261 314
#     4   9  17  31  53  82 111 138 171 217 266 314
#
# _framework density 18.812207999999998
#
# number of rings (size 3 to 8) (size 9 to 14) (size 15 to 20)
#    0.000    2.250    0.000    4.500    0.000   11.000 
#    0.000    1.250    0.000    0.000    0.000    0.000 
#    0.000    0.000    0.000    0.000    0.000    0.000 
#
# Total GULP energy -793364.968470 kJ/mol
# GULP energy per Si atom -12396.327632 kJ/mol
# Density = 1.876939 g / cm^3
# Si number density = 18.812208 Si / 1000 Ang^3
#
#
#
# Elastic Constant Matrix: (Units=GPa)
#
#
# Indices 1 2 3 4 5 6 
#
# 1 150.7527 56.0253 47.1130 0.0000 0.0000 0.0000
# 2 56.0253 90.8534 34.6946 0.0000 0.0000 0.0000
# 3 47.1130 34.6946 60.4949 0.0000 0.0000 0.0000
# 4 0.0000 0.0000 0.0000 23.4442 0.0000 0.0000
# 5 0.0000 0.0000 0.0000 0.0000 -21.2446 0.0000
# 6 0.0000 0.0000 0.0000 0.0000 0.0000 42.0944
#
#
#
# Elastic Compliance Matrix: (Units=1/GPa)
#
#
# Indices 1 2 3 4 5 6 
#
# 1 0.009784 -0.004000 -0.005326 0.000000 0.000000 0.000000
# 2 -0.004000 0.015728 -0.005905 0.000000 0.000000 0.000000
# 3 -0.005326 -0.005905 0.024065 0.000000 0.000000 0.000000
# 4 0.000000 0.000000 0.000000 0.042654 0.000000 0.000000
# 5 0.000000 0.000000 0.000000 0.000000 -0.047071 0.000000
# 6 0.000000 0.000000 0.000000 0.000000 0.000000 0.023756
#
#
# Mechanical properties :
#
#
# Convention : Reuss Voigt Hill
#
# Bulk Modulus (GPa) = 52.31423 64.19631 58.25527
# Shear Modulus (GPa) = 47.28060 19.81002 33.54531
#
# Velocity S-wave (km/s) = 5.01871 3.24858 4.22734
# Velocity P-wave (km/s) = 7.83916 6.94766 7.40683
#
# Compressibility (1/GPa) = 0.01911526
#
# Stress axis : x y z
#
# Youngs Moduli (GPa) = 102.20448 63.57962 41.55398
#
# Poissons Ratio (x) = 0.25430 0.22132
# Poissons Ratio (y) = 0.40878 0.24540
# Poissons Ratio (z) = 0.54435 0.37547
#
# Static dielectric constant tensor:
#      x y z
#    x 4.019260 0.000000 0.000000 
#    y 0.000000 3.655960 0.000000 
#    z 0.000000 0.000000 3.183580 
# 
# 
# High freq. dielectric constant tensor:
#      x y z
#    x 1.756450 0.000000 0.000000 
#    y 0.000000 1.744960 0.000000 
#    z 0.000000 0.000000 1.688140 
# 
# From -- ./inp_files/16882.got.cif
#   From: 2010.03.12/outbox.cif.g09.slc.cpg/sg56_9_cif.got.tgz:16882.got - 2010.04.16 15:33:40.
