data_PCOD8228321
_publ_section_title
;
Structure prediction by ZEFSAII (Michael W. Deem and Ramdas Pophale) SiO2 
 PCOD8228321
Probable space group: P C C N
;
_chemical_formula_sum "Si O2"
_cell_formula_units_Z 40
_cell_length_a 8.285141
_cell_length_b 23.575552
_cell_length_c 9.943207
_cell_angle_alpha 90.000000
_cell_angle_beta 90.000000
_cell_angle_gamma 90.000000
_cell_volume 1942.174531
_symmetry_space_group_name_H-M "P C C N"
_symmetry_group_IT_number 56
_symmetry_cell_setting 'orthorhombic'
loop_
_space_group_symop_operation_xyz
x,y,z
1/2-x,1/2-y,z
1/2+x,-y,1/2-z
-x,1/2+y,1/2-z
-x,-y,-z
1/2+x,1/2+y,-z
1/2-x,y,1/2+z
x,1/2-y,1/2+z
loop_
_atom_site_type_symbol
_atom_site_label
_atom_site_fract_x
_atom_site_fract_y
_atom_site_fract_z
Si Si1 0.284213 0.588381 0.383966
Si Si2 0.708855 0.815115 0.700315
Si Si3 0.137858 0.119094 0.532701
Si Si4 0.422568 0.622944 0.127267
Si Si5 0.645566 0.528142 0.075442
O O1 0.452192 0.601090 0.456786
O O2 0.281070 0.619702 0.238833
O O3 0.143914 0.614698 0.477388
O O4 0.251419 0.521457 0.354716
O O5 0.750000 0.750000 0.715896
O O6 0.705768 0.842126 0.848246
O O7 0.840615 0.846373 0.606825
O O8 0.527312 0.819493 0.634677
O O9 0.240743 0.061177 0.529309
O O10 0.557695 0.574408 0.172666
O O11 0.500000 0.500000 0.000000
#
# Coordination Sequence:
#
# PCOD8228321 Si02
#       5
#     8   8   8   8   8
#     4  10  20  35  55  84 119 148 181 230 280 337
#     4  10  21  40  60  80 107 144 191 239 281 331
#     4  10  21  35  58  86 109 146 191 229 283 339
#     4   9  21  36  56  85 113 148 189 226 277 339
#     4   9  19  34  53  81 118 150 181 222 273 336
#
# _framework density 20.595471
#
# number of rings (size 3 to 8) (size 9 to 14) (size 15 to 20)
#    0.000    2.400    0.000    1.200    0.000   16.000 
#    0.000    1.000    0.000    7.200    0.000    0.000 
#    0.000    0.000    0.000    0.000    0.000    0.000 
#
# Total GULP energy -495612.478856 kJ/mol
# GULP energy per Si atom -12390.311971 kJ/mol
# Density = 2.054859 g / cm^3
# Si number density = 20.595471 Si / 1000 Ang^3
#
#
#
# Elastic Constant Matrix: (Units=GPa)
#
#
# Indices 1 2 3 4 5 6 
#
# 1 68.4098 36.6799 22.2382 0.0000 0.0000 0.0000
# 2 36.6799 100.2150 18.3241 0.0000 0.0000 0.0000
# 3 22.2382 18.3241 65.3342 0.0000 0.0000 0.0000
# 4 0.0000 0.0000 0.0000 17.8099 0.0000 0.0000
# 5 0.0000 0.0000 0.0000 0.0000 36.2471 0.0000
# 6 0.0000 0.0000 0.0000 0.0000 0.0000 32.3680
#
#
#
# Elastic Compliance Matrix: (Units=1/GPa)
#
#
# Indices 1 2 3 4 5 6 
#
# 1 0.019572 -0.006267 -0.004904 0.000000 0.000000 0.000000
# 2 -0.006267 0.012525 -0.001380 0.000000 0.000000 0.000000
# 3 -0.004904 -0.001380 0.017362 0.000000 0.000000 0.000000
# 4 0.000000 0.000000 0.000000 0.056149 0.000000 0.000000
# 5 0.000000 0.000000 0.000000 0.000000 0.027588 0.000000
# 6 0.000000 0.000000 0.000000 0.000000 0.000000 0.030895
#
#
# Mechanical properties :
#
#
# Convention : Reuss Voigt Hill
#
# Bulk Modulus (GPa) = 41.05538 43.16038 42.10788
# Shear Modulus (GPa) = 25.34067 27.73280 26.53673
#
# Velocity S-wave (km/s) = 3.51151 3.67352 3.59343
# Velocity P-wave (km/s) = 6.03477 6.24457 6.14057
#
# Compressibility (1/GPa) = 0.02435735
#
# Stress axis : x y z
#
# Youngs Moduli (GPa) = 51.09286 79.84303 57.59654
#
# Poissons Ratio (x) = 0.50037 0.28247
# Poissons Ratio (y) = 0.32020 0.07946
# Poissons Ratio (z) = 0.25057 0.11015
#
# Static dielectric constant tensor:
#      x y z
#    x 3.881380 0.000000 0.000000 
#    y 0.000000 4.399830 0.000000 
#    z 0.000000 0.000000 3.769180 
# 
# 
# High freq. dielectric constant tensor:
#      x y z
#    x 1.810730 0.000000 0.000000 
#    y 0.000000 1.789530 0.000000 
#    z 0.000000 0.000000 1.802690 
# 
# From -- ./inp_files/2046.got.cif
#   From: 2010.03.12/outbox.cif.g09.slc.cpg/sg56_2_cif.got.tgz:2046.got - 2010.04.16 15:33:40.
