data_PCOD8228429
_publ_section_title
;
Structure prediction by ZEFSAII (Michael W. Deem and Ramdas Pophale) SiO2 
 PCOD8228429
Probable space group: P C C N
;
_chemical_formula_sum "Si O2"
_cell_formula_units_Z 56
_cell_length_a 8.925372
_cell_length_b 30.090365
_cell_length_c 10.523750
_cell_angle_alpha 90.000000
_cell_angle_beta 90.000000
_cell_angle_gamma 90.000000
_cell_volume 2826.339346
_symmetry_space_group_name_H-M "P C C N"
_symmetry_group_IT_number 56
_symmetry_cell_setting 'orthorhombic'
loop_
_space_group_symop_operation_xyz
x,y,z
1/2-x,1/2-y,z
1/2+x,-y,1/2-z
-x,1/2+y,1/2-z
-x,-y,-z
1/2+x,1/2+y,-z
1/2-x,y,1/2+z
x,1/2-y,1/2+z
loop_
_atom_site_type_symbol
_atom_site_label
_atom_site_fract_x
_atom_site_fract_y
_atom_site_fract_z
Si Si1 0.750000 0.250000 0.498998
Si Si2 0.929356 0.400845 0.504283
Si Si3 0.425049 0.900124 0.003964
Si Si4 0.414780 0.955275 0.249180
Si Si5 0.560938 0.449434 0.749583
Si Si6 0.750000 0.750000 0.000202
Si Si7 0.497465 0.309630 0.391945
Si Si8 0.502042 0.190111 0.606979
O O1 0.639587 0.277774 0.409743
O O2 0.654868 0.217280 0.587505
O O3 0.752288 0.394081 0.499810
O O4 0.975106 0.431192 0.624191
O O5 0.989996 0.422783 0.375090
O O6 0.005747 0.352453 0.514432
O O7 0.473493 0.930108 0.123825
O O8 0.498888 0.851494 0.013278
O O9 0.486836 0.921677 0.874675
O O10 0.236625 0.958244 0.249485
O O11 0.475123 0.004668 0.246725
O O12 0.640724 0.721532 0.911464
O O13 0.655342 0.782681 0.089045
O O14 0.503713 0.328363 0.249675
#
# Coordination Sequence:
#
# PCOD8228429 Si02
#       8
#     4   8   8   8   8   4   8   8
#     4  10  22  34  68  96 110 156 208 254 302 368
#     4  10  20  37  63  88 119 156 201 252 298 358
#     4  10  20  37  63  88 119 156 201 252 298 358
#     4  10  20  40  60  85 118 156 198 247 304 354
#     4  10  22  38  60  89 118 154 198 245 300 366
#     4  10  26  42  56  88 126 168 196 254 306 372
#     4  11  21  42  62  90 124 159 204 251 310 357
#     4  11  21  42  62  90 124 159 204 251 310 357
#
# _framework density 19.813614999999999
#
# number of rings (size 3 to 8) (size 9 to 14) (size 15 to 20)
#    0.000    1.714    2.857    1.714    0.000    0.000 
#   18.000    0.000    0.000    0.000    0.000    0.000 
#    0.000    0.000    0.000    0.000    0.000    0.000 
#
# Total GULP energy -694611.191074 kJ/mol
# GULP energy per Si atom -12403.771269 kJ/mol
# Density = 1.976852 g / cm^3
# Si number density = 19.813615 Si / 1000 Ang^3
#
#
#
# Elastic Constant Matrix: (Units=GPa)
#
#
# Indices 1 2 3 4 5 6 
#
# 1 47.5397 24.1049 16.1538 0.0000 0.0000 0.0000
# 2 24.1049 143.5532 59.4319 0.0000 0.0000 0.0000
# 3 16.1538 59.4319 149.1353 0.0000 0.0000 0.0000
# 4 0.0000 0.0000 0.0000 38.8861 0.0000 0.0000
# 5 0.0000 0.0000 0.0000 0.0000 8.7905 0.0000
# 6 0.0000 0.0000 0.0000 0.0000 0.0000 21.3616
#
#
#
# Elastic Compliance Matrix: (Units=1/GPa)
#
#
# Indices 1 2 3 4 5 6 
#
# 1 0.023156 -0.003413 -0.001148 0.000000 0.000000 0.000000
# 2 -0.003413 0.008845 -0.003155 0.000000 0.000000 0.000000
# 3 -0.001148 -0.003155 0.008087 0.000000 0.000000 0.000000
# 4 0.000000 0.000000 0.000000 0.025716 0.000000 0.000000
# 5 0.000000 0.000000 0.000000 0.000000 0.113760 0.000000
# 6 0.000000 0.000000 0.000000 0.000000 0.000000 0.046813
#
#
# Mechanical properties :
#
#
# Convention : Reuss Voigt Hill
#
# Bulk Modulus (GPa) = 40.55870 59.95660 50.25765
# Shear Modulus (GPa) = 19.99774 29.84346 24.92060
#
# Velocity S-wave (km/s) = 3.18038 3.88520 3.55033
# Velocity P-wave (km/s) = 5.83104 7.10298 6.49821
#
# Compressibility (1/GPa) = 0.02465562
#
# Stress axis : x y z
#
# Youngs Moduli (GPa) = 43.18602 113.05230 123.65361
#
# Poissons Ratio (x) = 0.38584 0.14196
# Poissons Ratio (y) = 0.14739 0.39017
# Poissons Ratio (z) = 0.04958 0.35672
#
# Static dielectric constant tensor:
#      x y z
#    x 3.454990 0.000000 0.000000 
#    y 0.000000 3.630240 0.000000 
#    z 0.000000 0.000000 3.753080 
# 
# 
# High freq. dielectric constant tensor:
#      x y z
#    x 1.753230 0.000000 0.000000 
#    y 0.000000 1.787640 0.000000 
#    z 0.000000 0.000000 1.779190 
# 
# From -- ./inp_files/6535.got.cif
#   From: 2010.03.12/outbox.cif.g09.slc.cpg/sg56_4_cif.got.tgz:6535.got - 2010.04.16 15:33:40.
