data_PCOD8228187
_publ_section_title
;
Structure prediction by ZEFSAII (Michael W. Deem and Ramdas Pophale) SiO2 
 PCOD8228187
Probable space group: P C C N
;
_chemical_formula_sum "Si O2"
_cell_formula_units_Z 64
_cell_length_a 22.004980
_cell_length_b 9.296371
_cell_length_c 14.346099
_cell_angle_alpha 90.000000
_cell_angle_beta 90.000000
_cell_angle_gamma 90.000000
_cell_volume 2934.730658
_symmetry_space_group_name_H-M "P C C N"
_symmetry_group_IT_number 56
_symmetry_cell_setting 'orthorhombic'
loop_
_space_group_symop_operation_xyz
x,y,z
1/2-x,1/2-y,z
1/2+x,-y,1/2-z
-x,1/2+y,1/2-z
-x,-y,-z
1/2+x,1/2+y,-z
1/2-x,y,1/2+z
x,1/2-y,1/2+z
loop_
_atom_site_type_symbol
_atom_site_label
_atom_site_fract_x
_atom_site_fract_y
_atom_site_fract_z
Si Si1 0.138216 0.740777 0.205653
Si Si2 0.818436 0.733018 0.720745
Si Si3 0.620609 0.256804 0.505422
Si Si4 0.832414 0.037353 0.645276
Si Si5 0.695197 0.434269 0.144917
Si Si6 0.563561 0.785248 0.834108
Si Si7 0.510051 0.092894 0.785635
Si Si8 0.011600 0.335705 0.980912
O O1 0.152398 0.751793 0.095796
O O2 0.142880 0.894288 0.257852
O O3 0.186511 0.632549 0.252064
O O4 0.072711 0.675308 0.224387
O O5 0.750000 0.750000 0.763235
O O6 0.820197 0.602273 0.648277
O O7 0.866169 0.707082 0.804164
O O8 0.836674 0.867851 0.657274
O O9 0.628975 0.412522 0.555461
O O10 0.649742 0.134913 0.570207
O O11 0.548424 0.236721 0.496117
O O12 0.765042 0.093112 0.619890
O O13 0.532223 0.635110 0.801782
O O14 0.523831 0.922045 0.795465
O O15 0.563182 0.781329 0.947214
O O16 0.471435 0.164488 0.871551
O O17 0.000000 0.500000 0.000000
#
# Coordination Sequence:
#
# PCOD8228187 Si02
#       8
#     8   8   8   8   8   8   8   8
#     4  10  19  37  60  89 120 151 202 254 308 365
#     4  10  23  41  61  87 125 170 204 252 316 373
#     4  10  20  36  63  88 120 156 200 259 311 360
#     4  10  22  36  61  87 118 161 209 251 298 377
#     4  10  20  39  58  87 120 158 210 255 302 359
#     4  11  21  39  66  84 123 160 201 251 307 370
#     4  10  22  37  63  94 117 157 198 251 313 368
#     4   9  21  37  58  91 120 150 199 248 303 370
#
# _framework density 21.807793
#
# number of rings (size 3 to 8) (size 9 to 14) (size 15 to 20)
#    0.000    2.000    1.250    3.000    5.250    2.000 
#    0.000    3.125    0.000    6.750    0.000    0.000 
#    0.000    0.000    0.000    0.000    0.000    0.000 
#
# Total GULP energy -793154.656946 kJ/mol
# GULP energy per Si atom -12393.041515 kJ/mol
# Density = 2.175816 g / cm^3
# Si number density = 21.807793 Si / 1000 Ang^3
#
#
#
# Elastic Constant Matrix: (Units=GPa)
#
#
# Indices 1 2 3 4 5 6 
#
# 1 51.4983 1.4541 7.3728 0.0000 0.0000 0.0000
# 2 1.4541 81.0298 18.7481 0.0000 0.0000 0.0000
# 3 7.3728 18.7481 110.8588 0.0000 0.0000 0.0000
# 4 0.0000 0.0000 0.0000 20.3244 0.0000 0.0000
# 5 0.0000 0.0000 0.0000 0.0000 20.1740 0.0000
# 6 0.0000 0.0000 0.0000 0.0000 0.0000 28.7052
#
#
#
# Elastic Compliance Matrix: (Units=1/GPa)
#
#
# Indices 1 2 3 4 5 6 
#
# 1 0.019605 -0.000052 -0.001295 0.000000 0.000000 0.000000
# 2 -0.000052 0.012844 -0.002169 0.000000 0.000000 0.000000
# 3 -0.001295 -0.002169 0.009473 0.000000 0.000000 0.000000
# 4 0.000000 0.000000 0.000000 0.049202 0.000000 0.000000
# 5 0.000000 0.000000 0.000000 0.000000 0.049569 0.000000
# 6 0.000000 0.000000 0.000000 0.000000 0.000000 0.034837
#
#
# Mechanical properties :
#
#
# Convention : Reuss Voigt Hill
#
# Bulk Modulus (GPa) = 28.66111 33.17077 30.91594
# Shear Modulus (GPa) = 25.74775 28.22817 26.98796
#
# Velocity S-wave (km/s) = 3.43981 3.60169 3.52168
# Velocity P-wave (km/s) = 5.38029 5.70436 5.54470
#
# Compressibility (1/GPa) = 0.03489048
#
# Stress axis : x y z
#
# Youngs Moduli (GPa) = 51.00745 77.85829 105.55911
#
# Poissons Ratio (x) = 0.00406 0.13670
# Poissons Ratio (y) = 0.00266 0.22892
# Poissons Ratio (z) = 0.06606 0.16885
#
# Static dielectric constant tensor:
#      x y z
#    x 4.100880 0.000000 0.000000 
#    y 0.000000 4.005520 0.000000 
#    z 0.000000 0.000000 4.478640 
# 
# 
# High freq. dielectric constant tensor:
#      x y z
#    x 1.859880 0.000000 0.000000 
#    y 0.000000 1.854340 0.000000 
#    z 0.000000 0.000000 1.842660 
# 
# From -- ./inp_files/13295.got.cif
#   From: 2010.03.12/outbox.cif.g09.slc.cpg/sg56_7_cif.got.tgz:13295.got - 2010.04.16 15:33:40.
