data_PCOD8228851
_publ_section_title
;
Structure prediction by ZEFSAII (Michael W. Deem and Ramdas Pophale) SiO2 
 PCOD8228851
Probable space group: P C C N
;
_chemical_formula_sum "Si O2"
_cell_formula_units_Z 24
_cell_length_a 9.230368
_cell_length_b 10.262540
_cell_length_c 9.697911
_cell_angle_alpha 90.000000
_cell_angle_beta 90.000000
_cell_angle_gamma 90.000000
_cell_volume 918.654217
_symmetry_space_group_name_H-M "P C C N"
_symmetry_group_IT_number 56
_symmetry_cell_setting 'orthorhombic'
loop_
_space_group_symop_operation_xyz
x,y,z
1/2-x,1/2-y,z
1/2+x,-y,1/2-z
-x,1/2+y,1/2-z
-x,-y,-z
1/2+x,1/2+y,-z
1/2-x,y,1/2+z
x,1/2-y,1/2+z
loop_
_atom_site_type_symbol
_atom_site_label
_atom_site_fract_x
_atom_site_fract_y
_atom_site_fract_z
Si Si1 0.410378 0.208148 0.476864
Si Si2 0.385456 0.516539 0.167848
Si Si3 0.663924 0.376816 0.546675
O O1 0.250000 0.250000 0.432808
O O2 0.476952 0.110539 0.361969
O O3 0.504464 0.339058 0.492631
O O4 0.418601 0.132318 0.624597
O O5 0.347165 0.520786 0.328573
O O6 0.246308 0.559128 0.080029
O O7 0.750000 0.250000 0.600742
#
# Coordination Sequence:
#
# PCOD8228851 Si02
#       3
#     8   8   8
#     4  10  23  39  62  95 127 163 210 258 311 371
#     4  10  23  42  63  92 127 165 211 258 310 374
#     4  10  21  41  64  88 126 167 207 259 314 369
#
# _framework density 26.125174000000001
#
# number of rings (size 3 to 8) (size 9 to 14) (size 15 to 20)
#    0.000    2.000    0.000    3.000    0.000   13.333 
#    0.000    0.000    0.000    0.000    0.000    0.000 
#    0.000    0.000    0.000    0.000    0.000    0.000 
#
# Total GULP energy -297749.950525 kJ/mol
# GULP energy per Si atom -12406.247939 kJ/mol
# Density = 2.606571 g / cm^3
# Si number density = 26.125174 Si / 1000 Ang^3
#
#
#
# Elastic Constant Matrix: (Units=GPa)
#
#
# Indices 1 2 3 4 5 6 
#
# 1 206.2062 33.5176 46.9201 0.0000 0.0000 0.0000
# 2 33.5176 54.0214 23.3500 0.0000 0.0000 0.0000
# 3 46.9201 23.3500 64.4409 0.0000 0.0000 0.0000
# 4 0.0000 0.0000 0.0000 32.1797 0.0000 0.0000
# 5 0.0000 0.0000 0.0000 0.0000 14.7190 0.0000
# 6 0.0000 0.0000 0.0000 0.0000 0.0000 35.6957
#
#
#
# Elastic Compliance Matrix: (Units=1/GPa)
#
#
# Indices 1 2 3 4 5 6 
#
# 1 0.006022 -0.002183 -0.003594 0.000000 0.000000 0.000000
# 2 -0.002183 0.022740 -0.006650 0.000000 0.000000 0.000000
# 3 -0.003594 -0.006650 0.020544 0.000000 0.000000 0.000000
# 4 0.000000 0.000000 0.000000 0.031075 0.000000 0.000000
# 5 0.000000 0.000000 0.000000 0.000000 0.067940 0.000000
# 6 0.000000 0.000000 0.000000 0.000000 0.000000 0.028015
#
#
# Mechanical properties :
#
#
# Convention : Reuss Voigt Hill
#
# Bulk Modulus (GPa) = 40.89564 59.13823 50.01693
# Shear Modulus (GPa) = 23.88443 31.24425 27.56434
#
# Velocity S-wave (km/s) = 3.02690 3.46199 3.25173
# Velocity P-wave (km/s) = 5.28242 6.21821 5.76932
#
# Compressibility (1/GPa) = 0.02445249
#
# Stress axis : x y z
#
# Youngs Moduli (GPa) = 166.05579 43.97507 48.67493
#
# Poissons Ratio (x) = 0.09600 0.17492
# Poissons Ratio (y) = 0.36251 0.32370
# Poissons Ratio (z) = 0.59676 0.29245
#
# Static dielectric constant tensor:
#      x y z
#    x 4.936100 0.000000 0.000000 
#    y 0.000000 4.947130 0.000000 
#    z 0.000000 0.000000 4.107200 
# 
# 
# High freq. dielectric constant tensor:
#      x y z
#    x 2.063970 0.000000 0.000000 
#    y 0.000000 2.049540 0.000000 
#    z 0.000000 0.000000 2.019760 
# 
# From -- ./inp_files/1781.got.cif
#   From: 2010.03.12/outbox.cif.g09.slc.cpg/sg56_1_cif.got.tgz:1781.got - 2010.04.16 15:33:40.
