data_PCOD8228200
_publ_section_title
;
Structure prediction by ZEFSAII (Michael W. Deem and Ramdas Pophale) SiO2 
 PCOD8228200
Probable space group: P C C N
;
_chemical_formula_sum "Si O2"
_cell_formula_units_Z 48
_cell_length_a 22.720061
_cell_length_b 12.230999
_cell_length_c 9.231521
_cell_angle_alpha 90.000000
_cell_angle_beta 90.000000
_cell_angle_gamma 90.000000
_cell_volume 2565.338540
_symmetry_space_group_name_H-M "P C C N"
_symmetry_group_IT_number 56
_symmetry_cell_setting 'orthorhombic'
loop_
_space_group_symop_operation_xyz
x,y,z
1/2-x,1/2-y,z
1/2+x,-y,1/2-z
-x,1/2+y,1/2-z
-x,-y,-z
1/2+x,1/2+y,-z
1/2-x,y,1/2+z
x,1/2-y,1/2+z
loop_
_atom_site_type_symbol
_atom_site_label
_atom_site_fract_x
_atom_site_fract_y
_atom_site_fract_z
Si Si1 0.543560 0.879208 0.107471
Si Si2 0.308907 0.632497 0.037195
Si Si3 0.967936 0.868930 0.098668
Si Si4 0.580499 0.492712 0.864466
Si Si5 0.689276 0.140545 0.811364
Si Si6 0.424873 0.993482 0.155164
O O1 0.552247 0.751890 0.142695
O O2 0.474018 0.902680 0.120162
O O3 0.583569 0.963766 0.200144
O O4 0.566180 0.900767 0.945794
O O5 0.302951 0.650305 0.863442
O O6 0.355958 0.538129 0.072940
O O7 0.327959 0.742944 0.119637
O O8 0.247596 0.595091 0.109493
O O9 0.038020 0.886357 0.122162
O O10 0.931956 0.961310 0.184204
O O11 0.949490 0.899533 0.936021
O O12 0.639195 0.056996 0.857377
#
# Coordination Sequence:
#
# PCOD8228200 Si02
#       6
#     8   8   8   8   8   8
#     4  10  21  34  59  86 116 152 188 227 286 338
#     4  11  23  39  60  87 112 151 186 238 287 337
#     4  10  19  38  55  86 116 152 185 232 282 337
#     4  10  21  35  60  83 118 148 188 233 284 334
#     4  11  23  39  61  85 116 146 191 235 287 339
#     4  10  21  37  56  87 116 148 188 236 280 340
#
# _framework density 18.710979999999999
#
# number of rings (size 3 to 8) (size 9 to 14) (size 15 to 20)
#    0.000    1.667    1.667    4.000    4.667    0.000 
#    6.000    0.000    0.000    6.000    0.000    0.000 
#    0.000    0.000    0.000    0.000    0.000    0.000 
#
# Total GULP energy -594965.959939 kJ/mol
# GULP energy per Si atom -12395.124165 kJ/mol
# Density = 1.866839 g / cm^3
# Si number density = 18.710980 Si / 1000 Ang^3
#
#
#
# Elastic Constant Matrix: (Units=GPa)
#
#
# Indices 1 2 3 4 5 6 
#
# 1 111.4997 55.3009 32.2697 0.0000 0.0000 0.0000
# 2 55.3009 86.5242 25.1731 0.0000 0.0000 0.0000
# 3 32.2697 25.1731 86.1916 0.0000 0.0000 0.0000
# 4 0.0000 0.0000 0.0000 10.8927 0.0000 0.0000
# 5 0.0000 0.0000 0.0000 0.0000 24.8797 0.0000
# 6 0.0000 0.0000 0.0000 0.0000 0.0000 25.2453
#
#
#
# Elastic Compliance Matrix: (Units=1/GPa)
#
#
# Indices 1 2 3 4 5 6 
#
# 1 0.013730 -0.007956 -0.002817 0.000000 0.000000 0.000000
# 2 -0.007956 0.017241 -0.002057 0.000000 0.000000 0.000000
# 3 -0.002817 -0.002057 0.013257 0.000000 0.000000 0.000000
# 4 0.000000 0.000000 0.000000 0.091805 0.000000 0.000000
# 5 0.000000 0.000000 0.000000 0.000000 0.040193 0.000000
# 6 0.000000 0.000000 0.000000 0.000000 0.000000 0.039611
#
#
# Mechanical properties :
#
#
# Convention : Reuss Voigt Hill
#
# Bulk Modulus (GPa) = 53.85244 56.63366 55.24305
# Shear Modulus (GPa) = 20.18692 23.63500 21.91096
#
# Velocity S-wave (km/s) = 3.28820 3.55795 3.42573
# Velocity P-wave (km/s) = 6.57723 6.87110 6.72577
#
# Compressibility (1/GPa) = 0.01856926
#
# Stress axis : x y z
#
# Youngs Moduli (GPa) = 72.83522 58.00270 75.42996
#
# Poissons Ratio (x) = 0.46145 0.21247
# Poissons Ratio (y) = 0.57945 0.15514
# Poissons Ratio (z) = 0.20516 0.11930
#
# Static dielectric constant tensor:
#      x y z
#    x 3.300320 0.000000 0.000000 
#    y 0.000000 3.077090 0.000000 
#    z 0.000000 0.000000 3.627880 
# 
# 
# High freq. dielectric constant tensor:
#      x y z
#    x 1.711520 0.000000 0.000000 
#    y 0.000000 1.709040 0.000000 
#    z 0.000000 0.000000 1.751450 
# 
# From -- ./inp_files/2793.got.cif
#   From: 2010.03.12/outbox.cif.g09.slc.cpg/sg56_2_cif.got.tgz:2793.got - 2010.04.16 15:33:40.
