data_PCOD8228202
_publ_section_title
;
Structure prediction by ZEFSAII (Michael W. Deem and Ramdas Pophale) SiO2 
 PCOD8228202
Probable space group: P C C N
;
_chemical_formula_sum "Si O2"
_cell_formula_units_Z 64
_cell_length_a 10.991389
_cell_length_b 28.802981
_cell_length_c 9.376648
_cell_angle_alpha 90.000000
_cell_angle_beta 90.000000
_cell_angle_gamma 90.000000
_cell_volume 2968.503937
_symmetry_space_group_name_H-M "P C C N"
_symmetry_group_IT_number 56
_symmetry_cell_setting 'orthorhombic'
loop_
_space_group_symop_operation_xyz
x,y,z
1/2-x,1/2-y,z
1/2+x,-y,1/2-z
-x,1/2+y,1/2-z
-x,-y,-z
1/2+x,1/2+y,-z
1/2-x,y,1/2+z
x,1/2-y,1/2+z
loop_
_atom_site_type_symbol
_atom_site_label
_atom_site_fract_x
_atom_site_fract_y
_atom_site_fract_z
Si Si1 0.502408 0.681014 0.830029
Si Si2 0.657128 0.906422 0.990993
Si Si3 0.138558 0.990645 0.479683
Si Si4 0.257328 0.566902 0.231926
Si Si5 0.686679 0.371659 0.021907
Si Si6 0.449765 0.844375 0.034666
Si Si7 0.872632 0.773767 0.381503
Si Si8 0.254615 0.354261 0.758527
O O1 0.421659 0.666178 0.967509
O O2 0.416418 0.670320 0.694731
O O3 0.531971 0.735442 0.831447
O O4 0.624112 0.650928 0.817853
O O5 0.514102 0.895478 0.026318
O O6 0.741334 0.870014 0.078834
O O7 0.676711 0.895398 0.824884
O O8 0.699842 0.958354 0.027649
O O9 0.154564 0.964902 0.328060
O O10 0.184342 0.963536 0.618193
O O11 0.000000 0.000000 0.500000
O O12 0.168792 0.591849 0.347130
O O13 0.328796 0.604459 0.133556
O O14 0.820405 0.347906 0.045131
O O15 0.552162 0.807271 0.985815
O O16 0.750000 0.750000 0.451149
O O17 0.827948 0.805370 0.247552
#
# Coordination Sequence:
#
# PCOD8228202 Si02
#       8
#     8   8   8   8   8   8   8   8
#     4  10  21  38  62  89 125 164 209 265 311 388
#     4  10  19  38  61  91 123 160 213 247 331 383
#     4  11  23  41  67  96 132 173 217 284 330 396
#     4  10  23  42  64  92 130 171 220 271 326 391
#     4  11  21  43  61  89 123 178 222 253 327 384
#     4  10  21  39  65  85 128 172 204 261 320 389
#     4   9  20  39  61  96 123 158 207 266 330 377
#     4   9  20  36  62  89 124 163 196 263 315 395
#
# _framework density 21.559683
#
# number of rings (size 3 to 8) (size 9 to 14) (size 15 to 20)
#    0.000    2.000    1.250    2.250    1.750    5.000 
#   11.250    2.500    0.000    0.000    0.000    0.000 
#    0.000    0.000    0.000    0.000    0.000    0.000 
#
# Total GULP energy -792989.828798 kJ/mol
# GULP energy per Si atom -12390.466075 kJ/mol
# Density = 2.151061 g / cm^3
# Si number density = 21.559683 Si / 1000 Ang^3
#
#
#
# Elastic Constant Matrix: (Units=GPa)
#
#
# Indices 1 2 3 4 5 6 
#
# 1 82.6443 39.7063 29.2299 0.0000 0.0000 0.0000
# 2 39.7063 94.1359 25.5207 0.0000 0.0000 0.0000
# 3 29.2299 25.5207 96.0287 0.0000 0.0000 0.0000
# 4 0.0000 0.0000 0.0000 25.0059 0.0000 0.0000
# 5 0.0000 0.0000 0.0000 0.0000 28.5243 0.0000
# 6 0.0000 0.0000 0.0000 0.0000 0.0000 24.7160
#
#
#
# Elastic Compliance Matrix: (Units=1/GPa)
#
#
# Indices 1 2 3 4 5 6 
#
# 1 0.016111 -0.005890 -0.003338 0.000000 0.000000 0.000000
# 2 -0.005890 0.013601 -0.001822 0.000000 0.000000 0.000000
# 3 -0.003338 -0.001822 0.011914 0.000000 0.000000 0.000000
# 4 0.000000 0.000000 0.000000 0.039991 0.000000 0.000000
# 5 0.000000 0.000000 0.000000 0.000000 0.035058 0.000000
# 6 0.000000 0.000000 0.000000 0.000000 0.000000 0.040460
#
#
# Mechanical properties :
#
#
# Convention : Reuss Voigt Hill
#
# Bulk Modulus (GPa) = 51.21693 51.30254 51.25974
# Shear Modulus (GPa) = 26.91880 27.53938 27.22909
#
# Velocity S-wave (km/s) = 3.53735 3.57789 3.55768
# Velocity P-wave (km/s) = 6.36327 6.39653 6.37992
#
# Compressibility (1/GPa) = 0.01952479
#
# Stress axis : x y z
#
# Youngs Moduli (GPa) = 62.06990 73.52184 83.93564
#
# Poissons Ratio (x) = 0.43308 0.28022
# Poissons Ratio (y) = 0.36562 0.15291
# Poissons Ratio (z) = 0.20722 0.13394
#
# Static dielectric constant tensor:
#      x y z
#    x 3.719280 0.000000 0.000000 
#    y 0.000000 4.929940 0.000000 
#    z 0.000000 0.000000 4.273350 
# 
# 
# High freq. dielectric constant tensor:
#      x y z
#    x 1.831040 0.000000 0.000000 
#    y 0.000000 1.854160 0.000000 
#    z 0.000000 0.000000 1.842260 
# 
# From -- ./inp_files/2984.got.cif
#   From: 2010.03.12/outbox.cif.g09.slc.cpg/sg56_2_cif.got.tgz:2984.got - 2010.04.16 15:33:40.
