data_PCOD8228290
_publ_section_title
;
Structure prediction by ZEFSAII (Michael W. Deem and Ramdas Pophale) SiO2 
 PCOD8228290
Probable space group: P C C N
;
_chemical_formula_sum "Si O2"
_cell_formula_units_Z 64
_cell_length_a 13.036588
_cell_length_b 12.630402
_cell_length_c 18.607983
_cell_angle_alpha 90.000000
_cell_angle_beta 90.000000
_cell_angle_gamma 90.000000
_cell_volume 3063.941117
_symmetry_space_group_name_H-M "P C C N"
_symmetry_group_IT_number 56
_symmetry_cell_setting 'orthorhombic'
loop_
_space_group_symop_operation_xyz
x,y,z
1/2-x,1/2-y,z
1/2+x,-y,1/2-z
-x,1/2+y,1/2-z
-x,-y,-z
1/2+x,1/2+y,-z
1/2-x,y,1/2+z
x,1/2-y,1/2+z
loop_
_atom_site_type_symbol
_atom_site_label
_atom_site_fract_x
_atom_site_fract_y
_atom_site_fract_z
Si Si1 0.321110 0.351911 0.863093
Si Si2 0.134588 0.711952 0.779215
Si Si3 0.187273 0.472790 0.760125
Si Si4 0.511432 0.712839 0.410956
Si Si5 0.828016 0.846905 0.978804
Si Si6 0.034729 0.306127 0.811326
Si Si7 0.816561 0.961641 0.383208
Si Si8 0.036422 0.600371 0.046447
O O1 0.250000 0.250000 0.869342
O O2 0.260400 0.450885 0.828896
O O3 0.415140 0.311557 0.813506
O O4 0.361582 0.385052 0.941895
O O5 0.250000 0.750000 0.787752
O O6 0.133636 0.586703 0.763481
O O7 0.080047 0.782704 0.717317
O O8 0.073378 0.735961 0.851915
O O9 0.263668 0.463884 0.693473
O O10 0.097169 0.383981 0.757363
O O11 0.575913 0.818232 0.428258
O O12 0.589395 0.621729 0.383524
O O13 0.451471 0.688953 0.485636
O O14 0.750000 0.750000 0.983894
O O15 0.769759 0.942823 0.942208
O O16 0.041547 0.358318 0.891540
O O17 0.861231 0.075128 0.408034
O O18 0.000000 0.500000 0.000000
#
# Coordination Sequence:
#
# PCOD8228290 Si02
#       8
#     8   8   8   8   8   8   8   8
#     4   9  19  34  64  97 124 160 211 277 328 383
#     4  12  27  42  62  90 133 177 218 268 334 405
#     4  11  23  40  64  96 132 169 215 271 338 403
#     4  10  20  38  61  89 121 165 215 269 319 386
#     4   9  17  32  60  94 124 150 210 273 320 376
#     4  11  22  42  67  93 128 171 226 277 330 397
#     4  10  20  33  60  93 123 157 206 267 327 388
#     4  10  20  35  63  93 122 167 220 270 323 393
#
# _framework density 20.88813
#
# number of rings (size 3 to 8) (size 9 to 14) (size 15 to 20)
#    0.000    1.750    1.250    3.750    7.000    4.500 
#    0.000    1.875    0.000    1.500    0.000    0.000 
#    0.000    0.000    0.000    0.000    0.000    0.000 
#
# Total GULP energy -793047.659317 kJ/mol
# GULP energy per Si atom -12391.369677 kJ/mol
# Density = 2.084059 g / cm^3
# Si number density = 20.888130 Si / 1000 Ang^3
#
#
#
# Elastic Constant Matrix: (Units=GPa)
#
#
# Indices 1 2 3 4 5 6 
#
# 1 121.2837 39.6803 56.2802 0.0000 0.0000 0.0000
# 2 39.6803 60.4696 30.0887 0.0000 0.0000 0.0000
# 3 56.2802 30.0887 129.9494 0.0000 0.0000 0.0000
# 4 0.0000 0.0000 0.0000 16.9515 0.0000 0.0000
# 5 0.0000 0.0000 0.0000 0.0000 27.5032 0.0000
# 6 0.0000 0.0000 0.0000 0.0000 0.0000 38.0687
#
#
#
# Elastic Compliance Matrix: (Units=1/GPa)
#
#
# Indices 1 2 3 4 5 6 
#
# 1 0.011957 -0.005955 -0.003799 0.000000 0.000000 0.000000
# 2 -0.005955 0.021657 -0.002435 0.000000 0.000000 0.000000
# 3 -0.003799 -0.002435 0.009905 0.000000 0.000000 0.000000
# 4 0.000000 0.000000 0.000000 0.058992 0.000000 0.000000
# 5 0.000000 0.000000 0.000000 0.000000 0.036359 0.000000
# 6 0.000000 0.000000 0.000000 0.000000 0.000000 0.026268
#
#
# Mechanical properties :
#
#
# Convention : Reuss Voigt Hill
#
# Bulk Modulus (GPa) = 52.25181 62.64457 57.44819
# Shear Modulus (GPa) = 25.52356 28.88157 27.20257
#
# Velocity S-wave (km/s) = 3.49939 3.72247 3.61265
# Velocity P-wave (km/s) = 6.43405 6.96645 6.70553
#
# Compressibility (1/GPa) = 0.01913809
#
# Stress axis : x y z
#
# Youngs Moduli (GPa) = 83.63551 46.17452 100.96261
#
# Poissons Ratio (x) = 0.27499 0.38360
# Poissons Ratio (y) = 0.49809 0.24587
# Poissons Ratio (z) = 0.31777 0.11245
#
# Static dielectric constant tensor:
#      x y z
#    x 3.856340 0.000000 0.000000 
#    y 0.000000 3.691220 0.000000 
#    z 0.000000 0.000000 4.026060 
# 
# 
# High freq. dielectric constant tensor:
#      x y z
#    x 1.808920 0.000000 0.000000 
#    y 0.000000 1.787200 0.000000 
#    z 0.000000 0.000000 1.832320 
# 
# From -- ./inp_files/15799.got.cif
#   From: 2010.03.12/outbox.cif.g09.slc.cpg/sg56_8_cif.got.tgz:15799.got - 2010.04.16 15:33:40.
