data_PCOD8228920
_publ_section_title
;
Structure prediction by ZEFSAII (Michael W. Deem and Ramdas Pophale) SiO2 
 PCOD8228920
Probable space group: P C C N
;
_chemical_formula_sum "Si O2"
_cell_formula_units_Z 64
_cell_length_a 10.886246
_cell_length_b 27.174631
_cell_length_c 9.775504
_cell_angle_alpha 90.000000
_cell_angle_beta 90.000000
_cell_angle_gamma 90.000000
_cell_volume 2891.884592
_symmetry_space_group_name_H-M "P C C N"
_symmetry_group_IT_number 56
_symmetry_cell_setting 'orthorhombic'
loop_
_space_group_symop_operation_xyz
x,y,z
1/2-x,1/2-y,z
1/2+x,-y,1/2-z
-x,1/2+y,1/2-z
-x,-y,-z
1/2+x,1/2+y,-z
1/2-x,y,1/2+z
x,1/2-y,1/2+z
loop_
_atom_site_type_symbol
_atom_site_label
_atom_site_fract_x
_atom_site_fract_y
_atom_site_fract_z
Si Si1 0.933874 0.045051 0.275925
Si Si2 0.866292 0.282074 0.038734
Si Si3 0.161509 0.607258 0.979217
Si Si4 0.288539 0.193292 0.672272
Si Si5 0.156360 0.524129 0.754792
Si Si6 0.495935 0.758971 0.214269
Si Si7 0.072867 0.584894 0.519926
Si Si8 0.385546 0.164413 0.393253
O O1 0.915887 0.086359 0.392631
O O2 0.805003 0.012205 0.261930
O O3 0.965150 0.071770 0.133791
O O4 0.061106 0.016364 0.316079
O O5 0.750000 0.250000 0.083110
O O6 0.874181 0.339376 0.076478
O O7 0.882361 0.279217 0.874321
O O8 0.972472 0.259560 0.132664
O O9 0.301861 0.615629 0.024011
O O10 0.149094 0.571092 0.851870
O O11 0.250000 0.250000 0.653699
O O12 0.411121 0.195469 0.765593
O O13 0.301204 0.166727 0.527775
O O14 0.194078 0.159306 0.755779
O O15 0.097866 0.535248 0.606156
O O16 0.541765 0.715422 0.115407
O O17 0.970194 0.616802 0.595157
#
# Coordination Sequence:
#
# PCOD8228920 Si02
#       8
#     8   8   8   8   8   8   8   8
#     4  10  22  42  71  95 134 177 225 278 350 419
#     4  12  25  39  61  96 133 174 227 275 331 409
#     4  10  23  40  67  98 134 174 223 280 344 404
#     4  10  22  39  61  83 122 176 220 270 333 400
#     4  10  21  44  68  98 132 178 221 279 349 416
#     4  11  23  39  61  86 125 175 216 277 327 398
#     4  10  22  40  64  94 131 170 207 276 342 409
#     4  11  22  41  62  88 126 168 222 269 340 399
#
# _framework density 22.130896
#
# number of rings (size 3 to 8) (size 9 to 14) (size 15 to 20)
#    0.000    1.500    1.250    3.750    3.500    4.000 
#    2.250    0.000    0.000    0.000    0.000    0.000 
#    0.000    0.000    0.000    0.000    0.000    0.000 
#
# Total GULP energy -792969.326947 kJ/mol
# GULP energy per Si atom -12390.145734 kJ/mol
# Density = 2.208053 g / cm^3
# Si number density = 22.130896 Si / 1000 Ang^3
#
#
#
# Elastic Constant Matrix: (Units=GPa)
#
#
# Indices 1 2 3 4 5 6 
#
# 1 95.9807 27.6315 13.6894 0.0000 0.0000 0.0000
# 2 27.6315 54.3903 5.8093 0.0000 0.0000 0.0000
# 3 13.6894 5.8093 78.2484 0.0000 0.0000 0.0000
# 4 0.0000 0.0000 0.0000 22.4223 0.0000 0.0000
# 5 0.0000 0.0000 0.0000 0.0000 37.4649 0.0000
# 6 0.0000 0.0000 0.0000 0.0000 0.0000 19.5985
#
#
#
# Elastic Compliance Matrix: (Units=1/GPa)
#
#
# Indices 1 2 3 4 5 6 
#
# 1 0.012429 -0.006131 -0.001719 0.000000 0.000000 0.000000
# 2 -0.006131 0.021556 -0.000528 0.000000 0.000000 0.000000
# 3 -0.001719 -0.000528 0.013120 0.000000 0.000000 0.000000
# 4 0.000000 0.000000 0.000000 0.044598 0.000000 0.000000
# 5 0.000000 0.000000 0.000000 0.000000 0.026692 0.000000
# 6 0.000000 0.000000 0.000000 0.000000 0.000000 0.051024
#
#
# Mechanical properties :
#
#
# Convention : Reuss Voigt Hill
#
# Bulk Modulus (GPa) = 32.94915 35.87553 34.41234
# Shear Modulus (GPa) = 25.47235 27.99644 26.73439
#
# Velocity S-wave (km/s) = 3.39630 3.56060 3.47942
# Velocity P-wave (km/s) = 5.50458 5.75757 5.63250
#
# Compressibility (1/GPa) = 0.03034980
#
# Stress axis : x y z
#
# Youngs Moduli (GPa) = 80.45789 46.38984 76.22078
#
# Poissons Ratio (x) = 0.28439 0.13104
# Poissons Ratio (y) = 0.49325 0.04024
# Poissons Ratio (z) = 0.13833 0.02449
#
# Static dielectric constant tensor:
#      x y z
#    x 4.297520 0.000000 0.000000 
#    y 0.000000 3.639840 0.000000 
#    z 0.000000 0.000000 4.000710 
# 
# 
# High freq. dielectric constant tensor:
#      x y z
#    x 1.873930 0.000000 0.000000 
#    y 0.000000 1.836310 0.000000 
#    z 0.000000 0.000000 1.890910 
# 
# From -- ./inp_files/2977.got.cif
#   From: 2010.03.12/outbox.cif.g09.slc.cpg/sg56_2_cif.got.tgz:2977.got - 2010.04.16 15:33:40.
