data_PCOD8228021
_publ_section_title
;
Structure prediction by ZEFSAII (Michael W. Deem and Ramdas Pophale) SiO2 
 PCOD8228021
Probable space group: P C C N
;
_chemical_formula_sum "Si O2"
_cell_formula_units_Z 64
_cell_length_a 8.734996
_cell_length_b 15.816433
_cell_length_c 23.710502
_cell_angle_alpha 90.000000
_cell_angle_beta 90.000000
_cell_angle_gamma 90.000000
_cell_volume 3275.759471
_symmetry_space_group_name_H-M "P C C N"
_symmetry_group_IT_number 56
_symmetry_cell_setting 'orthorhombic'
loop_
_space_group_symop_operation_xyz
x,y,z
1/2-x,1/2-y,z
1/2+x,-y,1/2-z
-x,1/2+y,1/2-z
-x,-y,-z
1/2+x,1/2+y,-z
1/2-x,y,1/2+z
x,1/2-y,1/2+z
loop_
_atom_site_type_symbol
_atom_site_label
_atom_site_fract_x
_atom_site_fract_y
_atom_site_fract_z
Si Si1 0.913803 0.652434 0.389784
Si Si2 0.944116 0.094464 0.997475
Si Si3 0.070394 0.237436 0.925356
Si Si4 0.569637 0.653507 0.388428
Si Si5 0.572015 0.587040 0.770727
Si Si6 0.566619 0.912750 0.769592
Si Si7 0.856687 0.329771 0.009107
Si Si8 0.431271 0.250174 0.295730
O O1 0.740803 0.627771 0.407907
O O2 0.925929 0.748970 0.369993
O O3 0.969813 0.597411 0.336681
O O4 0.021904 0.639837 0.443196
O O5 0.028011 0.143422 0.946607
O O6 0.759893 0.096869 0.988261
O O7 0.000000 0.000000 0.000000
O O8 0.250000 0.250000 0.934930
O O9 0.019807 0.248801 0.860956
O O10 0.977619 0.307485 0.960475
O O11 0.518492 0.599070 0.334601
O O12 0.448917 0.635333 0.437465
O O13 0.752493 0.583944 0.762468
O O14 0.501932 0.499818 0.751095
O O15 0.503275 0.665026 0.734045
O O16 0.500253 0.833978 0.733500
O O17 0.750000 0.250000 0.024541
O O18 0.250000 0.250000 0.289158
#
# Coordination Sequence:
#
# PCOD8228021 Si02
#       8
#     8   8   8   8   8   8   8   8
#     4  10  19  36  65  82 115 157 195 237 297 355
#     4  11  24  39  57  89 120 150 192 253 305 343
#     4  10  20  39  62  81 114 163 201 229 291 369
#     4  10  18  37  63  87 110 153 200 239 286 361
#     4  10  21  39  58  89 120 153 196 244 291 351
#     4  10  21  38  60  88 119 154 197 243 291 350
#     4  10  20  37  59  85 115 146 193 247 293 350
#     4   9  19  38  62  82 116 162 194 229 294 357
#
# _framework density 19.537454
#
# number of rings (size 3 to 8) (size 9 to 14) (size 15 to 20)
#    0.000    2.000    3.750    0.750    1.750    1.000 
#    9.000    3.125    0.000    0.000    0.000    0.000 
#    0.000    0.000    0.000    0.000    0.000    0.000 
#
# Total GULP energy -793549.271322 kJ/mol
# GULP energy per Si atom -12399.207364 kJ/mol
# Density = 1.949299 g / cm^3
# Si number density = 19.537454 Si / 1000 Ang^3
#
#
#
# Elastic Constant Matrix: (Units=GPa)
#
#
# Indices 1 2 3 4 5 6 
#
# 1 74.4153 23.8913 42.6221 0.0000 0.0000 0.0000
# 2 23.8913 112.3943 42.7425 0.0000 0.0000 0.0000
# 3 42.6221 42.7425 112.0266 0.0000 0.0000 0.0000
# 4 0.0000 0.0000 0.0000 23.7098 0.0000 0.0000
# 5 0.0000 0.0000 0.0000 0.0000 16.6850 0.0000
# 6 0.0000 0.0000 0.0000 0.0000 0.0000 32.1642
#
#
#
# Elastic Compliance Matrix: (Units=1/GPa)
#
#
# Indices 1 2 3 4 5 6 
#
# 1 0.017363 -0.001379 -0.006080 0.000000 0.000000 0.000000
# 2 -0.001379 0.010517 -0.003488 0.000000 0.000000 0.000000
# 3 -0.006080 -0.003488 0.012571 0.000000 0.000000 0.000000
# 4 0.000000 0.000000 0.000000 0.042177 0.000000 0.000000
# 5 0.000000 0.000000 0.000000 0.000000 0.059934 0.000000
# 6 0.000000 0.000000 0.000000 0.000000 0.000000 0.031090
#
#
# Mechanical properties :
#
#
# Convention : Reuss Voigt Hill
#
# Bulk Modulus (GPa) = 53.88811 57.48311 55.68561
# Shear Modulus (GPa) = 24.78552 27.15047 25.96799
#
# Velocity S-wave (km/s) = 3.56563 3.73186 3.64969
# Velocity P-wave (km/s) = 6.67783 6.93217 6.80619
#
# Compressibility (1/GPa) = 0.01855697
#
# Stress axis : x y z
#
# Youngs Moduli (GPa) = 57.59339 95.08619 79.55132
#
# Poissons Ratio (x) = 0.13109 0.48367
# Poissons Ratio (y) = 0.07940 0.27748
# Poissons Ratio (z) = 0.35017 0.33166
#
# Static dielectric constant tensor:
#      x y z
#    x 3.605650 0.000000 0.000000 
#    y 0.000000 2.832300 0.000000 
#    z 0.000000 0.000000 3.643500 
# 
# 
# High freq. dielectric constant tensor:
#      x y z
#    x 1.750940 0.000000 0.000000 
#    y 0.000000 1.750780 0.000000 
#    z 0.000000 0.000000 1.768080 
# 
# From -- ./inp_files/20645.got.cif
#   From: 2010.03.12/outbox.cif.g09.slc.cpg/sg56_11_cif.got.tgz:20645.got - 2010.04.16 15:33:40.
