data_PCOD8228538
_publ_section_title
;
Structure prediction by ZEFSAII (Michael W. Deem and Ramdas Pophale) SiO2 
 PCOD8228538
Probable space group: P C C N
;
_chemical_formula_sum "Si O2"
_cell_formula_units_Z 44
_cell_length_a 10.869284
_cell_length_b 10.878523
_cell_length_c 17.857209
_cell_angle_alpha 90.000000
_cell_angle_beta 90.000000
_cell_angle_gamma 90.000000
_cell_volume 2111.467749
_symmetry_space_group_name_H-M "P C C N"
_symmetry_group_IT_number 56
_symmetry_cell_setting 'orthorhombic'
loop_
_space_group_symop_operation_xyz
x,y,z
1/2-x,1/2-y,z
1/2+x,-y,1/2-z
-x,1/2+y,1/2-z
-x,-y,-z
1/2+x,1/2+y,-z
1/2-x,y,1/2+z
x,1/2-y,1/2+z
loop_
_atom_site_type_symbol
_atom_site_label
_atom_site_fract_x
_atom_site_fract_y
_atom_site_fract_z
Si Si1 0.025974 0.066950 0.378593
Si Si2 0.129612 0.184603 0.851443
Si Si3 0.238724 0.967778 0.939982
Si Si4 0.250000 0.750000 0.832314
Si Si5 0.750648 0.104005 0.895928
Si Si6 0.919593 0.084466 0.760788
O O1 0.042453 0.213152 0.389560
O O2 0.882637 0.039460 0.389165
O O3 0.112561 0.990676 0.436358
O O4 0.072128 0.030484 0.295179
O O5 0.250000 0.250000 0.816978
O O6 0.058049 0.117338 0.784841
O O7 0.167481 0.090610 0.916653
O O8 0.198329 0.859351 0.883894
O O9 0.196581 0.930872 0.022853
O O10 0.360751 0.796747 0.779906
O O11 0.750000 0.250000 0.885769
O O12 0.838352 0.045527 0.832673
#
# Coordination Sequence:
#
# PCOD8228538 Si02
#       6
#     8   8   8   4   8   8
#     4  10  23  41  65  92 131 168 215 269 329 380
#     4  10  22  39  63  89 131 163 211 271 331 375
#     4  10  23  40  67  92 132 170 213 271 326 393
#     4  10  20  40  62 100 124 168 220 260 320 392
#     4  12  22  42  68  95 130 170 223 264 332 390
#     4  11  23  38  69  96 126 172 218 268 319 405
#
# _framework density 20.838584999999998
#
# number of rings (size 3 to 8) (size 9 to 14) (size 15 to 20)
#    0.000    1.455    3.636    0.545   10.182    0.727 
#    0.000    0.000   12.000    0.000    0.000    0.000 
#    0.000    0.000    0.000    0.000    0.000    0.000 
#
# Total GULP energy -545636.563319 kJ/mol
# GULP energy per Si atom -12400.830985 kJ/mol
# Density = 2.079116 g / cm^3
# Si number density = 20.838585 Si / 1000 Ang^3
#
#
#
# Elastic Constant Matrix: (Units=GPa)
#
#
# Indices 1 2 3 4 5 6 
#
# 1 99.4166 20.3563 40.8873 0.0000 0.0000 0.0000
# 2 20.3563 75.1789 30.8397 0.0000 0.0000 0.0000
# 3 40.8873 30.8397 131.2985 0.0000 0.0000 0.0000
# 4 0.0000 0.0000 0.0000 23.4712 0.0000 0.0000
# 5 0.0000 0.0000 0.0000 0.0000 26.6404 0.0000
# 6 0.0000 0.0000 0.0000 0.0000 0.0000 23.4659
#
#
#
# Elastic Compliance Matrix: (Units=1/GPa)
#
#
# Indices 1 2 3 4 5 6 
#
# 1 0.011767 -0.001862 -0.003227 0.000000 0.000000 0.000000
# 2 -0.001862 0.015015 -0.002947 0.000000 0.000000 0.000000
# 3 -0.003227 -0.002947 0.009313 0.000000 0.000000 0.000000
# 4 0.000000 0.000000 0.000000 0.042605 0.000000 0.000000
# 5 0.000000 0.000000 0.000000 0.000000 0.037537 0.000000
# 6 0.000000 0.000000 0.000000 0.000000 0.000000 0.042615
#
#
# Mechanical properties :
#
#
# Convention : Reuss Voigt Hill
#
# Bulk Modulus (GPa) = 49.94272 54.45117 52.19694
# Shear Modulus (GPa) = 27.53319 28.96956 28.25138
#
# Velocity S-wave (km/s) = 3.63886 3.73257 3.68601
# Velocity P-wave (km/s) = 6.45550 6.69050 6.57405
#
# Compressibility (1/GPa) = 0.02002294
#
# Stress axis : x y z
#
# Youngs Moduli (GPa) = 84.98212 66.60141 107.37397
#
# Poissons Ratio (x) = 0.12404 0.34649
# Poissons Ratio (y) = 0.15828 0.31640
# Poissons Ratio (z) = 0.27423 0.19625
#
# Static dielectric constant tensor:
#      x y z
#    x 3.874120 0.000000 0.000000 
#    y 0.000000 3.743240 0.000000 
#    z 0.000000 0.000000 3.660560 
# 
# 
# High freq. dielectric constant tensor:
#      x y z
#    x 1.817660 0.000000 0.000000 
#    y 0.000000 1.810200 0.000000 
#    z 0.000000 0.000000 1.808490 
# 
# From -- ./inp_files/15504.got.cif
#   From: 2010.03.12/outbox.cif.g09.slc.cpg/sg56_8_cif.got.tgz:15504.got - 2010.04.16 15:33:40.
