data_PCOD8228247
_publ_section_title
;
Structure prediction by ZEFSAII (Michael W. Deem and Ramdas Pophale) SiO2 
 PCOD8228247
Probable space group: P C C N
;
_chemical_formula_sum "Si O2"
_cell_formula_units_Z 56
_cell_length_a 12.203620
_cell_length_b 13.925053
_cell_length_c 15.461252
_cell_angle_alpha 90.000000
_cell_angle_beta 90.000000
_cell_angle_gamma 90.000000
_cell_volume 2627.424175
_symmetry_space_group_name_H-M "P C C N"
_symmetry_group_IT_number 56
_symmetry_cell_setting 'orthorhombic'
loop_
_space_group_symop_operation_xyz
x,y,z
1/2-x,1/2-y,z
1/2+x,-y,1/2-z
-x,1/2+y,1/2-z
-x,-y,-z
1/2+x,1/2+y,-z
1/2-x,y,1/2+z
x,1/2-y,1/2+z
loop_
_atom_site_type_symbol
_atom_site_label
_atom_site_fract_x
_atom_site_fract_y
_atom_site_fract_z
Si Si1 0.824194 0.983590 0.230221
Si Si2 0.912227 0.765522 0.572095
Si Si3 0.266407 0.409804 0.955379
Si Si4 0.366377 0.798797 0.520633
Si Si5 0.526956 0.373812 0.147079
Si Si6 0.126961 0.225690 0.733203
Si Si7 0.663486 0.017030 0.384825
O O1 0.771462 0.962731 0.136736
O O2 0.890403 0.889416 0.264477
O O3 0.726310 0.006759 0.295065
O O4 0.903410 0.076821 0.224969
O O5 0.868566 0.663805 0.534990
O O6 0.847093 0.853636 0.530828
O O7 0.888086 0.772467 0.673459
O O8 0.039020 0.777707 0.545645
O O9 0.264537 0.485966 0.032647
O O10 0.250000 0.750000 0.512777
O O11 0.390123 0.849821 0.429797
O O12 0.367841 0.872464 0.601023
O O13 0.463243 0.276321 0.172720
O O14 0.446113 0.455805 0.115015
O O15 0.250000 0.250000 0.699535
#
# Coordination Sequence:
#
# PCOD8228247 Si02
#       7
#     8   8   8   8   8   8   8
#     4  11  24  43  67 108 139 177 238 296 353 426
#     4  10  20  40  70 100 136 176 226 298 342 413
#     4  10  19  40  73 102 129 173 241 295 343 409
#     4  12  28  46  64 101 147 192 237 285 369 442
#     4  12  25  46  73  99 144 192 230 296 363 434
#     4  11  21  42  72 108 135 173 240 298 349 420
#     4  12  23  44  73  98 135 190 240 285 365 431
#
# _framework density 21.313649999999999
#
# number of rings (size 3 to 8) (size 9 to 14) (size 15 to 20)
#    0.000    0.857    7.143    2.143    4.000    0.000 
#    5.143    0.714    0.000    0.000    0.000    0.000 
#    0.000    0.000    0.000    0.000    0.000    0.000 
#
# Total GULP energy -694507.618098 kJ/mol
# GULP energy per Si atom -12401.921752 kJ/mol
# Density = 2.126514 g / cm^3
# Si number density = 21.313650 Si / 1000 Ang^3
#
#
#
# Elastic Constant Matrix: (Units=GPa)
#
#
# Indices 1 2 3 4 5 6 
#
# 1 141.1190 38.0955 33.0600 0.0000 0.0000 0.0000
# 2 38.0955 53.8732 13.1175 0.0000 0.0000 0.0000
# 3 33.0600 13.1175 71.1047 0.0000 0.0000 0.0000
# 4 0.0000 0.0000 0.0000 24.5723 0.0000 0.0000
# 5 0.0000 0.0000 0.0000 0.0000 28.1193 0.0000
# 6 0.0000 0.0000 0.0000 0.0000 0.0000 37.2464
#
#
#
# Elastic Compliance Matrix: (Units=1/GPa)
#
#
# Indices 1 2 3 4 5 6 
#
# 1 0.009447 -0.005875 -0.003309 0.000000 0.000000 0.000000
# 2 -0.005875 0.023088 -0.001528 0.000000 0.000000 0.000000
# 3 -0.003309 -0.001528 0.015884 0.000000 0.000000 0.000000
# 4 0.000000 0.000000 0.000000 0.040696 0.000000 0.000000
# 5 0.000000 0.000000 0.000000 0.000000 0.035563 0.000000
# 6 0.000000 0.000000 0.000000 0.000000 0.000000 0.026848
#
#
# Mechanical properties :
#
#
# Convention : Reuss Voigt Hill
#
# Bulk Modulus (GPa) = 37.04136 48.29366 42.66751
# Shear Modulus (GPa) = 27.48025 30.10919 28.79472
#
# Velocity S-wave (km/s) = 3.59461 3.76263 3.67958
# Velocity P-wave (km/s) = 5.88602 6.44859 6.17371
#
# Compressibility (1/GPa) = 0.02699685
#
# Stress axis : x y z
#
# Youngs Moduli (GPa) = 105.85050 43.31170 62.95640
#
# Poissons Ratio (x) = 0.25445 0.20830
# Poissons Ratio (y) = 0.62186 0.09619
# Poissons Ratio (z) = 0.35023 0.06618
#
# Static dielectric constant tensor:
#      x y z
#    x 3.789990 0.000000 0.000000 
#    y 0.000000 3.934420 0.000000 
#    z 0.000000 0.000000 3.781010 
# 
# 
# High freq. dielectric constant tensor:
#      x y z
#    x 1.827540 0.000000 0.000000 
#    y 0.000000 1.826970 0.000000 
#    z 0.000000 0.000000 1.837020 
# 
# From -- ./inp_files/11699.got.cif
#   From: 2010.03.12/outbox.cif.g09.slc.cpg/sg56_6_cif.got.tgz:11699.got - 2010.04.16 15:33:40.
