data_PCOD8228307
_publ_section_title
;
Structure prediction by ZEFSAII (Michael W. Deem and Ramdas Pophale) SiO2 
 PCOD8228307
Probable space group: P C C N
;
_chemical_formula_sum "Si O2"
_cell_formula_units_Z 48
_cell_length_a 12.723907
_cell_length_b 18.464025
_cell_length_c 11.353286
_cell_angle_alpha 90.000000
_cell_angle_beta 90.000000
_cell_angle_gamma 90.000000
_cell_volume 2667.278989
_symmetry_space_group_name_H-M "P C C N"
_symmetry_group_IT_number 56
_symmetry_cell_setting 'orthorhombic'
loop_
_space_group_symop_operation_xyz
x,y,z
1/2-x,1/2-y,z
1/2+x,-y,1/2-z
-x,1/2+y,1/2-z
-x,-y,-z
1/2+x,1/2+y,-z
1/2-x,y,1/2+z
x,1/2-y,1/2+z
loop_
_atom_site_type_symbol
_atom_site_label
_atom_site_fract_x
_atom_site_fract_y
_atom_site_fract_z
Si Si1 0.057693 0.061258 0.154467
Si Si2 0.153489 0.346049 0.269279
Si Si3 0.375711 0.519377 0.388595
Si Si4 0.856544 0.515587 0.579379
Si Si5 0.445808 0.109950 0.036034
Si Si6 0.104510 0.312039 0.805694
O O1 0.055217 0.145801 0.193428
O O2 0.082143 0.012587 0.267125
O O3 0.145748 0.043938 0.055546
O O4 0.944845 0.044755 0.098789
O O5 0.113646 0.415407 0.340367
O O6 0.135432 0.358374 0.131050
O O7 0.273715 0.334605 0.304693
O O8 0.087429 0.273803 0.299138
O O9 0.249903 0.525998 0.384096
O O10 0.436081 0.595793 0.411950
O O11 0.399359 0.466891 0.497628
O O12 0.451457 0.164476 0.926502
#
# Coordination Sequence:
#
# PCOD8228307 Si02
#       6
#     8   8   8   8   8   8
#     4  10  21  36  51  84 111 141 180 225 274 316
#     4  11  21  33  54  83 113 143 169 224 280 329
#     4  10  20  34  58  79 108 143 183 229 265 322
#     4  11  21  34  57  82 111 141 184 230 270 321
#     4  10  20  35  52  80 109 144 182 217 273 324
#     4  10  23  33  54  83 113 146 174 221 278 331
#
# _framework density 17.995868000000002
#
# number of rings (size 3 to 8) (size 9 to 14) (size 15 to 20)
#    0.000    1.667    5.000    1.000    2.333    1.333 
#    0.000    0.000    0.000    1.000    0.000    0.000 
#    0.000    0.000    0.000    0.000    0.000    0.000 
#
# Total GULP energy -595029.146410 kJ/mol
# GULP energy per Si atom -12396.440550 kJ/mol
# Density = 1.795491 g / cm^3
# Si number density = 17.995868 Si / 1000 Ang^3
#
#
#
# Elastic Constant Matrix: (Units=GPa)
#
#
# Indices 1 2 3 4 5 6 
#
# 1 72.9507 23.8548 21.5730 0.0000 0.0000 0.0000
# 2 23.8548 75.9280 26.0162 0.0000 0.0000 0.0000
# 3 21.5730 26.0162 94.3289 0.0000 0.0000 0.0000
# 4 0.0000 0.0000 0.0000 21.1813 0.0000 0.0000
# 5 0.0000 0.0000 0.0000 0.0000 21.9901 0.0000
# 6 0.0000 0.0000 0.0000 0.0000 0.0000 24.3400
#
#
#
# Elastic Compliance Matrix: (Units=1/GPa)
#
#
# Indices 1 2 3 4 5 6 
#
# 1 0.015784 -0.004111 -0.002476 0.000000 0.000000 0.000000
# 2 -0.004111 0.015615 -0.003367 0.000000 0.000000 0.000000
# 3 -0.002476 -0.003367 0.012096 0.000000 0.000000 0.000000
# 4 0.000000 0.000000 0.000000 0.047211 0.000000 0.000000
# 5 0.000000 0.000000 0.000000 0.000000 0.045475 0.000000
# 6 0.000000 0.000000 0.000000 0.000000 0.000000 0.041085
#
#
# Mechanical properties :
#
#
# Convention : Reuss Voigt Hill
#
# Bulk Modulus (GPa) = 42.39291 42.89952 42.64621
# Shear Modulus (GPa) = 24.38589 24.95319 24.66954
#
# Velocity S-wave (km/s) = 3.68514 3.72776 3.70651
# Velocity P-wave (km/s) = 6.45873 6.51295 6.48590
#
# Compressibility (1/GPa) = 0.02358885
#
# Stress axis : x y z
#
# Youngs Moduli (GPa) = 63.35403 64.03936 82.67169
#
# Poissons Ratio (x) = 0.26324 0.20471
# Poissons Ratio (y) = 0.26042 0.27833
# Poissons Ratio (z) = 0.15687 0.21560
#
# Static dielectric constant tensor:
#      x y z
#    x 3.298660 0.000000 0.000000 
#    y 0.000000 3.437270 0.000000 
#    z 0.000000 0.000000 3.462070 
# 
# 
# High freq. dielectric constant tensor:
#      x y z
#    x 1.679120 0.000000 0.000000 
#    y 0.000000 1.676040 0.000000 
#    z 0.000000 0.000000 1.714160 
# 
# From -- ./inp_files/7173.got.cif
#   From: 2010.03.12/outbox.cif.g09.slc.cpg/sg56_4_cif.got.tgz:7173.got - 2010.04.16 15:33:40.
