data_PCOD8228853
_publ_section_title
;
Structure prediction by ZEFSAII (Michael W. Deem and Ramdas Pophale) SiO2 
 PCOD8228853
Probable space group: P C C N
;
_chemical_formula_sum "Si O2"
_cell_formula_units_Z 56
_cell_length_a 9.452643
_cell_length_b 13.865779
_cell_length_c 20.834888
_cell_angle_alpha 90.000000
_cell_angle_beta 90.000000
_cell_angle_gamma 90.000000
_cell_volume 2730.792493
_symmetry_space_group_name_H-M "P C C N"
_symmetry_group_IT_number 56
_symmetry_cell_setting 'orthorhombic'
loop_
_space_group_symop_operation_xyz
x,y,z
1/2-x,1/2-y,z
1/2+x,-y,1/2-z
-x,1/2+y,1/2-z
-x,-y,-z
1/2+x,1/2+y,-z
1/2-x,y,1/2+z
x,1/2-y,1/2+z
loop_
_atom_site_type_symbol
_atom_site_label
_atom_site_fract_x
_atom_site_fract_y
_atom_site_fract_z
Si Si1 0.413318 0.743366 0.301497
Si Si2 0.247442 0.360607 0.862784
Si Si3 0.542984 0.598852 0.531288
Si Si4 0.947742 0.106369 0.814206
Si Si5 0.320972 0.948341 0.125352
Si Si6 0.974670 0.580495 0.238621
Si Si7 0.369414 0.169143 0.096998
O O1 0.250000 0.750000 0.322884
O O2 0.431124 0.700902 0.229646
O O3 0.476827 0.850480 0.296778
O O4 0.500754 0.682541 0.353789
O O5 0.250000 0.250000 0.883308
O O6 0.180867 0.416881 0.923559
O O7 0.402324 0.400902 0.849116
O O8 0.154850 0.371556 0.799040
O O9 0.500000 0.500000 0.500000
O O10 0.409980 0.621732 0.577630
O O11 0.570620 0.678794 0.476061
O O12 0.831667 0.102259 0.870681
O O13 0.915599 0.016466 0.768779
O O14 0.391734 0.944983 0.195043
O O15 0.307589 0.060832 0.104230
O O16 0.250000 0.250000 0.109305
#
# Coordination Sequence:
#
# PCOD8228853 Si02
#       7
#     8   8   8   8   8   8   8
#     4  12  25  38  62  97 132 164 208 261 333 392
#     4  11  23  39  66  93 125 172 221 263 319 394
#     4   9  22  44  66  87 123 174 220 266 327 376
#     4  12  23  38  63 100 131 158 213 268 321 390
#     4  10  21  41  64  91 127 173 204 264 325 380
#     4  11  22  38  59  95 134 166 204 258 328 388
#     4  11  23  43  65  90 126 168 220 266 314 391
#
# _framework density 20.506868000000001
#
# number of rings (size 3 to 8) (size 9 to 14) (size 15 to 20)
#    0.000    1.143    4.286    2.143    2.000    0.000 
#    0.000    5.714    0.000    0.000    0.000    0.000 
#    0.000    0.000    0.000    0.000    0.000    0.000 
#
# Total GULP energy -694385.614846 kJ/mol
# GULP energy per Si atom -12399.743122 kJ/mol
# Density = 2.046019 g / cm^3
# Si number density = 20.506868 Si / 1000 Ang^3
#
#
#
# Elastic Constant Matrix: (Units=GPa)
#
#
# Indices 1 2 3 4 5 6 
#
# 1 167.7013 25.2066 61.2653 0.0000 0.0000 0.0000
# 2 25.2066 56.2238 13.6907 0.0000 0.0000 0.0000
# 3 61.2653 13.6907 100.5565 0.0000 0.0000 0.0000
# 4 0.0000 0.0000 0.0000 20.9536 0.0000 0.0000
# 5 0.0000 0.0000 0.0000 0.0000 24.8516 0.0000
# 6 0.0000 0.0000 0.0000 0.0000 0.0000 30.3136
#
#
#
# Elastic Compliance Matrix: (Units=1/GPa)
#
#
# Indices 1 2 3 4 5 6 
#
# 1 0.007991 -0.002479 -0.004531 0.000000 0.000000 0.000000
# 2 -0.002479 0.019165 -0.001099 0.000000 0.000000 0.000000
# 3 -0.004531 -0.001099 0.012855 0.000000 0.000000 0.000000
# 4 0.000000 0.000000 0.000000 0.047725 0.000000 0.000000
# 5 0.000000 0.000000 0.000000 0.000000 0.040239 0.000000
# 6 0.000000 0.000000 0.000000 0.000000 0.000000 0.032988
#
#
# Mechanical properties :
#
#
# Convention : Reuss Voigt Hill
#
# Bulk Modulus (GPa) = 42.02957 58.31186 50.17071
# Shear Modulus (GPa) = 27.01070 30.17836 28.59453
#
# Velocity S-wave (km/s) = 3.63320 3.84033 3.73820
# Velocity P-wave (km/s) = 6.17576 6.93983 6.56891
#
# Compressibility (1/GPa) = 0.02379277
#
# Stress axis : x y z
#
# Youngs Moduli (GPa) = 125.14211 52.17805 77.79172
#
# Poissons Ratio (x) = 0.12936 0.35248
# Poissons Ratio (y) = 0.31026 0.08548
# Poissons Ratio (z) = 0.56702 0.05733
#
# Static dielectric constant tensor:
#      x y z
#    x 3.837270 0.000000 0.000000 
#    y 0.000000 3.707120 0.000000 
#    z 0.000000 0.000000 4.116290 
# 
# 
# High freq. dielectric constant tensor:
#      x y z
#    x 1.809510 0.000000 0.000000 
#    y 0.000000 1.796560 0.000000 
#    z 0.000000 0.000000 1.795240 
# 
# From -- ./inp_files/18246.got.cif
#   From: 2010.03.12/outbox.cif.g09.slc.cpg/sg56_10_cif.got.tgz:18246.got - 2010.04.16 15:33:40.
