data_PCOD8228927
_publ_section_title
;
Structure prediction by ZEFSAII (Michael W. Deem and Ramdas Pophale) SiO2 
 PCOD8228927
Probable space group: P C C N
;
_chemical_formula_sum "Si O2"
_cell_formula_units_Z 56
_cell_length_a 20.230585
_cell_length_b 9.294792
_cell_length_c 14.084759
_cell_angle_alpha 90.000000
_cell_angle_beta 90.000000
_cell_angle_gamma 90.000000
_cell_volume 2648.485119
_symmetry_space_group_name_H-M "P C C N"
_symmetry_group_IT_number 56
_symmetry_cell_setting 'orthorhombic'
loop_
_space_group_symop_operation_xyz
x,y,z
1/2-x,1/2-y,z
1/2+x,-y,1/2-z
-x,1/2+y,1/2-z
-x,-y,-z
1/2+x,1/2+y,-z
1/2-x,y,1/2+z
x,1/2-y,1/2+z
loop_
_atom_site_type_symbol
_atom_site_label
_atom_site_fract_x
_atom_site_fract_y
_atom_site_fract_z
Si Si1 0.237538 0.416799 0.692777
Si Si2 0.013476 0.123122 0.108901
Si Si3 0.919105 0.623762 0.577440
Si Si4 0.808036 0.423654 0.645792
Si Si5 0.280731 0.895564 0.025134
Si Si6 0.597189 0.893678 0.212593
Si Si7 0.106769 0.828496 0.402404
O O1 0.250000 0.250000 0.698777
O O2 0.290332 0.506542 0.754162
O O3 0.255338 0.470894 0.587180
O O4 0.163143 0.435017 0.728972
O O5 0.039879 0.151084 0.214449
O O6 0.956697 0.232280 0.076424
O O7 0.073047 0.154302 0.034920
O O8 0.986881 0.957831 0.108628
O O9 0.858530 0.517677 0.586177
O O10 0.899663 0.764156 0.637604
O O11 0.742691 0.418518 0.582788
O O12 0.840524 0.265750 0.659840
O O13 0.250000 0.750000 0.070353
O O14 0.359728 0.876968 0.004430
O O15 0.579222 0.035919 0.154825
#
# Coordination Sequence:
#
# PCOD8228927 Si02
#       7
#     8   8   8   8   8   8   8
#     4  12  25  40  65 100 134 176 220 274 349 404
#     4  10  23  44  65  94 129 182 225 269 339 407
#     4  10  22  43  64  88 135 172 220 277 329 405
#     4  10  21  45  62  94 136 171 219 273 341 405
#     4  10  23  40  65  96 132 174 216 274 333 406
#     4  12  23  40  67 100 126 176 221 284 336 398
#     4  10  23  42  67  96 137 173 222 287 332 405
#
# _framework density 21.144162999999999
#
# number of rings (size 3 to 8) (size 9 to 14) (size 15 to 20)
#    0.000    1.429    2.857    1.714    2.000    4.571 
#    5.143    0.000    0.000    0.000    0.000    0.000 
#    0.000    0.000    0.000    0.000    0.000    0.000 
#
# Total GULP energy -694026.673433 kJ/mol
# GULP energy per Si atom -12393.333454 kJ/mol
# Density = 2.109604 g / cm^3
# Si number density = 21.144163 Si / 1000 Ang^3
#
#
#
# Elastic Constant Matrix: (Units=GPa)
#
#
# Indices 1 2 3 4 5 6 
#
# 1 80.2860 23.9168 30.4556 0.0000 0.0000 0.0000
# 2 23.9168 107.6414 39.0109 0.0000 0.0000 0.0000
# 3 30.4556 39.0109 76.3413 0.0000 0.0000 0.0000
# 4 0.0000 0.0000 0.0000 67.1724 0.0000 0.0000
# 5 0.0000 0.0000 0.0000 0.0000 33.0815 0.0000
# 6 0.0000 0.0000 0.0000 0.0000 0.0000 31.5612
#
#
#
# Elastic Compliance Matrix: (Units=1/GPa)
#
#
# Indices 1 2 3 4 5 6 
#
# 1 0.014850 -0.001414 -0.005201 0.000000 0.000000 0.000000
# 2 -0.001414 0.011536 -0.005331 0.000000 0.000000 0.000000
# 3 -0.005201 -0.005331 0.017898 0.000000 0.000000 0.000000
# 4 0.000000 0.000000 0.000000 0.014887 0.000000 0.000000
# 5 0.000000 0.000000 0.000000 0.000000 0.030228 0.000000
# 6 0.000000 0.000000 0.000000 0.000000 0.000000 0.031684
#
#
# Mechanical properties :
#
#
# Convention : Reuss Voigt Hill
#
# Bulk Modulus (GPa) = 49.04117 50.11504 49.57811
# Shear Modulus (GPa) = 32.94349 37.75538 35.34943
#
# Velocity S-wave (km/s) = 3.95149 4.23024 4.09324
# Velocity P-wave (km/s) = 6.63800 6.90021 6.77038
#
# Compressibility (1/GPa) = 0.02039103
#
# Stress axis : x y z
#
# Youngs Moduli (GPa) = 67.34039 86.68233 55.87130
#
# Poissons Ratio (x) = 0.12260 0.29061
# Poissons Ratio (y) = 0.09525 0.29784
# Poissons Ratio (z) = 0.35027 0.46210
#
# Static dielectric constant tensor:
#      x y z
#    x 3.869550 0.000000 0.000000 
#    y 0.000000 3.985790 0.000000 
#    z 0.000000 0.000000 3.618940 
# 
# 
# High freq. dielectric constant tensor:
#      x y z
#    x 1.830250 0.000000 0.000000 
#    y 0.000000 1.839480 0.000000 
#    z 0.000000 0.000000 1.814610 
# 
# From -- ./inp_files/13091.got.cif
#   From: 2010.03.12/outbox.cif.g09.slc.cpg/sg56_7_cif.got.tgz:13091.got - 2010.04.16 15:33:40.
