data_PCOD8228475
_publ_section_title
;
Structure prediction by ZEFSAII (Michael W. Deem and Ramdas Pophale) SiO2 
 PCOD8228475
Probable space group: P C C N
;
_chemical_formula_sum "Si O2"
_cell_formula_units_Z 56
_cell_length_a 6.089192
_cell_length_b 14.131255
_cell_length_c 30.533043
_cell_angle_alpha 90.000000
_cell_angle_beta 90.000000
_cell_angle_gamma 90.000000
_cell_volume 2627.304991
_symmetry_space_group_name_H-M "P C C N"
_symmetry_group_IT_number 56
_symmetry_cell_setting 'orthorhombic'
loop_
_space_group_symop_operation_xyz
x,y,z
1/2-x,1/2-y,z
1/2+x,-y,1/2-z
-x,1/2+y,1/2-z
-x,-y,-z
1/2+x,1/2+y,-z
1/2-x,y,1/2+z
x,1/2-y,1/2+z
loop_
_atom_site_type_symbol
_atom_site_label
_atom_site_fract_x
_atom_site_fract_y
_atom_site_fract_z
Si Si1 0.101701 0.505269 0.355057
Si Si2 0.634791 0.652724 0.215121
Si Si3 0.085826 0.872895 0.978413
Si Si4 0.534940 0.082791 0.087648
Si Si5 0.750000 0.250000 0.748298
Si Si6 0.662109 0.039834 0.437072
Si Si7 0.750000 0.750000 0.434066
Si Si8 0.368335 0.341965 0.197310
O O1 0.177280 0.430671 0.318864
O O2 0.314515 0.566758 0.369309
O O3 0.000073 0.447507 0.395805
O O4 0.910989 0.576111 0.338080
O O5 0.750000 0.750000 0.199596
O O6 0.377920 0.676622 0.220226
O O7 0.722004 0.618704 0.262562
O O8 0.311153 0.887820 0.952467
O O9 0.959642 0.777782 0.964157
O O10 0.145065 0.869315 0.030539
O O11 0.909414 0.953263 0.967721
O O12 0.348558 0.164298 0.095934
O O13 0.411654 0.983042 0.077742
O O14 0.600136 0.187693 0.717047
O O15 0.250000 0.250000 0.175694
#
# Coordination Sequence:
#
# PCOD8228475 Si02
#       8
#     8   8   8   8   4   8   4   8
#     4  11  23  39  63  98 127 166 213 268 326 375
#     4   9  21  41  65  90 121 168 218 267 320 386
#     4   9  18  38  61  83 118 167 201 253 312 378
#     4  10  21  38  60  92 127 166 211 260 312 386
#     4   8  18  40  62  84 116 160 212 262 306 378
#     4   9  20  37  58  89 119 155 210 257 309 376
#     4  10  20  38  62  90 128 168 212 252 322 380
#     4   9  21  41  59  91 124 165 214 262 315 390
#
# _framework density 21.314619
#
# number of rings (size 3 to 8) (size 9 to 14) (size 15 to 20)
#    0.000    2.857    0.000    0.857    2.000    5.714 
#   23.143    0.000    3.143    0.000    0.000    0.000 
#    0.000    0.000    0.000    0.000    0.000    0.000 
#
# Total GULP energy -694009.407194 kJ/mol
# GULP energy per Si atom -12393.025128 kJ/mol
# Density = 2.126611 g / cm^3
# Si number density = 21.314619 Si / 1000 Ang^3
#
#
#
# Elastic Constant Matrix: (Units=GPa)
#
#
# Indices 1 2 3 4 5 6 
#
# 1 112.7150 28.6304 32.8037 0.0000 0.0000 0.0000
# 2 28.6304 74.0803 42.9931 0.0000 0.0000 0.0000
# 3 32.8037 42.9931 103.0721 0.0000 0.0000 0.0000
# 4 0.0000 0.0000 0.0000 26.6736 0.0000 0.0000
# 5 0.0000 0.0000 0.0000 0.0000 27.8940 0.0000
# 6 0.0000 0.0000 0.0000 0.0000 0.0000 28.1753
#
#
#
# Elastic Compliance Matrix: (Units=1/GPa)
#
#
# Indices 1 2 3 4 5 6 
#
# 1 0.010173 -0.002708 -0.002108 0.000000 0.000000 0.000000
# 2 -0.002708 0.018531 -0.006868 0.000000 0.000000 0.000000
# 3 -0.002108 -0.006868 0.013238 0.000000 0.000000 0.000000
# 4 0.000000 0.000000 0.000000 0.037490 0.000000 0.000000
# 5 0.000000 0.000000 0.000000 0.000000 0.035850 0.000000
# 6 0.000000 0.000000 0.000000 0.000000 0.000000 0.035492
#
#
# Mechanical properties :
#
#
# Convention : Reuss Voigt Hill
#
# Bulk Modulus (GPa) = 53.83913 55.41354 54.62634
# Shear Modulus (GPa) = 27.72627 28.91125 28.31876
#
# Velocity S-wave (km/s) = 3.61059 3.68694 3.64896
# Velocity P-wave (km/s) = 6.53421 6.64673 6.59071
#
# Compressibility (1/GPa) = 0.01857385
#
# Stress axis : x y z
#
# Youngs Moduli (GPa) = 98.29566 53.96259 75.54269
#
# Poissons Ratio (x) = 0.14615 0.15925
# Poissons Ratio (y) = 0.26622 0.51881
# Poissons Ratio (z) = 0.20722 0.37060
#
# Static dielectric constant tensor:
#      x y z
#    x 3.928250 0.000000 0.000000 
#    y 0.000000 3.702380 0.000000 
#    z 0.000000 0.000000 3.793300 
# 
# 
# High freq. dielectric constant tensor:
#      x y z
#    x 1.851420 0.000000 0.000000 
#    y 0.000000 1.805960 0.000000 
#    z 0.000000 0.000000 1.824710 
# 
# From -- ./inp_files/22893.got.cif
#   From: 2010.03.12/outbox.cif.g09.slc.cpg/sg56_12_cif.got.tgz:22893.got - 2010.04.16 15:33:40.
