data_PCOD8228355
_publ_section_title
;
Structure prediction by ZEFSAII (Michael W. Deem and Ramdas Pophale) SiO2 
 PCOD8228355
Probable space group: P C C N
;
_chemical_formula_sum "Si O2"
_cell_formula_units_Z 52
_cell_length_a 16.581830
_cell_length_b 16.513330
_cell_length_c 8.923054
_cell_angle_alpha 90.000000
_cell_angle_beta 90.000000
_cell_angle_gamma 90.000000
_cell_volume 2443.321629
_symmetry_space_group_name_H-M "P C C N"
_symmetry_group_IT_number 56
_symmetry_cell_setting 'orthorhombic'
loop_
_space_group_symop_operation_xyz
x,y,z
1/2-x,1/2-y,z
1/2+x,-y,1/2-z
-x,1/2+y,1/2-z
-x,-y,-z
1/2+x,1/2+y,-z
1/2-x,y,1/2+z
x,1/2-y,1/2+z
loop_
_atom_site_type_symbol
_atom_site_label
_atom_site_fract_x
_atom_site_fract_y
_atom_site_fract_z
Si Si1 0.179880 0.910494 0.133337
Si Si2 0.192289 0.348221 0.026993
Si Si3 0.090566 0.820171 0.484773
Si Si4 0.473600 0.678517 0.160330
Si Si5 0.750000 0.250000 0.440646
Si Si6 0.678645 0.025323 0.042099
Si Si7 0.153495 0.190255 0.866469
O O1 0.088159 0.886171 0.084574
O O2 0.177479 0.965975 0.279635
O O3 0.225515 0.825231 0.166411
O O4 0.228395 0.958843 0.006582
O O5 0.150881 0.435741 0.006055
O O6 0.151212 0.285041 0.912213
O O7 0.286860 0.355936 0.980925
O O8 0.184909 0.318056 0.196799
O O9 0.035125 0.822622 0.338832
O O10 0.042602 0.771764 0.612210
O O11 0.175319 0.774232 0.451671
O O12 0.114716 0.912072 0.533567
O O13 0.564152 0.652958 0.116884
#
# Coordination Sequence:
#
# PCOD8228355 Si02
#       7
#     8   8   8   8   4   8   8
#     4   9  19  33  56  85 120 153 183 226 276 333
#     4  11  23  41  65  83 105 147 200 243 281 335
#     4   9  19  33  57  85 119 153 182 226 277 333
#     4  10  20  36  55  85 117 147 187 230 280 336
#     4   8  16  30  52  82 116 160 194 208 256 352
#     4  10  20  36  58  89 117 149 189 230 278 336
#     4  11  23  41  62  81 103 146 196 242 283 336
#
# _framework density 21.282502000000001
#
# number of rings (size 3 to 8) (size 9 to 14) (size 15 to 20)
#    0.000    2.154    0.000    3.692    0.000   18.462 
#    0.000    7.692    0.000    0.000    0.000    0.000 
#    0.000    0.000    0.000    0.000    0.000    0.000 
#
# Total GULP energy -644363.026373 kJ/mol
# GULP energy per Si atom -12391.596661 kJ/mol
# Density = 2.123406 g / cm^3
# Si number density = 21.282502 Si / 1000 Ang^3
#
#
#
# Elastic Constant Matrix: (Units=GPa)
#
#
# Indices 1 2 3 4 5 6 
#
# 1 114.7377 8.0666 33.8287 0.0000 0.0000 0.0000
# 2 8.0666 101.3946 23.9744 0.0000 0.0000 0.0000
# 3 33.8287 23.9744 64.0442 0.0000 0.0000 0.0000
# 4 0.0000 0.0000 0.0000 25.0899 0.0000 0.0000
# 5 0.0000 0.0000 0.0000 0.0000 25.3529 0.0000
# 6 0.0000 0.0000 0.0000 0.0000 0.0000 15.4499
#
#
#
# Elastic Compliance Matrix: (Units=1/GPa)
#
#
# Indices 1 2 3 4 5 6 
#
# 1 0.010348 0.000515 -0.005658 0.000000 0.000000 0.000000
# 2 0.000515 0.010846 -0.004332 0.000000 0.000000 0.000000
# 3 -0.005658 -0.004332 0.020225 0.000000 0.000000 0.000000
# 4 0.000000 0.000000 0.000000 0.039857 0.000000 0.000000
# 5 0.000000 0.000000 0.000000 0.000000 0.039443 0.000000
# 6 0.000000 0.000000 0.000000 0.000000 0.000000 0.064725
#
#
# Mechanical properties :
#
#
# Convention : Reuss Voigt Hill
#
# Bulk Modulus (GPa) = 44.50996 45.76843 45.13920
# Shear Modulus (GPa) = 23.59788 27.46566 25.53177
#
# Velocity S-wave (km/s) = 3.33347 3.59629 3.46737
# Velocity P-wave (km/s) = 5.98124 6.22867 6.10621
#
# Compressibility (1/GPa) = 0.02246688
#
# Stress axis : x y z
#
# Youngs Moduli (GPa) = 96.64045 92.20183 49.44465
#
# Poissons Ratio (x) = -0.04746 0.27978
# Poissons Ratio (y) = -0.04974 0.21419
# Poissons Ratio (z) = 0.54683 0.39941
#
# Static dielectric constant tensor:
#      x y z
#    x 3.912090 0.000000 0.000000 
#    y 0.000000 3.853450 0.000000 
#    z 0.000000 0.000000 3.529900 
# 
# 
# High freq. dielectric constant tensor:
#      x y z
#    x 1.827990 0.000000 0.000000 
#    y 0.000000 1.824000 0.000000 
#    z 0.000000 0.000000 1.815880 
# 
# From -- ./inp_files/4105.got.cif
#   From: 2010.03.12/outbox.cif.g09.slc.cpg/sg56_3_cif.got.tgz:4105.got - 2010.04.16 15:33:40.
