data_PCOD8228011
_publ_section_title
;
Structure prediction by ZEFSAII (Michael W. Deem and Ramdas Pophale) SiO2 
 PCOD8228011
Probable space group: P C C N
;
_chemical_formula_sum "Si O2"
_cell_formula_units_Z 64
_cell_length_a 11.756050
_cell_length_b 8.847278
_cell_length_c 29.765624
_cell_angle_alpha 90.000000
_cell_angle_beta 90.000000
_cell_angle_gamma 90.000000
_cell_volume 3095.894053
_symmetry_space_group_name_H-M "P C C N"
_symmetry_group_IT_number 56
_symmetry_cell_setting 'orthorhombic'
loop_
_space_group_symop_operation_xyz
x,y,z
1/2-x,1/2-y,z
1/2+x,-y,1/2-z
-x,1/2+y,1/2-z
-x,-y,-z
1/2+x,1/2+y,-z
1/2-x,y,1/2+z
x,1/2-y,1/2+z
loop_
_atom_site_type_symbol
_atom_site_label
_atom_site_fract_x
_atom_site_fract_y
_atom_site_fract_z
Si Si1 0.946367 0.473218 0.560940
Si Si2 0.643826 0.142403 0.649003
Si Si3 0.088591 0.015787 0.562317
Si Si4 0.491062 0.571171 0.341496
Si Si5 0.724702 0.572232 0.705948
Si Si6 0.237447 0.424714 0.196036
Si Si7 0.488862 0.249384 0.993715
Si Si8 0.192340 0.082180 0.102453
O O1 0.921756 0.354088 0.521037
O O2 0.074926 0.440057 0.577451
O O3 0.863814 0.446784 0.602184
O O4 0.922380 0.640641 0.541145
O O5 0.750000 0.250000 0.643985
O O6 0.535653 0.247910 0.661745
O O7 0.665744 0.014635 0.686012
O O8 0.090408 0.163497 0.529925
O O9 0.216558 0.979267 0.576956
O O10 0.005943 0.038500 0.605306
O O11 0.055039 0.869972 0.535240
O O12 0.390454 0.468725 0.320936
O O13 0.605504 0.534463 0.314161
O O14 0.750000 0.750000 0.702659
O O15 0.718104 0.505678 0.756943
O O16 0.250000 0.250000 0.204173
O O17 0.316944 0.476515 0.154223
O O18 0.250000 0.250000 0.104104
#
# Coordination Sequence:
#
# PCOD8228011 Si02
#       8
#     8   8   8   8   8   8   8   8
#     4  11  21  39  58  90 117 150 198 242 300 337
#     4  10  21  40  60  83 122 162 196 239 300 366
#     4  10  20  40  60  85 117 157 192 236 301 344
#     4  10  20  39  64  83 124 162 195 246 302 363
#     4  10  23  38  59  94 118 153 208 245 298 362
#     4   9  19  36  63  90 117 156 204 242 299 360
#     4  10  22  37  59  84 119 148 199 244 284 356
#     4  10  18  36  62  86 116 152 193 236 295 355
#
# _framework density 20.672543000000001
#
# number of rings (size 3 to 8) (size 9 to 14) (size 15 to 20)
#    0.000    2.000    2.500    1.500    1.750    3.500 
#    4.500    2.500   16.500    0.000    0.000    0.000 
#    0.000    0.000    0.000    0.000    0.000    0.000 
#
# Total GULP energy -792983.333080 kJ/mol
# GULP energy per Si atom -12390.364579 kJ/mol
# Density = 2.062549 g / cm^3
# Si number density = 20.672543 Si / 1000 Ang^3
#
#
#
# Elastic Constant Matrix: (Units=GPa)
#
#
# Indices 1 2 3 4 5 6 
#
# 1 47.3730 17.7832 33.3916 0.0000 0.0000 0.0000
# 2 17.7832 98.3862 53.9833 0.0000 0.0000 0.0000
# 3 33.3916 53.9833 150.9626 0.0000 0.0000 0.0000
# 4 0.0000 0.0000 0.0000 -22.3833 0.0000 0.0000
# 5 0.0000 0.0000 0.0000 0.0000 -108.0360 0.0000
# 6 0.0000 0.0000 0.0000 0.0000 0.0000 16.1987
#
#
#
# Elastic Compliance Matrix: (Units=1/GPa)
#
#
# Indices 1 2 3 4 5 6 
#
# 1 0.025281 -0.001868 -0.004924 0.000000 0.000000 0.000000
# 2 -0.001868 0.012783 -0.004158 0.000000 0.000000 0.000000
# 3 -0.004924 -0.004158 0.009200 0.000000 0.000000 0.000000
# 4 0.000000 0.000000 0.000000 -0.044676 0.000000 0.000000
# 5 0.000000 0.000000 0.000000 0.000000 -0.009256 0.000000
# 6 0.000000 0.000000 0.000000 0.000000 0.000000 0.061733
#
#
# Mechanical properties :
#
#
# Convention : Reuss Voigt Hill
#
# Bulk Modulus (GPa) = 39.42499 56.33758 47.88128
# Shear Modulus (GPa) = 58.53453 -10.07319 24.23067
#
# Velocity S-wave (km/s) = 5.32697 -2.20982 3.42734
# Velocity P-wave (km/s) = 7.54639 4.56075 6.23492
#
# Compressibility (1/GPa) = 0.02536462
#
# Stress axis : x y z
#
# Youngs Moduli (GPa) = 39.55545 78.22841 108.69339
#
# Poissons Ratio (x) = 0.14611 0.53521
# Poissons Ratio (y) = 0.07388 0.45195
# Poissons Ratio (z) = 0.19477 0.32528
#
# Static dielectric constant tensor:
#      x y z
#    x 3.679900 0.000000 0.000000 
#    y 0.000000 3.782510 0.000000 
#    z 0.000000 0.000000 4.273950 
# 
# 
# High freq. dielectric constant tensor:
#      x y z
#    x 1.787580 0.000000 0.000000 
#    y 0.000000 1.797040 0.000000 
#    z 0.000000 0.000000 1.832430 
# 
# From -- ./inp_files/23507.got.cif
#   From: 2010.03.12/outbox.cif.g09.slc.cpg/sg56_12_cif.got.tgz:23507.got - 2010.04.16 15:33:40.
