data_PCOD8228785
_publ_section_title
;
Structure prediction by ZEFSAII (Michael W. Deem and Ramdas Pophale) SiO2 
 PCOD8228785
Probable space group: P C C N
;
_chemical_formula_sum "Si O2"
_cell_formula_units_Z 60
_cell_length_a 26.332486
_cell_length_b 11.284436
_cell_length_c 8.863294
_cell_angle_alpha 90.000000
_cell_angle_beta 90.000000
_cell_angle_gamma 90.000000
_cell_volume 2633.703465
_symmetry_space_group_name_H-M "P C C N"
_symmetry_group_IT_number 56
_symmetry_cell_setting 'orthorhombic'
loop_
_space_group_symop_operation_xyz
x,y,z
1/2-x,1/2-y,z
1/2+x,-y,1/2-z
-x,1/2+y,1/2-z
-x,-y,-z
1/2+x,1/2+y,-z
1/2-x,y,1/2+z
x,1/2-y,1/2+z
loop_
_atom_site_type_symbol
_atom_site_label
_atom_site_fract_x
_atom_site_fract_y
_atom_site_fract_z
Si Si1 0.804006 0.812196 0.139117
Si Si2 0.591164 0.181254 0.600361
Si Si3 0.820476 0.451562 0.477302
Si Si4 0.647147 0.884433 0.951142
Si Si5 0.750000 0.250000 0.062079
Si Si6 0.022671 0.767397 0.163569
Si Si7 0.840274 0.397847 0.152940
Si Si8 0.971067 0.888792 0.434813
O O1 0.750000 0.750000 0.156090
O O2 0.845382 0.722918 0.069344
O O3 0.796765 0.924277 0.028089
O O4 0.821387 0.856671 0.301698
O O5 0.636941 0.086658 0.601979
O O6 0.563366 0.165022 0.440484
O O7 0.552289 0.164041 0.740258
O O8 0.610828 0.317377 0.614964
O O9 0.777796 0.349886 0.461613
O O10 0.846411 0.464680 0.313072
O O11 0.588480 0.904772 0.913121
O O12 0.667866 0.006058 0.022022
O O13 0.791116 0.314484 0.166348
O O14 0.995872 0.859808 0.274059
O O15 0.979284 0.714508 0.056983
O O16 0.000000 0.000000 0.500000
#
# Coordination Sequence:
#
# PCOD8228785 Si02
#       8
#     8   8   8   8   4   8   8   8
#     4  12  28  47  70 100 140 193 247 296 354 429
#     4  10  21  39  69 105 139 180 220 296 362 431
#     4  11  24  41  69 101 139 179 239 281 366 420
#     4  12  26  47  71  97 143 187 243 293 355 426
#     4  10  24  40  66 106 136 176 224 296 350 426
#     4  10  21  43  66 103 143 175 237 286 362 427
#     4  11  23  42  70  99 141 177 230 289 361 424
#     4  11  25  44  72 103 143 191 238 299 369 443
#
# _framework density 22.781609
#
# number of rings (size 3 to 8) (size 9 to 14) (size 15 to 20)
#    0.000    1.067    1.333    4.800    3.733    4.267 
#    0.000    2.000    0.000    0.000    0.000    0.000 
#    0.000    0.000    0.000    0.000    0.000    0.000 
#
# Total GULP energy -744050.846878 kJ/mol
# GULP energy per Si atom -12400.847448 kJ/mol
# Density = 2.272976 g / cm^3
# Si number density = 22.781609 Si / 1000 Ang^3
#
#
#
# Elastic Constant Matrix: (Units=GPa)
#
#
# Indices 1 2 3 4 5 6 
#
# 1 123.5010 39.0736 31.5312 0.0000 0.0000 0.0000
# 2 39.0736 110.5768 33.2634 0.0000 0.0000 0.0000
# 3 31.5312 33.2634 114.5055 0.0000 0.0000 0.0000
# 4 0.0000 0.0000 0.0000 27.2979 0.0000 0.0000
# 5 0.0000 0.0000 0.0000 0.0000 29.8636 0.0000
# 6 0.0000 0.0000 0.0000 0.0000 0.0000 30.3418
#
#
#
# Elastic Compliance Matrix: (Units=1/GPa)
#
#
# Indices 1 2 3 4 5 6 
#
# 1 0.009438 -0.002798 -0.001786 0.000000 0.000000 0.000000
# 2 -0.002798 0.010739 -0.002349 0.000000 0.000000 0.000000
# 3 -0.001786 -0.002349 0.009908 0.000000 0.000000 0.000000
# 4 0.000000 0.000000 0.000000 0.036633 0.000000 0.000000
# 5 0.000000 0.000000 0.000000 0.000000 0.033486 0.000000
# 6 0.000000 0.000000 0.000000 0.000000 0.000000 0.032958
#
#
# Mechanical properties :
#
#
# Convention : Reuss Voigt Hill
#
# Bulk Modulus (GPa) = 61.65917 61.81329 61.73623
# Shear Modulus (GPa) = 32.80121 33.81500 33.30810
#
# Velocity S-wave (km/s) = 3.79860 3.85686 3.82784
# Velocity P-wave (km/s) = 6.80906 6.85753 6.83333
#
# Compressibility (1/GPa) = 0.01621819
#
# Stress axis : x y z
#
# Youngs Moduli (GPa) = 105.95091 93.12038 100.93358
#
# Poissons Ratio (x) = 0.26053 0.18029
# Poissons Ratio (y) = 0.29643 0.23711
# Poissons Ratio (z) = 0.18926 0.21875
#
# Static dielectric constant tensor:
#      x y z
#    x -0.130280 0.000000 0.000000 
#    y 0.000000 4.054580 0.000000 
#    z 0.000000 0.000000 4.138660 
# 
# 
# High freq. dielectric constant tensor:
#      x y z
#    x 1.906470 0.000000 0.000000 
#    y 0.000000 1.888150 0.000000 
#    z 0.000000 0.000000 1.909430 
# 
# From -- ./inp_files/4982.got.cif
#   From: 2010.03.12/outbox.cif.g09.slc.cpg/sg56_3_cif.got.tgz:4982.got - 2010.04.16 15:33:40.
