data_PCOD8228397
_publ_section_title
;
Structure prediction by ZEFSAII (Michael W. Deem and Ramdas Pophale) SiO2 
 PCOD8228397
Probable space group: P C C N
;
_chemical_formula_sum "Si O2"
_cell_formula_units_Z 44
_cell_length_a 13.953433
_cell_length_b 10.908129
_cell_length_c 13.580037
_cell_angle_alpha 90.000000
_cell_angle_beta 90.000000
_cell_angle_gamma 90.000000
_cell_volume 2066.961036
_symmetry_space_group_name_H-M "P C C N"
_symmetry_group_IT_number 56
_symmetry_cell_setting 'orthorhombic'
loop_
_space_group_symop_operation_xyz
x,y,z
1/2-x,1/2-y,z
1/2+x,-y,1/2-z
-x,1/2+y,1/2-z
-x,-y,-z
1/2+x,1/2+y,-z
1/2-x,y,1/2+z
x,1/2-y,1/2+z
loop_
_atom_site_type_symbol
_atom_site_label
_atom_site_fract_x
_atom_site_fract_y
_atom_site_fract_z
Si Si1 0.190438 0.538869 0.168555
Si Si2 0.250000 0.750000 0.813976
Si Si3 0.349726 0.701109 0.504092
Si Si4 0.022693 0.357623 0.420410
Si Si5 0.858744 0.715548 0.750832
Si Si6 0.606423 0.566611 0.886907
O O1 0.196475 0.647738 0.249163
O O2 0.132187 0.578859 0.069407
O O3 0.133105 0.424192 0.212832
O O4 0.295223 0.497777 0.137831
O O5 0.170297 0.684278 0.886337
O O6 0.250000 0.750000 0.553249
O O7 0.437834 0.792529 0.519046
O O8 0.076542 0.267203 0.346100
O O9 0.102282 0.406106 0.496620
O O10 0.979148 0.472850 0.359858
O O11 0.750000 0.750000 0.725154
O O12 0.904859 0.805422 0.830620
#
# Coordination Sequence:
#
# PCOD8228397 Si02
#       6
#     8   4   8   8   8   8
#     4  11  21  43  66  95 132 173 216 274 322 397
#     4  10  20  36  68  94 130 170 222 258 336 374
#     4  10  22  39  64 103 125 167 221 269 321 390
#     4  11  23  41  71  91 134 175 218 276 327 393
#     4  10  26  42  65  95 133 179 215 270 338 395
#     4  10  23  43  61  97 129 170 221 268 329 390
#
# _framework density 21.287291
#
# number of rings (size 3 to 8) (size 9 to 14) (size 15 to 20)
#    0.545    1.091    2.727    0.000   10.182    3.636 
#    3.273    0.909    0.000    0.000    0.000    0.000 
#    0.000    0.000    0.000    0.000    0.000    0.000 
#
# Total GULP energy -545347.907873 kJ/mol
# GULP energy per Si atom -12394.270633 kJ/mol
# Density = 2.123884 g / cm^3
# Si number density = 21.287291 Si / 1000 Ang^3
#
#
#
# Elastic Constant Matrix: (Units=GPa)
#
#
# Indices 1 2 3 4 5 6 
#
# 1 55.0163 9.2474 35.5205 0.0000 0.0000 0.0000
# 2 9.2474 96.7883 41.7927 0.0000 0.0000 0.0000
# 3 35.5205 41.7927 97.6763 0.0000 0.0000 0.0000
# 4 0.0000 0.0000 0.0000 22.1267 0.0000 0.0000
# 5 0.0000 0.0000 0.0000 0.0000 27.6884 0.0000
# 6 0.0000 0.0000 0.0000 0.0000 0.0000 17.2730
#
#
#
# Elastic Compliance Matrix: (Units=1/GPa)
#
#
# Indices 1 2 3 4 5 6 
#
# 1 0.024009 0.001811 -0.009506 0.000000 0.000000 0.000000
# 2 0.001811 0.012810 -0.006139 0.000000 0.000000 0.000000
# 3 -0.009506 -0.006139 0.016322 0.000000 0.000000 0.000000
# 4 0.000000 0.000000 0.000000 0.045194 0.000000 0.000000
# 5 0.000000 0.000000 0.000000 0.000000 0.036116 0.000000
# 6 0.000000 0.000000 0.000000 0.000000 0.000000 0.057894
#
#
# Mechanical properties :
#
#
# Convention : Reuss Voigt Hill
#
# Bulk Modulus (GPa) = 39.25934 46.95580 43.10757
# Shear Modulus (GPa) = 21.88137 24.27898 23.08017
#
# Velocity S-wave (km/s) = 3.20958 3.38085 3.29633
# Velocity P-wave (km/s) = 5.67608 6.11116 5.89763
#
# Compressibility (1/GPa) = 0.02547165
#
# Stress axis : x y z
#
# Youngs Moduli (GPa) = 41.65029 78.06538 61.26847
#
# Poissons Ratio (x) = -0.14135 0.58241
# Poissons Ratio (y) = -0.07541 0.37615
# Poissons Ratio (z) = 0.39592 0.47927
#
# Static dielectric constant tensor:
#      x y z
#    x 3.592030 0.000000 0.000000 
#    y 0.000000 3.964850 0.000000 
#    z 0.000000 0.000000 3.841220 
# 
# 
# High freq. dielectric constant tensor:
#      x y z
#    x 1.822130 0.000000 0.000000 
#    y 0.000000 1.832860 0.000000 
#    z 0.000000 0.000000 1.836250 
# 
# From -- ./inp_files/12186.got.cif
#   From: 2010.03.12/outbox.cif.g09.slc.cpg/sg56_7_cif.got.tgz:12186.got - 2010.04.16 15:33:40.
