data_PCOD8228765
_publ_section_title
;
Structure prediction by ZEFSAII (Michael W. Deem and Ramdas Pophale) SiO2 
 PCOD8228765
Probable space group: P C C N
;
_chemical_formula_sum "Si O2"
_cell_formula_units_Z 56
_cell_length_a 20.425146
_cell_length_b 14.660865
_cell_length_c 8.845725
_cell_angle_alpha 90.000000
_cell_angle_beta 90.000000
_cell_angle_gamma 90.000000
_cell_volume 2648.855077
_symmetry_space_group_name_H-M "P C C N"
_symmetry_group_IT_number 56
_symmetry_cell_setting 'orthorhombic'
loop_
_space_group_symop_operation_xyz
x,y,z
1/2-x,1/2-y,z
1/2+x,-y,1/2-z
-x,1/2+y,1/2-z
-x,-y,-z
1/2+x,1/2+y,-z
1/2-x,y,1/2+z
x,1/2-y,1/2+z
loop_
_atom_site_type_symbol
_atom_site_label
_atom_site_fract_x
_atom_site_fract_y
_atom_site_fract_z
Si Si1 0.393843 0.000638 0.966611
Si Si2 0.536773 0.279558 0.070720
Si Si3 0.750000 0.250000 0.347451
Si Si4 0.164727 0.680228 0.911601
Si Si5 0.467159 0.344015 0.781221
Si Si6 0.750000 0.750000 0.617541
Si Si7 0.488878 0.548338 0.719355
Si Si8 0.669657 0.659818 0.362558
O O1 0.356365 0.922728 0.877059
O O2 0.436327 0.057861 0.843352
O O3 0.441811 0.944987 0.076495
O O4 0.343306 0.059938 0.067561
O O5 0.612209 0.257396 0.032048
O O6 0.517152 0.185766 0.151971
O O7 0.528674 0.369436 0.171253
O O8 0.488129 0.290314 0.930354
O O9 0.719296 0.326588 0.457458
O O10 0.807543 0.291063 0.248811
O O11 0.474954 0.452483 0.805500
O O12 0.396406 0.309209 0.723340
O O13 0.690031 0.720108 0.508831
O O14 0.774568 0.667864 0.730334
#
# Coordination Sequence:
#
# PCOD8228765 Si02
#       8
#     8   8   4   8   8   4   8   8
#     4  10  21  39  63  92 131 160 205 267 322 379
#     4  12  23  38  68  93 131 166 206 266 336 382
#     4  10  24  40  64  88 122 168 222 254 302 380
#     4  11  22  42  63  93 124 170 212 261 318 379
#     4  11  23  39  63  98 126 164 208 264 326 389
#     4  10  22  44  62  86 122 170 220 254 310 378
#     4  10  22  38  59  99 133 160 203 259 331 399
#     4  10  23  40  63  87 124 163 212 261 308 381
#
# _framework density 21.141209
#
# number of rings (size 3 to 8) (size 9 to 14) (size 15 to 20)
#    0.000    1.429    1.429    3.857    6.000    1.143 
#    0.000    1.429    0.000    0.000    0.000    0.000 
#    0.000    0.000    0.000    0.000    0.000    0.000 
#
# Total GULP energy -693863.882807 kJ/mol
# GULP energy per Si atom -12390.426479 kJ/mol
# Density = 2.109309 g / cm^3
# Si number density = 21.141209 Si / 1000 Ang^3
#
#
#
# Elastic Constant Matrix: (Units=GPa)
#
#
# Indices 1 2 3 4 5 6 
#
# 1 90.9293 50.1019 38.7583 0.0000 0.0000 0.0000
# 2 50.1019 83.9395 39.8881 0.0000 0.0000 0.0000
# 3 38.7583 39.8881 99.5066 0.0000 0.0000 0.0000
# 4 0.0000 0.0000 0.0000 31.1487 0.0000 0.0000
# 5 0.0000 0.0000 0.0000 0.0000 34.7510 0.0000
# 6 0.0000 0.0000 0.0000 0.0000 0.0000 21.5193
#
#
#
# Elastic Compliance Matrix: (Units=1/GPa)
#
#
# Indices 1 2 3 4 5 6 
#
# 1 0.017167 -0.008733 -0.003186 0.000000 0.000000 0.000000
# 2 -0.008733 0.019159 -0.004279 0.000000 0.000000 0.000000
# 3 -0.003186 -0.004279 0.013006 0.000000 0.000000 0.000000
# 4 0.000000 0.000000 0.000000 0.032104 0.000000 0.000000
# 5 0.000000 0.000000 0.000000 0.000000 0.028776 0.000000
# 6 0.000000 0.000000 0.000000 0.000000 0.000000 0.046470
#
#
# Mechanical properties :
#
#
# Convention : Reuss Voigt Hill
#
# Bulk Modulus (GPa) = 59.04239 59.09690 59.06965
# Shear Modulus (GPa) = 25.67749 27.19227 26.43488
#
# Velocity S-wave (km/s) = 3.48885 3.59028 3.53993
# Velocity P-wave (km/s) = 6.64964 6.72316 6.68650
#
# Compressibility (1/GPa) = 0.01693698
#
# Stress axis : x y z
#
# Youngs Moduli (GPa) = 58.24979 52.19481 76.88936
#
# Poissons Ratio (x) = 0.45581 0.24498
# Poissons Ratio (y) = 0.50869 0.32898
# Poissons Ratio (z) = 0.18559 0.22332
#
# Static dielectric constant tensor:
#      x y z
#    x 4.054140 0.000000 0.000000 
#    y 0.000000 3.600090 0.000000 
#    z 0.000000 0.000000 3.923540 
# 
# 
# High freq. dielectric constant tensor:
#      x y z
#    x 1.830470 0.000000 0.000000 
#    y 0.000000 1.815030 0.000000 
#    z 0.000000 0.000000 1.839200 
# 
# From -- ./inp_files/4503.got.cif
#   From: 2010.03.12/outbox.cif.g09.slc.cpg/sg56_3_cif.got.tgz:4503.got - 2010.04.16 15:33:40.
