data_PCOD8228714
_publ_section_title
;
Structure prediction by ZEFSAII (Michael W. Deem and Ramdas Pophale) SiO2 
 PCOD8228714
Probable space group: P C C N
;
_chemical_formula_sum "Si O2"
_cell_formula_units_Z 48
_cell_length_a 13.511174
_cell_length_b 11.108513
_cell_length_c 16.752038
_cell_angle_alpha 90.000000
_cell_angle_beta 90.000000
_cell_angle_gamma 90.000000
_cell_volume 2514.297503
_symmetry_space_group_name_H-M "P C C N"
_symmetry_group_IT_number 56
_symmetry_cell_setting 'orthorhombic'
loop_
_space_group_symop_operation_xyz
x,y,z
1/2-x,1/2-y,z
1/2+x,-y,1/2-z
-x,1/2+y,1/2-z
-x,-y,-z
1/2+x,1/2+y,-z
1/2-x,y,1/2+z
x,1/2-y,1/2+z
loop_
_atom_site_type_symbol
_atom_site_label
_atom_site_fract_x
_atom_site_fract_y
_atom_site_fract_z
Si Si1 0.365682 0.247925 0.350285
Si Si2 0.139747 0.491978 0.292247
Si Si3 0.341310 0.338111 0.632933
Si Si4 0.813490 0.137440 0.648259
Si Si5 0.606851 0.952839 0.024042
Si Si6 0.007821 0.717743 0.297186
O O1 0.250000 0.250000 0.324322
O O2 0.380914 0.104363 0.363745
O O3 0.393851 0.328824 0.425669
O O4 0.439337 0.287868 0.280512
O O5 0.137768 0.425910 0.207292
O O6 0.247389 0.552513 0.296029
O O7 0.052263 0.585904 0.304363
O O8 0.250000 0.250000 0.645404
O O9 0.329958 0.420760 0.554713
O O10 0.438465 0.251639 0.626994
O O11 0.750000 0.250000 0.615826
O O12 0.904441 0.182245 0.703487
O O13 0.843367 0.061872 0.570810
O O14 0.500000 0.000000 0.000000
#
# Coordination Sequence:
#
# PCOD8228714 Si02
#       6
#     8   8   8   8   8   8
#     4  11  22  36  63  92 120 165 204 252 313 362
#     4  10  21  40  64  88 121 158 208 256 303 368
#     4  11  24  37  60  96 121 155 209 258 304 366
#     4  10  22  41  64  89 126 167 205 256 315 374
#     4  12  23  42  62  87 128 165 204 257 320 369
#     4  10  21  38  61  91 121 161 206 248 304 373
#
# _framework density 19.090819
#
# number of rings (size 3 to 8) (size 9 to 14) (size 15 to 20)
#    0.000    1.333    3.333    3.500    2.333    0.000 
#    0.000    6.667    0.000    0.000    0.000    0.000 
#    0.000    0.000    0.000    0.000    0.000    0.000 
#
# Total GULP energy -594679.287204 kJ/mol
# GULP energy per Si atom -12389.151817 kJ/mol
# Density = 1.904737 g / cm^3
# Si number density = 19.090819 Si / 1000 Ang^3
#
#
#
# Elastic Constant Matrix: (Units=GPa)
#
#
# Indices 1 2 3 4 5 6 
#
# 1 133.1056 67.4496 38.1397 0.0000 0.0000 0.0000
# 2 67.4496 153.1557 58.1058 0.0000 0.0000 0.0000
# 3 38.1397 58.1058 95.7553 0.0000 0.0000 0.0000
# 4 0.0000 0.0000 0.0000 31.4089 0.0000 0.0000
# 5 0.0000 0.0000 0.0000 0.0000 22.9804 0.0000
# 6 0.0000 0.0000 0.0000 0.0000 0.0000 33.2295
#
#
#
# Elastic Compliance Matrix: (Units=1/GPa)
#
#
# Indices 1 2 3 4 5 6 
#
# 1 0.009875 -0.003711 -0.001681 0.000000 0.000000 0.000000
# 2 -0.003711 0.009877 -0.004515 0.000000 0.000000 0.000000
# 3 -0.001681 -0.004515 0.013853 0.000000 0.000000 0.000000
# 4 0.000000 0.000000 0.000000 0.031838 0.000000 0.000000
# 5 0.000000 0.000000 0.000000 0.000000 0.043515 0.000000
# 6 0.000000 0.000000 0.000000 0.000000 0.000000 0.030094
#
#
# Mechanical properties :
#
#
# Convention : Reuss Voigt Hill
#
# Bulk Modulus (GPa) = 72.51938 78.82296 75.67117
# Shear Modulus (GPa) = 30.58783 32.07853 31.33318
#
# Velocity S-wave (km/s) = 4.00713 4.10361 4.05565
# Velocity P-wave (km/s) = 7.71222 7.98942 7.85205
#
# Compressibility (1/GPa) = 0.01378942
#
# Stress axis : x y z
#
# Youngs Moduli (GPa) = 101.26410 101.24849 72.18726
#
# Poissons Ratio (x) = 0.37575 0.12137
# Poissons Ratio (y) = 0.37580 0.32594
# Poissons Ratio (z) = 0.17026 0.45715
#
# Static dielectric constant tensor:
#      x y z
#    x 3.835560 0.000000 0.000000 
#    y 0.000000 4.014030 0.000000 
#    z 0.000000 0.000000 3.384210 
# 
# 
# High freq. dielectric constant tensor:
#      x y z
#    x 1.758840 0.000000 0.000000 
#    y 0.000000 1.765250 0.000000 
#    z 0.000000 0.000000 1.715040 
# 
# From -- ./inp_files/15604.got.cif
#   From: 2010.03.12/outbox.cif.g09.slc.cpg/sg56_8_cif.got.tgz:15604.got - 2010.04.16 15:33:40.
