data_PCOD8228691
_publ_section_title
;
Structure prediction by ZEFSAII (Michael W. Deem and Ramdas Pophale) SiO2 
 PCOD8228691
Probable space group: P C C N
;
_chemical_formula_sum "Si O2"
_cell_formula_units_Z 48
_cell_length_a 8.933660
_cell_length_b 9.341471
_cell_length_c 29.479359
_cell_angle_alpha 90.000000
_cell_angle_beta 90.000000
_cell_angle_gamma 90.000000
_cell_volume 2460.156447
_symmetry_space_group_name_H-M "P C C N"
_symmetry_group_IT_number 56
_symmetry_cell_setting 'orthorhombic'
loop_
_space_group_symop_operation_xyz
x,y,z
1/2-x,1/2-y,z
1/2+x,-y,1/2-z
-x,1/2+y,1/2-z
-x,-y,-z
1/2+x,1/2+y,-z
1/2-x,y,1/2+z
x,1/2-y,1/2+z
loop_
_atom_site_type_symbol
_atom_site_label
_atom_site_fract_x
_atom_site_fract_y
_atom_site_fract_z
Si Si1 0.576997 0.111867 0.128749
Si Si2 0.425273 0.081844 0.540250
Si Si3 0.590736 0.067590 0.626582
Si Si4 0.645240 0.615682 0.214340
Si Si5 0.576585 0.914314 0.959472
Si Si6 0.641422 0.383872 0.726355
O O1 0.741897 0.090538 0.107868
O O2 0.527028 0.275571 0.138926
O O3 0.470862 0.035119 0.091547
O O4 0.574379 0.046510 0.179660
O O5 0.486777 0.008304 0.586236
O O6 0.250368 0.058980 0.536643
O O7 0.470057 0.248428 0.536859
O O8 0.500000 0.000000 0.500000
O O9 0.586493 0.959097 0.668564
O O10 0.750000 0.750000 0.202647
O O11 0.493638 0.659779 0.240739
O O12 0.746502 0.507481 0.245126
O O13 0.500000 0.000000 0.000000
O O14 0.750000 0.250000 0.714848
#
# Coordination Sequence:
#
# PCOD8228691 Si02
#       6
#     8   8   8   8   8   8
#     4   9  17  36  61  80 112 157 195 237 291 360
#     4  10  21  38  59  87 119 152 190 245 301 356
#     4   9  18  37  58  80 116 155 196 235 295 357
#     4  11  23  37  61  92 121 162 203 257 305 357
#     4  10  21  37  61  90 112 149 202 243 292 358
#     4  11  21  41  61  88 123 162 207 247 311 366
#
# _framework density 19.510954999999999
#
# number of rings (size 3 to 8) (size 9 to 14) (size 15 to 20)
#    0.000    2.000    3.333    2.000    0.000    3.333 
#   12.000    0.000    0.000    0.000    0.000    0.000 
#    0.000    0.000    0.000    0.000    0.000    0.000 
#
# Total GULP energy -594740.337129 kJ/mol
# GULP energy per Si atom -12390.423690 kJ/mol
# Density = 1.946655 g / cm^3
# Si number density = 19.510955 Si / 1000 Ang^3
#
#
#
# Elastic Constant Matrix: (Units=GPa)
#
#
# Indices 1 2 3 4 5 6 
#
# 1 98.1085 39.2844 75.1836 0.0000 0.0000 0.0000
# 2 39.2844 57.8762 40.2956 0.0000 0.0000 0.0000
# 3 75.1836 40.2956 132.8778 0.0000 0.0000 0.0000
# 4 0.0000 0.0000 0.0000 29.4465 0.0000 0.0000
# 5 0.0000 0.0000 0.0000 0.0000 41.2686 0.0000
# 6 0.0000 0.0000 0.0000 0.0000 0.0000 28.0723
#
#
#
# Elastic Compliance Matrix: (Units=1/GPa)
#
#
# Indices 1 2 3 4 5 6 
#
# 1 0.020154 -0.007277 -0.009197 0.000000 0.000000 0.000000
# 2 -0.007277 0.024530 -0.003321 0.000000 0.000000 0.000000
# 3 -0.009197 -0.003321 0.013737 0.000000 0.000000 0.000000
# 4 0.000000 0.000000 0.000000 0.033960 0.000000 0.000000
# 5 0.000000 0.000000 0.000000 0.000000 0.024231 0.000000
# 6 0.000000 0.000000 0.000000 0.000000 0.000000 0.035622
#
#
# Mechanical properties :
#
#
# Convention : Reuss Voigt Hill
#
# Bulk Modulus (GPa) = 53.10482 66.48775 59.79629
# Shear Modulus (GPa) = 25.23950 28.69741 26.96846
#
# Velocity S-wave (km/s) = 3.60058 3.83931 3.72186
# Velocity P-wave (km/s) = 6.67552 7.33518 7.01311
#
# Compressibility (1/GPa) = 0.01883068
#
# Stress axis : x y z
#
# Youngs Moduli (GPa) = 49.61691 40.76617 72.79824
#
# Poissons Ratio (x) = 0.29665 0.66951
# Poissons Ratio (y) = 0.36106 0.24180
# Poissons Ratio (z) = 0.45632 0.13540
#
# Static dielectric constant tensor:
#      x y z
#    x 3.486860 0.000000 0.000000 
#    y 0.000000 3.460720 0.000000 
#    z 0.000000 0.000000 3.611070 
# 
# 
# High freq. dielectric constant tensor:
#      x y z
#    x 1.763220 0.000000 0.000000 
#    y 0.000000 1.739630 0.000000 
#    z 0.000000 0.000000 1.758350 
# 
# From -- ./inp_files/23251.got.cif
#   From: 2010.03.12/outbox.cif.g09.slc.cpg/sg56_12_cif.got.tgz:23251.got - 2010.04.16 15:33:40.
