data_PCOD8228992
_publ_section_title
;
Structure prediction by ZEFSAII (Michael W. Deem and Ramdas Pophale) SiO2 
 PCOD8228992
Probable space group: P C C N
;
_chemical_formula_sum "Si O2"
_cell_formula_units_Z 40
_cell_length_a 13.960254
_cell_length_b 12.403388
_cell_length_c 10.601420
_cell_angle_alpha 90.000000
_cell_angle_beta 90.000000
_cell_angle_gamma 90.000000
_cell_volume 1835.683017
_symmetry_space_group_name_H-M "P C C N"
_symmetry_group_IT_number 56
_symmetry_cell_setting 'orthorhombic'
loop_
_space_group_symop_operation_xyz
x,y,z
1/2-x,1/2-y,z
1/2+x,-y,1/2-z
-x,1/2+y,1/2-z
-x,-y,-z
1/2+x,1/2+y,-z
1/2-x,y,1/2+z
x,1/2-y,1/2+z
loop_
_atom_site_type_symbol
_atom_site_label
_atom_site_fract_x
_atom_site_fract_y
_atom_site_fract_z
Si Si1 0.948038 0.115666 0.928373
Si Si2 0.494999 0.413930 0.189189
Si Si3 0.656455 0.183950 0.838136
Si Si4 0.705259 0.632368 0.716771
Si Si5 0.255379 0.497879 0.034017
O O1 0.922697 0.235241 0.889931
O O2 0.858636 0.049093 0.983315
O O3 0.023193 0.122986 0.043732
O O4 0.989620 0.046009 0.809967
O O5 0.602009 0.378090 0.226674
O O6 0.410661 0.361492 0.273013
O O7 0.750000 0.250000 0.787733
O O8 0.682696 0.098338 0.946325
O O9 0.750000 0.750000 0.701660
O O10 0.727441 0.565363 0.591192
O O11 0.749222 0.576351 0.840796
#
# Coordination Sequence:
#
# PCOD8228992 Si02
#       5
#     8   8   8   8   8
#     4   9  21  40  60  90 127 167 209 270 330 376
#     4  10  22  39  62  90 126 166 214 263 320 386
#     4  10  22  39  65  95 126 168 215 266 320 380
#     4  11  24  41  63  92 129 173 213 262 325 386
#     4  10  22  41  64  91 126 168 217 266 321 389
#
# _framework density 21.790255999999999
#
# number of rings (size 3 to 8) (size 9 to 14) (size 15 to 20)
#    0.000    2.000    0.000    1.800    0.000   16.000 
#    0.000    0.000    0.000    0.000    0.000    0.000 
#    0.000    0.000    0.000    0.000    0.000    0.000 
#
# Total GULP energy -495706.680259 kJ/mol
# GULP energy per Si atom -12392.667006 kJ/mol
# Density = 2.174066 g / cm^3
# Si number density = 21.790256 Si / 1000 Ang^3
#
#
#
# Elastic Constant Matrix: (Units=GPa)
#
#
# Indices 1 2 3 4 5 6 
#
# 1 74.0647 47.6161 50.6346 0.0000 0.0000 0.0000
# 2 47.6161 146.4647 62.3198 0.0000 0.0000 0.0000
# 3 50.6346 62.3198 127.0145 0.0000 0.0000 0.0000
# 4 0.0000 0.0000 0.0000 21.2481 0.0000 0.0000
# 5 0.0000 0.0000 0.0000 0.0000 37.4029 0.0000
# 6 0.0000 0.0000 0.0000 0.0000 0.0000 38.9812
#
#
#
# Elastic Compliance Matrix: (Units=1/GPa)
#
#
# Indices 1 2 3 4 5 6 
#
# 1 0.020241 -0.003977 -0.006118 0.000000 0.000000 0.000000
# 2 -0.003977 0.009411 -0.003032 0.000000 0.000000 0.000000
# 3 -0.006118 -0.003032 0.011799 0.000000 0.000000 0.000000
# 4 0.000000 0.000000 0.000000 0.047063 0.000000 0.000000
# 5 0.000000 0.000000 0.000000 0.000000 0.026736 0.000000
# 6 0.000000 0.000000 0.000000 0.000000 0.000000 0.025653
#
#
# Mechanical properties :
#
#
# Convention : Reuss Voigt Hill
#
# Bulk Modulus (GPa) = 65.79976 74.29830 70.04903
# Shear Modulus (GPa) = 29.03213 31.99134 30.51173
#
# Velocity S-wave (km/s) = 3.65409 3.83580 3.74605
# Velocity P-wave (km/s) = 6.93294 7.33409 7.13633
#
# Compressibility (1/GPa) = 0.01519762
#
# Stress axis : x y z
#
# Youngs Moduli (GPa) = 49.40437 106.26269 84.74976
#
# Poissons Ratio (x) = 0.42265 0.51847
# Poissons Ratio (y) = 0.19650 0.25694
# Poissons Ratio (z) = 0.30224 0.32216
#
# Static dielectric constant tensor:
#      x y z
#    x 4.002840 0.000000 0.000000 
#    y 0.000000 4.207470 0.000000 
#    z 0.000000 0.000000 3.707360 
# 
# 
# High freq. dielectric constant tensor:
#      x y z
#    x 1.859970 0.000000 0.000000 
#    y 0.000000 1.866340 0.000000 
#    z 0.000000 0.000000 1.842510 
# 
# From -- ./inp_files/7661.got.cif
#   From: 2010.03.12/outbox.cif.g09.slc.cpg/sg56_4_cif.got.tgz:7661.got - 2010.04.16 15:33:40.
