data_PCOD8228193
_publ_section_title
;
Structure prediction by ZEFSAII (Michael W. Deem and Ramdas Pophale) SiO2 
 PCOD8228193
Probable space group: P C C N
;
_chemical_formula_sum "Si O2"
_cell_formula_units_Z 60
_cell_length_a 10.120873
_cell_length_b 19.590574
_cell_length_c 15.497328
_cell_angle_alpha 90.000000
_cell_angle_beta 90.000000
_cell_angle_gamma 90.000000
_cell_volume 3072.712740
_symmetry_space_group_name_H-M "P C C N"
_symmetry_group_IT_number 56
_symmetry_cell_setting 'orthorhombic'
loop_
_space_group_symop_operation_xyz
x,y,z
1/2-x,1/2-y,z
1/2+x,-y,1/2-z
-x,1/2+y,1/2-z
-x,-y,-z
1/2+x,1/2+y,-z
1/2-x,y,1/2+z
x,1/2-y,1/2+z
loop_
_atom_site_type_symbol
_atom_site_label
_atom_site_fract_x
_atom_site_fract_y
_atom_site_fract_z
Si Si1 0.274774 0.828767 0.737958
Si Si2 0.250000 0.250000 0.888015
Si Si3 0.607460 0.534781 0.061011
Si Si4 0.785087 0.079420 0.607409
Si Si5 0.924504 0.561140 0.855627
Si Si6 0.435086 0.140143 0.304936
Si Si7 0.359416 0.123663 0.977575
Si Si8 0.866253 0.085251 0.411399
O O1 0.250000 0.750000 0.732795
O O2 0.237048 0.857420 0.832894
O O3 0.430994 0.831470 0.731174
O O4 0.198792 0.866311 0.660127
O O5 0.159430 0.203194 0.827354
O O6 0.333514 0.201332 0.950559
O O7 0.668279 0.475174 0.119640
O O8 0.529625 0.591810 0.114679
O O9 0.731683 0.574613 0.019754
O O10 0.500000 0.500000 0.000000
O O11 0.800117 0.098532 0.505476
O O12 0.918116 0.046372 0.647500
O O13 0.866637 0.591044 0.766538
O O14 0.844409 0.493309 0.882774
O O15 0.909407 0.622453 0.924600
O O16 0.475793 0.096427 0.915154
#
# Coordination Sequence:
#
# PCOD8228193 Si02
#       8
#     8   4   8   8   8   8   8   8
#     4  11  24  39  58  87 122 161 206 245 306 374
#     4  10  22  40  56  84 130 168 202 248 308 364
#     4  11  20  37  58  89 123 149 199 257 311 354
#     4  10  20  38  60  88 121 147 201 256 303 363
#     4  10  19  37  63  90 114 156 206 256 306 361
#     4  10  23  38  58  87 124 159 202 256 300 373
#     4  10  20  37  62  86 117 163 206 246 304 378
#     4  11  19  38  67  87 118 162 203 254 312 362
#
# _framework density 19.526717999999999
#
# number of rings (size 3 to 8) (size 9 to 14) (size 15 to 20)
#    0.000    1.600    2.667    3.200    0.000    1.067 
#    0.000   12.000    0.000    0.000    0.000    0.000 
#    0.000    0.000    0.000    0.000    0.000    0.000 
#
# Total GULP energy -743533.649182 kJ/mol
# GULP energy per Si atom -12392.227486 kJ/mol
# Density = 1.948227 g / cm^3
# Si number density = 19.526718 Si / 1000 Ang^3
#
#
#
# Elastic Constant Matrix: (Units=GPa)
#
#
# Indices 1 2 3 4 5 6 
#
# 1 69.0442 44.8333 36.4369 0.0000 0.0000 0.0000
# 2 44.8333 150.3650 75.4880 0.0000 0.0000 0.0000
# 3 36.4369 75.4880 104.2384 0.0000 0.0000 0.0000
# 4 0.0000 0.0000 0.0000 32.6406 0.0000 0.0000
# 5 0.0000 0.0000 0.0000 0.0000 24.7038 0.0000
# 6 0.0000 0.0000 0.0000 0.0000 0.0000 28.2197
#
#
#
# Elastic Compliance Matrix: (Units=1/GPa)
#
#
# Indices 1 2 3 4 5 6 
#
# 1 0.018957 -0.003654 -0.003980 0.000000 0.000000 0.000000
# 2 -0.003654 0.011154 -0.006800 0.000000 0.000000 0.000000
# 3 -0.003980 -0.006800 0.015909 0.000000 0.000000 0.000000
# 4 0.000000 0.000000 0.000000 0.030637 0.000000 0.000000
# 5 0.000000 0.000000 0.000000 0.000000 0.040480 0.000000
# 6 0.000000 0.000000 0.000000 0.000000 0.000000 0.035436
#
#
# Mechanical properties :
#
#
# Convention : Reuss Voigt Hill
#
# Bulk Modulus (GPa) = 58.30554 70.79600 64.55077
# Shear Modulus (GPa) = 26.71536 28.23878 27.47707
#
# Velocity S-wave (km/s) = 3.70286 3.80697 3.75527
# Velocity P-wave (km/s) = 6.94303 7.46047 7.20640
#
# Compressibility (1/GPa) = 0.01715103
#
# Stress axis : x y z
#
# Youngs Moduli (GPa) = 52.75200 89.65470 62.85623
#
# Poissons Ratio (x) = 0.32760 0.25018
# Poissons Ratio (y) = 0.19275 0.42744
# Poissons Ratio (z) = 0.20996 0.60967
#
# Static dielectric constant tensor:
#      x y z
#    x 3.639080 0.000000 0.000000 
#    y 0.000000 3.644970 0.000000 
#    z 0.000000 0.000000 3.619810 
# 
# 
# High freq. dielectric constant tensor:
#      x y z
#    x 1.759440 0.000000 0.000000 
#    y 0.000000 1.760160 0.000000 
#    z 0.000000 0.000000 1.760230 
# 
# From -- ./inp_files/11806.got.cif
#   From: 2010.03.12/outbox.cif.g09.slc.cpg/sg56_6_cif.got.tgz:11806.got - 2010.04.16 15:33:40.
