data_PCOD8228270
_publ_section_title
;
Structure prediction by ZEFSAII (Michael W. Deem and Ramdas Pophale) SiO2 
 PCOD8228270
Probable space group: P C C N
;
_chemical_formula_sum "Si O2"
_cell_formula_units_Z 64
_cell_length_a 18.544046
_cell_length_b 20.885994
_cell_length_c 8.984813
_cell_angle_alpha 90.000000
_cell_angle_beta 90.000000
_cell_angle_gamma 90.000000
_cell_volume 3479.915412
_symmetry_space_group_name_H-M "P C C N"
_symmetry_group_IT_number 56
_symmetry_cell_setting 'orthorhombic'
loop_
_space_group_symop_operation_xyz
x,y,z
1/2-x,1/2-y,z
1/2+x,-y,1/2-z
-x,1/2+y,1/2-z
-x,-y,-z
1/2+x,1/2+y,-z
1/2-x,y,1/2+z
x,1/2-y,1/2+z
loop_
_atom_site_type_symbol
_atom_site_label
_atom_site_fract_x
_atom_site_fract_y
_atom_site_fract_z
Si Si1 0.184634 0.576420 0.810291
Si Si2 0.610769 0.807902 0.810587
Si Si3 0.051751 0.832015 0.312152
Si Si4 0.215348 0.403422 0.308981
Si Si5 0.680651 0.704516 0.630836
Si Si6 0.885123 0.253356 0.441373
Si Si7 0.246333 0.006069 0.059691
Si Si8 0.798336 0.310599 0.692535
O O1 0.104172 0.606022 0.820944
O O2 0.190069 0.535057 0.658939
O O3 0.249554 0.627149 0.798859
O O4 0.198466 0.535620 0.959546
O O5 0.533292 0.842482 0.819882
O O6 0.651804 0.852663 0.694271
O O7 0.619703 0.736012 0.740327
O O8 0.646361 0.807651 0.971242
O O9 0.064262 0.796092 0.158803
O O10 0.066225 0.785589 0.447792
O O11 0.292206 0.364891 0.308582
O O12 0.206734 0.450214 0.168718
O O13 0.201702 0.446457 0.454291
O O14 0.750000 0.750000 0.615087
O O15 0.839626 0.306287 0.534675
O O16 0.844191 0.198957 0.343679
O O17 0.750000 0.250000 0.688044
#
# Coordination Sequence:
#
# PCOD8228270 Si02
#       8
#     8   8   8   8   8   8   8   8
#     4  11  21  34  56  82 113 149 194 238 277 324
#     4  11  22  36  59  91 116 148 178 224 312 364
#     4  11  22  35  51  83 127 151 178 227 289 370
#     4  10  20  40  62  82 111 140 192 253 279 328
#     4  10  20  36  64  91 112 140 185 245 296 346
#     4  10  20  32  51  80 119 149 183 223 288 339
#     4  10  22  37  59  83 105 148 206 242 270 316
#     4  11  19  31  57  80 108 146 198 242 286 315
#
# _framework density 18.391251
#
# number of rings (size 3 to 8) (size 9 to 14) (size 15 to 20)
#    0.000    1.500    3.750    3.750    1.750    0.000 
#    0.000    1.250    0.000    0.000    0.000    0.000 
#    0.000    0.000    0.000    0.000    0.000    0.000 
#
# Total GULP energy -792943.697816 kJ/mol
# GULP energy per Si atom -12389.745278 kJ/mol
# Density = 1.834939 g / cm^3
# Si number density = 18.391251 Si / 1000 Ang^3
#
#
#
# Elastic Constant Matrix: (Units=GPa)
#
#
# Indices 1 2 3 4 5 6 
#
# 1 89.9223 31.8181 34.3589 0.0000 0.0000 0.0000
# 2 31.8181 95.0076 41.3182 0.0000 0.0000 0.0000
# 3 34.3589 41.3182 115.7566 0.0000 0.0000 0.0000
# 4 0.0000 0.0000 0.0000 19.6083 0.0000 0.0000
# 5 0.0000 0.0000 0.0000 0.0000 -54.8894 0.0000
# 6 0.0000 0.0000 0.0000 0.0000 0.0000 17.8796
#
#
#
# Elastic Compliance Matrix: (Units=1/GPa)
#
#
# Indices 1 2 3 4 5 6 
#
# 1 0.013340 -0.003250 -0.002800 0.000000 0.000000 0.000000
# 2 -0.003250 0.013251 -0.003765 0.000000 0.000000 0.000000
# 3 -0.002800 -0.003765 0.010814 0.000000 0.000000 0.000000
# 4 0.000000 0.000000 0.000000 0.050999 0.000000 0.000000
# 5 0.000000 0.000000 0.000000 0.000000 -0.018218 0.000000
# 6 0.000000 0.000000 0.000000 0.000000 0.000000 0.055930
#
#
# Mechanical properties :
#
#
# Convention : Reuss Voigt Hill
#
# Bulk Modulus (GPa) = 56.25690 57.29741 56.77716
# Shear Modulus (GPa) = 32.96604 9.39911 21.18257
#
# Velocity S-wave (km/s) = 4.23837 2.26313 3.39746
# Velocity P-wave (km/s) = 7.38966 6.16858 6.80655
#
# Compressibility (1/GPa) = 0.01777560
#
# Stress axis : x y z
#
# Youngs Moduli (GPa) = 74.95980 75.46345 92.47471
#
# Poissons Ratio (x) = 0.24527 0.25889
# Poissons Ratio (y) = 0.24363 0.34819
# Poissons Ratio (z) = 0.20986 0.28414
#
# Static dielectric constant tensor:
#      x y z
#    x 3.189890 0.000000 0.000000 
#    y 0.000000 3.515030 0.000000 
#    z 0.000000 0.000000 3.871770 
# 
# 
# High freq. dielectric constant tensor:
#      x y z
#    x 1.679420 0.000000 0.000000 
#    y 0.000000 1.712040 0.000000 
#    z 0.000000 0.000000 1.740120 
# 
# From -- ./inp_files/4239.got.cif
#   From: 2010.03.12/outbox.cif.g09.slc.cpg/sg56_3_cif.got.tgz:4239.got - 2010.04.16 15:33:40.
