data_PCOD8228266
_publ_section_title
;
Structure prediction by ZEFSAII (Michael W. Deem and Ramdas Pophale) SiO2 
 PCOD8228266
Probable space group: P C C N
;
_chemical_formula_sum "Si O2"
_cell_formula_units_Z 48
_cell_length_a 34.766536
_cell_length_b 13.679674
_cell_length_c 5.169530
_cell_angle_alpha 90.000000
_cell_angle_beta 90.000000
_cell_angle_gamma 90.000000
_cell_volume 2458.601993
_symmetry_space_group_name_H-M "P C C N"
_symmetry_group_IT_number 56
_symmetry_cell_setting 'orthorhombic'
loop_
_space_group_symop_operation_xyz
x,y,z
1/2-x,1/2-y,z
1/2+x,-y,1/2-z
-x,1/2+y,1/2-z
-x,-y,-z
1/2+x,1/2+y,-z
1/2-x,y,1/2+z
x,1/2-y,1/2+z
loop_
_atom_site_type_symbol
_atom_site_label
_atom_site_fract_x
_atom_site_fract_y
_atom_site_fract_z
Si Si1 0.226339 0.996605 0.492672
Si Si2 0.944237 0.312255 0.491106
Si Si3 0.533581 0.687702 0.010463
Si Si4 0.406188 0.479762 0.010094
Si Si5 0.180531 0.685925 0.963066
Si Si6 0.358780 0.494108 0.507695
O O1 0.249836 0.029355 0.241870
O O2 0.219518 0.878620 0.491956
O O3 0.184625 0.050079 0.493390
O O4 0.933288 0.251306 0.743379
O O5 0.919028 0.408727 0.489112
O O6 0.988948 0.341321 0.489426
O O7 0.544828 0.749792 0.260848
O O8 0.556420 0.586923 0.012203
O O9 0.377992 0.459135 0.771980
O O10 0.383638 0.453286 0.271009
O O11 0.179013 0.770017 0.176183
O O12 0.144018 0.612952 0.995070
#
# Coordination Sequence:
#
# PCOD8228266 Si02
#       6
#     8   8   8   8   8   8
#     4  10  20  35  50  70 105 145 194 233 270 321
#     4  10  22  37  57  85 116 154 194 221 268 341
#     4  10  22  40  61  86 110 144 193 237 282 338
#     4  12  21  39  58  81 119 150 182 239 289 327
#     4  10  20  32  46  68 102 143 186 229 265 310
#     4  10  24  33  50  80 105 145 189 229 273 339
#
# _framework density 19.523289999999999
#
# number of rings (size 3 to 8) (size 9 to 14) (size 15 to 20)
#    1.000    0.667    0.000    5.500    0.000    6.000 
#    0.000    6.667    0.000    0.000    0.000    0.000 
#    0.000   46.667    0.000    0.000    0.000    0.000 
#
# Total GULP energy -595171.991191 kJ/mol
# GULP energy per Si atom -12399.416483 kJ/mol
# Density = 1.947885 g / cm^3
# Si number density = 19.523290 Si / 1000 Ang^3
#
#
#
# Elastic Constant Matrix: (Units=GPa)
#
#
# Indices 1 2 3 4 5 6 
#
# 1 70.7400 11.7158 33.6982 0.0000 0.0000 0.0000
# 2 11.7158 22.8916 19.9288 0.0000 0.0000 0.0000
# 3 33.6982 19.9288 145.8758 0.0000 0.0000 0.0000
# 4 0.0000 0.0000 0.0000 13.0016 0.0000 0.0000
# 5 0.0000 0.0000 0.0000 0.0000 51.6817 0.0000
# 6 0.0000 0.0000 0.0000 0.0000 0.0000 22.9311
#
#
#
# Elastic Compliance Matrix: (Units=1/GPa)
#
#
# Indices 1 2 3 4 5 6 
#
# 1 0.016543 -0.005834 -0.003025 0.000000 0.000000 0.000000
# 2 -0.005834 0.051638 -0.005707 0.000000 0.000000 0.000000
# 3 -0.003025 -0.005707 0.008334 0.000000 0.000000 0.000000
# 4 0.000000 0.000000 0.000000 0.076914 0.000000 0.000000
# 5 0.000000 0.000000 0.000000 0.000000 0.019349 0.000000
# 6 0.000000 0.000000 0.000000 0.000000 0.000000 0.043609
#
#
# Mechanical properties :
#
#
# Convention : Reuss Voigt Hill
#
# Bulk Modulus (GPa) = 21.10397 41.13258 31.11827
# Shear Modulus (GPa) = 19.13423 29.13384 24.13403
#
# Velocity S-wave (km/s) = 3.13401 3.86717 3.51973
# Velocity P-wave (km/s) = 4.89174 6.40736 5.70015
#
# Compressibility (1/GPa) = 0.04738446
#
# Stress axis : x y z
#
# Youngs Moduli (GPa) = 60.44763 19.36558 119.99743
#
# Poissons Ratio (x) = 0.11297 0.36295
# Poissons Ratio (y) = 0.35263 0.68482
# Poissons Ratio (z) = 0.18283 0.11052
#
# Static dielectric constant tensor:
#      x y z
#    x 3.561850 0.000000 0.000000 
#    y 0.000000 3.085560 0.000000 
#    z 0.000000 0.000000 3.640730 
# 
# 
# High freq. dielectric constant tensor:
#      x y z
#    x 1.769400 0.000000 0.000000 
#    y 0.000000 1.713000 0.000000 
#    z 0.000000 0.000000 1.780560 
# 
# From -- ./inp_files/1330.got.cif
#   From: 2010.03.12/outbox.cif.g09.slc.cpg/sg56_1_cif.got.tgz:1330.got - 2010.04.16 15:33:40.
