data_PCOD8228717
_publ_section_title
;
Structure prediction by ZEFSAII (Michael W. Deem and Ramdas Pophale) SiO2 
 PCOD8228717
Probable space group: P C C N
;
_chemical_formula_sum "Si O2"
_cell_formula_units_Z 64
_cell_length_a 20.468604
_cell_length_b 16.831382
_cell_length_c 9.529462
_cell_angle_alpha 90.000000
_cell_angle_beta 90.000000
_cell_angle_gamma 90.000000
_cell_volume 3283.041581
_symmetry_space_group_name_H-M "P C C N"
_symmetry_group_IT_number 56
_symmetry_cell_setting 'orthorhombic'
loop_
_space_group_symop_operation_xyz
x,y,z
1/2-x,1/2-y,z
1/2+x,-y,1/2-z
-x,1/2+y,1/2-z
-x,-y,-z
1/2+x,1/2+y,-z
1/2-x,y,1/2+z
x,1/2-y,1/2+z
loop_
_atom_site_type_symbol
_atom_site_label
_atom_site_fract_x
_atom_site_fract_y
_atom_site_fract_z
Si Si1 0.258243 0.055080 0.651631
Si Si2 0.501036 0.702583 0.739103
Si Si3 0.000969 0.659971 0.936426
Si Si4 0.264145 0.552275 0.905638
Si Si5 0.643691 0.339987 0.539783
Si Si6 0.357386 0.312740 0.230519
Si Si7 0.142267 0.155741 0.549761
Si Si8 0.639239 0.179652 0.716778
O O1 0.311538 0.124500 0.653347
O O2 0.191288 0.085234 0.582946
O O3 0.242727 0.023692 0.805739
O O4 0.283834 0.981617 0.557899
O O5 0.498765 0.791712 0.793842
O O6 0.500140 0.717235 0.572336
O O7 0.567214 0.658986 0.790705
O O8 0.437360 0.654664 0.792449
O O9 0.930879 0.614498 0.941728
O O10 0.071795 0.616266 0.945526
O O11 0.195100 0.596165 0.908589
O O12 0.320869 0.610891 0.858024
O O13 0.650759 0.263103 0.639060
O O14 0.659380 0.312976 0.380334
O O15 0.342298 0.307928 0.396432
O O16 0.347470 0.225955 0.162981
#
# Coordination Sequence:
#
# PCOD8228717 Si02
#       8
#     8   8   8   8   8   8   8   8
#     4  12  25  40  55  81 119 154 191 232 280 332
#     4   8  16  34  58  84 110 139 183 235 279 327
#     4   8  16  34  58  85 110 137 185 236 277 329
#     4  12  25  40  55  81 119 154 191 232 280 332
#     4  10  21  38  62  87 111 148 190 233 282 334
#     4  10  21  38  62  86 112 147 190 234 280 337
#     4  10  21  38  62  87 111 148 190 233 282 334
#     4  10  21  38  62  86 112 147 190 234 280 337
#
# _framework density 19.494119000000001
#
# number of rings (size 3 to 8) (size 9 to 14) (size 15 to 20)
#    0.000    2.000    2.500    0.750    3.500    2.000 
#    0.000    2.500    0.000    0.000    0.000    0.000 
#    0.000    0.000    0.000    0.000    0.000    0.000 
#
# Total GULP energy -792965.222202 kJ/mol
# GULP energy per Si atom -12390.081597 kJ/mol
# Density = 1.944975 g / cm^3
# Si number density = 19.494119 Si / 1000 Ang^3
#
#
#
# Elastic Constant Matrix: (Units=GPa)
#
#
# Indices 1 2 3 4 5 6 
#
# 1 108.3748 36.1142 35.6829 0.0000 0.0000 0.0000
# 2 36.1142 55.4435 16.8291 0.0000 0.0000 0.0000
# 3 35.6829 16.8291 75.7817 0.0000 0.0000 0.0000
# 4 0.0000 0.0000 0.0000 36.1022 0.0000 0.0000
# 5 0.0000 0.0000 0.0000 0.0000 28.6975 0.0000
# 6 0.0000 0.0000 0.0000 0.0000 0.0000 -0.4851
#
#
#
# Elastic Compliance Matrix: (Units=1/GPa)
#
#
# Indices 1 2 3 4 5 6 
#
# 1 0.013123 -0.007154 -0.004590 0.000000 0.000000 0.000000
# 2 -0.007154 0.023241 -0.001792 0.000000 0.000000 0.000000
# 3 -0.004590 -0.001792 0.015755 0.000000 0.000000 0.000000
# 4 0.000000 0.000000 0.000000 0.027699 0.000000 0.000000
# 5 0.000000 0.000000 0.000000 0.000000 0.034846 0.000000
# 6 0.000000 0.000000 0.000000 0.000000 0.000000 -2.061606
#
#
# Mechanical properties :
#
#
# Convention : Reuss Voigt Hill
#
# Bulk Modulus (GPa) = 39.92890 46.31694 43.12292
# Shear Modulus (GPa) = -2.61572 22.92784 10.15606
#
# Velocity S-wave (km/s) = -1.15962 3.43321 2.28498
# Velocity P-wave (km/s) = 4.32828 6.28705 5.39727
#
# Compressibility (1/GPa) = 0.02504452
#
# Stress axis : x y z
#
# Youngs Moduli (GPa) = 76.20390 43.02811 63.47109
#
# Poissons Ratio (x) = 0.30784 0.29134
# Poissons Ratio (y) = 0.54520 0.11376
# Poissons Ratio (z) = 0.34979 0.07712
#
# Static dielectric constant tensor:
#      x y z
#    x 4.085180 0.000000 0.000000 
#    y 0.000000 3.101790 0.000000 
#    z 0.000000 0.000000 3.765910 
# 
# 
# High freq. dielectric constant tensor:
#      x y z
#    x 1.783560 0.000000 0.000000 
#    y 0.000000 1.712010 0.000000 
#    z 0.000000 0.000000 1.775960 
# 
# From -- ./inp_files/4564.got.cif
#   From: 2010.03.12/outbox.cif.g09.slc.cpg/sg56_3_cif.got.tgz:4564.got - 2010.04.16 15:33:40.
