data_PCOD8228968
_publ_section_title
;
Structure prediction by ZEFSAII (Michael W. Deem and Ramdas Pophale) SiO2 
 PCOD8228968
Probable space group: P C C N
;
_chemical_formula_sum "Si O2"
_cell_formula_units_Z 40
_cell_length_a 14.218420
_cell_length_b 16.096461
_cell_length_c 7.803607
_cell_angle_alpha 90.000000
_cell_angle_beta 90.000000
_cell_angle_gamma 90.000000
_cell_volume 1785.982216
_symmetry_space_group_name_H-M "P C C N"
_symmetry_group_IT_number 56
_symmetry_cell_setting 'orthorhombic'
loop_
_space_group_symop_operation_xyz
x,y,z
1/2-x,1/2-y,z
1/2+x,-y,1/2-z
-x,1/2+y,1/2-z
-x,-y,-z
1/2+x,1/2+y,-z
1/2-x,y,1/2+z
x,1/2-y,1/2+z
loop_
_atom_site_type_symbol
_atom_site_label
_atom_site_fract_x
_atom_site_fract_y
_atom_site_fract_z
Si Si1 0.750000 0.250000 0.379186
Si Si2 0.351812 0.969906 0.899127
Si Si3 0.336395 0.914191 0.515157
Si Si4 0.078758 0.646965 0.199919
Si Si5 0.624671 0.841202 0.123709
Si Si6 0.250000 0.250000 0.631250
O O1 0.717853 0.173397 0.494184
O O2 0.658416 0.281819 0.273639
O O3 0.370744 0.936793 0.705488
O O4 0.240703 0.978435 0.940573
O O5 0.392014 0.062171 0.915235
O O6 0.403764 0.910426 0.033620
O O7 0.420764 0.908843 0.375424
O O8 0.978026 0.692145 0.180952
O O9 0.705493 0.826665 0.264632
O O10 0.660442 0.788391 0.963690
#
# Coordination Sequence:
#
# PCOD8228968 Si02
#       6
#     4   8   8   8   8   4
#     4  10  22  38  62 100 144 160 216 272 328 422
#     4  11  22  42  65 100 139 175 224 273 335 406
#     4  11  22  37  66  99 136 185 212 271 343 395
#     4  11  25  41  68 104 135 181 218 280 350 397
#     4  11  25  48  68  96 130 178 235 286 337 406
#     4  10  26  48  70  90 126 184 234 288 342 388
#
# _framework density 22.396639
#
# number of rings (size 3 to 8) (size 9 to 14) (size 15 to 20)
#    0.000    1.200    4.000    2.400    5.600    0.800 
#    3.600    0.000    0.000    0.000    0.000    0.000 
#    0.000    0.000    0.000    0.000    0.000    0.000 
#
# Total GULP energy -495653.877185 kJ/mol
# GULP energy per Si atom -12391.346930 kJ/mol
# Density = 2.234566 g / cm^3
# Si number density = 22.396639 Si / 1000 Ang^3
#
#
#
# Elastic Constant Matrix: (Units=GPa)
#
#
# Indices 1 2 3 4 5 6 
#
# 1 105.0456 23.2539 23.7830 0.0000 0.0000 0.0000
# 2 23.2539 85.0499 15.6094 0.0000 0.0000 0.0000
# 3 23.7830 15.6094 132.7015 0.0000 0.0000 0.0000
# 4 0.0000 0.0000 0.0000 10.8931 0.0000 0.0000
# 5 0.0000 0.0000 0.0000 0.0000 -72.5338 0.0000
# 6 0.0000 0.0000 0.0000 0.0000 0.0000 29.4124
#
#
#
# Elastic Compliance Matrix: (Units=1/GPa)
#
#
# Indices 1 2 3 4 5 6 
#
# 1 0.010443 -0.002567 -0.001570 0.000000 0.000000 0.000000
# 2 -0.002567 0.012648 -0.001028 0.000000 0.000000 0.000000
# 3 -0.001570 -0.001028 0.007938 0.000000 0.000000 0.000000
# 4 0.000000 0.000000 0.000000 0.091801 0.000000 0.000000
# 5 0.000000 0.000000 0.000000 0.000000 -0.013787 0.000000
# 6 0.000000 0.000000 0.000000 0.000000 0.000000 0.033999
#
#
# Mechanical properties :
#
#
# Convention : Reuss Voigt Hill
#
# Bulk Modulus (GPa) = 48.30844 49.78774 49.04809
# Shear Modulus (GPa) = 31.19681 10.89774 21.04728
#
# Velocity S-wave (km/s) = 3.73624 2.20825 3.06886
# Velocity P-wave (km/s) = 6.34263 5.36471 5.87405
#
# Compressibility (1/GPa) = 0.02070032
#
# Stress axis : x y z
#
# Youngs Moduli (GPa) = 95.75444 79.06170 125.97762
#
# Poissons Ratio (x) = 0.20297 0.19775
# Poissons Ratio (y) = 0.24583 0.12946
# Poissons Ratio (z) = 0.15031 0.08125
#
# Static dielectric constant tensor:
#      x y z
#    x 4.130610 0.000000 0.000000 
#    y 0.000000 3.895460 0.000000 
#    z 0.000000 0.000000 4.029050 
# 
# 
# High freq. dielectric constant tensor:
#      x y z
#    x 1.875160 0.000000 0.000000 
#    y 0.000000 1.866740 0.000000 
#    z 0.000000 0.000000 1.893100 
# 
# From -- ./inp_files/2603.got.cif
#   From: 2010.03.12/outbox.cif.g09.slc.cpg/sg56_2_cif.got.tgz:2603.got - 2010.04.16 15:33:40.
