data_PCOD8228412
_publ_section_title
;
Structure prediction by ZEFSAII (Michael W. Deem and Ramdas Pophale) SiO2 
 PCOD8228412
Probable space group: P C C N
;
_chemical_formula_sum "Si O2"
_cell_formula_units_Z 60
_cell_length_a 25.498421
_cell_length_b 11.919072
_cell_length_c 8.428606
_cell_angle_alpha 90.000000
_cell_angle_beta 90.000000
_cell_angle_gamma 90.000000
_cell_volume 2561.600997
_symmetry_space_group_name_H-M "P C C N"
_symmetry_group_IT_number 56
_symmetry_cell_setting 'orthorhombic'
loop_
_space_group_symop_operation_xyz
x,y,z
1/2-x,1/2-y,z
1/2+x,-y,1/2-z
-x,1/2+y,1/2-z
-x,-y,-z
1/2+x,1/2+y,-z
1/2-x,y,1/2+z
x,1/2-y,1/2+z
loop_
_atom_site_type_symbol
_atom_site_label
_atom_site_fract_x
_atom_site_fract_y
_atom_site_fract_z
Si Si1 0.961859 0.245372 0.546897
Si Si2 0.085496 0.603727 0.231053
Si Si3 0.134333 0.281207 0.364010
Si Si4 0.250000 0.750000 0.878184
Si Si5 0.294650 0.345720 0.590336
Si Si6 0.299064 0.905111 0.122745
Si Si7 0.066421 0.353855 0.628971
Si Si8 0.992974 0.468549 0.183083
O O1 0.947931 0.182819 0.386546
O O2 0.913455 0.325419 0.604559
O O3 0.974356 0.158995 0.691750
O O4 0.015256 0.315880 0.530127
O O5 0.140169 0.570376 0.156131
O O6 0.050457 0.491714 0.261281
O O7 0.163208 0.176701 0.451755
O O8 0.177958 0.344984 0.262155
O O9 0.112582 0.368145 0.497590
O O10 0.086669 0.236130 0.257720
O O11 0.225215 0.850996 0.779394
O O12 0.293684 0.812644 0.984406
O O13 0.250000 0.250000 0.583038
O O14 0.272841 0.474423 0.575558
O O15 0.053392 0.466096 0.725214
O O16 0.000000 0.500000 0.000000
#
# Coordination Sequence:
#
# PCOD8228412 Si02
#       8
#     8   8   8   4   8   8   8   8
#     4  10  20  37  59  87 133 167 217 262 316 391
#     4  10  21  38  61  91 119 174 213 268 322 401
#     4  10  23  40  65  96 132 173 223 276 355 415
#     4  10  26  50  70  98 130 182 220 310 348 410
#     4  11  26  44  70 102 134 174 227 299 365 424
#     4  11  25  47  73  98 135 172 241 279 358 425
#     4  10  20  39  58  96 130 176 220 273 330 409
#     4   9  19  33  58  87 129 170 206 254 324 380
#
# _framework density 23.42285
#
# number of rings (size 3 to 8) (size 9 to 14) (size 15 to 20)
#    0.000    1.867    0.000    3.600   11.200    0.000 
#    4.800    2.000    0.000    0.000    0.000    0.000 
#    0.000    0.000    0.000    0.000    0.000    0.000 
#
# Total GULP energy -743520.666676 kJ/mol
# GULP energy per Si atom -12392.011111 kJ/mol
# Density = 2.336954 g / cm^3
# Si number density = 23.422850 Si / 1000 Ang^3
#
#
#
# Elastic Constant Matrix: (Units=GPa)
#
#
# Indices 1 2 3 4 5 6 
#
# 1 83.8668 17.0009 9.8781 0.0000 0.0000 0.0000
# 2 17.0009 86.7439 -4.8869 0.0000 0.0000 0.0000
# 3 9.8781 -4.8869 63.4718 0.0000 0.0000 0.0000
# 4 0.0000 0.0000 0.0000 28.3518 0.0000 0.0000
# 5 0.0000 0.0000 0.0000 0.0000 29.2528 0.0000
# 6 0.0000 0.0000 0.0000 0.0000 0.0000 23.9426
#
#
#
# Elastic Compliance Matrix: (Units=1/GPa)
#
#
# Indices 1 2 3 4 5 6 
#
# 1 0.012710 -0.002614 -0.002179 0.000000 0.000000 0.000000
# 2 -0.002614 0.012116 0.001340 0.000000 0.000000 0.000000
# 3 -0.002179 0.001340 0.016197 0.000000 0.000000 0.000000
# 4 0.000000 0.000000 0.000000 0.035271 0.000000 0.000000
# 5 0.000000 0.000000 0.000000 0.000000 0.034185 0.000000
# 6 0.000000 0.000000 0.000000 0.000000 0.000000 0.041767
#
#
# Mechanical properties :
#
#
# Convention : Reuss Voigt Hill
#
# Bulk Modulus (GPa) = 29.31140 30.89630 30.10385
# Shear Modulus (GPa) = 29.32118 30.44880 29.88499
#
# Velocity S-wave (km/s) = 3.54194 3.60941 3.57584
# Velocity P-wave (km/s) = 5.41002 5.53080 5.47074
#
# Compressibility (1/GPa) = 0.03411642
#
# Stress axis : x y z
#
# Youngs Moduli (GPa) = 78.67687 82.53590 61.73853
#
# Poissons Ratio (x) = 0.21574 0.13455
# Poissons Ratio (y) = 0.20565 -0.08271
# Poissons Ratio (z) = 0.17146 -0.11057
#
# Static dielectric constant tensor:
#      x y z
#    x 4.076780 0.000000 0.000000 
#    y 0.000000 4.457130 0.000000 
#    z 0.000000 0.000000 4.323550 
# 
# 
# High freq. dielectric constant tensor:
#      x y z
#    x 1.907410 0.000000 0.000000 
#    y 0.000000 1.926500 0.000000 
#    z 0.000000 0.000000 1.939020 
# 
# From -- ./inp_files/4986.got.cif
#   From: 2010.03.12/outbox.cif.g09.slc.cpg/sg56_3_cif.got.tgz:4986.got - 2010.04.16 15:33:40.
