data_PCOD8228289
_publ_section_title
;
Structure prediction by ZEFSAII (Michael W. Deem and Ramdas Pophale) SiO2 
 PCOD8228289
Probable space group: P C C N
;
_chemical_formula_sum "Si O2"
_cell_formula_units_Z 64
_cell_length_a 22.390969
_cell_length_b 7.511095
_cell_length_c 20.491057
_cell_angle_alpha 90.000000
_cell_angle_beta 90.000000
_cell_angle_gamma 90.000000
_cell_volume 3446.200214
_symmetry_space_group_name_H-M "P C C N"
_symmetry_group_IT_number 56
_symmetry_cell_setting 'orthorhombic'
loop_
_space_group_symop_operation_xyz
x,y,z
1/2-x,1/2-y,z
1/2+x,-y,1/2-z
-x,1/2+y,1/2-z
-x,-y,-z
1/2+x,1/2+y,-z
1/2-x,y,1/2+z
x,1/2-y,1/2+z
loop_
_atom_site_type_symbol
_atom_site_label
_atom_site_fract_x
_atom_site_fract_y
_atom_site_fract_z
Si Si1 0.508465 0.100047 0.332222
Si Si2 0.437898 0.546159 0.033281
Si Si3 0.477521 0.456317 0.393711
Si Si4 0.564268 0.251818 0.204469
Si Si5 0.083584 0.947602 0.523363
Si Si6 0.326731 0.074069 0.459078
Si Si7 0.803920 0.531852 0.031933
Si Si8 0.682469 0.265514 0.137994
O O1 0.553039 0.028933 0.388759
O O2 0.468540 0.264681 0.359027
O O3 0.549888 0.174746 0.274985
O O4 0.464857 0.946158 0.305930
O O5 0.421016 0.740011 0.008136
O O6 0.500000 0.500000 0.000000
O O7 0.382271 0.425600 0.009589
O O8 0.459762 0.620867 0.350385
O O9 0.441981 0.442754 0.461521
O O10 0.547591 0.491488 0.410705
O O11 0.636211 0.253034 0.197949
O O12 0.153197 0.002205 0.531100
O O13 0.315398 0.275310 0.436211
O O14 0.264305 0.004280 0.491916
O O15 0.335309 0.953110 0.395385
O O16 0.825817 0.392066 0.086105
O O17 0.750000 0.250000 0.165658
#
# Coordination Sequence:
#
# PCOD8228289 Si02
#       8
#     8   8   8   8   8   8   8   8
#     4  11  25  37  58  85 114 152 193 233 294 348
#     4  11  22  36  58  90 114 147 189 243 299 353
#     4  10  21  36  54  86 116 145 185 234 287 339
#     4  12  22  40  57  82 113 158 189 242 288 341
#     4  10  20  33  57  88 116 146 185 236 287 341
#     4  10  21  35  55  86 119 146 189 236 293 343
#     4  10  20  34  55  88 116 154 182 234 292 345
#     4  10  21  37  59  82 114 149 197 237 279 341
#
# _framework density 18.571176999999999
#
# number of rings (size 3 to 8) (size 9 to 14) (size 15 to 20)
#    0.000    1.500    3.750    1.500    8.750    0.000 
#    0.000    0.000    5.500    0.000    0.000    0.000 
#    0.000    0.000    0.000    0.000    0.000    0.000 
#
# Total GULP energy -793203.665884 kJ/mol
# GULP energy per Si atom -12393.807279 kJ/mol
# Density = 1.852891 g / cm^3
# Si number density = 18.571177 Si / 1000 Ang^3
#
#
#
# Elastic Constant Matrix: (Units=GPa)
#
#
# Indices 1 2 3 4 5 6 
#
# 1 142.7350 36.8997 51.0651 0.0000 0.0000 0.0000
# 2 36.8997 89.6180 26.6931 0.0000 0.0000 0.0000
# 3 51.0651 26.6931 83.0983 0.0000 0.0000 0.0000
# 4 0.0000 0.0000 0.0000 23.6953 0.0000 0.0000
# 5 0.0000 0.0000 0.0000 0.0000 20.4455 0.0000
# 6 0.0000 0.0000 0.0000 0.0000 0.0000 25.7553
#
#
#
# Elastic Compliance Matrix: (Units=1/GPa)
#
#
# Indices 1 2 3 4 5 6 
#
# 1 0.009419 -0.002382 -0.005023 0.000000 0.000000 0.000000
# 2 -0.002382 0.012941 -0.002693 0.000000 0.000000 0.000000
# 3 -0.005023 -0.002693 0.015986 0.000000 0.000000 0.000000
# 4 0.000000 0.000000 0.000000 0.042202 0.000000 0.000000
# 5 0.000000 0.000000 0.000000 0.000000 0.048910 0.000000
# 6 0.000000 0.000000 0.000000 0.000000 0.000000 0.038827
#
#
# Mechanical properties :
#
#
# Convention : Reuss Voigt Hill
#
# Bulk Modulus (GPa) = 55.09758 60.52968 57.81363
# Shear Modulus (GPa) = 25.70272 27.36546 26.53409
#
# Velocity S-wave (km/s) = 3.72427 3.84284 3.78402
# Velocity P-wave (km/s) = 6.94451 7.23561 7.09155
#
# Compressibility (1/GPa) = 0.01814962
#
# Stress axis : x y z
#
# Youngs Moduli (GPa) = 106.17106 77.27093 62.55603
#
# Poissons Ratio (x) = 0.18406 0.31421
# Poissons Ratio (y) = 0.25291 0.16848
# Poissons Ratio (z) = 0.53328 0.20811
#
# Static dielectric constant tensor:
#      x y z
#    x 3.830150 0.000000 0.000000 
#    y 0.000000 3.660820 0.000000 
#    z 0.000000 0.000000 3.208200 
# 
# 
# High freq. dielectric constant tensor:
#      x y z
#    x 1.730630 0.000000 0.000000 
#    y 0.000000 1.744100 0.000000 
#    z 0.000000 0.000000 1.673600 
# 
# From -- ./inp_files/19632.got.cif
#   From: 2010.03.12/outbox.cif.g09.slc.cpg/sg56_10_cif.got.tgz:19632.got - 2010.04.16 15:33:40.
