data_PCOD8228933
_publ_section_title
;
Structure prediction by ZEFSAII (Michael W. Deem and Ramdas Pophale) SiO2 
 PCOD8228933
Probable space group: P C C N
;
_chemical_formula_sum "Si O2"
_cell_formula_units_Z 44
_cell_length_a 14.231881
_cell_length_b 9.205710
_cell_length_c 16.663985
_cell_angle_alpha 90.000000
_cell_angle_beta 90.000000
_cell_angle_gamma 90.000000
_cell_volume 2183.224817
_symmetry_space_group_name_H-M "P C C N"
_symmetry_group_IT_number 56
_symmetry_cell_setting 'orthorhombic'
loop_
_space_group_symop_operation_xyz
x,y,z
1/2-x,1/2-y,z
1/2+x,-y,1/2-z
-x,1/2+y,1/2-z
-x,-y,-z
1/2+x,1/2+y,-z
1/2-x,y,1/2+z
x,1/2-y,1/2+z
loop_
_atom_site_type_symbol
_atom_site_label
_atom_site_fract_x
_atom_site_fract_y
_atom_site_fract_z
Si Si1 0.066720 0.238353 0.296882
Si Si2 0.250000 0.250000 0.692243
Si Si3 0.347498 0.831202 0.971069
Si Si4 0.361359 0.111805 0.066186
Si Si5 0.475267 0.336352 0.972223
Si Si6 0.962126 0.411066 0.170517
O O1 0.163250 0.255685 0.250734
O O2 0.063763 0.324110 0.381279
O O3 0.982958 0.302418 0.243239
O O4 0.063268 0.066887 0.297302
O O5 0.226844 0.121434 0.627868
O O6 0.250000 0.750000 0.981872
O O7 0.376716 0.835598 0.877716
O O8 0.428143 0.754149 0.023460
O O9 0.333896 0.997694 0.997990
O O10 0.452120 0.054423 0.111996
O O11 0.392567 0.267791 0.027679
O O12 0.500000 0.500000 0.000000
#
# Coordination Sequence:
#
# PCOD8228933 Si02
#       6
#     8   4   8   8   8   8
#     4  11  23  43  65  94 135 172 220 266 345 393
#     4  10  26  38  66  98 128 170 212 280 328 390
#     4  11  23  42  67  97 129 173 226 274 332 391
#     4  10  21  46  64  89 135 171 217 277 334 389
#     4  11  24  41  71  95 124 181 228 267 331 410
#     4  10  22  43  63  91 135 173 207 281 336 395
#
# _framework density 20.153673999999999
#
# number of rings (size 3 to 8) (size 9 to 14) (size 15 to 20)
#    0.000    1.455    3.636    1.091   10.182    2.182 
#    3.273    0.909    0.000    0.000    0.000    0.000 
#    0.000    0.000    0.000    0.000    0.000    0.000 
#
# Total GULP energy -545085.539640 kJ/mol
# GULP energy per Si atom -12388.307719 kJ/mol
# Density = 2.010780 g / cm^3
# Si number density = 20.153674 Si / 1000 Ang^3
#
#
#
# Elastic Constant Matrix: (Units=GPa)
#
#
# Indices 1 2 3 4 5 6 
#
# 1 77.0315 30.6405 53.4153 0.0000 0.0000 0.0000
# 2 30.6405 93.4384 29.6734 0.0000 0.0000 0.0000
# 3 53.4153 29.6734 124.9290 0.0000 0.0000 0.0000
# 4 0.0000 0.0000 0.0000 -42.5464 0.0000 0.0000
# 5 0.0000 0.0000 0.0000 0.0000 6.3606 0.0000
# 6 0.0000 0.0000 0.0000 0.0000 0.0000 14.1454
#
#
#
# Elastic Compliance Matrix: (Units=1/GPa)
#
#
# Indices 1 2 3 4 5 6 
#
# 1 0.019817 -0.004118 -0.007495 0.000000 0.000000 0.000000
# 2 -0.004118 0.012431 -0.001192 0.000000 0.000000 0.000000
# 3 -0.007495 -0.001192 0.011492 0.000000 0.000000 0.000000
# 4 0.000000 0.000000 0.000000 -0.023504 0.000000 0.000000
# 5 0.000000 0.000000 0.000000 0.000000 0.157218 0.000000
# 6 0.000000 0.000000 0.000000 0.000000 0.000000 0.070694
#
#
# Mechanical properties :
#
#
# Convention : Reuss Voigt Hill
#
# Bulk Modulus (GPa) = 55.15607 58.09523 56.62565
# Shear Modulus (GPa) = 17.86981 7.70325 12.78653
#
# Velocity S-wave (km/s) = 2.98094 1.95718 2.52156
# Velocity P-wave (km/s) = 6.26699 5.83062 6.05274
#
# Compressibility (1/GPa) = 0.01813037
#
# Stress axis : x y z
#
# Youngs Moduli (GPa) = 50.46207 80.44278 87.01577
#
# Poissons Ratio (x) = 0.33128 0.65217
# Poissons Ratio (y) = 0.20781 0.10371
# Poissons Ratio (z) = 0.37820 0.09588
#
# Static dielectric constant tensor:
#      x y z
#    x 3.725910 0.000000 0.000000 
#    y 0.000000 3.874230 0.000000 
#    z 0.000000 0.000000 5.192410 
# 
# 
# High freq. dielectric constant tensor:
#      x y z
#    x 1.782040 0.000000 0.000000 
#    y 0.000000 1.784310 0.000000 
#    z 0.000000 0.000000 1.801860 
# 
# From -- ./inp_files/16114.got.cif
#   From: 2010.03.12/outbox.cif.g09.slc.cpg/sg56_9_cif.got.tgz:16114.got - 2010.04.16 15:33:40.
