data_PCOD8228110
_publ_section_title
;
Structure prediction by ZEFSAII (Michael W. Deem and Ramdas Pophale) SiO2 
 PCOD8228110
Probable space group: P C C N
;
_chemical_formula_sum "Si O2"
_cell_formula_units_Z 44
_cell_length_a 9.565600
_cell_length_b 26.128870
_cell_length_c 9.189983
_cell_angle_alpha 90.000000
_cell_angle_beta 90.000000
_cell_angle_gamma 90.000000
_cell_volume 2296.928901
_symmetry_space_group_name_H-M "P C C N"
_symmetry_group_IT_number 56
_symmetry_cell_setting 'orthorhombic'
loop_
_space_group_symop_operation_xyz
x,y,z
1/2-x,1/2-y,z
1/2+x,-y,1/2-z
-x,1/2+y,1/2-z
-x,-y,-z
1/2+x,1/2+y,-z
1/2-x,y,1/2+z
x,1/2-y,1/2+z
loop_
_atom_site_type_symbol
_atom_site_label
_atom_site_fract_x
_atom_site_fract_y
_atom_site_fract_z
Si Si1 0.357866 0.909271 0.687816
Si Si2 0.844894 0.581075 0.603327
Si Si3 0.579074 0.897304 0.291670
Si Si4 0.750000 0.250000 0.012651
Si Si5 0.838396 0.462678 0.614021
Si Si6 0.350388 0.681836 0.734688
O O1 0.525368 0.903369 0.708239
O O2 0.301817 0.954605 0.791768
O O3 0.327793 0.924598 0.521986
O O4 0.282438 0.856126 0.725170
O O5 0.854473 0.611196 0.451154
O O6 0.699837 0.593705 0.676413
O O7 0.855411 0.520873 0.565795
O O8 0.473046 0.945593 0.290912
O O9 0.497137 0.847159 0.239453
O O10 0.658708 0.286735 0.115189
O O11 0.853124 0.281986 0.907117
#
# Coordination Sequence:
#
# PCOD8228110 Si02
#       6
#     8   8   8   4   8   8
#     4  10  20  34  55  79 114 143 187 230 269 315
#     4  11  20  34  53  80 117 158 182 218 261 317
#     4  10  22  35  53  79 116 144 185 222 267 319
#     4  10  20  38  68  82 102 128 182 230 288 344
#     4  10  19  34  52  80 114 156 193 221 251 308
#     4  10  21  39  60  87 102 136 177 234 281 331
#
# _framework density 19.156012
#
# number of rings (size 3 to 8) (size 9 to 14) (size 15 to 20)
#    0.000    1.818    0.000    7.636    0.000    4.364 
#    0.000    6.364    0.000   18.545    0.000    0.000 
#    0.000    0.000    0.000    0.000    0.000    0.000 
#
# Total GULP energy -545626.390525 kJ/mol
# GULP energy per Si atom -12400.599785 kJ/mol
# Density = 1.911241 g / cm^3
# Si number density = 19.156012 Si / 1000 Ang^3
#
#
#
# Elastic Constant Matrix: (Units=GPa)
#
#
# Indices 1 2 3 4 5 6 
#
# 1 102.0182 58.4858 57.7318 0.0000 0.0000 0.0000
# 2 58.4858 101.4357 47.5562 0.0000 0.0000 0.0000
# 3 57.7318 47.5562 99.6787 0.0000 0.0000 0.0000
# 4 0.0000 0.0000 0.0000 30.2874 0.0000 0.0000
# 5 0.0000 0.0000 0.0000 0.0000 29.0591 0.0000
# 6 0.0000 0.0000 0.0000 0.0000 0.0000 23.8700
#
#
#
# Elastic Compliance Matrix: (Units=1/GPa)
#
#
# Indices 1 2 3 4 5 6 
#
# 1 0.017723 -0.006964 -0.006942 0.000000 0.000000 0.000000
# 2 -0.006964 0.015435 -0.003331 0.000000 0.000000 0.000000
# 3 -0.006942 -0.003331 0.015642 0.000000 0.000000 0.000000
# 4 0.000000 0.000000 0.000000 0.033017 0.000000 0.000000
# 5 0.000000 0.000000 0.000000 0.000000 0.034413 0.000000
# 6 0.000000 0.000000 0.000000 0.000000 0.000000 0.041894
#
#
# Mechanical properties :
#
#
# Convention : Reuss Voigt Hill
#
# Bulk Modulus (GPa) = 69.80093 70.07558 69.93826
# Shear Modulus (GPa) = 25.33262 25.93388 25.63325
#
# Velocity S-wave (km/s) = 3.64048 3.68343 3.66202
# Velocity P-wave (km/s) = 7.36125 7.39940 7.38035
#
# Compressibility (1/GPa) = 0.01432646
#
# Stress axis : x y z
#
# Youngs Moduli (GPa) = 56.42292 64.78647 63.92959
#
# Poissons Ratio (x) = 0.45118 0.44383
# Poissons Ratio (y) = 0.39293 0.21293
# Poissons Ratio (z) = 0.39171 0.21578
#
# Static dielectric constant tensor:
#      x y z
#    x 3.534370 0.000000 0.000000 
#    y 0.000000 3.478940 0.000000 
#    z 0.000000 0.000000 3.554840 
# 
# 
# High freq. dielectric constant tensor:
#      x y z
#    x 1.737310 0.000000 0.000000 
#    y 0.000000 1.734340 0.000000 
#    z 0.000000 0.000000 1.753620 
# 
# From -- ./inp_files/2178.got.cif
#   From: 2010.03.12/outbox.cif.g09.slc.cpg/sg56_2_cif.got.tgz:2178.got - 2010.04.16 15:33:40.
