data_PCOD8228388
_publ_section_title
;
Structure prediction by ZEFSAII (Michael W. Deem and Ramdas Pophale) SiO2 
 PCOD8228388
Probable space group: P C C N
;
_chemical_formula_sum "Si O2"
_cell_formula_units_Z 40
_cell_length_a 9.031223
_cell_length_b 10.818857
_cell_length_c 18.112984
_cell_angle_alpha 90.000000
_cell_angle_beta 90.000000
_cell_angle_gamma 90.000000
_cell_volume 1769.774568
_symmetry_space_group_name_H-M "P C C N"
_symmetry_group_IT_number 56
_symmetry_cell_setting 'orthorhombic'
loop_
_space_group_symop_operation_xyz
x,y,z
1/2-x,1/2-y,z
1/2+x,-y,1/2-z
-x,1/2+y,1/2-z
-x,-y,-z
1/2+x,1/2+y,-z
1/2-x,y,1/2+z
x,1/2-y,1/2+z
loop_
_atom_site_type_symbol
_atom_site_label
_atom_site_fract_x
_atom_site_fract_y
_atom_site_fract_z
Si Si1 0.716453 0.011946 0.045059
Si Si2 0.049367 0.662946 0.834453
Si Si3 0.250000 0.750000 0.209893
Si Si4 0.472814 0.109129 0.579525
Si Si5 0.750000 0.750000 0.024680
Si Si6 0.191329 0.978907 0.620887
O O1 0.654000 0.103093 0.104500
O O2 0.892582 0.040748 0.036608
O O3 0.637089 0.027030 0.964891
O O4 0.695645 0.868537 0.072283
O O5 0.133279 0.667187 0.756296
O O6 0.031572 0.806105 0.854254
O O7 0.897683 0.584147 0.832988
O O8 0.337349 0.846782 0.158277
O O9 0.383110 0.200029 0.525727
O O10 0.365423 0.010640 0.619241
#
# Coordination Sequence:
#
# PCOD8228388 Si02
#       6
#     8   8   4   8   4   8
#     4  11  23  41  74 103 135 168 233 288 343 404
#     4  12  24  45  68  98 137 179 221 286 341 402
#     4  12  30  42  68 100 140 184 236 272 342 420
#     4  11  21  43  70  97 135 170 223 281 343 396
#     4  10  20  36  64 106 126 172 212 280 344 388
#     4  11  26  45  70  98 134 182 227 281 343 408
#
# _framework density 22.601749000000002
#
# number of rings (size 3 to 8) (size 9 to 14) (size 15 to 20)
#    0.000    0.800    6.000    3.000    5.600    1.600 
#    0.000    0.000    0.000    0.000    0.000    0.000 
#    0.000    0.000    0.000    0.000    0.000    0.000 
#
# Total GULP energy -495875.396772 kJ/mol
# GULP energy per Si atom -12396.884919 kJ/mol
# Density = 2.255031 g / cm^3
# Si number density = 22.601749 Si / 1000 Ang^3
#
#
#
# Elastic Constant Matrix: (Units=GPa)
#
#
# Indices 1 2 3 4 5 6 
#
# 1 71.5837 26.6040 26.3478 0.0000 0.0000 0.0000
# 2 26.6040 131.8790 55.0590 0.0000 0.0000 0.0000
# 3 26.3478 55.0590 83.9036 0.0000 0.0000 0.0000
# 4 0.0000 0.0000 0.0000 32.1506 0.0000 0.0000
# 5 0.0000 0.0000 0.0000 0.0000 18.6693 0.0000
# 6 0.0000 0.0000 0.0000 0.0000 0.0000 49.2199
#
#
#
# Elastic Compliance Matrix: (Units=1/GPa)
#
#
# Indices 1 2 3 4 5 6 
#
# 1 0.016025 -0.001559 -0.004009 0.000000 0.000000 0.000000
# 2 -0.001559 0.010596 -0.006464 0.000000 0.000000 0.000000
# 3 -0.004009 -0.006464 0.017419 0.000000 0.000000 0.000000
# 4 0.000000 0.000000 0.000000 0.031104 0.000000 0.000000
# 5 0.000000 0.000000 0.000000 0.000000 0.053564 0.000000
# 6 0.000000 0.000000 0.000000 0.000000 0.000000 0.020317
#
#
# Mechanical properties :
#
#
# Convention : Reuss Voigt Hill
#
# Bulk Modulus (GPa) = 50.05989 55.93199 52.99594
# Shear Modulus (GPa) = 27.81709 31.96500 29.89105
#
# Velocity S-wave (km/s) = 3.51201 3.76476 3.64058
# Velocity P-wave (km/s) = 6.21630 6.61047 6.41641
#
# Compressibility (1/GPa) = 0.01997607
#
# Stress axis : x y z
#
# Youngs Moduli (GPa) = 62.40379 94.37812 57.40884
#
# Poissons Ratio (x) = 0.14712 0.23016
# Poissons Ratio (y) = 0.09728 0.37106
# Poissons Ratio (z) = 0.25019 0.61002
#
# Static dielectric constant tensor:
#      x y z
#    x 4.250290 0.000000 0.000000 
#    y 0.000000 4.464510 0.000000 
#    z 0.000000 0.000000 3.709710 
# 
# 
# High freq. dielectric constant tensor:
#      x y z
#    x 1.902120 0.000000 0.000000 
#    y 0.000000 1.908520 0.000000 
#    z 0.000000 0.000000 1.858210 
# 
# From -- ./inp_files/18023.got.cif
#   From: 2010.03.12/outbox.cif.g09.slc.cpg/sg56_10_cif.got.tgz:18023.got - 2010.04.16 15:33:40.
