data_PCOD8228991
_publ_section_title
;
Structure prediction by ZEFSAII (Michael W. Deem and Ramdas Pophale) SiO2 
 PCOD8228991
Probable space group: P C C N
;
_chemical_formula_sum "Si O2"
_cell_formula_units_Z 44
_cell_length_a 30.699082
_cell_length_b 7.550823
_cell_length_c 8.946392
_cell_angle_alpha 90.000000
_cell_angle_beta 90.000000
_cell_angle_gamma 90.000000
_cell_volume 2073.803497
_symmetry_space_group_name_H-M "P C C N"
_symmetry_group_IT_number 56
_symmetry_cell_setting 'orthorhombic'
loop_
_space_group_symop_operation_xyz
x,y,z
1/2-x,1/2-y,z
1/2+x,-y,1/2-z
-x,1/2+y,1/2-z
-x,-y,-z
1/2+x,1/2+y,-z
1/2-x,y,1/2+z
x,1/2-y,1/2+z
loop_
_atom_site_type_symbol
_atom_site_label
_atom_site_fract_x
_atom_site_fract_y
_atom_site_fract_z
Si Si1 0.189906 0.657602 0.785874
Si Si2 0.368563 0.372861 0.162945
Si Si3 0.250000 0.750000 0.534811
Si Si4 0.043594 0.007560 0.801760
Si Si5 0.536617 0.702514 0.904521
Si Si6 0.640379 0.983710 0.667831
O O1 0.150676 0.517149 0.779097
O O2 0.219312 0.628806 0.638593
O O3 0.173469 0.860720 0.790494
O O4 0.219774 0.623268 0.931443
O O5 0.420982 0.394594 0.166310
O O6 0.354591 0.176178 0.214063
O O7 0.350211 0.407738 0.997137
O O8 0.039555 0.088867 0.634728
O O9 0.091923 0.930388 0.824807
O O10 0.035694 0.171071 0.918290
O O11 0.007955 0.859498 0.827467
#
# Coordination Sequence:
#
# PCOD8228991 Si02
#       6
#     8   8   4   8   8   8
#     4  11  22  44  64  88 122 158 196 254 310 361
#     4  10  22  39  62  90 122 164 203 244 300 362
#     4  10  24  42  66  90 120 148 204 258 302 374
#     4   9  19  35  53  82 120 154 200 241 281 344
#     4   9  19  35  53  82 120 154 200 241 281 344
#     4  10  22  39  62  90 122 164 203 244 300 362
#
# _framework density 21.217053
#
# number of rings (size 3 to 8) (size 9 to 14) (size 15 to 20)
#    0.000    2.182    1.818    0.000    5.091    0.727 
#    0.000    5.455    0.000    0.000    0.000    0.000 
#    0.000    0.000    0.000    0.000    0.000    0.000 
#
# Total GULP energy -545375.501018 kJ/mol
# GULP energy per Si atom -12394.897750 kJ/mol
# Density = 2.116876 g / cm^3
# Si number density = 21.217053 Si / 1000 Ang^3
#
#
#
# Elastic Constant Matrix: (Units=GPa)
#
#
# Indices 1 2 3 4 5 6 
#
# 1 97.9884 38.7953 35.3862 0.0000 0.0000 0.0000
# 2 38.7953 76.7823 20.6358 0.0000 0.0000 0.0000
# 3 35.3862 20.6358 77.1055 0.0000 0.0000 0.0000
# 4 0.0000 0.0000 0.0000 26.2011 0.0000 0.0000
# 5 0.0000 0.0000 0.0000 0.0000 29.5605 0.0000
# 6 0.0000 0.0000 0.0000 0.0000 0.0000 23.4147
#
#
#
# Elastic Compliance Matrix: (Units=1/GPa)
#
#
# Indices 1 2 3 4 5 6 
#
# 1 0.014351 -0.005906 -0.005006 0.000000 0.000000 0.000000
# 2 -0.005906 0.016464 -0.001696 0.000000 0.000000 0.000000
# 3 -0.005006 -0.001696 0.015720 0.000000 0.000000 0.000000
# 4 0.000000 0.000000 0.000000 0.038166 0.000000 0.000000
# 5 0.000000 0.000000 0.000000 0.000000 0.033829 0.000000
# 6 0.000000 0.000000 0.000000 0.000000 0.000000 0.042708
#
#
# Mechanical properties :
#
#
# Convention : Reuss Voigt Hill
#
# Bulk Modulus (GPa) = 46.90299 49.05675 47.97987
# Shear Modulus (GPa) = 25.83179 26.30585 26.06882
#
# Velocity S-wave (km/s) = 3.49306 3.52496 3.50905
# Velocity P-wave (km/s) = 6.19862 6.30387 6.25146
#
# Compressibility (1/GPa) = 0.02132060
#
# Stress axis : x y z
#
# Youngs Moduli (GPa) = 69.68064 60.74008 63.61192
#
# Poissons Ratio (x) = 0.35872 0.31842
# Poissons Ratio (y) = 0.41152 0.10787
# Poissons Ratio (z) = 0.34880 0.10300
#
# Static dielectric constant tensor:
#      x y z
#    x 4.006790 0.000000 0.000000 
#    y 0.000000 3.304450 0.000000 
#    z 0.000000 0.000000 3.972140 
# 
# 
# High freq. dielectric constant tensor:
#      x y z
#    x 1.845060 0.000000 0.000000 
#    y 0.000000 1.789650 0.000000 
#    z 0.000000 0.000000 1.839340 
# 
# From -- ./inp_files/2177.got.cif
#   From: 2010.03.12/outbox.cif.g09.slc.cpg/sg56_2_cif.got.tgz:2177.got - 2010.04.16 15:33:40.
