data_PCOD8228746
_publ_section_title
;
Structure prediction by ZEFSAII (Michael W. Deem and Ramdas Pophale) SiO2 
 PCOD8228746
Probable space group: P C C N
;
_chemical_formula_sum "Si O2"
_cell_formula_units_Z 60
_cell_length_a 11.432907
_cell_length_b 27.572030
_cell_length_c 8.585202
_cell_angle_alpha 90.000000
_cell_angle_beta 90.000000
_cell_angle_gamma 90.000000
_cell_volume 2706.299961
_symmetry_space_group_name_H-M "P C C N"
_symmetry_group_IT_number 56
_symmetry_cell_setting 'orthorhombic'
loop_
_space_group_symop_operation_xyz
x,y,z
1/2-x,1/2-y,z
1/2+x,-y,1/2-z
-x,1/2+y,1/2-z
-x,-y,-z
1/2+x,1/2+y,-z
1/2-x,y,1/2+z
x,1/2-y,1/2+z
loop_
_atom_site_type_symbol
_atom_site_label
_atom_site_fract_x
_atom_site_fract_y
_atom_site_fract_z
Si Si1 0.868777 0.941756 0.039644
Si Si2 0.087205 0.145913 0.463673
Si Si3 0.238182 0.385274 0.717575
Si Si4 0.750000 0.250000 0.808019
Si Si5 0.917988 0.068459 0.301202
Si Si6 0.924077 0.481245 0.309103
Si Si7 0.869512 0.190541 0.561532
Si Si8 0.278051 0.915687 0.910847
O O1 0.768777 0.931179 0.168684
O O2 0.862800 0.901404 0.902549
O O3 0.852220 0.993548 0.952243
O O4 0.995975 0.938639 0.117379
O O5 0.146247 0.131017 0.627309
O O6 0.185920 0.157113 0.331144
O O7 0.008380 0.103750 0.387871
O O8 0.005457 0.191338 0.506924
O O9 0.854091 0.229365 0.699648
O O10 0.705559 0.205434 0.911176
O O11 0.800618 0.067461 0.411003
O O12 0.860290 0.085904 0.136139
O O13 0.984169 0.017966 0.275225
O O14 0.839955 0.458320 0.184873
O O15 0.832209 0.137481 0.620109
#
# Coordination Sequence:
#
# PCOD8228746 Si02
#       8
#     8   8   8   4   8   8   8   8
#     4  10  22  36  53  77 118 172 231 254 315 353
#     4  10  21  41  64  94 127 164 222 258 316 385
#     4  10  21  39  61  83 121 173 213 270 306 377
#     4  10  22  44  76  98 130 160 194 260 350 414
#     4  11  24  39  57  87 128 177 219 272 318 373
#     4  11  24  37  54  84 126 181 229 272 313 369
#     4  10  21  44  68 102 125 161 205 264 333 403
#     4  11  25  39  61  90 132 164 222 276 318 384
#
# _framework density 22.170493
#
# number of rings (size 3 to 8) (size 9 to 14) (size 15 to 20)
#    0.000    1.600    1.333    3.600    5.600    0.000 
#    2.400    5.333    0.000    2.400    0.000    0.000 
#    0.000    0.000    0.000    0.000    0.000    0.000 
#
# Total GULP energy -743318.814976 kJ/mol
# GULP energy per Si atom -12388.646916 kJ/mol
# Density = 2.212003 g / cm^3
# Si number density = 22.170493 Si / 1000 Ang^3
#
#
#
# Elastic Constant Matrix: (Units=GPa)
#
#
# Indices 1 2 3 4 5 6 
#
# 1 98.4712 28.0256 53.5843 0.0000 0.0000 0.0000
# 2 28.0256 47.4457 22.7990 0.0000 0.0000 0.0000
# 3 53.5843 22.7990 116.0653 0.0000 0.0000 0.0000
# 4 0.0000 0.0000 0.0000 13.9848 0.0000 0.0000
# 5 0.0000 0.0000 0.0000 0.0000 47.3313 0.0000
# 6 0.0000 0.0000 0.0000 0.0000 0.0000 36.0856
#
#
#
# Elastic Compliance Matrix: (Units=1/GPa)
#
#
# Indices 1 2 3 4 5 6 
#
# 1 0.015014 -0.006115 -0.005730 0.000000 0.000000 0.000000
# 2 -0.006115 0.025764 -0.002238 0.000000 0.000000 0.000000
# 3 -0.005730 -0.002238 0.011701 0.000000 0.000000 0.000000
# 4 0.000000 0.000000 0.000000 0.071506 0.000000 0.000000
# 5 0.000000 0.000000 0.000000 0.000000 0.021128 0.000000
# 6 0.000000 0.000000 0.000000 0.000000 0.000000 0.027712
#
#
# Mechanical properties :
#
#
# Convention : Reuss Voigt Hill
#
# Bulk Modulus (GPa) = 41.13066 52.31112 46.72089
# Shear Modulus (GPa) = 23.91260 29.98522 26.94891
#
# Velocity S-wave (km/s) = 3.28773 3.68160 3.49023
# Velocity P-wave (km/s) = 5.74496 6.45898 6.11240
#
# Compressibility (1/GPa) = 0.02431276
#
# Stress axis : x y z
#
# Youngs Moduli (GPa) = 66.60523 38.81378 85.46306
#
# Poissons Ratio (x) = 0.23734 0.48973
# Poissons Ratio (y) = 0.40728 0.19125
# Poissons Ratio (z) = 0.38167 0.08686
#
# Static dielectric constant tensor:
#      x y z
#    x 4.342630 0.000000 0.000000 
#    y 0.000000 3.549410 0.000000 
#    z 0.000000 0.000000 4.592710 
# 
# 
# High freq. dielectric constant tensor:
#      x y z
#    x 1.879590 0.000000 0.000000 
#    y 0.000000 1.812620 0.000000 
#    z 0.000000 0.000000 1.904400 
# 
# From -- ./inp_files/2894.got.cif
#   From: 2010.03.12/outbox.cif.g09.slc.cpg/sg56_2_cif.got.tgz:2894.got - 2010.04.16 15:33:40.
