data_PCOD8228726
_publ_section_title
;
Structure prediction by ZEFSAII (Michael W. Deem and Ramdas Pophale) SiO2 
 PCOD8228726
Probable space group: P C C N
;
_chemical_formula_sum "Si O2"
_cell_formula_units_Z 56
_cell_length_a 14.022839
_cell_length_b 11.416734
_cell_length_c 16.359042
_cell_angle_alpha 90.000000
_cell_angle_beta 90.000000
_cell_angle_gamma 90.000000
_cell_volume 2619.001202
_symmetry_space_group_name_H-M "P C C N"
_symmetry_group_IT_number 56
_symmetry_cell_setting 'orthorhombic'
loop_
_space_group_symop_operation_xyz
x,y,z
1/2-x,1/2-y,z
1/2+x,-y,1/2-z
-x,1/2+y,1/2-z
-x,-y,-z
1/2+x,1/2+y,-z
1/2-x,y,1/2+z
x,1/2-y,1/2+z
loop_
_atom_site_type_symbol
_atom_site_label
_atom_site_fract_x
_atom_site_fract_y
_atom_site_fract_z
Si Si1 0.281337 0.979068 0.444318
Si Si2 0.428729 0.578963 0.819063
Si Si3 0.068126 0.971602 0.074256
Si Si4 0.120422 0.815953 0.388628
Si Si5 0.954897 0.508953 0.859919
Si Si6 0.517207 0.268216 0.451687
Si Si7 0.830788 0.664976 0.973801
O O1 0.363164 0.003060 0.377419
O O2 0.323876 0.973066 0.538271
O O3 0.226834 0.862987 0.409358
O O4 0.207062 0.085060 0.451246
O O5 0.539280 0.562214 0.852341
O O6 0.390563 0.713371 0.820259
O O7 0.420270 0.529002 0.728716
O O8 0.044751 0.839353 0.107570
O O9 0.000000 0.000000 0.000000
O O10 0.085927 0.753016 0.470679
O O11 0.055109 0.923668 0.359039
O O12 0.967472 0.394466 0.914115
O O13 0.873380 0.588818 0.899938
O O14 0.409781 0.252849 0.484377
O O15 0.750000 0.750000 0.937136
#
# Coordination Sequence:
#
# PCOD8228726 Si02
#       7
#     8   8   8   8   8   8   8
#     4  11  21  42  67  96 121 176 236 269 312 397
#     4  11  25  41  63  99 141 173 215 280 348 388
#     4  10  21  38  64  94 126 168 227 264 323 389
#     4  11  21  43  68  91 130 179 223 277 320 399
#     4  11  25  43  62 100 138 176 214 271 358 396
#     4  11  20  43  67  90 128 179 221 266 325 403
#     4  11  22  40  69  98 130 172 228 273 320 401
#
# _framework density 21.382197000000001
#
# number of rings (size 3 to 8) (size 9 to 14) (size 15 to 20)
#    0.000    1.143    5.714    3.000    4.000    0.000 
#    2.571    3.571    0.000    0.000    0.000    0.000 
#    0.000    0.000    0.000    0.000    0.000    0.000 
#
# Total GULP energy -693906.523523 kJ/mol
# GULP energy per Si atom -12391.187920 kJ/mol
# Density = 2.133353 g / cm^3
# Si number density = 21.382197 Si / 1000 Ang^3
#
#
#
# Elastic Constant Matrix: (Units=GPa)
#
#
# Indices 1 2 3 4 5 6 
#
# 1 99.7934 20.6268 28.4224 0.0000 0.0000 0.0000
# 2 20.6268 87.9920 15.6876 0.0000 0.0000 0.0000
# 3 28.4224 15.6876 73.7970 0.0000 0.0000 0.0000
# 4 0.0000 0.0000 0.0000 28.4394 0.0000 0.0000
# 5 0.0000 0.0000 0.0000 0.0000 21.1897 0.0000
# 6 0.0000 0.0000 0.0000 0.0000 0.0000 29.4631
#
#
#
# Elastic Compliance Matrix: (Units=1/GPa)
#
#
# Indices 1 2 3 4 5 6 
#
# 1 0.011583 -0.001996 -0.004037 0.000000 0.000000 0.000000
# 2 -0.001996 0.012156 -0.001816 0.000000 0.000000 0.000000
# 3 -0.004037 -0.001816 0.015491 0.000000 0.000000 0.000000
# 4 0.000000 0.000000 0.000000 0.035163 0.000000 0.000000
# 5 0.000000 0.000000 0.000000 0.000000 0.047193 0.000000
# 6 0.000000 0.000000 0.000000 0.000000 0.000000 0.033941
#
#
# Mechanical properties :
#
#
# Convention : Reuss Voigt Hill
#
# Bulk Modulus (GPa) = 42.49072 43.45066 42.97069
# Shear Modulus (GPa) = 27.92248 28.94148 28.43198
#
# Velocity S-wave (km/s) = 3.61761 3.68303 3.65047
# Velocity P-wave (km/s) = 6.11266 6.20091 6.15695
#
# Compressibility (1/GPa) = 0.02353455
#
# Stress axis : x y z
#
# Youngs Moduli (GPa) = 86.33397 82.26300 64.55189
#
# Poissons Ratio (x) = 0.16416 0.26059
# Poissons Ratio (y) = 0.17228 0.11720
# Poissons Ratio (z) = 0.34852 0.14935
#
# Static dielectric constant tensor:
#      x y z
#    x 4.191120 0.000000 0.000000 
#    y 0.000000 4.191940 0.000000 
#    z 0.000000 0.000000 3.581890 
# 
# 
# High freq. dielectric constant tensor:
#      x y z
#    x 1.847260 0.000000 0.000000 
#    y 0.000000 1.859120 0.000000 
#    z 0.000000 0.000000 1.791580 
# 
# From -- ./inp_files/12275.got.cif
#   From: 2010.03.12/outbox.cif.g09.slc.cpg/sg56_7_cif.got.tgz:12275.got - 2010.04.16 15:33:40.
