data_PCOD8228983
_publ_section_title
;
Structure prediction by ZEFSAII (Michael W. Deem and Ramdas Pophale) SiO2 
 PCOD8228983
Probable space group: P C C N
;
_chemical_formula_sum "Si O2"
_cell_formula_units_Z 60
_cell_length_a 11.940759
_cell_length_b 8.846677
_cell_length_c 26.212735
_cell_angle_alpha 90.000000
_cell_angle_beta 90.000000
_cell_angle_gamma 90.000000
_cell_volume 2769.009471
_symmetry_space_group_name_H-M "P C C N"
_symmetry_group_IT_number 56
_symmetry_cell_setting 'orthorhombic'
loop_
_space_group_symop_operation_xyz
x,y,z
1/2-x,1/2-y,z
1/2+x,-y,1/2-z
-x,1/2+y,1/2-z
-x,-y,-z
1/2+x,1/2+y,-z
1/2-x,y,1/2+z
x,1/2-y,1/2+z
loop_
_atom_site_type_symbol
_atom_site_label
_atom_site_fract_x
_atom_site_fract_y
_atom_site_fract_z
Si Si1 0.408711 0.465484 0.205442
Si Si2 0.625005 0.774084 0.873358
Si Si3 0.672639 0.063799 0.821826
Si Si4 0.126443 0.188952 0.405374
Si Si5 0.054315 0.849611 0.023380
Si Si6 0.467745 0.239146 0.793536
Si Si7 0.250000 0.750000 0.587690
Si Si8 0.043167 0.904330 0.452897
O O1 0.425162 0.380558 0.150876
O O2 0.294998 0.564665 0.203861
O O3 0.512590 0.580628 0.214241
O O4 0.394427 0.338681 0.249289
O O5 0.750000 0.750000 0.894097
O O6 0.557576 0.836492 0.920474
O O7 0.626264 0.894641 0.827237
O O8 0.588095 0.159212 0.787831
O O9 0.674073 0.139661 0.878127
O O10 0.250000 0.250000 0.415326
O O11 0.093315 0.210397 0.346769
O O12 0.041784 0.275140 0.442269
O O13 0.124044 0.008469 0.418147
O O14 0.167884 0.864697 0.056615
O O15 0.099776 0.743493 0.977306
O O16 0.000000 0.000000 0.000000
O O17 0.000000 0.000000 0.500000
#
# Coordination Sequence:
#
# PCOD8228983 Si02
#       8
#     8   8   8   8   8   8   4   8
#     4  11  25  39  70 101 130 177 228 293 351 423
#     4  10  22  38  68  98 130 175 237 289 347 421
#     4  11  20  43  69  96 135 179 234 286 349 418
#     4  11  25  45  66  94 143 184 222 283 361 425
#     4  11  26  41  71 103 138 181 238 291 353 427
#     4  12  23  44  67 100 139 173 233 290 353 423
#     4  12  22  44  72 102 142 186 238 298 354 418
#     4  10  22  42  61  96 133 179 227 284 351 410
#
# _framework density 21.668399000000001
#
# number of rings (size 3 to 8) (size 9 to 14) (size 15 to 20)
#    0.000    1.067    4.000    1.600    7.467    4.800 
#    0.000    0.000    0.000    0.000    0.000    0.000 
#    0.000    0.000    0.000    0.000    0.000    0.000 
#
# Total GULP energy -743622.001993 kJ/mol
# GULP energy per Si atom -12393.700033 kJ/mol
# Density = 2.161908 g / cm^3
# Si number density = 21.668399 Si / 1000 Ang^3
#
#
#
# Elastic Constant Matrix: (Units=GPa)
#
#
# Indices 1 2 3 4 5 6 
#
# 1 78.9771 30.7651 35.1233 0.0000 0.0000 0.0000
# 2 30.7651 105.0529 36.9480 0.0000 0.0000 0.0000
# 3 35.1233 36.9480 101.0863 0.0000 0.0000 0.0000
# 4 0.0000 0.0000 0.0000 35.9828 0.0000 0.0000
# 5 0.0000 0.0000 0.0000 0.0000 25.7595 0.0000
# 6 0.0000 0.0000 0.0000 0.0000 0.0000 41.1896
#
#
#
# Elastic Compliance Matrix: (Units=1/GPa)
#
#
# Indices 1 2 3 4 5 6 
#
# 1 0.015807 -0.003095 -0.004361 0.000000 0.000000 0.000000
# 2 -0.003095 0.011529 -0.003139 0.000000 0.000000 0.000000
# 3 -0.004361 -0.003139 0.012555 0.000000 0.000000 0.000000
# 4 0.000000 0.000000 0.000000 0.027791 0.000000 0.000000
# 5 0.000000 0.000000 0.000000 0.000000 0.038821 0.000000
# 6 0.000000 0.000000 0.000000 0.000000 0.000000 0.024278
#
#
# Mechanical properties :
#
#
# Convention : Reuss Voigt Hill
#
# Bulk Modulus (GPa) = 53.47118 54.53213 54.00165
# Shear Modulus (GPa) = 31.60462 32.73838 32.17150
#
# Velocity S-wave (km/s) = 3.82325 3.89122 3.85739
# Velocity P-wave (km/s) = 6.64983 6.73870 6.69441
#
# Compressibility (1/GPa) = 0.01870166
#
# Stress axis : x y z
#
# Youngs Moduli (GPa) = 63.26267 86.73495 79.64987
#
# Poissons Ratio (x) = 0.26848 0.34735
# Poissons Ratio (y) = 0.19582 0.24999
# Poissons Ratio (z) = 0.27588 0.27222
#
# Static dielectric constant tensor:
#      x y z
#    x 3.807240 0.000000 0.000000 
#    y 0.000000 4.366240 0.000000 
#    z 0.000000 0.000000 3.926010 
# 
# 
# High freq. dielectric constant tensor:
#      x y z
#    x 1.831000 0.000000 0.000000 
#    y 0.000000 1.871020 0.000000 
#    z 0.000000 0.000000 1.848800 
# 
# From -- ./inp_files/22324.got.cif
#   From: 2010.03.12/outbox.cif.g09.slc.cpg/sg56_12_cif.got.tgz:22324.got - 2010.04.16 15:33:40.
