data_PCOD8228523
_publ_section_title
;
Structure prediction by ZEFSAII (Michael W. Deem and Ramdas Pophale) SiO2 
 PCOD8228523
Probable space group: P C C N
;
_chemical_formula_sum "Si O2"
_cell_formula_units_Z 44
_cell_length_a 7.864631
_cell_length_b 16.195357
_cell_length_c 17.488600
_cell_angle_alpha 90.000000
_cell_angle_beta 90.000000
_cell_angle_gamma 90.000000
_cell_volume 2227.531844
_symmetry_space_group_name_H-M "P C C N"
_symmetry_group_IT_number 56
_symmetry_cell_setting 'orthorhombic'
loop_
_space_group_symop_operation_xyz
x,y,z
1/2-x,1/2-y,z
1/2+x,-y,1/2-z
-x,1/2+y,1/2-z
-x,-y,-z
1/2+x,1/2+y,-z
1/2-x,y,1/2+z
x,1/2-y,1/2+z
loop_
_atom_site_type_symbol
_atom_site_label
_atom_site_fract_x
_atom_site_fract_y
_atom_site_fract_z
Si Si1 0.602940 0.871154 0.556554
Si Si2 0.403751 0.411585 0.284334
Si Si3 0.368753 0.523573 0.844232
Si Si4 0.250000 0.250000 0.832063
Si Si5 0.280229 0.841478 0.456448
Si Si6 0.984536 0.584444 0.045014
O O1 0.605603 0.795656 0.616760
O O2 0.470596 0.851553 0.489927
O O3 0.797638 0.878560 0.525920
O O4 0.548004 0.957825 0.596671
O O5 0.496756 0.427129 0.205425
O O6 0.246242 0.474090 0.284515
O O7 0.344316 0.316606 0.279312
O O8 0.506314 0.427294 0.363460
O O9 0.257850 0.591431 0.889633
O O10 0.250000 0.750000 0.422901
O O11 0.135139 0.854506 0.520135
O O12 0.000000 0.500000 0.000000
#
# Coordination Sequence:
#
# PCOD8228523 Si02
#       6
#     8   8   8   4   8   8
#     4  10  21  40  66  89 122 163 210 250 310 370
#     4  10  21  40  62  87 125 161 205 246 312 364
#     4  10  23  40  60  91 124 162 206 251 306 385
#     4   8  18  42  58  88 122 162 206 248 300 374
#     4  12  23  40  62  98 125 157 211 262 309 365
#     4  10  20  39  65  89 120 162 206 257 303 364
#
# _framework density 19.752804999999999
#
# number of rings (size 3 to 8) (size 9 to 14) (size 15 to 20)
#    0.000    2.182    3.636    2.727    2.545    0.000 
#    6.545    1.818    0.000    0.000    0.000    0.000 
#    0.000    0.000    0.000    0.000    0.000    0.000 
#
# Total GULP energy -545353.687239 kJ/mol
# GULP energy per Si atom -12394.401983 kJ/mol
# Density = 1.970785 g / cm^3
# Si number density = 19.752805 Si / 1000 Ang^3
#
#
#
# Elastic Constant Matrix: (Units=GPa)
#
#
# Indices 1 2 3 4 5 6 
#
# 1 95.9728 33.0703 28.4030 0.0000 0.0000 0.0000
# 2 33.0703 153.6396 41.3579 0.0000 0.0000 0.0000
# 3 28.4030 41.3579 57.5417 0.0000 0.0000 0.0000
# 4 0.0000 0.0000 0.0000 23.8089 0.0000 0.0000
# 5 0.0000 0.0000 0.0000 0.0000 39.2004 0.0000
# 6 0.0000 0.0000 0.0000 0.0000 0.0000 26.1398
#
#
#
# Elastic Compliance Matrix: (Units=1/GPa)
#
#
# Indices 1 2 3 4 5 6 
#
# 1 0.012398 -0.001266 -0.005209 0.000000 0.000000 0.000000
# 2 -0.001266 0.008199 -0.005268 0.000000 0.000000 0.000000
# 3 -0.005209 -0.005268 0.023737 0.000000 0.000000 0.000000
# 4 0.000000 0.000000 0.000000 0.042001 0.000000 0.000000
# 5 0.000000 0.000000 0.000000 0.000000 0.025510 0.000000
# 6 0.000000 0.000000 0.000000 0.000000 0.000000 0.038256
#
#
# Mechanical properties :
#
#
# Convention : Reuss Voigt Hill
#
# Bulk Modulus (GPa) = 47.97129 56.97962 52.47546
# Shear Modulus (GPa) = 27.69511 31.45135 29.57323
#
# Velocity S-wave (km/s) = 3.74850 3.99463 3.87352
# Velocity P-wave (km/s) = 6.56305 7.08414 6.82857
#
# Compressibility (1/GPa) = 0.02084580
#
# Stress axis : x y z
#
# Youngs Moduli (GPa) = 80.66033 121.95933 42.12886
#
# Poissons Ratio (x) = 0.15443 0.21947
# Poissons Ratio (y) = 0.10213 0.22195
# Poissons Ratio (z) = 0.42020 0.64252
#
# Static dielectric constant tensor:
#      x y z
#    x 3.608880 0.000000 0.000000 
#    y 0.000000 3.927550 0.000000 
#    z 0.000000 0.000000 3.351540 
# 
# 
# High freq. dielectric constant tensor:
#      x y z
#    x 1.757780 0.000000 0.000000 
#    y 0.000000 1.793060 0.000000 
#    z 0.000000 0.000000 1.745180 
# 
# From -- ./inp_files/14710.got.cif
#   From: 2010.03.12/outbox.cif.g09.slc.cpg/sg56_8_cif.got.tgz:14710.got - 2010.04.16 15:33:40.
