data_PCOD8228383
_publ_section_title
;
Structure prediction by ZEFSAII (Michael W. Deem and Ramdas Pophale) SiO2 
 PCOD8228383
Probable space group: P C C N
;
_chemical_formula_sum "Si O2"
_cell_formula_units_Z 52
_cell_length_a 6.061038
_cell_length_b 25.229321
_cell_length_c 16.022816
_cell_angle_alpha 90.000000
_cell_angle_beta 90.000000
_cell_angle_gamma 90.000000
_cell_volume 2450.142901
_symmetry_space_group_name_H-M "P C C N"
_symmetry_group_IT_number 56
_symmetry_cell_setting 'orthorhombic'
loop_
_space_group_symop_operation_xyz
x,y,z
1/2-x,1/2-y,z
1/2+x,-y,1/2-z
-x,1/2+y,1/2-z
-x,-y,-z
1/2+x,1/2+y,-z
1/2-x,y,1/2+z
x,1/2-y,1/2+z
loop_
_atom_site_type_symbol
_atom_site_label
_atom_site_fract_x
_atom_site_fract_y
_atom_site_fract_z
Si Si1 0.922915 0.953523 0.561560
Si Si2 0.750000 0.750000 0.291254
Si Si3 0.631282 0.299692 0.100486
Si Si4 0.735328 0.432235 0.802157
Si Si5 0.984662 0.848988 0.288438
Si Si6 0.436629 0.977775 0.350401
Si Si7 0.327673 0.389865 0.065004
O O1 0.829305 0.902111 0.513256
O O2 0.116365 0.925908 0.615513
O O3 0.749409 0.980817 0.622814
O O4 0.000000 0.000000 0.500000
O O5 0.552207 0.771459 0.345698
O O6 0.855813 0.800034 0.242292
O O7 0.750000 0.250000 0.051178
O O8 0.499669 0.342224 0.042919
O O9 0.804036 0.330234 0.158988
O O10 0.557060 0.385220 0.790114
O O11 0.865584 0.432741 0.715053
O O12 0.628181 0.489720 0.806472
O O13 0.817851 0.878812 0.352118
O O14 0.532802 0.944396 0.427463
#
# Coordination Sequence:
#
# PCOD8228383 Si02
#       7
#     8   4   8   8   8   8   8
#     4  12  26  38  55  89 131 173 214 253 314 388
#     4   8  18  34  58  98 118 146 206 270 318 374
#     4   9  18  35  62  93 123 152 207 271 319 367
#     4  12  23  36  59  86 126 175 216 254 316 377
#     4  10  20  36  62  92 124 159 210 269 317 381
#     4  12  23  40  58  87 131 167 208 259 303 381
#     4  11  22  37  60  90 132 164 212 266 318 385
#
# _framework density 21.223253
#
# number of rings (size 3 to 8) (size 9 to 14) (size 15 to 20)
#    0.000    1.231    4.615    2.308    0.000    0.000 
#    0.000    0.000    0.000    0.000    0.000   85.077 
#    0.000    0.000    0.000    0.000    0.000    0.000 
#
# Total GULP energy -644183.429198 kJ/mol
# GULP energy per Si atom -12388.142869 kJ/mol
# Density = 2.117495 g / cm^3
# Si number density = 21.223253 Si / 1000 Ang^3
#
#
#
# Elastic Constant Matrix: (Units=GPa)
#
#
# Indices 1 2 3 4 5 6 
#
# 1 101.2044 62.6179 32.5344 0.0000 0.0000 0.0000
# 2 62.6179 153.4788 44.4309 0.0000 0.0000 0.0000
# 3 32.5344 44.4309 74.6559 0.0000 0.0000 0.0000
# 4 0.0000 0.0000 0.0000 15.2044 0.0000 0.0000
# 5 0.0000 0.0000 0.0000 0.0000 30.8211 0.0000
# 6 0.0000 0.0000 0.0000 0.0000 0.0000 55.9356
#
#
#
# Elastic Compliance Matrix: (Units=1/GPa)
#
#
# Indices 1 2 3 4 5 6 
#
# 1 0.013832 -0.004710 -0.003225 0.000000 0.000000 0.000000
# 2 -0.004710 0.009475 -0.003587 0.000000 0.000000 0.000000
# 3 -0.003225 -0.003587 0.016935 0.000000 0.000000 0.000000
# 4 0.000000 0.000000 0.000000 0.065771 0.000000 0.000000
# 5 0.000000 0.000000 0.000000 0.000000 0.032445 0.000000
# 6 0.000000 0.000000 0.000000 0.000000 0.000000 0.017878
#
#
# Mechanical properties :
#
#
# Convention : Reuss Voigt Hill
#
# Bulk Modulus (GPa) = 58.14168 67.61171 62.87670
# Shear Modulus (GPa) = 27.01082 33.04260 30.02671
#
# Velocity S-wave (km/s) = 3.57136 3.95005 3.76547
# Velocity P-wave (km/s) = 6.66790 7.26157 6.97106
#
# Compressibility (1/GPa) = 0.01719936
#
# Stress axis : x y z
#
# Youngs Moduli (GPa) = 72.29788 105.53654 59.05011
#
# Poissons Ratio (x) = 0.49704 0.19043
# Poissons Ratio (y) = 0.34050 0.21180
# Poissons Ratio (z) = 0.23315 0.37854
#
# Static dielectric constant tensor:
#      x y z
#    x 4.298050 0.000000 0.000000 
#    y 0.000000 4.360690 0.000000 
#    z 0.000000 0.000000 3.367740 
# 
# 
# High freq. dielectric constant tensor:
#      x y z
#    x 1.860920 0.000000 0.000000 
#    y 0.000000 1.846540 0.000000 
#    z 0.000000 0.000000 1.774370 
# 
# From -- ./inp_files/14054.got.cif
#   From: 2010.03.12/outbox.cif.g09.slc.cpg/sg56_8_cif.got.tgz:14054.got - 2010.04.16 15:33:40.
