data_PCOD8228806
_publ_section_title
;
Structure prediction by ZEFSAII (Michael W. Deem and Ramdas Pophale) SiO2 
 PCOD8228806
Probable space group: P C C N
;
_chemical_formula_sum "Si O2"
_cell_formula_units_Z 40
_cell_length_a 20.307493
_cell_length_b 7.965095
_cell_length_c 11.276659
_cell_angle_alpha 90.000000
_cell_angle_beta 90.000000
_cell_angle_gamma 90.000000
_cell_volume 1824.012121
_symmetry_space_group_name_H-M "P C C N"
_symmetry_group_IT_number 56
_symmetry_cell_setting 'orthorhombic'
loop_
_space_group_symop_operation_xyz
x,y,z
1/2-x,1/2-y,z
1/2+x,-y,1/2-z
-x,1/2+y,1/2-z
-x,-y,-z
1/2+x,1/2+y,-z
1/2-x,y,1/2+z
x,1/2-y,1/2+z
loop_
_atom_site_type_symbol
_atom_site_label
_atom_site_fract_x
_atom_site_fract_y
_atom_site_fract_z
Si Si1 0.371074 0.589522 0.465918
Si Si2 0.554889 0.234255 0.350075
Si Si3 0.315812 0.354176 0.665962
Si Si4 0.315888 0.828340 0.292470
Si Si5 0.573267 0.892821 0.257100
O O1 0.437359 0.673079 0.522998
O O2 0.327940 0.476888 0.554579
O O3 0.325722 0.747030 0.423011
O O4 0.392330 0.474943 0.356454
O O5 0.621018 0.281465 0.282956
O O6 0.491069 0.293531 0.280984
O O7 0.552047 0.031760 0.354971
O O8 0.250000 0.250000 0.643409
O O9 0.308505 0.468302 0.785906
O O10 0.377743 0.232857 0.677901
O O11 0.250000 0.750000 0.234884
#
# Coordination Sequence:
#
# PCOD8228806 Si02
#       5
#     8   8   8   8   8
#     4  10  23  40  65  92 125 166 211 257 311 370
#     4  10  21  40  63  91 127 166 208 257 309 368
#     4  11  24  43  65  94 127 164 208 258 311 373
#     4  10  22  41  63  90 124 163 205 256 308 366
#     4  11  23  42  64  93 128 165 209 260 311 371
#
# _framework density 21.929680000000001
#
# number of rings (size 3 to 8) (size 9 to 14) (size 15 to 20)
#    0.000    1.600    0.000    5.400    0.000   10.400 
#    0.000    6.000    0.000    0.000    0.000    0.000 
#    0.000    0.000    0.000    0.000    0.000    0.000 
#
# Total GULP energy -495748.922406 kJ/mol
# GULP energy per Si atom -12393.723060 kJ/mol
# Density = 2.187977 g / cm^3
# Si number density = 21.929680 Si / 1000 Ang^3
#
#
#
# Elastic Constant Matrix: (Units=GPa)
#
#
# Indices 1 2 3 4 5 6 
#
# 1 105.8238 26.1155 7.1183 0.0000 0.0000 0.0000
# 2 26.1155 145.5559 34.7279 0.0000 0.0000 0.0000
# 3 7.1183 34.7279 71.9421 0.0000 0.0000 0.0000
# 4 0.0000 0.0000 0.0000 153.4003 0.0000 0.0000
# 5 0.0000 0.0000 0.0000 0.0000 22.7108 0.0000
# 6 0.0000 0.0000 0.0000 0.0000 0.0000 43.7656
#
#
#
# Elastic Compliance Matrix: (Units=1/GPa)
#
#
# Indices 1 2 3 4 5 6 
#
# 1 0.009889 -0.001741 -0.000138 0.000000 0.000000 0.000000
# 2 -0.001741 0.008071 -0.003724 0.000000 0.000000 0.000000
# 3 -0.000138 -0.003724 0.015711 0.000000 0.000000 0.000000
# 4 0.000000 0.000000 0.000000 0.006519 0.000000 0.000000
# 5 0.000000 0.000000 0.000000 0.000000 0.044032 0.000000
# 6 0.000000 0.000000 0.000000 0.000000 0.000000 0.022849
#
#
# Mechanical properties :
#
#
# Convention : Reuss Voigt Hill
#
# Bulk Modulus (GPa) = 44.51352 51.02725 47.77039
# Shear Modulus (GPa) = 39.75663 60.99935 50.37799
#
# Velocity S-wave (km/s) = 4.26245 5.27980 4.79816
# Velocity P-wave (km/s) = 6.67585 7.77737 7.24757
#
# Compressibility (1/GPa) = 0.02246508
#
# Stress axis : x y z
#
# Youngs Moduli (GPa) = 101.12577 123.89895 63.64862
#
# Poissons Ratio (x) = 0.21575 0.00877
# Poissons Ratio (y) = 0.17609 0.23701
# Poissons Ratio (z) = 0.01394 0.46137
#
# Static dielectric constant tensor:
#      x y z
#    x 3.573580 0.000000 0.000000 
#    y 0.000000 4.786260 0.000000 
#    z 0.000000 0.000000 4.326540 
# 
# 
# High freq. dielectric constant tensor:
#      x y z
#    x 1.875160 0.000000 0.000000 
#    y 0.000000 1.882380 0.000000 
#    z 0.000000 0.000000 1.841950 
# 
# From -- ./inp_files/6299.got.cif
#   From: 2010.03.12/outbox.cif.g09.slc.cpg/sg56_4_cif.got.tgz:6299.got - 2010.04.16 15:33:40.
