data_PCOD8228144
_publ_section_title
;
Structure prediction by ZEFSAII (Michael W. Deem and Ramdas Pophale) SiO2 
 PCOD8228144
Probable space group: P C C N
;
_chemical_formula_sum "Si O2"
_cell_formula_units_Z 24
_cell_length_a 9.976703
_cell_length_b 9.301726
_cell_length_c 9.467557
_cell_angle_alpha 90.000000
_cell_angle_beta 90.000000
_cell_angle_gamma 90.000000
_cell_volume 878.594570
_symmetry_space_group_name_H-M "P C C N"
_symmetry_group_IT_number 56
_symmetry_cell_setting 'orthorhombic'
loop_
_space_group_symop_operation_xyz
x,y,z
1/2-x,1/2-y,z
1/2+x,-y,1/2-z
-x,1/2+y,1/2-z
-x,-y,-z
1/2+x,1/2+y,-z
1/2-x,y,1/2+z
x,1/2-y,1/2+z
loop_
_atom_site_type_symbol
_atom_site_label
_atom_site_fract_x
_atom_site_fract_y
_atom_site_fract_z
Si Si1 0.636511 0.144842 0.018837
Si Si2 0.568918 0.642849 0.050020
Si Si3 0.369693 0.123651 0.147595
O O1 0.750000 0.250000 0.083795
O O2 0.546758 0.240362 0.909167
O O3 0.703278 0.006093 0.939820
O O4 0.531743 0.090688 0.138816
O O5 0.666085 0.618942 0.185998
O O6 0.500000 0.500000 0.000000
O O7 0.654228 0.713960 0.918705
#
# Coordination Sequence:
#
# PCOD8228144 Si02
#       3
#     8   8   8
#     4   9  20  36  60  86 120 159 211 253 305 383
#     4  10  19  35  60  86 122 164 201 251 323 363
#     4   9  20  37  60  86 123 164 203 258 318 371
#
# _framework density 27.316357
#
# number of rings (size 3 to 8) (size 9 to 14) (size 15 to 20)
#    2.000    0.667    0.000    2.000    0.000    1.333 
#    0.000    1.667    0.000    4.000    0.000    0.000 
#    0.000    0.000    0.000    0.000    0.000    0.000 
#
# Total GULP energy -297319.244118 kJ/mol
# GULP energy per Si atom -12388.301838 kJ/mol
# Density = 2.725418 g / cm^3
# Si number density = 27.316357 Si / 1000 Ang^3
#
#
#
# Elastic Constant Matrix: (Units=GPa)
#
#
# Indices 1 2 3 4 5 6 
#
# 1 56.9317 13.2975 -11.8193 0.0000 0.0000 0.0000
# 2 13.2975 206.5204 50.4527 0.0000 0.0000 0.0000
# 3 -11.8193 50.4527 166.5590 0.0000 0.0000 0.0000
# 4 0.0000 0.0000 0.0000 32.0792 0.0000 0.0000
# 5 0.0000 0.0000 0.0000 0.0000 23.1173 0.0000
# 6 0.0000 0.0000 0.0000 0.0000 0.0000 47.3833
#
#
#
# Elastic Compliance Matrix: (Units=1/GPa)
#
#
# Indices 1 2 3 4 5 6 
#
# 1 0.018314 -0.001616 0.001789 0.000000 0.000000 0.000000
# 2 -0.001616 0.005372 -0.001742 0.000000 0.000000 0.000000
# 3 0.001789 -0.001742 0.006658 0.000000 0.000000 0.000000
# 4 0.000000 0.000000 0.000000 0.031173 0.000000 0.000000
# 5 0.000000 0.000000 0.000000 0.000000 0.043258 0.000000
# 6 0.000000 0.000000 0.000000 0.000000 0.000000 0.021104
#
#
# Mechanical properties :
#
#
# Convention : Reuss Voigt Hill
#
# Bulk Modulus (GPa) = 36.75644 59.31921 48.03783
# Shear Modulus (GPa) = 36.20939 45.72131 40.96535
#
# Velocity S-wave (km/s) = 3.64477 4.09561 3.87675
# Velocity P-wave (km/s) = 5.58547 6.64290 6.13701
#
# Compressibility (1/GPa) = 0.02720612
#
# Stress axis : x y z
#
# Youngs Moduli (GPa) = 54.60346 186.15945 150.18465
#
# Poissons Ratio (x) = 0.30089 -0.26871
# Poissons Ratio (y) = 0.08825 0.26160
# Poissons Ratio (z) = -0.09770 0.32426
#
# Static dielectric constant tensor:
#      x y z
#    x 5.275030 0.000000 0.000000 
#    y 0.000000 5.045940 0.000000 
#    z 0.000000 0.000000 4.407960 
# 
# 
# High freq. dielectric constant tensor:
#      x y z
#    x 2.124690 0.000000 0.000000 
#    y 0.000000 2.126760 0.000000 
#    z 0.000000 0.000000 2.041640 
# 
# From -- ./inp_files/3826.got.cif
#   From: 2010.03.12/outbox.cif.g09.slc.cpg/sg56_2_cif.got.tgz:3826.got - 2010.04.16 15:33:40.
