data_PCOD8228797
_publ_section_title
;
Structure prediction by ZEFSAII (Michael W. Deem and Ramdas Pophale) SiO2 
 PCOD8228797
Probable space group: P C C N
;
_chemical_formula_sum "Si O2"
_cell_formula_units_Z 60
_cell_length_a 18.852646
_cell_length_b 18.907187
_cell_length_c 8.162707
_cell_angle_alpha 90.000000
_cell_angle_beta 90.000000
_cell_angle_gamma 90.000000
_cell_volume 2909.601019
_symmetry_space_group_name_H-M "P C C N"
_symmetry_group_IT_number 56
_symmetry_cell_setting 'orthorhombic'
loop_
_space_group_symop_operation_xyz
x,y,z
1/2-x,1/2-y,z
1/2+x,-y,1/2-z
-x,1/2+y,1/2-z
-x,-y,-z
1/2+x,1/2+y,-z
1/2-x,y,1/2+z
x,1/2-y,1/2+z
loop_
_atom_site_type_symbol
_atom_site_label
_atom_site_fract_x
_atom_site_fract_y
_atom_site_fract_z
Si Si1 0.750000 0.750000 0.421841
Si Si2 0.698798 0.969756 0.809155
Si Si3 0.649910 0.958919 0.178341
Si Si4 0.545837 0.430580 0.811273
Si Si5 0.927172 0.041821 0.180145
Si Si6 0.663509 0.831405 0.673267
Si Si7 0.031908 0.348494 0.808838
Si Si8 0.520087 0.799016 0.825142
O O1 0.686940 0.788289 0.516045
O O2 0.784573 0.812075 0.320854
O O3 0.652780 0.038142 0.753970
O O4 0.783733 0.977182 0.797066
O O5 0.673578 0.915190 0.667138
O O6 0.676383 0.948045 0.992741
O O7 0.607446 0.887240 0.235691
O O8 0.597357 0.025448 0.191397
O O9 0.467283 0.465720 0.811404
O O10 0.542639 0.349993 0.742602
O O11 0.576395 0.429697 0.994959
O O12 0.969406 0.094979 0.297575
O O13 0.583515 0.810887 0.699894
O O14 0.007864 0.285516 0.685531
O O15 0.038701 0.319636 0.991384
#
# Coordination Sequence:
#
# PCOD8228797 Si02
#       8
#     4   8   8   8   8   8   8   8
#     4  10  24  34  48  74 120 160 206 238 298 348
#     4  12  22  39  59  87 119 159 205 248 300 356
#     4  11  24  40  60  89 122 163 203 249 301 356
#     4  10  21  40  61  85 115 156 203 252 301 357
#     4  10  21  40  61  85 115 156 203 252 301 357
#     4  11  22  36  52  78 115 165 197 249 287 363
#     4  11  24  40  60  89 122 163 203 249 301 356
#     4  12  22  39  59  87 119 159 205 248 300 356
#
# _framework density 20.621383000000002
#
# number of rings (size 3 to 8) (size 9 to 14) (size 15 to 20)
#    0.000    1.067    2.667    4.000    3.733    2.133 
#    2.400    0.000    0.000    0.800    0.000    5.600 
#    0.000    0.000    0.000    0.000    0.000    0.000 
#
# Total GULP energy -743715.112366 kJ/mol
# GULP energy per Si atom -12395.251873 kJ/mol
# Density = 2.057445 g / cm^3
# Si number density = 20.621383 Si / 1000 Ang^3
#
#
#
# Elastic Constant Matrix: (Units=GPa)
#
#
# Indices 1 2 3 4 5 6 
#
# 1 90.1656 52.0968 24.8887 0.0000 0.0000 0.0000
# 2 52.0968 99.8618 23.8329 0.0000 0.0000 0.0000
# 3 24.8887 23.8329 49.1781 0.0000 0.0000 0.0000
# 4 0.0000 0.0000 0.0000 59.1666 0.0000 0.0000
# 5 0.0000 0.0000 0.0000 0.0000 30.3332 0.0000
# 6 0.0000 0.0000 0.0000 0.0000 0.0000 27.7579
#
#
#
# Elastic Compliance Matrix: (Units=1/GPa)
#
#
# Indices 1 2 3 4 5 6 
#
# 1 0.016829 -0.007629 -0.004820 0.000000 0.000000 0.000000
# 2 -0.007629 0.014782 -0.003303 0.000000 0.000000 0.000000
# 3 -0.004820 -0.003303 0.024374 0.000000 0.000000 0.000000
# 4 0.000000 0.000000 0.000000 0.016901 0.000000 0.000000
# 5 0.000000 0.000000 0.000000 0.000000 0.032967 0.000000
# 6 0.000000 0.000000 0.000000 0.000000 0.000000 0.036026
#
#
# Mechanical properties :
#
#
# Convention : Reuss Voigt Hill
#
# Bulk Modulus (GPa) = 40.84647 48.98247 44.91447
# Shear Modulus (GPa) = 27.54150 32.67737 30.10943
#
# Velocity S-wave (km/s) = 3.65852 3.98507 3.82528
# Velocity P-wave (km/s) = 6.13981 6.70665 6.42948
#
# Compressibility (1/GPa) = 0.02448192
#
# Stress axis : x y z
#
# Youngs Moduli (GPa) = 59.42014 67.64891 41.02717
#
# Poissons Ratio (x) = 0.51612 0.19774
# Poissons Ratio (y) = 0.45334 0.13550
# Poissons Ratio (z) = 0.28639 0.22342
#
# Static dielectric constant tensor:
#      x y z
#    x 3.604920 0.000000 0.000000 
#    y 0.000000 3.939930 0.000000 
#    z 0.000000 0.000000 3.703970 
# 
# 
# High freq. dielectric constant tensor:
#      x y z
#    x 1.789600 0.000000 0.000000 
#    y 0.000000 1.794530 0.000000 
#    z 0.000000 0.000000 1.817620 
# 
# From -- ./inp_files/4119.got.cif
#   From: 2010.03.12/outbox.cif.g09.slc.cpg/sg56_3_cif.got.tgz:4119.got - 2010.04.16 15:33:40.
