data_PCOD8228767
_publ_section_title
;
Structure prediction by ZEFSAII (Michael W. Deem and Ramdas Pophale) SiO2 
 PCOD8228767
Probable space group: P C C N
;
_chemical_formula_sum "Si O2"
_cell_formula_units_Z 60
_cell_length_a 18.163467
_cell_length_b 18.163429
_cell_length_c 8.544847
_cell_angle_alpha 90.000000
_cell_angle_beta 90.000000
_cell_angle_gamma 90.000000
_cell_volume 2819.037679
_symmetry_space_group_name_H-M "P C C N"
_symmetry_group_IT_number 56
_symmetry_cell_setting 'orthorhombic'
loop_
_space_group_symop_operation_xyz
x,y,z
1/2-x,1/2-y,z
1/2+x,-y,1/2-z
-x,1/2+y,1/2-z
-x,-y,-z
1/2+x,1/2+y,-z
1/2-x,y,1/2+z
x,1/2-y,1/2+z
loop_
_atom_site_type_symbol
_atom_site_label
_atom_site_fract_x
_atom_site_fract_y
_atom_site_fract_z
Si Si1 0.750000 0.750000 0.250007
Si Si2 0.151392 0.967612 0.200014
Si Si3 0.669170 0.669172 0.000006
Si Si4 0.923837 0.543425 0.834997
Si Si5 0.991308 0.796697 0.880028
Si Si6 0.796697 0.508691 0.619975
Si Si7 0.967611 0.151391 0.799983
Si Si8 0.043427 0.076163 0.334993
O O1 0.777760 0.682556 0.353509
O O2 0.682556 0.722240 0.146506
O O3 0.216930 0.981462 0.323522
O O4 0.104497 0.895505 0.252282
O O5 0.098498 0.039966 0.207198
O O6 0.177629 0.954787 0.021121
O O7 0.588278 0.695114 0.956215
O O8 0.695104 0.588278 0.043793
O O9 0.848165 0.508895 0.772821
O O10 0.960034 0.598499 0.707209
O O11 0.973903 0.473902 0.869244
O O12 0.913087 0.586909 0.000003
O O13 0.991100 0.848164 0.727181
O O14 0.018545 0.716932 0.823521
O O15 0.045213 0.822375 0.021120
#
# Coordination Sequence:
#
# PCOD8228767 Si02
#       8
#     4   8   8   8   8   8   8   8
#     4  10  24  38  52  86 140 170 212 254 340 414
#     4  11  24  42  66  98 132 176 229 286 348 414
#     4  11  22  38  59  92 128 184 209 270 329 416
#     4  10  21  39  63  93 129 170 221 275 331 400
#     4  12  22  41  65  95 132 177 228 285 342 417
#     4  12  22  41  65  95 132 177 228 285 342 417
#     4  11  24  42  66  98 132 176 229 286 348 414
#     4  10  21  39  63  93 129 170 221 275 331 400
#
# _framework density 21.283857999999999
#
# number of rings (size 3 to 8) (size 9 to 14) (size 15 to 20)
#    0.000    1.067    2.667    4.000    0.000    2.133 
#    0.000    1.333    0.000    6.400    0.000    0.000 
#    0.000    0.000    0.000    0.000    0.000    0.000 
#
# Total GULP energy -743653.346334 kJ/mol
# GULP energy per Si atom -12394.222439 kJ/mol
# Density = 2.123541 g / cm^3
# Si number density = 21.283858 Si / 1000 Ang^3
#
#
#
# Elastic Constant Matrix: (Units=GPa)
#
#
# Indices 1 2 3 4 5 6 
#
# 1 101.7146 60.0524 41.7967 0.0000 0.0000 0.0000
# 2 60.0524 101.7093 41.7918 0.0000 0.0000 0.0000
# 3 41.7967 41.7918 123.4791 0.0000 0.0000 0.0000
# 4 0.0000 0.0000 0.0000 85.7858 0.0000 0.0000
# 5 0.0000 0.0000 0.0000 0.0000 85.6974 0.0000
# 6 0.0000 0.0000 0.0000 0.0000 0.0000 24.9411
#
#
#
# Elastic Compliance Matrix: (Units=1/GPa)
#
#
# Indices 1 2 3 4 5 6 
#
# 1 0.015748 -0.008256 -0.002536 0.000000 0.000000 0.000000
# 2 -0.008256 0.015748 -0.002535 0.000000 0.000000 0.000000
# 3 -0.002536 -0.002535 0.009815 0.000000 0.000000 0.000000
# 4 0.000000 0.000000 0.000000 0.011657 0.000000 0.000000
# 5 0.000000 0.000000 0.000000 0.000000 0.011669 0.000000
# 6 0.000000 0.000000 0.000000 0.000000 0.000000 0.040095
#
#
# Mechanical properties :
#
#
# Convention : Reuss Voigt Hill
#
# Bulk Modulus (GPa) = 68.23143 68.24276 68.23709
# Shear Modulus (GPa) = 36.69110 51.50232 44.09671
#
# Velocity S-wave (km/s) = 4.15648 4.92447 4.55668
# Velocity P-wave (km/s) = 7.42715 8.02911 7.73399
#
# Compressibility (1/GPa) = 0.01465600
#
# Stress axis : x y z
#
# Youngs Moduli (GPa) = 63.50022 63.49874 101.88269
#
# Poissons Ratio (x) = 0.52424 0.25841
# Poissons Ratio (y) = 0.52425 0.25832
# Poissons Ratio (z) = 0.16106 0.16100
#
# Static dielectric constant tensor:
#      x y z
#    x 3.015900 0.000000 0.000000 
#    y 0.000000 3.013590 0.000000 
#    z 0.000000 0.000000 4.588400 
# 
# 
# High freq. dielectric constant tensor:
#      x y z
#    x 1.817820 0.000000 0.000000 
#    y 0.000000 1.817820 0.000000 
#    z 0.000000 0.000000 1.860360 
# 
# From -- ./inp_files/4122.got.cif
#   From: 2010.03.12/outbox.cif.g09.slc.cpg/sg56_3_cif.got.tgz:4122.got - 2010.04.16 15:33:40.
