data_PCOD8228425
_publ_section_title
;
Structure prediction by ZEFSAII (Michael W. Deem and Ramdas Pophale) SiO2 
 PCOD8228425
Probable space group: P C C N
;
_chemical_formula_sum "Si O2"
_cell_formula_units_Z 64
_cell_length_a 11.925362
_cell_length_b 9.026278
_cell_length_c 27.209404
_cell_angle_alpha 90.000000
_cell_angle_beta 90.000000
_cell_angle_gamma 90.000000
_cell_volume 2928.864670
_symmetry_space_group_name_H-M "P C C N"
_symmetry_group_IT_number 56
_symmetry_cell_setting 'orthorhombic'
loop_
_space_group_symop_operation_xyz
x,y,z
1/2-x,1/2-y,z
1/2+x,-y,1/2-z
-x,1/2+y,1/2-z
-x,-y,-z
1/2+x,1/2+y,-z
1/2-x,y,1/2+z
x,1/2-y,1/2+z
loop_
_atom_site_type_symbol
_atom_site_label
_atom_site_fract_x
_atom_site_fract_y
_atom_site_fract_z
Si Si1 0.787971 0.585480 0.750208
Si Si2 0.943454 0.299954 0.103358
Si Si3 0.875872 0.961873 0.669229
Si Si4 0.525018 0.654008 0.172101
Si Si5 0.295079 0.592286 0.484420
Si Si6 0.330845 0.010517 0.399965
Si Si7 0.725610 0.080885 0.341665
Si Si8 0.680287 0.884682 0.928400
O O1 0.750000 0.750000 0.766541
O O2 0.684655 0.514015 0.720785
O O3 0.899257 0.585908 0.716208
O O4 0.804007 0.480190 0.797424
O O5 0.940768 0.390820 0.154266
O O6 0.885814 0.384162 0.058016
O O7 0.876380 0.151538 0.115661
O O8 0.073963 0.294005 0.091630
O O9 0.968933 0.831877 0.673585
O O10 0.779618 0.933036 0.628497
O O11 0.570952 0.619879 0.116843
O O12 0.403735 0.578976 0.175783
O O13 0.250000 0.750000 0.504579
O O14 0.193569 0.497110 0.458649
O O15 0.349775 0.500634 0.528634
O O16 0.750000 0.250000 0.356043
O O17 0.749440 0.974208 0.387548
O O18 0.750000 0.750000 0.951077
#
# Coordination Sequence:
#
# PCOD8228425 Si02
#       8
#     8   8   8   8   8   8   8   8
#     4   9  21  40  61  87 117 151 196 247 293 347
#     4  10  20  37  62  88 119 155 194 245 302 349
#     4   9  18  36  63  91 116 149 195 246 295 349
#     4  10  21  39  62  89 122 154 192 244 300 350
#     4   9  20  39  61  86 116 150 197 249 292 351
#     4   9  18  36  63  92 116 147 195 248 295 351
#     4  12  26  41  58  86 121 159 200 241 293 359
#     4  12  25  40  56  83 122 161 198 240 296 356
#
# _framework density 21.851472999999999
#
# number of rings (size 3 to 8) (size 9 to 14) (size 15 to 20)
#    0.000    2.000    0.000    4.875    0.000    7.000 
#    0.000    8.125    0.000    0.000    0.000    0.000 
#    0.000    0.000    0.000    0.000    0.000    0.000 
#
# Total GULP energy -792882.632094 kJ/mol
# GULP energy per Si atom -12388.791126 kJ/mol
# Density = 2.180174 g / cm^3
# Si number density = 21.851473 Si / 1000 Ang^3
#
#
#
# Elastic Constant Matrix: (Units=GPa)
#
#
# Indices 1 2 3 4 5 6 
#
# 1 78.6516 13.7930 2.2789 0.0000 0.0000 0.0000
# 2 13.7930 64.5521 30.6838 0.0000 0.0000 0.0000
# 3 2.2789 30.6838 63.5950 0.0000 0.0000 0.0000
# 4 0.0000 0.0000 0.0000 32.4193 0.0000 0.0000
# 5 0.0000 0.0000 0.0000 0.0000 20.2596 0.0000
# 6 0.0000 0.0000 0.0000 0.0000 0.0000 30.8793
#
#
#
# Elastic Compliance Matrix: (Units=1/GPa)
#
#
# Indices 1 2 3 4 5 6 
#
# 1 0.013275 -0.003387 0.001159 0.000000 0.000000 0.000000
# 2 -0.003387 0.020966 -0.009994 0.000000 0.000000 0.000000
# 3 0.001159 -0.009994 0.020505 0.000000 0.000000 0.000000
# 4 0.000000 0.000000 0.000000 0.030846 0.000000 0.000000
# 5 0.000000 0.000000 0.000000 0.000000 0.049359 0.000000
# 6 0.000000 0.000000 0.000000 0.000000 0.000000 0.032384
#
#
# Mechanical properties :
#
#
# Convention : Reuss Voigt Hill
#
# Bulk Modulus (GPa) = 33.00354 33.36778 33.18566
# Shear Modulus (GPa) = 24.76712 27.38118 26.07415
#
# Velocity S-wave (km/s) = 3.37030 3.54370 3.45808
# Velocity P-wave (km/s) = 5.50287 5.66102 5.58250
#
# Compressibility (1/GPa) = 0.03029978
#
# Stress axis : x y z
#
# Youngs Moduli (GPa) = 75.33107 47.69686 48.76828
#
# Poissons Ratio (x) = 0.16156 -0.05650
# Poissons Ratio (y) = 0.25516 0.48741
# Poissons Ratio (z) = -0.08728 0.47670
#
# Static dielectric constant tensor:
#      x y z
#    x 3.982600 0.000000 0.000000 
#    y 0.000000 3.927970 0.000000 
#    z 0.000000 0.000000 3.872340 
# 
# 
# High freq. dielectric constant tensor:
#      x y z
#    x 1.854680 0.000000 0.000000 
#    y 0.000000 1.859050 0.000000 
#    z 0.000000 0.000000 1.846950 
# 
# From -- ./inp_files/23545.got.cif
#   From: 2010.03.12/outbox.cif.g09.slc.cpg/sg56_12_cif.got.tgz:23545.got - 2010.04.16 15:33:40.
