data_PCOD8228419
_publ_section_title
;
Structure prediction by ZEFSAII (Michael W. Deem and Ramdas Pophale) SiO2 
 PCOD8228419
Probable space group: P C C N
;
_chemical_formula_sum "Si O2"
_cell_formula_units_Z 36
_cell_length_a 7.911303
_cell_length_b 13.827704
_cell_length_c 17.634536
_cell_angle_alpha 90.000000
_cell_angle_beta 90.000000
_cell_angle_gamma 90.000000
_cell_volume 1929.132819
_symmetry_space_group_name_H-M "P C C N"
_symmetry_group_IT_number 56
_symmetry_cell_setting 'orthorhombic'
loop_
_space_group_symop_operation_xyz
x,y,z
1/2-x,1/2-y,z
1/2+x,-y,1/2-z
-x,1/2+y,1/2-z
-x,-y,-z
1/2+x,1/2+y,-z
1/2-x,y,1/2+z
x,1/2-y,1/2+z
loop_
_atom_site_type_symbol
_atom_site_label
_atom_site_fract_x
_atom_site_fract_y
_atom_site_fract_z
Si Si1 0.250000 0.250000 0.230059
Si Si2 0.136123 0.965935 0.941936
Si Si3 0.379611 0.671491 0.525960
Si Si4 0.188480 0.351534 0.875342
Si Si5 0.440252 0.727310 0.875155
O O1 0.298780 0.341524 0.283716
O O2 0.416664 0.230160 0.180134
O O3 0.050921 0.888888 0.884369
O O4 0.195934 0.058256 0.895092
O O5 0.288888 0.921294 0.990217
O O6 0.000000 0.000000 0.000000
O O7 0.250000 0.750000 0.561739
O O8 0.499286 0.633059 0.593094
O O9 0.476602 0.724248 0.456808
O O10 0.250000 0.250000 0.913016
O O11 0.250000 0.750000 0.845376
#
# Coordination Sequence:
#
# PCOD8228419 Si02
#       5
#     4   8   8   8   8
#     4  10  24  38  58  84 122 172 186 246 312 368
#     4  10  20  37  60  94 109 150 205 255 298 349
#     4   9  19  36  64  85 115 156 199 257 296 350
#     4  10  21  37  55  92 118 147 205 243 304 358
#     4   9  21  42  60  82 122 159 202 239 307 362
#
# _framework density 18.661235000000001
#
# number of rings (size 3 to 8) (size 9 to 14) (size 15 to 20)
#    0.667    2.222    0.000    3.333    4.667    0.889 
#    8.000    0.000    0.000    0.000    0.000    0.000 
#    0.000    0.000    0.000    0.000    0.000    0.000 
#
# Total GULP energy -446040.724183 kJ/mol
# GULP energy per Si atom -12390.020116 kJ/mol
# Density = 1.861876 g / cm^3
# Si number density = 18.661235 Si / 1000 Ang^3
#
#
#
# Elastic Constant Matrix: (Units=GPa)
#
#
# Indices 1 2 3 4 5 6 
#
# 1 98.4937 21.8955 71.2017 0.0000 0.0000 0.0000
# 2 21.8955 106.0949 34.9365 0.0000 0.0000 0.0000
# 3 71.2017 34.9365 95.9455 0.0000 0.0000 0.0000
# 4 0.0000 0.0000 0.0000 14.3678 0.0000 0.0000
# 5 0.0000 0.0000 0.0000 0.0000 27.6140 0.0000
# 6 0.0000 0.0000 0.0000 0.0000 0.0000 20.6642
#
#
#
# Elastic Compliance Matrix: (Units=1/GPa)
#
#
# Indices 1 2 3 4 5 6 
#
# 1 0.021987 0.000949 -0.016663 0.000000 0.000000 0.000000
# 2 0.000949 0.010751 -0.004619 0.000000 0.000000 0.000000
# 3 -0.016663 -0.004619 0.024470 0.000000 0.000000 0.000000
# 4 0.000000 0.000000 0.000000 0.069600 0.000000 0.000000
# 5 0.000000 0.000000 0.000000 0.000000 0.036213 0.000000
# 6 0.000000 0.000000 0.000000 0.000000 0.000000 0.048393
#
#
# Mechanical properties :
#
#
# Convention : Reuss Voigt Hill
#
# Bulk Modulus (GPa) = 60.44811 61.84462 61.14636
# Shear Modulus (GPa) = 19.41040 24.02923 21.71981
#
# Velocity S-wave (km/s) = 3.22863 3.59228 3.41530
# Velocity P-wave (km/s) = 6.80892 7.10061 6.95629
#
# Compressibility (1/GPa) = 0.01654312
#
# Stress axis : x y z
#
# Youngs Moduli (GPa) = 45.48046 93.01766 40.86640
#
# Poissons Ratio (x) = -0.08829 0.68094
# Poissons Ratio (y) = -0.04317 0.18876
# Poissons Ratio (z) = 0.75783 0.42965
#
# Static dielectric constant tensor:
#      x y z
#    x 3.319920 0.000000 0.000000 
#    y 0.000000 3.259400 0.000000 
#    z 0.000000 0.000000 3.156650 
# 
# 
# High freq. dielectric constant tensor:
#      x y z
#    x 1.724270 0.000000 0.000000 
#    y 0.000000 1.724930 0.000000 
#    z 0.000000 0.000000 1.700870 
# 
# From -- ./inp_files/14558.got.cif
#   From: 2010.03.12/outbox.cif.g09.slc.cpg/sg56_8_cif.got.tgz:14558.got - 2010.04.16 15:33:40.
