data_PCOD8228655
_publ_section_title
;
Structure prediction by ZEFSAII (Michael W. Deem and Ramdas Pophale) SiO2 
 PCOD8228655
Probable space group: P C C N
;
_chemical_formula_sum "Si O2"
_cell_formula_units_Z 40
_cell_length_a 5.136887
_cell_length_b 19.020352
_cell_length_c 18.843523
_cell_angle_alpha 90.000000
_cell_angle_beta 90.000000
_cell_angle_gamma 90.000000
_cell_volume 1841.113932
_symmetry_space_group_name_H-M "P C C N"
_symmetry_group_IT_number 56
_symmetry_cell_setting 'orthorhombic'
loop_
_space_group_symop_operation_xyz
x,y,z
1/2-x,1/2-y,z
1/2+x,-y,1/2-z
-x,1/2+y,1/2-z
-x,-y,-z
1/2+x,1/2+y,-z
1/2-x,y,1/2+z
x,1/2-y,1/2+z
loop_
_atom_site_type_symbol
_atom_site_label
_atom_site_fract_x
_atom_site_fract_y
_atom_site_fract_z
Si Si1 0.268014 0.670752 0.709008
Si Si2 0.765203 0.467965 0.716690
Si Si3 0.563190 0.582214 0.488042
Si Si4 0.263599 0.170829 0.382007
Si Si5 0.939444 0.054170 0.063976
O O1 0.250000 0.750000 0.739115
O O2 0.227596 0.615734 0.772686
O O3 0.559330 0.660262 0.680928
O O4 0.054210 0.655612 0.647236
O O5 0.489492 0.505120 0.730277
O O6 0.851000 0.484608 0.636045
O O7 0.500000 0.500000 0.500000
O O8 0.680751 0.617363 0.557336
O O9 0.782344 0.593103 0.426076
O O10 0.284222 0.610910 0.460200
O O11 0.250000 0.250000 0.412459
O O12 0.000000 0.000000 0.000000
#
# Coordination Sequence:
#
# PCOD8228655 Si02
#       5
#     8   8   8   8   8
#     4  10  23  41  64  91 130 169 218 272 329 384
#     4  12  26  40  66  98 131 171 225 272 324 394
#     4  10  21  35  61  86 128 162 205 257 330 372
#     4  10  21  39  64  94 123 171 222 268 320 399
#     4  10  23  39  58  93 131 166 202 261 335 371
#
# _framework density 21.725978999999999
#
# number of rings (size 3 to 8) (size 9 to 14) (size 15 to 20)
#    0.000    1.600    0.000    3.600   16.800    0.000 
#    0.000    2.000    0.000    0.000    0.000    0.000 
#    0.000    0.000    0.000    0.000    0.000    0.000 
#
# Total GULP energy -495557.679365 kJ/mol
# GULP energy per Si atom -12388.941984 kJ/mol
# Density = 2.167653 g / cm^3
# Si number density = 21.725979 Si / 1000 Ang^3
#
#
#
# Elastic Constant Matrix: (Units=GPa)
#
#
# Indices 1 2 3 4 5 6 
#
# 1 157.4019 15.8452 8.5706 0.0000 0.0000 0.0000
# 2 15.8452 102.8475 31.9532 0.0000 0.0000 0.0000
# 3 8.5706 31.9532 84.3086 0.0000 0.0000 0.0000
# 4 0.0000 0.0000 0.0000 29.5003 0.0000 0.0000
# 5 0.0000 0.0000 0.0000 0.0000 24.8411 0.0000
# 6 0.0000 0.0000 0.0000 0.0000 0.0000 26.0884
#
#
#
# Elastic Compliance Matrix: (Units=1/GPa)
#
#
# Indices 1 2 3 4 5 6 
#
# 1 0.006461 -0.000897 -0.000317 0.000000 0.000000 0.000000
# 2 -0.000897 0.011145 -0.004133 0.000000 0.000000 0.000000
# 3 -0.000317 -0.004133 0.013460 0.000000 0.000000 0.000000
# 4 0.000000 0.000000 0.000000 0.033898 0.000000 0.000000
# 5 0.000000 0.000000 0.000000 0.000000 0.040256 0.000000
# 6 0.000000 0.000000 0.000000 0.000000 0.000000 0.038331
#
#
# Mechanical properties :
#
#
# Convention : Reuss Voigt Hill
#
# Bulk Modulus (GPa) = 49.08592 50.81066 49.94829
# Shear Modulus (GPa) = 31.04914 35.29857 33.17386
#
# Velocity S-wave (km/s) = 3.78448 4.03515 3.91182
# Velocity P-wave (km/s) = 6.46054 6.71921 6.59114
#
# Compressibility (1/GPa) = 0.02037244
#
# Stress axis : x y z
#
# Youngs Moduli (GPa) = 154.78184 89.72341 74.29533
#
# Poissons Ratio (x) = 0.08048 0.02354
# Poissons Ratio (y) = 0.13883 0.30706
# Poissons Ratio (z) = 0.04904 0.37082
#
# Static dielectric constant tensor:
#      x y z
#    x 0.750500 0.000000 0.000000 
#    y 0.000000 3.929200 0.000000 
#    z 0.000000 0.000000 3.574440 
# 
# 
# High freq. dielectric constant tensor:
#      x y z
#    x 1.902450 0.000000 0.000000 
#    y 0.000000 1.825970 0.000000 
#    z 0.000000 0.000000 1.822760 
# 
# From -- ./inp_files/13818.got.cif
#   From: 2010.03.12/outbox.cif.g09.slc.cpg/sg56_7_cif.got.tgz:13818.got - 2010.04.16 15:33:40.
