data_PCOD8228529
_publ_section_title
;
Structure prediction by ZEFSAII (Michael W. Deem and Ramdas Pophale) SiO2 
 PCOD8228529
Probable space group: P C C N
;
_chemical_formula_sum "Si O2"
_cell_formula_units_Z 32
_cell_length_a 11.822684
_cell_length_b 7.863340
_cell_length_c 16.266297
_cell_angle_alpha 90.000000
_cell_angle_beta 90.000000
_cell_angle_gamma 90.000000
_cell_volume 1512.209053
_symmetry_space_group_name_H-M "P C C N"
_symmetry_group_IT_number 56
_symmetry_cell_setting 'orthorhombic'
loop_
_space_group_symop_operation_xyz
x,y,z
1/2-x,1/2-y,z
1/2+x,-y,1/2-z
-x,1/2+y,1/2-z
-x,-y,-z
1/2+x,1/2+y,-z
1/2-x,y,1/2+z
x,1/2-y,1/2+z
loop_
_atom_site_type_symbol
_atom_site_label
_atom_site_fract_x
_atom_site_fract_y
_atom_site_fract_z
Si Si1 0.116791 0.214825 0.715994
Si Si2 0.847692 0.987997 0.992534
Si Si3 0.989118 0.517358 0.640663
Si Si4 0.603982 0.592636 0.457896
O O1 0.250000 0.250000 0.721543
O O2 0.043682 0.381840 0.700999
O O3 0.094786 0.082682 0.641371
O O4 0.071912 0.156001 0.803850
O O5 0.910787 0.090744 0.918648
O O6 0.884253 0.789246 0.983923
O O7 0.714147 0.012587 0.986694
O O8 0.891754 0.058888 0.080062
O O9 0.500000 0.500000 0.500000
#
# Coordination Sequence:
#
# PCOD8228529 Si02
#       4
#     8   8   8   8
#     4  11  23  43  62  98 131 164 213 267 319 381
#     4   9  20  43  59  92 129 163 211 263 312 385
#     4  10  22  40  67  89 129 169 205 261 324 373
#     4  10  20  39  68  90 122 170 213 260 322 377
#
# _framework density 21.161095
#
# number of rings (size 3 to 8) (size 9 to 14) (size 15 to 20)
#    0.000    2.000    5.000    0.000    7.000    0.000 
#    0.000   20.000    0.000    0.000    0.000    0.000 
#    0.000    0.000    0.000    0.000    0.000    0.000 
#
# Total GULP energy -396534.180907 kJ/mol
# GULP energy per Si atom -12391.693153 kJ/mol
# Density = 2.111293 g / cm^3
# Si number density = 21.161095 Si / 1000 Ang^3
#
#
#
# Elastic Constant Matrix: (Units=GPa)
#
#
# Indices 1 2 3 4 5 6 
#
# 1 182.8902 35.5028 82.7162 0.0000 0.0000 0.0000
# 2 35.5028 21.9955 40.0383 0.0000 0.0000 0.0000
# 3 82.7162 40.0383 154.2284 0.0000 0.0000 0.0000
# 4 0.0000 0.0000 0.0000 14.6411 0.0000 0.0000
# 5 0.0000 0.0000 0.0000 0.0000 2.1817 0.0000
# 6 0.0000 0.0000 0.0000 0.0000 0.0000 35.8633
#
#
#
# Elastic Compliance Matrix: (Units=1/GPa)
#
#
# Indices 1 2 3 4 5 6 
#
# 1 0.008226 -0.009948 -0.001829 0.000000 0.000000 0.000000
# 2 -0.009948 0.098226 -0.020165 0.000000 0.000000 0.000000
# 3 -0.001829 -0.020165 0.012700 0.000000 0.000000 0.000000
# 4 0.000000 0.000000 0.000000 0.068301 0.000000 0.000000
# 5 0.000000 0.000000 0.000000 0.000000 0.458358 0.000000
# 6 0.000000 0.000000 0.000000 0.000000 0.000000 0.027884
#
#
# Mechanical properties :
#
#
# Convention : Reuss Voigt Hill
#
# Bulk Modulus (GPa) = 18.09345 75.06985 46.58165
# Shear Modulus (GPa) = 6.61374 23.92767 15.27070
#
# Velocity S-wave (km/s) = 1.76980 3.36629 2.68925
# Velocity P-wave (km/s) = 3.57004 7.11770 5.63058
#
# Compressibility (1/GPa) = 0.05526863
#
# Stress axis : x y z
#
# Youngs Moduli (GPa) = 121.56210 10.18055 78.74079
#
# Poissons Ratio (x) = 0.10127 0.14405
# Poissons Ratio (y) = 1.20928 1.58779
# Poissons Ratio (z) = 0.22239 0.20529
#
# Static dielectric constant tensor:
#      x y z
#    x 4.062710 0.000000 0.000000 
#    y 0.000000 3.428180 0.000000 
#    z 0.000000 0.000000 4.050390 
# 
# 
# High freq. dielectric constant tensor:
#      x y z
#    x 1.848050 0.000000 0.000000 
#    y 0.000000 1.785340 0.000000 
#    z 0.000000 0.000000 1.843730 
# 
# From -- ./inp_files/10045.got.cif
#   From: 2010.03.12/outbox.cif.g09.slc.cpg/sg56_6_cif.got.tgz:10045.got - 2010.04.16 15:33:40.
