data_PCOD8228113
_publ_section_title
;
Structure prediction by ZEFSAII (Michael W. Deem and Ramdas Pophale) SiO2 
 PCOD8228113
Probable space group: P C C N
;
_chemical_formula_sum "Si O2"
_cell_formula_units_Z 52
_cell_length_a 5.502031
_cell_length_b 21.416247
_cell_length_c 22.370444
_cell_angle_alpha 90.000000
_cell_angle_beta 90.000000
_cell_angle_gamma 90.000000
_cell_volume 2635.973282
_symmetry_space_group_name_H-M "P C C N"
_symmetry_group_IT_number 56
_symmetry_cell_setting 'orthorhombic'
loop_
_space_group_symop_operation_xyz
x,y,z
1/2-x,1/2-y,z
1/2+x,-y,1/2-z
-x,1/2+y,1/2-z
-x,-y,-z
1/2+x,1/2+y,-z
1/2-x,y,1/2+z
x,1/2-y,1/2+z
loop_
_atom_site_type_symbol
_atom_site_label
_atom_site_fract_x
_atom_site_fract_y
_atom_site_fract_z
Si Si1 0.021310 0.421299 0.234451
Si Si2 0.250000 0.250000 0.052724
Si Si3 0.500123 0.142562 0.114618
Si Si4 0.388992 0.577553 0.563484
Si Si5 0.524404 0.437578 0.301310
Si Si6 0.746440 0.550466 0.464960
Si Si7 0.382350 0.843165 0.476288
O O1 0.273438 0.412090 0.271387
O O2 0.022842 0.487664 0.201106
O O3 0.000271 0.366339 0.185553
O O4 0.774683 0.413195 0.272062
O O5 0.298377 0.192622 0.096620
O O6 0.460923 0.279888 0.010021
O O7 0.447882 0.076472 0.082936
O O8 0.746285 0.170425 0.086274
O O9 0.462478 0.588945 0.631725
O O10 0.632810 0.553851 0.531085
O O11 0.191928 0.520846 0.554947
O O12 0.293164 0.642348 0.533296
O O13 0.983466 0.592059 0.463876
#
# Coordination Sequence:
#
# PCOD8228113 Si02
#       7
#     8   4   8   8   8   8   8
#     4  10  22  37  57  88 123 167 200 251 294 372
#     4  10  22  38  58  88 114 148 208 264 316 348
#     4  10  20  37  59  86 116 152 205 253 314 354
#     4  10  19  34  53  87 124 161 193 238 308 380
#     4  10  22  36  57  87 128 164 203 238 306 372
#     4   9  19  32  54  87 121 154 191 238 304 373
#     4  10  21  34  58  87 118 156 196 262 308 369
#
# _framework density 19.727056999999999
#
# number of rings (size 3 to 8) (size 9 to 14) (size 15 to 20)
#    0.000    2.154    1.538    0.923    6.462    1.231 
#    0.000    0.000    0.000    0.923    8.000    0.000 
#    0.000    0.000    0.000    0.000    0.000    0.000 
#
# Total GULP energy -644225.292291 kJ/mol
# GULP energy per Si atom -12388.947929 kJ/mol
# Density = 1.968216 g / cm^3
# Si number density = 19.727057 Si / 1000 Ang^3
#
#
#
# Elastic Constant Matrix: (Units=GPa)
#
#
# Indices 1 2 3 4 5 6 
#
# 1 111.7485 22.6287 56.4078 0.0000 0.0000 0.0000
# 2 22.6287 73.4505 39.1507 0.0000 0.0000 0.0000
# 3 56.4078 39.1507 146.3502 0.0000 0.0000 0.0000
# 4 0.0000 0.0000 0.0000 18.8754 0.0000 0.0000
# 5 0.0000 0.0000 0.0000 0.0000 12.2987 0.0000
# 6 0.0000 0.0000 0.0000 0.0000 0.0000 29.3273
#
#
#
# Elastic Compliance Matrix: (Units=1/GPa)
#
#
# Indices 1 2 3 4 5 6 
#
# 1 0.011223 -0.001343 -0.003966 0.000000 0.000000 0.000000
# 2 -0.001343 0.016040 -0.003773 0.000000 0.000000 0.000000
# 3 -0.003966 -0.003773 0.009371 0.000000 0.000000 0.000000
# 4 0.000000 0.000000 0.000000 0.052979 0.000000 0.000000
# 5 0.000000 0.000000 0.000000 0.000000 0.081309 0.000000
# 6 0.000000 0.000000 0.000000 0.000000 0.000000 0.034098
#
#
# Mechanical properties :
#
#
# Convention : Reuss Voigt Hill
#
# Bulk Modulus (GPa) = 54.14773 63.10261 58.62517
# Shear Modulus (GPa) = 21.80160 26.32440 24.06300
#
# Velocity S-wave (km/s) = 3.32800 3.65695 3.49635
# Velocity P-wave (km/s) = 6.50196 7.06317 6.78837
#
# Compressibility (1/GPa) = 0.01846799
#
# Stress axis : x y z
#
# Youngs Moduli (GPa) = 89.10470 62.34569 106.71274
#
# Poissons Ratio (x) = 0.08376 0.42324
# Poissons Ratio (y) = 0.11971 0.40263
# Poissons Ratio (z) = 0.35341 0.23523
#
# Static dielectric constant tensor:
#      x y z
#    x 3.811680 0.000000 0.000000 
#    y 0.000000 3.615630 0.000000 
#    z 0.000000 0.000000 3.428310 
# 
# 
# High freq. dielectric constant tensor:
#      x y z
#    x 1.781250 0.000000 0.000000 
#    y 0.000000 1.744940 0.000000 
#    z 0.000000 0.000000 1.746780 
# 
# From -- ./inp_files/17562.got.cif
#   From: 2010.03.12/outbox.cif.g09.slc.cpg/sg56_9_cif.got.tgz:17562.got - 2010.04.16 15:33:40.
