data_PCOD8228060
_publ_section_title
;
Structure prediction by ZEFSAII (Michael W. Deem and Ramdas Pophale) SiO2 
 PCOD8228060
Probable space group: P C C N
;
_chemical_formula_sum "Si O2"
_cell_formula_units_Z 40
_cell_length_a 9.569817
_cell_length_b 22.886298
_cell_length_c 8.870552
_cell_angle_alpha 90.000000
_cell_angle_beta 90.000000
_cell_angle_gamma 90.000000
_cell_volume 1942.807752
_symmetry_space_group_name_H-M "P C C N"
_symmetry_group_IT_number 56
_symmetry_cell_setting 'orthorhombic'
loop_
_space_group_symop_operation_xyz
x,y,z
1/2-x,1/2-y,z
1/2+x,-y,1/2-z
-x,1/2+y,1/2-z
-x,-y,-z
1/2+x,1/2+y,-z
1/2-x,y,1/2+z
x,1/2-y,1/2+z
loop_
_atom_site_type_symbol
_atom_site_label
_atom_site_fract_x
_atom_site_fract_y
_atom_site_fract_z
Si Si1 0.579722 0.703677 0.424094
Si Si2 0.123602 0.313528 0.426478
Si Si3 0.832030 0.559566 0.507044
Si Si4 0.507423 0.007863 0.745634
Si Si5 0.502938 0.917771 0.986979
O O1 0.612507 0.702360 0.248383
O O2 0.717455 0.693321 0.522272
O O3 0.525759 0.768141 0.476590
O O4 0.472046 0.651362 0.466734
O O5 0.081402 0.380684 0.456650
O O6 0.869060 0.511850 0.634180
O O7 0.668507 0.570202 0.500643
O O8 0.878717 0.535884 0.344787
O O9 0.568758 0.056963 0.861455
O O10 0.447575 0.952997 0.841700
#
# Coordination Sequence:
#
# PCOD8228060 Si02
#       5
#     8   8   8   8   8
#     4  10  19  29  46  70  97 133 163 191 244 308
#     4  10  19  29  46  70  97 133 163 191 244 308
#     4  10  20  33  50  71 105 133 162 204 245 284
#     4  10  20  32  48  72  98 136 170 198 236 300
#     4  10  20  33  50  71 105 133 162 204 245 284
#
# _framework density 20.588756
#
# number of rings (size 3 to 8) (size 9 to 14) (size 15 to 20)
#    0.000    2.000    2.000    3.600   11.200    0.000 
#    0.000    0.000    0.000    0.000    0.000    0.000 
#    0.000  112.000    0.000    0.000    0.000    0.000 
#
# Total GULP energy -495644.473709 kJ/mol
# GULP energy per Si atom -12391.111843 kJ/mol
# Density = 2.054190 g / cm^3
# Si number density = 20.588756 Si / 1000 Ang^3
#
#
#
# Elastic Constant Matrix: (Units=GPa)
#
#
# Indices 1 2 3 4 5 6 
#
# 1 14.1708 13.9152 6.3354 0.0000 0.0000 0.0000
# 2 13.9152 151.7870 60.9379 0.0000 0.0000 0.0000
# 3 6.3354 60.9379 153.0055 0.0000 0.0000 0.0000
# 4 0.0000 0.0000 0.0000 32.8997 0.0000 0.0000
# 5 0.0000 0.0000 0.0000 0.0000 18.6101 0.0000
# 6 0.0000 0.0000 0.0000 0.0000 0.0000 22.5030
#
#
#
# Elastic Compliance Matrix: (Units=1/GPa)
#
#
# Indices 1 2 3 4 5 6 
#
# 1 0.077575 -0.006930 -0.000452 0.000000 0.000000 0.000000
# 2 -0.006930 0.008461 -0.003083 0.000000 0.000000 0.000000
# 3 -0.000452 -0.003083 0.007782 0.000000 0.000000 0.000000
# 4 0.000000 0.000000 0.000000 0.030395 0.000000 0.000000
# 5 0.000000 0.000000 0.000000 0.000000 0.053734 0.000000
# 6 0.000000 0.000000 0.000000 0.000000 0.000000 0.044439
#
#
# Mechanical properties :
#
#
# Convention : Reuss Voigt Hill
#
# Bulk Modulus (GPa) = 13.71965 53.48227 33.60096
# Shear Modulus (GPa) = 18.68370 30.65423 24.66896
#
# Velocity S-wave (km/s) = 3.01569 3.86279 3.46522
# Velocity P-wave (km/s) = 4.33636 6.77700 5.68910
#
# Compressibility (1/GPa) = 0.07288815
#
# Stress axis : x y z
#
# Youngs Moduli (GPa) = 12.89074 118.18634 128.49728
#
# Poissons Ratio (x) = 0.81907 0.05808
# Poissons Ratio (y) = 0.08934 0.39615
# Poissons Ratio (z) = 0.00583 0.36436
#
# Static dielectric constant tensor:
#      x y z
#    x 2.957110 0.000000 0.000000 
#    y 0.000000 5.231330 0.000000 
#    z 0.000000 0.000000 4.022630 
# 
# 
# High freq. dielectric constant tensor:
#      x y z
#    x 1.711000 0.000000 0.000000 
#    y 0.000000 1.828570 0.000000 
#    z 0.000000 0.000000 1.833140 
# 
# From -- ./inp_files/2693.got.cif
#   From: 2010.03.12/outbox.cif.g09.slc.cpg/sg56_2_cif.got.tgz:2693.got - 2010.04.16 15:33:40.
