data_PCOD8228827
_publ_section_title
;
Structure prediction by ZEFSAII (Michael W. Deem and Ramdas Pophale) SiO2 
 PCOD8228827
Probable space group: P C C N
;
_chemical_formula_sum "Si O2"
_cell_formula_units_Z 32
_cell_length_a 9.105412
_cell_length_b 7.854475
_cell_length_c 17.997759
_cell_angle_alpha 90.000000
_cell_angle_beta 90.000000
_cell_angle_gamma 90.000000
_cell_volume 1287.167884
_symmetry_space_group_name_H-M "P C C N"
_symmetry_group_IT_number 56
_symmetry_cell_setting 'orthorhombic'
loop_
_space_group_symop_operation_xyz
x,y,z
1/2-x,1/2-y,z
1/2+x,-y,1/2-z
-x,1/2+y,1/2-z
-x,-y,-z
1/2+x,1/2+y,-z
1/2-x,y,1/2+z
x,1/2-y,1/2+z
loop_
_atom_site_type_symbol
_atom_site_label
_atom_site_fract_x
_atom_site_fract_y
_atom_site_fract_z
Si Si1 0.086344 0.931879 0.892531
Si Si2 0.909138 0.523611 0.143568
Si Si3 0.089305 0.234382 0.218996
Si Si4 0.076110 0.255331 0.988975
O O1 0.993220 0.928535 0.816757
O O2 0.255737 0.926524 0.869594
O O3 0.038659 0.092946 0.939101
O O4 0.030539 0.759111 0.938555
O O5 0.895143 0.699261 0.192119
O O6 0.968153 0.580240 0.061669
O O7 0.008603 0.406211 0.194848
O O8 0.250000 0.250000 0.183922
O O9 0.250000 0.250000 0.009553
#
# Coordination Sequence:
#
# PCOD8228827 Si02
#       4
#     8   8   8   8
#     4  10  21  40  68  98 133 172 217 275 335 400
#     4  11  23  42  67  94 131 177 227 277 333 400
#     4  12  24  40  63  94 132 175 226 282 337 395
#     4   9  19  40  68  99 133 173 218 272 337 402
#
# _framework density 24.860783000000001
#
# number of rings (size 3 to 8) (size 9 to 14) (size 15 to 20)
#    0.000    1.500    0.000    6.750    0.000    1.000 
#    0.000    8.750    0.000    0.000    0.000    0.000 
#    0.000    0.000    0.000    0.000    0.000    0.000 
#
# Total GULP energy -396506.312085 kJ/mol
# GULP energy per Si atom -12390.822253 kJ/mol
# Density = 2.480420 g / cm^3
# Si number density = 24.860783 Si / 1000 Ang^3
#
#
#
# Elastic Constant Matrix: (Units=GPa)
#
#
# Indices 1 2 3 4 5 6 
#
# 1 148.1275 33.3862 71.8052 0.0000 0.0000 0.0000
# 2 33.3862 54.9451 35.6259 0.0000 0.0000 0.0000
# 3 71.8052 35.6259 152.3612 0.0000 0.0000 0.0000
# 4 0.0000 0.0000 0.0000 26.0551 0.0000 0.0000
# 5 0.0000 0.0000 0.0000 0.0000 27.3355 0.0000
# 6 0.0000 0.0000 0.0000 0.0000 0.0000 38.2475
#
#
#
# Elastic Compliance Matrix: (Units=1/GPa)
#
#
# Indices 1 2 3 4 5 6 
#
# 1 0.009227 -0.003285 -0.003580 0.000000 0.000000 0.000000
# 2 -0.003285 0.022622 -0.003741 0.000000 0.000000 0.000000
# 3 -0.003580 -0.003741 0.009126 0.000000 0.000000 0.000000
# 4 0.000000 0.000000 0.000000 0.038380 0.000000 0.000000
# 5 0.000000 0.000000 0.000000 0.000000 0.036582 0.000000
# 6 0.000000 0.000000 0.000000 0.000000 0.000000 0.026146
#
#
# Mechanical properties :
#
#
# Convention : Reuss Voigt Hill
#
# Bulk Modulus (GPa) = 50.60523 70.78537 60.69530
# Shear Modulus (GPa) = 29.43199 32.63539 31.03369
#
# Velocity S-wave (km/s) = 3.44448 3.62709 3.53696
# Velocity P-wave (km/s) = 6.01821 6.78790 6.41461
#
# Compressibility (1/GPa) = 0.01976080
#
# Stress axis : x y z
#
# Youngs Moduli (GPa) = 108.37810 44.20483 109.58244
#
# Poissons Ratio (x) = 0.14522 0.39235
# Poissons Ratio (y) = 0.35603 0.40999
# Poissons Ratio (z) = 0.38803 0.16539
#
# Static dielectric constant tensor:
#      x y z
#    x 4.366790 0.000000 0.000000 
#    y 0.000000 4.530450 0.000000 
#    z 0.000000 0.000000 4.989560 
# 
# 
# High freq. dielectric constant tensor:
#      x y z
#    x 1.970680 0.000000 0.000000 
#    y 0.000000 2.009400 0.000000 
#    z 0.000000 0.000000 2.016600 
# 
# From -- ./inp_files/17771.got.cif
#   From: 2010.03.12/outbox.cif.g09.slc.cpg/sg56_9_cif.got.tgz:17771.got - 2010.04.16 15:33:40.
