data_PCOD8228926
_publ_section_title
;
Structure prediction by ZEFSAII (Michael W. Deem and Ramdas Pophale) SiO2 
 PCOD8228926
Probable space group: P C C N
;
_chemical_formula_sum "Si O2"
_cell_formula_units_Z 44
_cell_length_a 13.410099
_cell_length_b 5.434073
_cell_length_c 26.057519
_cell_angle_alpha 90.000000
_cell_angle_beta 90.000000
_cell_angle_gamma 90.000000
_cell_volume 1898.849373
_symmetry_space_group_name_H-M "P C C N"
_symmetry_group_IT_number 56
_symmetry_cell_setting 'orthorhombic'
loop_
_space_group_symop_operation_xyz
x,y,z
1/2-x,1/2-y,z
1/2+x,-y,1/2-z
-x,1/2+y,1/2-z
-x,-y,-z
1/2+x,1/2+y,-z
1/2-x,y,1/2+z
x,1/2-y,1/2+z
loop_
_atom_site_type_symbol
_atom_site_label
_atom_site_fract_x
_atom_site_fract_y
_atom_site_fract_z
Si Si1 0.104214 0.643872 0.279232
Si Si2 0.604982 0.124498 0.007866
Si Si3 0.876759 0.853977 0.765397
Si Si4 0.643969 0.122696 0.607323
Si Si5 0.250000 0.250000 0.139401
Si Si6 0.250000 0.750000 0.573780
Si Si7 0.250000 0.250000 0.947701
O O1 0.164258 0.393557 0.263402
O O2 0.085043 0.647437 0.340141
O O3 0.994665 0.638975 0.255075
O O4 0.163428 0.887640 0.259158
O O5 0.582078 0.270046 0.059932
O O6 0.700540 0.948228 0.015190
O O7 0.647079 0.285707 0.959975
O O8 0.500000 0.000000 0.000000
O O9 0.844850 0.817969 0.824546
O O10 0.750000 0.250000 0.614249
O O11 0.663006 0.842384 0.590478
O O12 0.232673 0.498940 0.106492
#
# Coordination Sequence:
#
# PCOD8228926 Si02
#       7
#     8   8   8   8   4   4   4
#     4  10  23  42  67  96 136 170 228 286 345 415
#     4  11  25  45  70  99 143 187 232 291 356 416
#     4  10  24  44  63  97 133 176 226 286 340 423
#     4  10  23  39  67 100 130 175 227 284 343 419
#     4  12  27  43  72  94 140 186 231 285 358 414
#     4  12  26  48  66 104 144 182 244 296 332 442
#     4  10  21  45  62 102 144 164 243 285 336 428
#
# _framework density 23.171927
#
# number of rings (size 3 to 8) (size 9 to 14) (size 15 to 20)
#    0.000    1.455    2.727    1.636   10.182    2.182 
#    0.000    0.000    0.000    0.000    0.000    0.000 
#    0.000    0.000    0.000    0.000    0.000    0.000 
#
# Total GULP energy -545098.266879 kJ/mol
# GULP energy per Si atom -12388.596975 kJ/mol
# Density = 2.311919 g / cm^3
# Si number density = 23.171927 Si / 1000 Ang^3
#
#
#
# Elastic Constant Matrix: (Units=GPa)
#
#
# Indices 1 2 3 4 5 6 
#
# 1 46.2911 28.9768 19.2811 0.0000 0.0000 0.0000
# 2 28.9768 181.9136 75.6079 0.0000 0.0000 0.0000
# 3 19.2811 75.6079 164.1852 0.0000 0.0000 0.0000
# 4 0.0000 0.0000 0.0000 29.3773 0.0000 0.0000
# 5 0.0000 0.0000 0.0000 0.0000 17.1249 0.0000
# 6 0.0000 0.0000 0.0000 0.0000 0.0000 30.2906
#
#
#
# Elastic Compliance Matrix: (Units=1/GPa)
#
#
# Indices 1 2 3 4 5 6 
#
# 1 0.024224 -0.003310 -0.001321 0.000000 0.000000 0.000000
# 2 -0.003310 0.007251 -0.002950 0.000000 0.000000 0.000000
# 3 -0.001321 -0.002950 0.007604 0.000000 0.000000 0.000000
# 4 0.000000 0.000000 0.000000 0.034040 0.000000 0.000000
# 5 0.000000 0.000000 0.000000 0.000000 0.058394 0.000000
# 6 0.000000 0.000000 0.000000 0.000000 0.000000 0.033014
#
#
# Mechanical properties :
#
#
# Convention : Reuss Voigt Hill
#
# Bulk Modulus (GPa) = 41.80956 71.12463 56.46709
# Shear Modulus (GPa) = 26.64380 33.26016 29.95198
#
# Velocity S-wave (km/s) = 3.39459 3.79273 3.59917
# Velocity P-wave (km/s) = 5.78331 7.06687 6.45707
#
# Compressibility (1/GPa) = 0.02391798
#
# Stress axis : x y z
#
# Youngs Moduli (GPa) = 41.28079 137.92141 131.50367
#
# Poissons Ratio (x) = 0.45649 0.17367
# Poissons Ratio (y) = 0.13663 0.38796
# Poissons Ratio (z) = 0.05452 0.40690
#
# Static dielectric constant tensor:
#      x y z
#    x 3.843530 0.000000 0.000000 
#    y 0.000000 4.696510 0.000000 
#    z 0.000000 0.000000 4.286720 
# 
# 
# High freq. dielectric constant tensor:
#      x y z
#    x 1.904010 0.000000 0.000000 
#    y 0.000000 1.933830 0.000000 
#    z 0.000000 0.000000 1.917670 
# 
# From -- ./inp_files/22408.got.cif
#   From: 2010.03.12/outbox.cif.g09.slc.cpg/sg56_12_cif.got.tgz:22408.got - 2010.04.16 15:33:40.
