data_PCOD8228406
_publ_section_title
;
Structure prediction by ZEFSAII (Michael W. Deem and Ramdas Pophale) SiO2 
 PCOD8228406
Probable space group: P C C N
;
_chemical_formula_sum "Si O2"
_cell_formula_units_Z 32
_cell_length_a 11.395140
_cell_length_b 24.008923
_cell_length_c 5.116182
_cell_angle_alpha 90.000000
_cell_angle_beta 90.000000
_cell_angle_gamma 90.000000
_cell_volume 1399.710851
_symmetry_space_group_name_H-M "P C C N"
_symmetry_group_IT_number 56
_symmetry_cell_setting 'orthorhombic'
loop_
_space_group_symop_operation_xyz
x,y,z
1/2-x,1/2-y,z
1/2+x,-y,1/2-z
-x,1/2+y,1/2-z
-x,-y,-z
1/2+x,1/2+y,-z
1/2-x,y,1/2+z
x,1/2-y,1/2+z
loop_
_atom_site_type_symbol
_atom_site_label
_atom_site_fract_x
_atom_site_fract_y
_atom_site_fract_z
Si Si1 0.315214 0.914066 0.211647
Si Si2 0.378462 0.225395 0.639048
Si Si3 0.420030 0.099149 0.641562
Si Si4 0.386795 0.469409 0.615795
O O1 0.234122 0.889412 0.441378
O O2 0.448523 0.895103 0.249167
O O3 0.298671 0.981626 0.202349
O O4 0.250000 0.250000 0.701007
O O5 0.446116 0.257661 0.405623
O O6 0.368531 0.159817 0.589350
O O7 0.421400 0.065605 0.371637
O O8 0.340198 0.069810 0.873137
O O9 0.500000 0.500000 0.500000
#
# Coordination Sequence:
#
# PCOD8228406 Si02
#       4
#     8   8   8   8
#     4  11  21  36  55  90 125 154 204 249 291 382
#     4  10  22  42  61  87 118 149 213 265 305 370
#     4  11  21  39  64  81 122 175 195 255 331 351
#     4  10  20  37  57  87 122 164 207 239 304 384
#
# _framework density 22.861863
#
# number of rings (size 3 to 8) (size 9 to 14) (size 15 to 20)
#    0.000    1.500    0.000    9.000    0.000    0.000 
#   27.000    0.000    0.000    4.500    0.000    0.000 
#    0.000    0.000    0.000    0.000    0.000    0.000 
#
# Total GULP energy -396624.949669 kJ/mol
# GULP energy per Si atom -12394.529677 kJ/mol
# Density = 2.280983 g / cm^3
# Si number density = 22.861863 Si / 1000 Ang^3
#
#
#
# Elastic Constant Matrix: (Units=GPa)
#
#
# Indices 1 2 3 4 5 6 
#
# 1 42.4151 6.6930 -3.7198 0.0000 0.0000 0.0000
# 2 6.6930 101.3477 27.6008 0.0000 0.0000 0.0000
# 3 -3.7198 27.6008 188.9884 0.0000 0.0000 0.0000
# 4 0.0000 0.0000 0.0000 36.4540 0.0000 0.0000
# 5 0.0000 0.0000 0.0000 0.0000 8.7501 0.0000
# 6 0.0000 0.0000 0.0000 0.0000 0.0000 24.8319
#
#
#
# Elastic Compliance Matrix: (Units=1/GPa)
#
#
# Indices 1 2 3 4 5 6 
#
# 1 0.023921 -0.001779 0.000731 0.000000 0.000000 0.000000
# 2 -0.001779 0.010408 -0.001555 0.000000 0.000000 0.000000
# 3 0.000731 -0.001555 0.005533 0.000000 0.000000 0.000000
# 4 0.000000 0.000000 0.000000 0.027432 0.000000 0.000000
# 5 0.000000 0.000000 0.000000 0.000000 0.114285 0.000000
# 6 0.000000 0.000000 0.000000 0.000000 0.000000 0.040271
#
#
# Mechanical properties :
#
#
# Convention : Reuss Voigt Hill
#
# Bulk Modulus (GPa) = 28.85526 43.76659 36.31093
# Shear Modulus (GPa) = 20.95490 34.15232 27.55361
#
# Velocity S-wave (km/s) = 3.03080 3.86924 3.47540
# Velocity P-wave (km/s) = 4.98966 6.25674 5.65878
#
# Compressibility (1/GPa) = 0.03465572
#
# Stress axis : x y z
#
# Youngs Moduli (GPa) = 41.80381 96.08002 180.73973
#
# Poissons Ratio (x) = 0.17090 -0.13205
# Poissons Ratio (y) = 0.07436 0.28106
# Poissons Ratio (z) = -0.03054 0.14941
#
# Static dielectric constant tensor:
#      x y z
#    x 3.857640 0.000000 0.000000 
#    y 0.000000 3.980740 0.000000 
#    z 0.000000 0.000000 5.146290 
# 
# 
# High freq. dielectric constant tensor:
#      x y z
#    x 1.871090 0.000000 0.000000 
#    y 0.000000 1.871940 0.000000 
#    z 0.000000 0.000000 1.947620 
# 
# From -- ./inp_files/226.got.cif
#   From: 2010.03.12/outbox.cif.g09.slc.cpg/sg56_1_cif.got.tgz:226.got - 2010.04.16 15:33:40.
