data_PCOD8228059
_publ_section_title
;
Structure prediction by ZEFSAII (Michael W. Deem and Ramdas Pophale) SiO2 
 PCOD8228059
Probable space group: P C C N
;
_chemical_formula_sum "Si O2"
_cell_formula_units_Z 60
_cell_length_a 16.027211
_cell_length_b 23.370462
_cell_length_c 9.227794
_cell_angle_alpha 90.000000
_cell_angle_beta 90.000000
_cell_angle_gamma 90.000000
_cell_volume 3456.393209
_symmetry_space_group_name_H-M "P C C N"
_symmetry_group_IT_number 56
_symmetry_cell_setting 'orthorhombic'
loop_
_space_group_symop_operation_xyz
x,y,z
1/2-x,1/2-y,z
1/2+x,-y,1/2-z
-x,1/2+y,1/2-z
-x,-y,-z
1/2+x,1/2+y,-z
1/2-x,y,1/2+z
x,1/2-y,1/2+z
loop_
_atom_site_type_symbol
_atom_site_label
_atom_site_fract_x
_atom_site_fract_y
_atom_site_fract_z
Si Si1 0.734121 0.452614 0.369083
Si Si2 0.815521 0.674829 0.946927
Si Si3 0.250000 0.250000 0.806510
Si Si4 0.939962 0.957696 0.729614
Si Si5 0.401360 0.017006 0.283474
Si Si6 0.859209 0.427434 0.143575
Si Si7 0.968058 0.600225 0.943413
Si Si8 0.814531 0.570827 0.457220
O O1 0.667204 0.468047 0.244570
O O2 0.806070 0.414717 0.289667
O O3 0.695266 0.415741 0.499378
O O4 0.769128 0.511063 0.434821
O O5 0.800192 0.706785 0.795840
O O6 0.911461 0.656261 0.938296
O O7 0.750491 0.622602 0.968606
O O8 0.811553 0.715557 0.087008
O O9 0.983926 0.918263 0.609354
O O10 0.878764 0.918062 0.825348
O O11 0.885796 0.006039 0.648383
O O12 0.011953 0.986134 0.831125
O O13 0.418244 0.049095 0.133248
O O14 0.369156 0.064439 0.396878
O O15 0.942614 0.388228 0.134621
#
# Coordination Sequence:
#
# PCOD8228059 Si02
#       8
#     8   8   4   8   8   8   8   8
#     4  11  18  29  45  68 103 136 172 194 224 271
#     4  11  21  37  54  72  97 126 169 210 261 309
#     4  10  24  38  54  74  94 124 158 228 272 298
#     4  10  19  29  44  69 100 136 178 203 225 266
#     4  11  18  29  42  68 105 135 173 207 220 270
#     4  10  19  30  44  67  98 138 165 202 229 269
#     4  11  19  32  50  68  94 133 174 201 243 297
#     4  11  21  29  49  70  96 142 173 198 238 293
#
# _framework density 17.359135999999999
#
# number of rings (size 3 to 8) (size 9 to 14) (size 15 to 20)
#    0.000    1.333    5.333    2.800    1.867    0.000 
#    0.000    0.000    0.000    0.000    0.000    0.000 
#    0.000    3.200    0.000    0.000    0.000    0.000 
#
# Total GULP energy -743748.735189 kJ/mol
# GULP energy per Si atom -12395.812253 kJ/mol
# Density = 1.731963 g / cm^3
# Si number density = 17.359136 Si / 1000 Ang^3
#
#
#
# Elastic Constant Matrix: (Units=GPa)
#
#
# Indices 1 2 3 4 5 6 
#
# 1 118.5583 37.2071 52.9369 0.0000 0.0000 0.0000
# 2 37.2071 46.9726 27.0752 0.0000 0.0000 0.0000
# 3 52.9369 27.0752 92.9801 0.0000 0.0000 0.0000
# 4 0.0000 0.0000 0.0000 16.6839 0.0000 0.0000
# 5 0.0000 0.0000 0.0000 0.0000 29.5760 0.0000
# 6 0.0000 0.0000 0.0000 0.0000 0.0000 17.1903
#
#
#
# Elastic Compliance Matrix: (Units=1/GPa)
#
#
# Indices 1 2 3 4 5 6 
#
# 1 0.013111 -0.007310 -0.005336 0.000000 0.000000 0.000000
# 2 -0.007310 0.029658 -0.004475 0.000000 0.000000 0.000000
# 3 -0.005336 -0.004475 0.015096 0.000000 0.000000 0.000000
# 4 0.000000 0.000000 0.000000 0.059938 0.000000 0.000000
# 5 0.000000 0.000000 0.000000 0.000000 0.033811 0.000000
# 6 0.000000 0.000000 0.000000 0.000000 0.000000 0.058172
#
#
# Mechanical properties :
#
#
# Convention : Reuss Voigt Hill
#
# Bulk Modulus (GPa) = 42.32880 54.77213 48.55046
# Shear Modulus (GPa) = 19.84892 22.10950 20.97921
#
# Velocity S-wave (km/s) = 3.38513 3.57270 3.48018
# Velocity P-wave (km/s) = 6.30206 6.97422 6.64664
#
# Compressibility (1/GPa) = 0.02362458
#
# Stress axis : x y z
#
# Youngs Moduli (GPa) = 76.27007 33.71752 66.24245
#
# Poissons Ratio (x) = 0.24646 0.35348
# Poissons Ratio (y) = 0.55751 0.29641
# Poissons Ratio (z) = 0.40699 0.15087
#
# Static dielectric constant tensor:
#      x y z
#    x 3.517450 0.000000 0.000000 
#    y 0.000000 2.779490 0.000000 
#    z 0.000000 0.000000 3.361960 
# 
# 
# High freq. dielectric constant tensor:
#      x y z
#    x 1.681070 0.000000 0.000000 
#    y 0.000000 1.593640 0.000000 
#    z 0.000000 0.000000 1.687380 
# 
# From -- ./inp_files/3672.got.cif
#   From: 2010.03.12/outbox.cif.g09.slc.cpg/sg56_2_cif.got.tgz:3672.got - 2010.04.16 15:33:40.
