data_PCOD8228708
_publ_section_title
;
Structure prediction by ZEFSAII (Michael W. Deem and Ramdas Pophale) SiO2 
 PCOD8228708
Probable space group: P C C N
;
_chemical_formula_sum "Si O2"
_cell_formula_units_Z 64
_cell_length_a 12.916889
_cell_length_b 28.438566
_cell_length_c 8.862534
_cell_angle_alpha 90.000000
_cell_angle_beta 90.000000
_cell_angle_gamma 90.000000
_cell_volume 3255.543745
_symmetry_space_group_name_H-M "P C C N"
_symmetry_group_IT_number 56
_symmetry_cell_setting 'orthorhombic'
loop_
_space_group_symop_operation_xyz
x,y,z
1/2-x,1/2-y,z
1/2+x,-y,1/2-z
-x,1/2+y,1/2-z
-x,-y,-z
1/2+x,1/2+y,-z
1/2-x,y,1/2+z
x,1/2-y,1/2+z
loop_
_atom_site_type_symbol
_atom_site_label
_atom_site_fract_x
_atom_site_fract_y
_atom_site_fract_z
Si Si1 0.853806 0.777306 0.768101
Si Si2 0.853484 0.339072 0.052505
Si Si3 0.031421 0.575395 0.057535
Si Si4 0.138455 0.386341 0.732612
Si Si5 0.683380 0.205251 0.356847
Si Si6 0.620280 0.522238 0.351009
Si Si7 0.206405 0.439461 0.446553
Si Si8 0.005854 0.258551 0.987633
O O1 0.750000 0.750000 0.814029
O O2 0.837562 0.832109 0.797006
O O3 0.884852 0.765289 0.597383
O O4 0.958041 0.760318 0.851542
O O5 0.838997 0.333152 0.229976
O O6 0.876085 0.392873 0.008971
O O7 0.745932 0.321684 0.984565
O O8 0.950863 0.308760 0.997251
O O9 0.077558 0.530100 0.138948
O O10 0.970637 0.604480 0.186007
O O11 0.960257 0.560483 0.916093
O O12 0.137724 0.410932 0.567807
O O13 0.228183 0.404244 0.842931
O O14 0.750000 0.250000 0.295218
O O15 0.572984 0.220617 0.420813
O O16 0.636806 0.531438 0.172432
O O17 0.722889 0.525212 0.454788
#
# Coordination Sequence:
#
# PCOD8228708 Si02
#       8
#     8   8   8   8   8   8   8   8
#     4  12  26  38  59  90 124 165 206 247 298 357
#     4  11  22  38  61  86 116 156 204 247 299 358
#     4  10  21  38  60  88 120 152 195 256 307 364
#     4  10  22  38  59  84 119 158 200 246 301 357
#     4  10  22  39  61  83 115 160 199 242 299 353
#     4   9  20  39  61  86 118 155 195 247 317 366
#     4   9  20  39  61  84 115 159 200 245 302 379
#     4  11  23  41  58  85 123 162 199 250 296 354
#
# _framework density 19.658774000000001
#
# number of rings (size 3 to 8) (size 9 to 14) (size 15 to 20)
#    0.000    1.750    2.500    1.500    5.250    3.500 
#    0.000    0.000    0.000    0.000    0.000    0.000 
#    0.000    0.000    0.000    0.000    0.000    0.000 
#
# Total GULP energy -793544.986799 kJ/mol
# GULP energy per Si atom -12399.140419 kJ/mol
# Density = 1.961403 g / cm^3
# Si number density = 19.658774 Si / 1000 Ang^3
#
#
#
# Elastic Constant Matrix: (Units=GPa)
#
#
# Indices 1 2 3 4 5 6 
#
# 1 72.1744 25.9624 23.7353 0.0000 0.0000 0.0000
# 2 25.9624 89.7689 24.7798 0.0000 0.0000 0.0000
# 3 23.7353 24.7798 88.1583 0.0000 0.0000 0.0000
# 4 0.0000 0.0000 0.0000 18.3313 0.0000 0.0000
# 5 0.0000 0.0000 0.0000 0.0000 28.0292 0.0000
# 6 0.0000 0.0000 0.0000 0.0000 0.0000 25.1846
#
#
#
# Elastic Compliance Matrix: (Units=1/GPa)
#
#
# Indices 1 2 3 4 5 6 
#
# 1 0.016316 -0.003801 -0.003324 0.000000 0.000000 0.000000
# 2 -0.003801 0.012962 -0.002620 0.000000 0.000000 0.000000
# 3 -0.003324 -0.002620 0.012975 0.000000 0.000000 0.000000
# 4 0.000000 0.000000 0.000000 0.054551 0.000000 0.000000
# 5 0.000000 0.000000 0.000000 0.000000 0.035677 0.000000
# 6 0.000000 0.000000 0.000000 0.000000 0.000000 0.039707
#
#
# Mechanical properties :
#
#
# Convention : Reuss Voigt Hill
#
# Bulk Modulus (GPa) = 43.93331 44.33960 44.13646
# Shear Modulus (GPa) = 25.09201 26.01731 25.55466
#
# Velocity S-wave (km/s) = 3.57652 3.64187 3.60934
# Velocity P-wave (km/s) = 6.28106 6.34727 6.31425
#
# Compressibility (1/GPa) = 0.02276177
#
# Stress axis : x y z
#
# Youngs Moduli (GPa) = 61.28981 77.14677 77.07291
#
# Poissons Ratio (x) = 0.29324 0.25622
# Poissons Ratio (y) = 0.23297 0.20194
# Poissons Ratio (z) = 0.20375 0.20213
#
# Static dielectric constant tensor:
#      x y z
#    x 3.514500 0.000000 0.000000 
#    y 0.000000 3.390720 0.000000 
#    z 0.000000 0.000000 3.654670 
# 
# 
# High freq. dielectric constant tensor:
#      x y z
#    x 1.764000 0.000000 0.000000 
#    y 0.000000 1.755440 0.000000 
#    z 0.000000 0.000000 1.776440 
# 
# From -- ./inp_files/2955.got.cif
#   From: 2010.03.12/outbox.cif.g09.slc.cpg/sg56_2_cif.got.tgz:2955.got - 2010.04.16 15:33:40.
