data_PCOD8228580
_publ_section_title
;
Structure prediction by ZEFSAII (Michael W. Deem and Ramdas Pophale) SiO2 
 PCOD8228580
Probable space group: P C C N
;
_chemical_formula_sum "Si O2"
_cell_formula_units_Z 36
_cell_length_a 16.302181
_cell_length_b 7.691443
_cell_length_c 14.852677
_cell_angle_alpha 90.000000
_cell_angle_beta 90.000000
_cell_angle_gamma 90.000000
_cell_volume 1862.337006
_symmetry_space_group_name_H-M "P C C N"
_symmetry_group_IT_number 56
_symmetry_cell_setting 'orthorhombic'
loop_
_space_group_symop_operation_xyz
x,y,z
1/2-x,1/2-y,z
1/2+x,-y,1/2-z
-x,1/2+y,1/2-z
-x,-y,-z
1/2+x,1/2+y,-z
1/2-x,y,1/2+z
x,1/2-y,1/2+z
loop_
_atom_site_type_symbol
_atom_site_label
_atom_site_fract_x
_atom_site_fract_y
_atom_site_fract_z
Si Si1 0.837708 0.832352 0.618859
Si Si2 0.111506 0.901548 0.251116
Si Si3 0.316554 0.107053 0.082239
Si Si4 0.436220 0.233896 0.223067
Si Si5 0.750000 0.250000 0.866549
O O1 0.750000 0.750000 0.637292
O O2 0.857027 0.841414 0.513036
O O3 0.904424 0.713568 0.672845
O O4 0.840401 0.027406 0.660427
O O5 0.170593 0.780286 0.194406
O O6 0.032885 0.793503 0.283143
O O7 0.081775 0.067561 0.191483
O O8 0.250000 0.250000 0.112868
O O9 0.388417 0.102184 0.156707
O O10 0.271704 0.919534 0.073877
#
# Coordination Sequence:
#
# PCOD8228580 Si02
#       5
#     8   8   8   8   4
#     4   9  21  39  65  90 127 171 205 266 316 373
#     4  10  22  38  64  90 126 170 208 260 319 376
#     4  11  21  41  66  92 132 165 215 264 318 376
#     4  10  20  41  60  93 128 168 203 268 318 369
#     4  12  22  38  66  92 120 180 214 254 322 380
#
# _framework density 19.330549000000001
#
# number of rings (size 3 to 8) (size 9 to 14) (size 15 to 20)
#    1.333    0.444    2.222    3.333    0.000    1.778 
#    0.000    3.333    0.000    0.000    0.000    0.000 
#    0.000    0.000    0.000    0.000    0.000    0.000 
#
# Total GULP energy -446129.302646 kJ/mol
# GULP energy per Si atom -12392.480629 kJ/mol
# Density = 1.928655 g / cm^3
# Si number density = 19.330549 Si / 1000 Ang^3
#
#
#
# Elastic Constant Matrix: (Units=GPa)
#
#
# Indices 1 2 3 4 5 6 
#
# 1 117.9019 43.4568 55.7826 0.0000 0.0000 0.0000
# 2 43.4568 91.3571 23.8398 0.0000 0.0000 0.0000
# 3 55.7826 23.8398 111.7551 0.0000 0.0000 0.0000
# 4 0.0000 0.0000 0.0000 7.0680 0.0000 0.0000
# 5 0.0000 0.0000 0.0000 0.0000 5.9255 0.0000
# 6 0.0000 0.0000 0.0000 0.0000 0.0000 40.6633
#
#
#
# Elastic Compliance Matrix: (Units=1/GPa)
#
#
# Indices 1 2 3 4 5 6 
#
# 1 0.012736 -0.004659 -0.005364 0.000000 0.000000 0.000000
# 2 -0.004659 0.013295 -0.000511 0.000000 0.000000 0.000000
# 3 -0.005364 -0.000511 0.011734 0.000000 0.000000 0.000000
# 4 0.000000 0.000000 0.000000 0.141483 0.000000 0.000000
# 5 0.000000 0.000000 0.000000 0.000000 0.168761 0.000000
# 6 0.000000 0.000000 0.000000 0.000000 0.000000 0.024592
#
#
# Mechanical properties :
#
#
# Convention : Reuss Voigt Hill
#
# Bulk Modulus (GPa) = 59.88060 63.01918 61.44989
# Shear Modulus (GPa) = 12.52393 23.92701 18.22547
#
# Velocity S-wave (km/s) = 2.54812 3.52203 3.07389
# Velocity P-wave (km/s) = 6.30092 7.01507 6.66756
#
# Compressibility (1/GPa) = 0.01669990
#
# Stress axis : x y z
#
# Youngs Moduli (GPa) = 78.51468 75.21358 85.22006
#
# Poissons Ratio (x) = 0.35041 0.45708
# Poissons Ratio (y) = 0.36579 0.04353
# Poissons Ratio (z) = 0.42112 0.03841
#
# Static dielectric constant tensor:
#      x y z
#    x 3.411860 0.000000 0.000000 
#    y 0.000000 3.470460 0.000000 
#    z 0.000000 0.000000 3.286160 
# 
# 
# High freq. dielectric constant tensor:
#      x y z
#    x 1.752070 0.000000 0.000000 
#    y 0.000000 1.749800 0.000000 
#    z 0.000000 0.000000 1.730430 
# 
# From -- ./inp_files/12565.got.cif
#   From: 2010.03.12/outbox.cif.g09.slc.cpg/sg56_7_cif.got.tgz:12565.got - 2010.04.16 15:33:40.
