data_PCOD8228909
_publ_section_title
;
Structure prediction by ZEFSAII (Michael W. Deem and Ramdas Pophale) SiO2 
 PCOD8228909
Probable space group: P C C N
;
_chemical_formula_sum "Si O2"
_cell_formula_units_Z 40
_cell_length_a 6.393013
_cell_length_b 10.508686
_cell_length_c 24.212767
_cell_angle_alpha 90.000000
_cell_angle_beta 90.000000
_cell_angle_gamma 90.000000
_cell_volume 1626.666137
_symmetry_space_group_name_H-M "P C C N"
_symmetry_group_IT_number 56
_symmetry_cell_setting 'orthorhombic'
loop_
_space_group_symop_operation_xyz
x,y,z
1/2-x,1/2-y,z
1/2+x,-y,1/2-z
-x,1/2+y,1/2-z
-x,-y,-z
1/2+x,1/2+y,-z
1/2-x,y,1/2+z
x,1/2-y,1/2+z
loop_
_atom_site_type_symbol
_atom_site_label
_atom_site_fract_x
_atom_site_fract_y
_atom_site_fract_z
Si Si1 0.169057 0.615914 0.296213
Si Si2 0.419784 0.140005 0.810133
Si Si3 0.055671 0.576876 0.074125
Si Si4 0.810534 0.078207 0.024617
Si Si5 0.881116 0.869594 0.889468
O O1 0.250000 0.750000 0.321514
O O2 0.335758 0.503274 0.301981
O O3 0.106849 0.647930 0.233433
O O4 0.971219 0.571610 0.332796
O O5 0.250000 0.250000 0.798408
O O6 0.518068 0.162401 0.871408
O O7 0.222676 0.467275 0.083757
O O8 0.831074 0.522366 0.057900
O O9 0.163278 0.650710 0.021434
O O10 0.926725 0.170253 0.068957
O O11 0.000000 0.000000 0.000000
O O12 0.750000 0.750000 0.871345
#
# Coordination Sequence:
#
# PCOD8228909 Si02
#       5
#     8   8   8   8   8
#     4  12  25  46  73 103 145 188 246 304 364 444
#     4  12  25  44  72 106 146 191 239 300 372 430
#     4  10  21  43  68  98 144 183 235 301 358 426
#     4   9  20  41  69  97 143 185 239 292 360 423
#     4  11  22  39  72 103 136 187 243 295 354 429
#
# _framework density 24.590171000000002
#
# number of rings (size 3 to 8) (size 9 to 14) (size 15 to 20)
#    0.000    1.200    2.000    4.200    0.000    0.000 
#    0.000   11.000    4.400    0.000    0.000    0.000 
#    0.000    0.000    0.000    0.000    0.000    0.000 
#
# Total GULP energy -495648.987265 kJ/mol
# GULP energy per Si atom -12391.224682 kJ/mol
# Density = 2.453420 g / cm^3
# Si number density = 24.590171 Si / 1000 Ang^3
#
#
#
# Elastic Constant Matrix: (Units=GPa)
#
#
# Indices 1 2 3 4 5 6 
#
# 1 112.8261 11.3273 43.2149 0.0000 0.0000 0.0000
# 2 11.3273 78.7479 -7.8203 0.0000 0.0000 0.0000
# 3 43.2149 -7.8203 153.9071 0.0000 0.0000 0.0000
# 4 0.0000 0.0000 0.0000 16.9612 0.0000 0.0000
# 5 0.0000 0.0000 0.0000 0.0000 51.4979 0.0000
# 6 0.0000 0.0000 0.0000 0.0000 0.0000 31.5094
#
#
#
# Elastic Compliance Matrix: (Units=1/GPa)
#
#
# Indices 1 2 3 4 5 6 
#
# 1 0.010167 -0.001755 -0.002944 0.000000 0.000000 0.000000
# 2 -0.001755 0.013066 0.001157 0.000000 0.000000 0.000000
# 3 -0.002944 0.001157 0.007383 0.000000 0.000000 0.000000
# 4 0.000000 0.000000 0.000000 0.058958 0.000000 0.000000
# 5 0.000000 0.000000 0.000000 0.000000 0.019418 0.000000
# 6 0.000000 0.000000 0.000000 0.000000 0.000000 0.031737
#
#
# Mechanical properties :
#
#
# Convention : Reuss Voigt Hill
#
# Bulk Modulus (GPa) = 42.49594 48.76942 45.63268
# Shear Modulus (GPa) = 32.12198 39.91100 36.01649
#
# Velocity S-wave (km/s) = 3.61819 4.03308 3.83125
# Velocity P-wave (km/s) = 5.89697 6.44698 6.17810
#
# Compressibility (1/GPa) = 0.02353166
#
# Stress axis : x y z
#
# Youngs Moduli (GPa) = 98.35788 76.53441 135.44991
#
# Poissons Ratio (x) = 0.13430 0.39875
# Poissons Ratio (y) = 0.17260 -0.15667
# Poissons Ratio (z) = 0.28956 -0.08852
#
# Static dielectric constant tensor:
#      x y z
#    x 4.949730 0.000000 0.000000 
#    y 0.000000 5.434380 0.000000 
#    z 0.000000 0.000000 5.102320 
# 
# 
# High freq. dielectric constant tensor:
#      x y z
#    x 1.998390 0.000000 0.000000 
#    y 0.000000 1.946920 0.000000 
#    z 0.000000 0.000000 2.004670 
# 
# From -- ./inp_files/21526.got.cif
#   From: 2010.03.12/outbox.cif.g09.slc.cpg/sg56_11_cif.got.tgz:21526.got - 2010.04.16 15:33:40.
