data_PCOD8228302
_publ_section_title
;
Structure prediction by ZEFSAII (Michael W. Deem and Ramdas Pophale) SiO2 
 PCOD8228302
Probable space group: P C C N
;
_chemical_formula_sum "Si O2"
_cell_formula_units_Z 40
_cell_length_a 15.496731
_cell_length_b 5.046782
_cell_length_c 23.933376
_cell_angle_alpha 90.000000
_cell_angle_beta 90.000000
_cell_angle_gamma 90.000000
_cell_volume 1871.796382
_symmetry_space_group_name_H-M "P C C N"
_symmetry_group_IT_number 56
_symmetry_cell_setting 'orthorhombic'
loop_
_space_group_symop_operation_xyz
x,y,z
1/2-x,1/2-y,z
1/2+x,-y,1/2-z
-x,1/2+y,1/2-z
-x,-y,-z
1/2+x,1/2+y,-z
1/2-x,y,1/2+z
x,1/2-y,1/2+z
loop_
_atom_site_type_symbol
_atom_site_label
_atom_site_fract_x
_atom_site_fract_y
_atom_site_fract_z
Si Si1 0.192848 0.500491 0.034906
Si Si2 0.647792 0.218161 0.636697
Si Si3 0.191138 0.992653 0.657979
Si Si4 0.943610 0.409911 0.749587
Si Si5 0.147314 0.285435 0.925425
O O1 0.250000 0.250000 0.049279
O O2 0.152158 0.568657 0.095503
O O3 0.250000 0.750000 0.012328
O O4 0.124357 0.404161 0.987291
O O5 0.750000 0.250000 0.635291
O O6 0.619955 0.135682 0.697993
O O7 0.610899 0.002562 0.591489
O O8 0.889912 0.995592 0.619505
O O9 0.250000 0.250000 0.662268
O O10 0.250000 0.750000 0.677923
O O11 0.109631 0.021783 0.698152
O O12 0.013004 0.632761 0.733535
O O13 0.250000 0.250000 0.923510
#
# Coordination Sequence:
#
# PCOD8228302 Si02
#       5
#     8   8   8   8   8
#     4   9  16  29  52  83 112 136 173 229 280 321
#     4  10  20  34  56  81 108 142 184 226 269 328
#     4  10  21  38  61  85 110 146 192 232 271 331
#     4  12  25  40  57  80 116 153 188 234 285 330
#     4   9  16  29  52  83 110 133 171 228 279 319
#
# _framework density 21.369847
#
# number of rings (size 3 to 8) (size 9 to 14) (size 15 to 20)
#    0.000    2.000    0.000    6.000    0.000    2.400 
#    0.000    0.000    0.000    7.200    0.000    0.000 
#    0.000    0.000    0.000    0.000    0.000    0.000 
#
# Total GULP energy -495589.099713 kJ/mol
# GULP energy per Si atom -12389.727493 kJ/mol
# Density = 2.132121 g / cm^3
# Si number density = 21.369847 Si / 1000 Ang^3
#
#
#
# Elastic Constant Matrix: (Units=GPa)
#
#
# Indices 1 2 3 4 5 6 
#
# 1 28.0812 29.0274 32.1087 0.0000 0.0000 0.0000
# 2 29.0274 137.7024 35.6148 0.0000 0.0000 0.0000
# 3 32.1087 35.6148 145.5690 0.0000 0.0000 0.0000
# 4 0.0000 0.0000 0.0000 36.5050 0.0000 0.0000
# 5 0.0000 0.0000 0.0000 0.0000 3.0493 0.0000
# 6 0.0000 0.0000 0.0000 0.0000 0.0000 25.8061
#
#
#
# Elastic Compliance Matrix: (Units=1/GPa)
#
#
# Indices 1 2 3 4 5 6 
#
# 1 0.057065 -0.009366 -0.010296 0.000000 0.000000 0.000000
# 2 -0.009366 0.009290 -0.000207 0.000000 0.000000 0.000000
# 3 -0.010296 -0.000207 0.009191 0.000000 0.000000 0.000000
# 4 0.000000 0.000000 0.000000 0.027393 0.000000 0.000000
# 5 0.000000 0.000000 0.000000 0.000000 0.327940 0.000000
# 6 0.000000 0.000000 0.000000 0.000000 0.000000 0.038751
#
#
# Mechanical properties :
#
#
# Convention : Reuss Voigt Hill
#
# Bulk Modulus (GPa) = 27.92618 56.09495 42.01056
# Shear Modulus (GPa) = 9.59133 27.37886 18.48510
#
# Velocity S-wave (km/s) = 2.12085 3.58326 2.94429
# Velocity P-wave (km/s) = 4.36964 6.58986 5.59106
#
# Compressibility (1/GPa) = 0.03580870
#
# Stress axis : x y z
#
# Youngs Moduli (GPa) = 17.52375 107.64279 108.80047
#
# Poissons Ratio (x) = 1.00824 1.12016
# Poissons Ratio (y) = 0.16414 0.02251
# Poissons Ratio (z) = 0.18042 0.02227
#
# Static dielectric constant tensor:
#      x y z
#    x 3.189340 0.000000 0.000000 
#    y 0.000000 4.160370 0.000000 
#    z 0.000000 0.000000 4.200350 
# 
# 
# High freq. dielectric constant tensor:
#      x y z
#    x 1.764440 0.000000 0.000000 
#    y 0.000000 1.867990 0.000000 
#    z 0.000000 0.000000 1.856010 
# 
# From -- ./inp_files/23451.got.cif
#   From: 2010.03.12/outbox.cif.g09.slc.cpg/sg56_12_cif.got.tgz:23451.got - 2010.04.16 15:33:40.
