data_PCOD8228603
_publ_section_title
;
Structure prediction by ZEFSAII (Michael W. Deem and Ramdas Pophale) SiO2 
 PCOD8228603
Probable space group: P C C N
;
_chemical_formula_sum "Si O2"
_cell_formula_units_Z 24
_cell_length_a 13.628989
_cell_length_b 4.869724
_cell_length_c 16.544947
_cell_angle_alpha 90.000000
_cell_angle_beta 90.000000
_cell_angle_gamma 90.000000
_cell_volume 1098.078451
_symmetry_space_group_name_H-M "P C C N"
_symmetry_group_IT_number 56
_symmetry_cell_setting 'orthorhombic'
loop_
_space_group_symop_operation_xyz
x,y,z
1/2-x,1/2-y,z
1/2+x,-y,1/2-z
-x,1/2+y,1/2-z
-x,-y,-z
1/2+x,1/2+y,-z
1/2-x,y,1/2+z
x,1/2-y,1/2+z
loop_
_atom_site_type_symbol
_atom_site_label
_atom_site_fract_x
_atom_site_fract_y
_atom_site_fract_z
Si Si1 0.438694 0.799243 0.232437
Si Si2 0.814788 0.983426 0.403389
Si Si3 0.750000 0.750000 0.054487
Si Si4 0.250000 0.750000 0.334224
O O1 0.506762 0.535380 0.215993
O O2 0.342416 0.685125 0.277388
O O3 0.412085 0.939123 0.146173
O O4 0.750000 0.750000 0.355479
O O5 0.837740 0.855459 0.493408
O O6 0.750000 0.250000 0.417545
O O7 0.716152 0.504240 0.111424
#
# Coordination Sequence:
#
# PCOD8228603 Si02
#       4
#     8   8   4   4
#     4  12  26  42  69 102 131 178 230 272 328 401
#     4  10  20  42  68  90 131 181 214 258 349 383
#     4  10  22  40  72  94 128 186 208 274 350 382
#     4  12  24  44  68 100 134 168 226 288 318 390
#
# _framework density 21.856359999999999
#
# number of rings (size 3 to 8) (size 9 to 14) (size 15 to 20)
#    1.000    0.000    3.333    4.000    2.333    0.000 
#    0.000   10.000    0.000    0.000    0.000    0.000 
#    0.000    0.000    0.000    0.000    0.000    0.000 
#
# Total GULP energy -297317.734570 kJ/mol
# GULP energy per Si atom -12388.238940 kJ/mol
# Density = 2.180661 g / cm^3
# Si number density = 21.856360 Si / 1000 Ang^3
#
#
#
# Elastic Constant Matrix: (Units=GPa)
#
#
# Indices 1 2 3 4 5 6 
#
# 1 88.1577 33.8670 31.2515 0.0000 0.0000 0.0000
# 2 33.8670 140.6553 26.7463 0.0000 0.0000 0.0000
# 3 31.2515 26.7463 102.8169 0.0000 0.0000 0.0000
# 4 0.0000 0.0000 0.0000 37.4098 0.0000 0.0000
# 5 0.0000 0.0000 0.0000 0.0000 6.8072 0.0000
# 6 0.0000 0.0000 0.0000 0.0000 0.0000 37.9373
#
#
#
# Elastic Compliance Matrix: (Units=1/GPa)
#
#
# Indices 1 2 3 4 5 6 
#
# 1 0.013568 -0.002612 -0.003445 0.000000 0.000000 0.000000
# 2 -0.002612 0.007982 -0.001283 0.000000 0.000000 0.000000
# 3 -0.003445 -0.001283 0.011107 0.000000 0.000000 0.000000
# 4 0.000000 0.000000 0.000000 0.026731 0.000000 0.000000
# 5 0.000000 0.000000 0.000000 0.000000 0.146903 0.000000
# 6 0.000000 0.000000 0.000000 0.000000 0.000000 0.026359
#
#
# Mechanical properties :
#
#
# Convention : Reuss Voigt Hill
#
# Bulk Modulus (GPa) = 55.62111 57.26217 56.44164
# Shear Modulus (GPa) = 19.73783 32.41521 26.07652
#
# Velocity S-wave (km/s) = 3.00837 3.85528 3.45785
# Velocity P-wave (km/s) = 6.12950 6.78777 6.46702
#
# Compressibility (1/GPa) = 0.01797879
#
# Stress axis : x y z
#
# Youngs Moduli (GPa) = 73.70419 125.27631 90.03616
#
# Poissons Ratio (x) = 0.32720 0.31013
# Poissons Ratio (y) = 0.19250 0.11548
# Poissons Ratio (z) = 0.25388 0.16068
#
# Static dielectric constant tensor:
#      x y z
#    x 3.560410 0.000000 0.000000 
#    y 0.000000 4.541380 0.000000 
#    z 0.000000 0.000000 3.974630 
# 
# 
# High freq. dielectric constant tensor:
#      x y z
#    x 1.808610 0.000000 0.000000 
#    y 0.000000 1.891400 0.000000 
#    z 0.000000 0.000000 1.854760 
# 
# From -- ./inp_files/9261.got.cif
#   From: 2010.03.12/outbox.cif.g09.slc.cpg/sg56_5_cif.got.tgz:9261.got - 2010.04.16 15:33:40.
