data_PCOD8228540
_publ_section_title
;
Structure prediction by ZEFSAII (Michael W. Deem and Ramdas Pophale) SiO2 
 PCOD8228540
Probable space group: P C C N
;
_chemical_formula_sum "Si O2"
_cell_formula_units_Z 60
_cell_length_a 24.737543
_cell_length_b 6.759017
_cell_length_c 18.719763
_cell_angle_alpha 90.000000
_cell_angle_beta 90.000000
_cell_angle_gamma 90.000000
_cell_volume 3129.971960
_symmetry_space_group_name_H-M "P C C N"
_symmetry_group_IT_number 56
_symmetry_cell_setting 'orthorhombic'
loop_
_space_group_symop_operation_xyz
x,y,z
1/2-x,1/2-y,z
1/2+x,-y,1/2-z
-x,1/2+y,1/2-z
-x,-y,-z
1/2+x,1/2+y,-z
1/2-x,y,1/2+z
x,1/2-y,1/2+z
loop_
_atom_site_type_symbol
_atom_site_label
_atom_site_fract_x
_atom_site_fract_y
_atom_site_fract_z
Si Si1 0.108541 0.838173 0.845223
Si Si2 0.990639 0.780385 0.526594
Si Si3 0.918337 0.512769 0.241490
Si Si4 0.750000 0.750000 0.335484
Si Si5 0.979908 0.643280 0.680780
Si Si6 0.661883 0.454554 0.865483
Si Si7 0.091754 0.968144 0.994403
Si Si8 0.799258 0.122576 0.267117
O O1 0.101757 0.602876 0.830094
O O2 0.153020 0.910839 0.789070
O O3 0.049531 0.937302 0.835222
O O4 0.127324 0.899552 0.925425
O O5 0.998402 0.765119 0.611382
O O6 0.930308 0.696042 0.506560
O O7 0.037356 0.658307 0.488090
O O8 0.000000 0.000000 0.500000
O O9 0.935934 0.731875 0.223559
O O10 0.871914 0.541033 0.299671
O O11 0.966825 0.383919 0.273344
O O12 0.790982 0.615426 0.382964
O O13 0.717752 0.599145 0.285379
O O14 0.626510 0.424845 0.935862
O O15 0.683606 0.240191 0.839806
O O16 0.750000 0.250000 0.232221
#
# Coordination Sequence:
#
# PCOD8228540 Si02
#       8
#     8   8   8   4   8   8   8   8
#     4  10  21  37  54  82 115 149 184 231 278 334
#     4  10  21  35  51  77 118 160 187 220 278 338
#     4  11  20  33  53  82 114 148 189 231 275 327
#     4  10  20  40  62  82 104 144 190 244 290 330
#     4  11  20  31  52  81 112 150 191 224 267 334
#     4  10  21  37  58  83 112 146 190 238 286 337
#     4  10  21  37  54  80 119 150 188 231 280 340
#     4   9  20  39  61  83 108 140 190 239 289 337
#
# _framework density 19.169501
#
# number of rings (size 3 to 8) (size 9 to 14) (size 15 to 20)
#    0.000    1.867    2.667    1.600    0.000    2.133 
#    0.000    2.667    0.000    0.000    0.000    0.000 
#    0.000    0.000    0.000    0.000    0.000    0.000 
#
# Total GULP energy -743634.189933 kJ/mol
# GULP energy per Si atom -12393.903166 kJ/mol
# Density = 1.912587 g / cm^3
# Si number density = 19.169501 Si / 1000 Ang^3
#
#
#
# Elastic Constant Matrix: (Units=GPa)
#
#
# Indices 1 2 3 4 5 6 
#
# 1 69.7381 24.6269 28.6101 0.0000 0.0000 0.0000
# 2 24.6269 81.7050 33.7202 0.0000 0.0000 0.0000
# 3 28.6101 33.7202 98.2239 0.0000 0.0000 0.0000
# 4 0.0000 0.0000 0.0000 18.5342 0.0000 0.0000
# 5 0.0000 0.0000 0.0000 0.0000 21.2079 0.0000
# 6 0.0000 0.0000 0.0000 0.0000 0.0000 30.5625
#
#
#
# Elastic Compliance Matrix: (Units=1/GPa)
#
#
# Indices 1 2 3 4 5 6 
#
# 1 0.017159 -0.003622 -0.003754 0.000000 0.000000 0.000000
# 2 -0.003622 0.015024 -0.004103 0.000000 0.000000 0.000000
# 3 -0.003754 -0.004103 0.012683 0.000000 0.000000 0.000000
# 4 0.000000 0.000000 0.000000 0.053954 0.000000 0.000000
# 5 0.000000 0.000000 0.000000 0.000000 0.047152 0.000000
# 6 0.000000 0.000000 0.000000 0.000000 0.000000 0.032720
#
#
# Mechanical properties :
#
#
# Convention : Reuss Voigt Hill
#
# Bulk Modulus (GPa) = 45.64768 47.06458 46.35613
# Shear Modulus (GPa) = 23.92878 24.90824 24.41851
#
# Velocity S-wave (km/s) = 3.53692 3.60859 3.57293
# Velocity P-wave (km/s) = 6.36743 6.47824 6.42307
#
# Compressibility (1/GPa) = 0.02190692
#
# Stress axis : x y z
#
# Youngs Moduli (GPa) = 58.27921 66.55926 78.84690
#
# Poissons Ratio (x) = 0.24111 0.29602
# Poissons Ratio (y) = 0.21111 0.32348
# Poissons Ratio (z) = 0.21880 0.27307
#
# Static dielectric constant tensor:
#      x y z
#    x 3.596240 0.000000 0.000000 
#    y 0.000000 3.547870 0.000000 
#    z 0.000000 0.000000 3.458290 
# 
# 
# High freq. dielectric constant tensor:
#      x y z
#    x 1.742090 0.000000 0.000000 
#    y 0.000000 1.749120 0.000000 
#    z 0.000000 0.000000 1.731660 
# 
# From -- ./inp_files/14099.got.cif
#   From: 2010.03.12/outbox.cif.g09.slc.cpg/sg56_8_cif.got.tgz:14099.got - 2010.04.16 15:33:40.
