data_PCOD8228823
_publ_section_title
;
Structure prediction by ZEFSAII (Michael W. Deem and Ramdas Pophale) SiO2 
 PCOD8228823
Probable space group: P C C N
;
_chemical_formula_sum "Si O2"
_cell_formula_units_Z 64
_cell_length_a 8.723862
_cell_length_b 11.029369
_cell_length_c 31.868399
_cell_angle_alpha 90.000000
_cell_angle_beta 90.000000
_cell_angle_gamma 90.000000
_cell_volume 3066.335703
_symmetry_space_group_name_H-M "P C C N"
_symmetry_group_IT_number 56
_symmetry_cell_setting 'orthorhombic'
loop_
_space_group_symop_operation_xyz
x,y,z
1/2-x,1/2-y,z
1/2+x,-y,1/2-z
-x,1/2+y,1/2-z
-x,-y,-z
1/2+x,1/2+y,-z
1/2-x,y,1/2+z
x,1/2-y,1/2+z
loop_
_atom_site_type_symbol
_atom_site_label
_atom_site_fract_x
_atom_site_fract_y
_atom_site_fract_z
Si Si1 0.075563 0.753397 0.820646
Si Si2 0.799259 0.112954 0.886714
Si Si3 0.078061 0.755195 0.417949
Si Si4 0.017108 0.000463 0.950125
Si Si5 0.416326 0.008295 0.056025
Si Si6 0.153237 0.131588 0.740274
Si Si7 0.200824 0.388289 0.977570
Si Si8 0.922456 0.005173 0.801518
O O1 0.250000 0.750000 0.802885
O O2 0.072744 0.716553 0.868854
O O3 0.963085 0.659578 0.797636
O O4 0.010912 0.886652 0.815444
O O5 0.750000 0.250000 0.882601
O O6 0.915365 0.098555 0.925487
O O7 0.651957 0.030947 0.899094
O O8 0.868129 0.074494 0.842589
O O9 0.250000 0.750000 0.434844
O O10 0.990466 0.631170 0.429429
O O11 0.001918 0.864634 0.442079
O O12 0.191055 0.047839 0.942924
O O13 0.000000 0.000000 0.000000
O O14 0.526674 0.901142 0.039038
O O15 0.282429 0.036674 0.021829
O O16 0.250000 0.250000 0.754203
O O17 0.273470 0.026650 0.726860
O O18 0.046034 0.089399 0.778294
O O19 0.250000 0.250000 0.984500
#
# Coordination Sequence:
#
# PCOD8228823 Si02
#       8
#     8   8   8   8   8   8   8   8
#     4  10  21  40  68 100 131 169 225 283 340 412
#     4  12  27  44  65  99 140 180 227 283 345 409
#     4  11  22  40  67  95 128 169 228 285 331 395
#     4  12  23  42  65  95 134 183 226 280 338 394
#     4  11  24  42  63  94 125 176 230 282 338 395
#     4  10  23  42  71 103 135 177 226 280 344 424
#     4  11  23  41  62  91 129 175 231 281 338 400
#     4  11  23  44  67 102 139 177 223 278 353 417
#
# _framework density 20.871817
#
# number of rings (size 3 to 8) (size 9 to 14) (size 15 to 20)
#    0.000    1.000    3.750    3.000    0.000    4.000 
#    0.000    4.375    0.000    0.000    0.000    0.000 
#    0.000    0.000    0.000    0.000    0.000    0.000 
#
# Total GULP energy -793565.062722 kJ/mol
# GULP energy per Si atom -12399.454105 kJ/mol
# Density = 2.082431 g / cm^3
# Si number density = 20.871817 Si / 1000 Ang^3
#
#
#
# Elastic Constant Matrix: (Units=GPa)
#
#
# Indices 1 2 3 4 5 6 
#
# 1 121.4247 60.3842 57.1003 0.0000 0.0000 0.0000
# 2 60.3842 108.1890 45.9442 0.0000 0.0000 0.0000
# 3 57.1003 45.9442 111.9880 0.0000 0.0000 0.0000
# 4 0.0000 0.0000 0.0000 19.7023 0.0000 0.0000
# 5 0.0000 0.0000 0.0000 0.0000 41.8131 0.0000
# 6 0.0000 0.0000 0.0000 0.0000 0.0000 40.0899
#
#
#
# Elastic Compliance Matrix: (Units=1/GPa)
#
#
# Indices 1 2 3 4 5 6 
#
# 1 0.012983 -0.005371 -0.004416 0.000000 0.000000 0.000000
# 2 -0.005371 0.013415 -0.002765 0.000000 0.000000 0.000000
# 3 -0.004416 -0.002765 0.012316 0.000000 0.000000 0.000000
# 4 0.000000 0.000000 0.000000 0.050756 0.000000 0.000000
# 5 0.000000 0.000000 0.000000 0.000000 0.023916 0.000000
# 6 0.000000 0.000000 0.000000 0.000000 0.000000 0.024944
#
#
# Mechanical properties :
#
#
# Convention : Reuss Voigt Hill
#
# Bulk Modulus (GPa) = 73.47995 74.27323 73.87659
# Shear Modulus (GPa) = 29.76702 32.19926 30.98314
#
# Velocity S-wave (km/s) = 3.78058 3.93200 3.85703
# Velocity P-wave (km/s) = 7.37149 7.50179 7.43692
#
# Compressibility (1/GPa) = 0.01360916
#
# Stress axis : x y z
#
# Youngs Moduli (GPa) = 77.02160 74.54302 81.19660
#
# Poissons Ratio (x) = 0.40037 0.35860
# Poissons Ratio (y) = 0.41368 0.22452
# Poissons Ratio (z) = 0.34016 0.20612
#
# Static dielectric constant tensor:
#      x y z
#    x 4.360530 0.000000 0.000000 
#    y 0.000000 3.726420 0.000000 
#    z 0.000000 0.000000 3.679320 
# 
# 
# High freq. dielectric constant tensor:
#      x y z
#    x 1.841950 0.000000 0.000000 
#    y 0.000000 1.817420 0.000000 
#    z 0.000000 0.000000 1.807900 
# 
# From -- ./inp_files/23380.got.cif
#   From: 2010.03.12/outbox.cif.g09.slc.cpg/sg56_12_cif.got.tgz:23380.got - 2010.04.16 15:33:40.
