data_PCOD8228994
_publ_section_title
;
Structure prediction by ZEFSAII (Michael W. Deem and Ramdas Pophale) SiO2 
 PCOD8228994
Probable space group: P C C N
;
_chemical_formula_sum "Si O2"
_cell_formula_units_Z 40
_cell_length_a 9.741826
_cell_length_b 22.324853
_cell_length_c 8.193847
_cell_angle_alpha 90.000000
_cell_angle_beta 90.000000
_cell_angle_gamma 90.000000
_cell_volume 1782.037450
_symmetry_space_group_name_H-M "P C C N"
_symmetry_group_IT_number 56
_symmetry_cell_setting 'orthorhombic'
loop_
_space_group_symop_operation_xyz
x,y,z
1/2-x,1/2-y,z
1/2+x,-y,1/2-z
-x,1/2+y,1/2-z
-x,-y,-z
1/2+x,1/2+y,-z
1/2-x,y,1/2+z
x,1/2-y,1/2+z
loop_
_atom_site_type_symbol
_atom_site_label
_atom_site_fract_x
_atom_site_fract_y
_atom_site_fract_z
Si Si1 0.337416 0.808783 0.235345
Si Si2 0.870605 0.371430 0.072647
Si Si3 0.084796 0.972147 0.645669
Si Si4 0.075103 0.379032 0.639178
Si Si5 0.638677 0.903209 0.734576
O O1 0.250000 0.750000 0.279408
O O2 0.239956 0.864901 0.285080
O O3 0.369729 0.811835 0.042473
O O4 0.480571 0.819242 0.334339
O O5 0.819924 0.424955 0.952248
O O6 0.022115 0.380042 0.142950
O O7 0.991016 0.937067 0.775601
O O8 0.000000 0.000000 0.500000
O O9 0.165726 0.025363 0.738475
O O10 0.222535 0.367532 0.723342
O O11 0.092589 0.390680 0.448513
#
# Coordination Sequence:
#
# PCOD8228994 Si02
#       5
#     8   8   8   8   8
#     4  11  23  42  65  91 124 168 221 282 337 389
#     4  10  22  39  62  93 128 171 222 267 326 402
#     4   9  20  36  58  92 134 176 213 258 322 392
#     4  11  23  39  64  95 134 179 226 273 328 397
#     4  11  22  40  63  97 138 174 217 272 329 400
#
# _framework density 22.446218999999999
#
# number of rings (size 3 to 8) (size 9 to 14) (size 15 to 20)
#    0.000    1.600    0.000    6.000    0.000   11.200 
#    0.000    2.000    0.000    7.200    0.000    0.000 
#    0.000    0.000    0.000    0.000    0.000    0.000 
#
# Total GULP energy -495524.114372 kJ/mol
# GULP energy per Si atom -12388.102859 kJ/mol
# Density = 2.239513 g / cm^3
# Si number density = 22.446219 Si / 1000 Ang^3
#
#
#
# Elastic Constant Matrix: (Units=GPa)
#
#
# Indices 1 2 3 4 5 6 
#
# 1 147.5963 60.0101 52.4296 0.0000 0.0000 0.0000
# 2 60.0101 87.3577 67.0173 0.0000 0.0000 0.0000
# 3 52.4296 67.0173 140.3106 0.0000 0.0000 0.0000
# 4 0.0000 0.0000 0.0000 28.3542 0.0000 0.0000
# 5 0.0000 0.0000 0.0000 0.0000 40.2446 0.0000
# 6 0.0000 0.0000 0.0000 0.0000 0.0000 36.8608
#
#
#
# Elastic Compliance Matrix: (Units=1/GPa)
#
#
# Indices 1 2 3 4 5 6 
#
# 1 0.009442 -0.005965 -0.000679 0.000000 0.000000 0.000000
# 2 -0.005965 0.021836 -0.008201 0.000000 0.000000 0.000000
# 3 -0.000679 -0.008201 0.011298 0.000000 0.000000 0.000000
# 4 0.000000 0.000000 0.000000 0.035268 0.000000 0.000000
# 5 0.000000 0.000000 0.000000 0.000000 0.024848 0.000000
# 6 0.000000 0.000000 0.000000 0.000000 0.000000 0.027129
#
#
# Mechanical properties :
#
#
# Convention : Reuss Voigt Hill
#
# Bulk Modulus (GPa) = 77.60347 81.57541 79.58944
# Shear Modulus (GPa) = 30.52392 34.14574 32.33483
#
# Velocity S-wave (km/s) = 3.69164 3.90452 3.79957
# Velocity P-wave (km/s) = 7.26767 7.53316 7.40161
#
# Compressibility (1/GPa) = 0.01288602
#
# Stress axis : x y z
#
# Youngs Moduli (GPa) = 105.91291 45.79549 88.51347
#
# Poissons Ratio (x) = 0.27318 0.06009
# Poissons Ratio (y) = 0.63178 0.72588
# Poissons Ratio (z) = 0.07191 0.37556
#
# Static dielectric constant tensor:
#      x y z
#    x 4.021120 0.000000 0.000000 
#    y 0.000000 4.379520 0.000000 
#    z 0.000000 0.000000 4.323220 
# 
# 
# High freq. dielectric constant tensor:
#      x y z
#    x 1.876700 0.000000 0.000000 
#    y 0.000000 1.860650 0.000000 
#    z 0.000000 0.000000 1.914320 
# 
# From -- ./inp_files/2053.got.cif
#   From: 2010.03.12/outbox.cif.g09.slc.cpg/sg56_2_cif.got.tgz:2053.got - 2010.04.16 15:33:40.
