data_PCOD8228759
_publ_section_title
;
Structure prediction by ZEFSAII (Michael W. Deem and Ramdas Pophale) SiO2 
 PCOD8228759
Probable space group: P C C N
;
_chemical_formula_sum "Si O2"
_cell_formula_units_Z 48
_cell_length_a 8.736786
_cell_length_b 17.201371
_cell_length_c 14.295599
_cell_angle_alpha 90.000000
_cell_angle_beta 90.000000
_cell_angle_gamma 90.000000
_cell_volume 2148.409769
_symmetry_space_group_name_H-M "P C C N"
_symmetry_group_IT_number 56
_symmetry_cell_setting 'orthorhombic'
loop_
_space_group_symop_operation_xyz
x,y,z
1/2-x,1/2-y,z
1/2+x,-y,1/2-z
-x,1/2+y,1/2-z
-x,-y,-z
1/2+x,1/2+y,-z
1/2-x,y,1/2+z
x,1/2-y,1/2+z
loop_
_atom_site_type_symbol
_atom_site_label
_atom_site_fract_x
_atom_site_fract_y
_atom_site_fract_z
Si Si1 0.506214 0.327161 0.308234
Si Si2 0.240512 0.943605 0.743053
Si Si3 0.335611 0.676853 0.499839
Si Si4 0.189682 0.104011 0.821635
Si Si5 0.083086 0.937007 0.062787
Si Si6 0.478156 0.824942 0.814130
O O1 0.568968 0.411641 0.275537
O O2 0.602770 0.300561 0.398114
O O3 0.333315 0.341459 0.343923
O O4 0.515595 0.262927 0.226424
O O5 0.326729 0.975578 0.650232
O O6 0.324845 0.866715 0.779105
O O7 0.232754 0.012611 0.818649
O O8 0.250000 0.750000 0.456162
O O9 0.210488 0.607862 0.502197
O O10 0.475412 0.665005 0.426908
O O11 0.053739 0.118847 0.897301
O O12 0.127477 0.128210 0.719278
O O13 0.000000 0.000000 0.000000
#
# Coordination Sequence:
#
# PCOD8228759 Si02
#       6
#     8   8   8   8   8   8
#     4  11  22  41  64  91 127 163 206 261 309 369
#     4  10  21  39  63  87 123 171 209 246 310 381
#     4  11  23  40  65  89 119 167 211 247 306 382
#     4  11  23  40  62  93 129 160 201 268 318 358
#     4  10  22  39  61  90 125 163 208 259 311 371
#     4  11  23  41  63  90 122 164 211 253 307 371
#
# _framework density 22.342106000000001
#
# number of rings (size 3 to 8) (size 9 to 14) (size 15 to 20)
#    0.000    1.333    0.000    8.000    0.000    2.667 
#    0.000    9.167    0.000    0.000    0.000    0.000 
#    0.000    0.000    0.000    0.000    0.000    0.000 
#
# Total GULP energy -594946.680437 kJ/mol
# GULP energy per Si atom -12394.722509 kJ/mol
# Density = 2.229125 g / cm^3
# Si number density = 22.342106 Si / 1000 Ang^3
#
#
#
# Elastic Constant Matrix: (Units=GPa)
#
#
# Indices 1 2 3 4 5 6 
#
# 1 109.2826 31.9068 17.6494 0.0000 0.0000 0.0000
# 2 31.9068 91.2283 33.0205 0.0000 0.0000 0.0000
# 3 17.6494 33.0205 79.9531 0.0000 0.0000 0.0000
# 4 0.0000 0.0000 0.0000 31.9915 0.0000 0.0000
# 5 0.0000 0.0000 0.0000 0.0000 31.2387 0.0000
# 6 0.0000 0.0000 0.0000 0.0000 0.0000 32.2515
#
#
#
# Elastic Compliance Matrix: (Units=1/GPa)
#
#
# Indices 1 2 3 4 5 6 
#
# 1 0.010248 -0.003252 -0.000919 0.000000 0.000000 0.000000
# 2 -0.003252 0.013920 -0.005031 0.000000 0.000000 0.000000
# 3 -0.000919 -0.005031 0.014788 0.000000 0.000000 0.000000
# 4 0.000000 0.000000 0.000000 0.031258 0.000000 0.000000
# 5 0.000000 0.000000 0.000000 0.000000 0.032012 0.000000
# 6 0.000000 0.000000 0.000000 0.000000 0.000000 0.031006
#
#
# Mechanical properties :
#
#
# Convention : Reuss Voigt Hill
#
# Bulk Modulus (GPa) = 48.65660 49.51304 49.08482
# Shear Modulus (GPa) = 31.54827 32.28882 31.91854
#
# Velocity S-wave (km/s) = 3.76181 3.80570 3.78382
# Velocity P-wave (km/s) = 6.37915 6.44365 6.41148
#
# Compressibility (1/GPa) = 0.02055220
#
# Stress axis : x y z
#
# Youngs Moduli (GPa) = 97.57598 71.84042 67.62193
#
# Poissons Ratio (x) = 0.23359 0.06217
# Poissons Ratio (y) = 0.31727 0.34021
# Poissons Ratio (z) = 0.08971 0.36143
#
# Static dielectric constant tensor:
#      x y z
#    x 4.156430 0.000000 0.000000 
#    y 0.000000 3.814450 0.000000 
#    z 0.000000 0.000000 4.038940 
# 
# 
# High freq. dielectric constant tensor:
#      x y z
#    x 1.888390 0.000000 0.000000 
#    y 0.000000 1.873470 0.000000 
#    z 0.000000 0.000000 1.867990 
# 
# From -- ./inp_files/10675.got.cif
#   From: 2010.03.12/outbox.cif.g09.slc.cpg/sg56_6_cif.got.tgz:10675.got - 2010.04.16 15:33:40.
