data_PCOD8228742
_publ_section_title
;
Structure prediction by ZEFSAII (Michael W. Deem and Ramdas Pophale) SiO2 
 PCOD8228742
Probable space group: P C C N
;
_chemical_formula_sum "Si O2"
_cell_formula_units_Z 48
_cell_length_a 8.942000
_cell_length_b 15.256659
_cell_length_c 17.670794
_cell_angle_alpha 90.000000
_cell_angle_beta 90.000000
_cell_angle_gamma 90.000000
_cell_volume 2410.738863
_symmetry_space_group_name_H-M "P C C N"
_symmetry_group_IT_number 56
_symmetry_cell_setting 'orthorhombic'
loop_
_space_group_symop_operation_xyz
x,y,z
1/2-x,1/2-y,z
1/2+x,-y,1/2-z
-x,1/2+y,1/2-z
-x,-y,-z
1/2+x,1/2+y,-z
1/2-x,y,1/2+z
x,1/2-y,1/2+z
loop_
_atom_site_type_symbol
_atom_site_label
_atom_site_fract_x
_atom_site_fract_y
_atom_site_fract_z
Si Si1 0.088093 0.411549 0.274811
Si Si2 0.079757 0.748532 0.973353
Si Si3 0.440706 0.420142 0.452671
Si Si4 0.850421 0.837107 0.068402
Si Si5 0.062160 0.415310 0.775032
Si Si6 0.922201 0.254527 0.204104
O O1 0.066226 0.368426 0.356465
O O2 0.262814 0.419146 0.255697
O O3 0.019451 0.508805 0.272207
O O4 0.996921 0.349219 0.217753
O O5 0.250000 0.750000 0.000036
O O6 0.063811 0.760475 0.884600
O O7 0.016038 0.660936 0.007496
O O8 0.981806 0.827151 0.007746
O O9 0.500000 0.500000 0.500000
O O10 0.261127 0.412751 0.461364
O O11 0.477586 0.427503 0.363577
O O12 0.750000 0.750000 0.084763
O O13 0.008317 0.320118 0.749565
O O14 0.750000 0.250000 0.230190
#
# Coordination Sequence:
#
# PCOD8228742 Si02
#       6
#     8   8   8   8   8   8
#     4  11  22  40  61  87 121 155 195 247 296 350
#     4  10  22  38  59  85 115 153 195 240 293 350
#     4  10  21  39  60  84 116 153 194 241 292 346
#     4   9  20  39  60  84 116 155 196 240 291 352
#     4  11  24  38  61  92 118 156 202 243 295 355
#     4  11  23  40  60  88 123 156 197 247 294 351
#
# _framework density 19.910907999999999
#
# number of rings (size 3 to 8) (size 9 to 14) (size 15 to 20)
#    0.000    1.667    0.000    5.500    0.000   13.333 
#    0.000    1.667    0.000    0.000    0.000    0.000 
#    0.000    0.000    0.000    0.000    0.000    0.000 
#
# Total GULP energy -595146.205278 kJ/mol
# GULP energy per Si atom -12398.879277 kJ/mol
# Density = 1.986559 g / cm^3
# Si number density = 19.910908 Si / 1000 Ang^3
#
#
#
# Elastic Constant Matrix: (Units=GPa)
#
#
# Indices 1 2 3 4 5 6 
#
# 1 125.4663 28.7891 52.7352 0.0000 0.0000 0.0000
# 2 28.7891 69.5140 25.8528 0.0000 0.0000 0.0000
# 3 52.7352 25.8528 85.0802 0.0000 0.0000 0.0000
# 4 0.0000 0.0000 0.0000 35.8840 0.0000 0.0000
# 5 0.0000 0.0000 0.0000 0.0000 39.3270 0.0000
# 6 0.0000 0.0000 0.0000 0.0000 0.0000 31.4047
#
#
#
# Elastic Compliance Matrix: (Units=1/GPa)
#
#
# Indices 1 2 3 4 5 6 
#
# 1 0.011094 -0.002297 -0.006179 0.000000 0.000000 0.000000
# 2 -0.002297 0.016694 -0.003649 0.000000 0.000000 0.000000
# 3 -0.006179 -0.003649 0.016692 0.000000 0.000000 0.000000
# 4 0.000000 0.000000 0.000000 0.027868 0.000000 0.000000
# 5 0.000000 0.000000 0.000000 0.000000 0.025428 0.000000
# 6 0.000000 0.000000 0.000000 0.000000 0.000000 0.031842
#
#
# Mechanical properties :
#
#
# Convention : Reuss Voigt Hill
#
# Bulk Modulus (GPa) = 49.42828 54.97943 52.20385
# Shear Modulus (GPa) = 31.13117 32.83538 31.98327
#
# Velocity S-wave (km/s) = 3.95843 4.06534 4.01224
# Velocity P-wave (km/s) = 6.76542 7.05043 6.90939
#
# Compressibility (1/GPa) = 0.02023133
#
# Stress axis : x y z
#
# Youngs Moduli (GPa) = 90.13683 59.90212 59.90845
#
# Poissons Ratio (x) = 0.13758 0.37015
# Poissons Ratio (y) = 0.20702 0.21861
# Poissons Ratio (z) = 0.55692 0.21859
#
# Static dielectric constant tensor:
#      x y z
#    x 6.563450 0.000000 0.000000 
#    y 0.000000 5.022710 0.000000 
#    z 0.000000 0.000000 3.421300 
# 
# 
# High freq. dielectric constant tensor:
#      x y z
#    x 1.791420 0.000000 0.000000 
#    y 0.000000 1.779650 0.000000 
#    z 0.000000 0.000000 1.781230 
# 
# From -- ./inp_files/14761.got.cif
#   From: 2010.03.12/outbox.cif.g09.slc.cpg/sg56_8_cif.got.tgz:14761.got - 2010.04.16 15:33:40.
