data_PCOD8228470
_publ_section_title
;
Structure prediction by ZEFSAII (Michael W. Deem and Ramdas Pophale) SiO2 
 PCOD8228470
Probable space group: P C C N
;
_chemical_formula_sum "Si O2"
_cell_formula_units_Z 64
_cell_length_a 33.244376
_cell_length_b 5.244473
_cell_length_c 16.412333
_cell_angle_alpha 90.000000
_cell_angle_beta 90.000000
_cell_angle_gamma 90.000000
_cell_volume 2861.477659
_symmetry_space_group_name_H-M "P C C N"
_symmetry_group_IT_number 56
_symmetry_cell_setting 'orthorhombic'
loop_
_space_group_symop_operation_xyz
x,y,z
1/2-x,1/2-y,z
1/2+x,-y,1/2-z
-x,1/2+y,1/2-z
-x,-y,-z
1/2+x,1/2+y,-z
1/2-x,y,1/2+z
x,1/2-y,1/2+z
loop_
_atom_site_type_symbol
_atom_site_label
_atom_site_fract_x
_atom_site_fract_y
_atom_site_fract_z
Si Si1 0.730070 0.000001 0.762093
Si Si2 0.590815 0.529432 0.688682
Si Si3 0.264396 0.999835 0.918433
Si Si4 0.578649 0.265752 0.352364
Si Si5 0.503594 0.605078 0.698180
Si Si6 0.133542 0.460101 0.550875
Si Si7 0.353472 0.547815 0.451125
Si Si8 0.642830 0.847755 0.802640
O O1 0.750000 0.250000 0.802885
O O2 0.739615 0.000015 0.666062
O O3 0.750000 0.750000 0.802826
O O4 0.682074 0.005113 0.775670
O O5 0.581675 0.334486 0.760553
O O6 0.547649 0.633570 0.656403
O O7 0.612848 0.381773 0.615366
O O8 0.620022 0.753677 0.721362
O O9 0.250000 0.750000 0.968222
O O10 0.311909 0.006645 0.904362
O O11 0.250000 0.250000 0.968519
O O12 0.532749 0.357653 0.366923
O O13 0.612103 0.487784 0.358453
O O14 0.588670 0.052527 0.420850
O O15 0.498083 0.321285 0.732825
O O16 0.154023 0.707786 0.509175
O O17 0.155919 0.384053 0.636297
O O18 0.132196 0.214383 0.493212
#
# Coordination Sequence:
#
# PCOD8228470 Si02
#       8
#     8   8   8   8   8   8   8   8
#     4  10  23  37  63 100 126 154 214 283 326 376
#     4  10  23  37  72 105 130 172 232 286 329 392
#     4  10  21  39  62  92 127 160 204 278 336 376
#     4  10  22  42  71  97 134 181 223 277 334 404
#     4  10  20  38  62 105 137 165 219 290 339 383
#     4  11  26  44  66  93 137 190 216 264 332 419
#     4  12  25  43  68  96 136 175 227 271 337 406
#     4  11  22  44  73  96 133 180 228 269 344 401
#
# _framework density 22.366067999999999
#
# number of rings (size 3 to 8) (size 9 to 14) (size 15 to 20)
#    0.000    1.500    2.500    2.250    8.750    0.000 
#    0.000    3.750    0.000    0.000    0.000    0.000 
#    0.000    0.000    0.000    0.000    0.000    0.000 
#
# Total GULP energy -792961.925098 kJ/mol
# GULP energy per Si atom -12390.030080 kJ/mol
# Density = 2.231516 g / cm^3
# Si number density = 22.366068 Si / 1000 Ang^3
#
#
#
# Elastic Constant Matrix: (Units=GPa)
#
#
# Indices 1 2 3 4 5 6 
#
# 1 193.0036 53.3091 41.5354 0.0000 0.0000 0.0000
# 2 53.3091 149.4785 22.7030 0.0000 0.0000 0.0000
# 3 41.5354 22.7030 57.6504 0.0000 0.0000 0.0000
# 4 0.0000 0.0000 0.0000 17.7267 0.0000 0.0000
# 5 0.0000 0.0000 0.0000 0.0000 14.8964 0.0000
# 6 0.0000 0.0000 0.0000 0.0000 0.0000 34.7161
#
#
#
# Elastic Compliance Matrix: (Units=1/GPa)
#
#
# Indices 1 2 3 4 5 6 
#
# 1 0.006520 -0.001714 -0.004023 0.000000 0.000000 0.000000
# 2 -0.001714 0.007566 -0.001744 0.000000 0.000000 0.000000
# 3 -0.004023 -0.001744 0.020931 0.000000 0.000000 0.000000
# 4 0.000000 0.000000 0.000000 0.056412 0.000000 0.000000
# 5 0.000000 0.000000 0.000000 0.000000 0.067130 0.000000
# 6 0.000000 0.000000 0.000000 0.000000 0.000000 0.028805
#
#
# Mechanical properties :
#
#
# Convention : Reuss Voigt Hill
#
# Bulk Modulus (GPa) = 49.86336 70.58082 60.22209
# Shear Modulus (GPa) = 23.92191 32.30684 28.11437
#
# Velocity S-wave (km/s) = 3.27396 3.80473 3.54928
# Velocity P-wave (km/s) = 6.05264 7.13630 6.61669
#
# Compressibility (1/GPa) = 0.02005481
#
# Stress axis : x y z
#
# Youngs Moduli (GPa) = 153.36260 132.16486 47.77583
#
# Poissons Ratio (x) = 0.22659 0.19219
# Poissons Ratio (y) = 0.26293 0.08334
# Poissons Ratio (z) = 0.61693 0.23055
#
# Static dielectric constant tensor:
#      x y z
#    x 4.323650 0.000000 0.000000 
#    y 0.000000 5.472480 0.000000 
#    z 0.000000 0.000000 3.623880 
# 
# 
# High freq. dielectric constant tensor:
#      x y z
#    x 1.884430 0.000000 0.000000 
#    y 0.000000 1.903160 0.000000 
#    z 0.000000 0.000000 1.833990 
# 
# From -- ./inp_files/17124.got.cif
#   From: 2010.03.12/outbox.cif.g09.slc.cpg/sg56_9_cif.got.tgz:17124.got - 2010.04.16 15:33:40.
