data_PCOD8228579
_publ_section_title
;
Structure prediction by ZEFSAII (Michael W. Deem and Ramdas Pophale) SiO2 
 PCOD8228579
Probable space group: P C C N
;
_chemical_formula_sum "Si O2"
_cell_formula_units_Z 64
_cell_length_a 11.667200
_cell_length_b 23.132026
_cell_length_c 12.190826
_cell_angle_alpha 90.000000
_cell_angle_beta 90.000000
_cell_angle_gamma 90.000000
_cell_volume 3290.132946
_symmetry_space_group_name_H-M "P C C N"
_symmetry_group_IT_number 56
_symmetry_cell_setting 'orthorhombic'
loop_
_space_group_symop_operation_xyz
x,y,z
1/2-x,1/2-y,z
1/2+x,-y,1/2-z
-x,1/2+y,1/2-z
-x,-y,-z
1/2+x,1/2+y,-z
1/2-x,y,1/2+z
x,1/2-y,1/2+z
loop_
_atom_site_type_symbol
_atom_site_label
_atom_site_fract_x
_atom_site_fract_y
_atom_site_fract_z
Si Si1 0.556604 0.058365 0.237302
Si Si2 0.832990 0.565203 0.904065
Si Si3 0.313247 0.553418 0.477011
Si Si4 0.401018 0.631621 0.929902
Si Si5 0.092382 0.440411 0.680713
Si Si6 0.883985 0.303453 0.794673
Si Si7 0.027718 0.389718 0.907944
Si Si8 0.631927 0.324065 0.847610
O O1 0.428684 0.055092 0.188457
O O2 0.650998 0.042338 0.147406
O O3 0.582729 0.122364 0.279695
O O4 0.574580 0.010025 0.332711
O O5 0.717886 0.585828 0.844121
O O6 0.793610 0.507255 0.964750
O O7 0.876364 0.611527 0.995854
O O8 0.199305 0.591080 0.475996
O O9 0.413089 0.584619 0.542142
O O10 0.508510 0.591542 0.902995
O O11 0.368464 0.670551 0.826425
O O12 0.425759 0.674731 0.031526
O O13 0.066413 0.429659 0.808113
O O14 0.769972 0.323112 0.859480
O O15 0.902976 0.234875 0.785479
O O16 0.996136 0.326858 0.859235
#
# Coordination Sequence:
#
# PCOD8228579 Si02
#       8
#     8   8   8   8   8   8   8   8
#     4  11  22  38  61  91 129 166 203 264 316 377
#     4  11  23  37  62  88 125 174 215 242 319 388
#     4  11  19  37  61  91 121 168 202 248 324 379
#     4  11  24  39  64  94 130 158 206 267 315 374
#     4  11  24  37  61  94 127 166 210 257 309 381
#     4  10  23  40  64  91 123 165 204 260 324 379
#     4  10  20  41  59  86 127 162 200 262 316 368
#     4  11  23  39  63  95 126 156 208 266 318 373
#
# _framework density 19.452100000000002
#
# number of rings (size 3 to 8) (size 9 to 14) (size 15 to 20)
#    0.000    1.250    5.000    1.500    1.750    7.000 
#    0.000    0.000    0.000    9.750    0.000    0.000 
#    0.000    0.000    0.000    0.000    0.000    0.000 
#
# Total GULP energy -793370.508503 kJ/mol
# GULP energy per Si atom -12396.414195 kJ/mol
# Density = 1.940783 g / cm^3
# Si number density = 19.452100 Si / 1000 Ang^3
#
#
#
# Elastic Constant Matrix: (Units=GPa)
#
#
# Indices 1 2 3 4 5 6 
#
# 1 87.5278 32.8922 39.8496 0.0000 0.0000 0.0000
# 2 32.8922 111.5892 41.1019 0.0000 0.0000 0.0000
# 3 39.8496 41.1019 84.8193 0.0000 0.0000 0.0000
# 4 0.0000 0.0000 0.0000 25.0257 0.0000 0.0000
# 5 0.0000 0.0000 0.0000 0.0000 10.1977 0.0000
# 6 0.0000 0.0000 0.0000 0.0000 0.0000 22.3282
#
#
#
# Elastic Compliance Matrix: (Units=1/GPa)
#
#
# Indices 1 2 3 4 5 6 
#
# 1 0.014972 -0.002218 -0.005959 0.000000 0.000000 0.000000
# 2 -0.002218 0.011237 -0.004403 0.000000 0.000000 0.000000
# 3 -0.005959 -0.004403 0.016723 0.000000 0.000000 0.000000
# 4 0.000000 0.000000 0.000000 0.039959 0.000000 0.000000
# 5 0.000000 0.000000 0.000000 0.000000 0.098061 0.000000
# 6 0.000000 0.000000 0.000000 0.000000 0.000000 0.044786
#
#
# Mechanical properties :
#
#
# Convention : Reuss Voigt Hill
#
# Bulk Modulus (GPa) = 56.27120 56.84709 56.55914
# Shear Modulus (GPa) = 19.46867 22.84981 21.15924
#
# Velocity S-wave (km/s) = 3.16706 3.43106 3.30170
# Velocity P-wave (km/s) = 6.50880 6.70700 6.60865
#
# Compressibility (1/GPa) = 0.01777108
#
# Stress axis : x y z
#
# Youngs Moduli (GPa) = 66.79345 88.99099 59.79744
#
# Poissons Ratio (x) = 0.19739 0.35633
# Poissons Ratio (y) = 0.14816 0.26330
# Poissons Ratio (z) = 0.39802 0.39184
#
# Static dielectric constant tensor:
#      x y z
#    x 3.531930 0.000000 0.000000 
#    y 0.000000 3.504610 0.000000 
#    z 0.000000 0.000000 3.716610 
# 
# 
# High freq. dielectric constant tensor:
#      x y z
#    x 1.745350 0.000000 0.000000 
#    y 0.000000 1.744700 0.000000 
#    z 0.000000 0.000000 1.769150 
# 
# From -- ./inp_files/7399.got.cif
#   From: 2010.03.12/outbox.cif.g09.slc.cpg/sg56_4_cif.got.tgz:7399.got - 2010.04.16 15:33:40.
