data_PCOD8228680
_publ_section_title
;
Structure prediction by ZEFSAII (Michael W. Deem and Ramdas Pophale) SiO2 
 PCOD8228680
Probable space group: P C C N
;
_chemical_formula_sum "Si O2"
_cell_formula_units_Z 40
_cell_length_a 8.537364
_cell_length_b 12.415634
_cell_length_c 18.531443
_cell_angle_alpha 90.000000
_cell_angle_beta 90.000000
_cell_angle_gamma 90.000000
_cell_volume 1964.273412
_symmetry_space_group_name_H-M "P C C N"
_symmetry_group_IT_number 56
_symmetry_cell_setting 'orthorhombic'
loop_
_space_group_symop_operation_xyz
x,y,z
1/2-x,1/2-y,z
1/2+x,-y,1/2-z
-x,1/2+y,1/2-z
-x,-y,-z
1/2+x,1/2+y,-z
1/2-x,y,1/2+z
x,1/2-y,1/2+z
loop_
_atom_site_type_symbol
_atom_site_label
_atom_site_fract_x
_atom_site_fract_y
_atom_site_fract_z
Si Si1 0.776237 0.874328 0.316402
Si Si2 0.193141 0.866374 0.987410
Si Si3 0.952406 0.512362 0.406088
Si Si4 0.959891 0.472773 0.082897
Si Si5 0.730817 0.874697 0.650474
O O1 0.750000 0.750000 0.332023
O O2 0.615709 0.938869 0.332629
O O3 0.814722 0.896175 0.233439
O O4 0.908577 0.914286 0.370963
O O5 0.250000 0.750000 0.016617
O O6 0.313547 0.891614 0.922853
O O7 0.018420 0.886094 0.953675
O O8 0.194046 0.950777 0.054573
O O9 0.088749 0.424761 0.394917
O O10 0.898448 0.576166 0.127357
O O11 0.000000 0.500000 0.000000
O O12 0.750000 0.750000 0.632787
#
# Coordination Sequence:
#
# PCOD8228680 Si02
#       5
#     8   8   8   8   8
#     4  11  22  40  62  88 120 165 204 249 310 364
#     4  10  21  37  56  86 118 150 191 246 305 349
#     4  10  21  38  57  83 119 152 194 249 294 356
#     4  11  22  38  61  92 121 155 207 254 299 361
#     4  10  24  40  60  87 124 165 205 247 306 367
#
# _framework density 20.363765000000001
#
# number of rings (size 3 to 8) (size 9 to 14) (size 15 to 20)
#    0.000    1.600    2.000    2.400    2.800    0.800 
#    0.000    0.000    0.000    9.600    0.000    0.000 
#    0.000    0.000    0.000    0.000    0.000    0.000 
#
# Total GULP energy -495599.082725 kJ/mol
# GULP energy per Si atom -12389.977068 kJ/mol
# Density = 2.031742 g / cm^3
# Si number density = 20.363765 Si / 1000 Ang^3
#
#
#
# Elastic Constant Matrix: (Units=GPa)
#
#
# Indices 1 2 3 4 5 6 
#
# 1 78.8277 54.0691 45.8944 0.0000 0.0000 0.0000
# 2 54.0691 116.5249 50.1115 0.0000 0.0000 0.0000
# 3 45.8944 50.1115 110.6330 0.0000 0.0000 0.0000
# 4 0.0000 0.0000 0.0000 30.8609 0.0000 0.0000
# 5 0.0000 0.0000 0.0000 0.0000 35.0380 0.0000
# 6 0.0000 0.0000 0.0000 0.0000 0.0000 36.8933
#
#
#
# Elastic Compliance Matrix: (Units=1/GPa)
#
#
# Indices 1 2 3 4 5 6 
#
# 1 0.020840 -0.007392 -0.005297 0.000000 0.000000 0.000000
# 2 -0.007392 0.013280 -0.002949 0.000000 0.000000 0.000000
# 3 -0.005297 -0.002949 0.012572 0.000000 0.000000 0.000000
# 4 0.000000 0.000000 0.000000 0.032403 0.000000 0.000000
# 5 0.000000 0.000000 0.000000 0.000000 0.028540 0.000000
# 6 0.000000 0.000000 0.000000 0.000000 0.000000 0.027105
#
#
# Mechanical properties :
#
#
# Convention : Reuss Voigt Hill
#
# Bulk Modulus (GPa) = 64.86561 67.34839 66.10700
# Shear Modulus (GPa) = 29.21317 30.95248 30.08283
#
# Velocity S-wave (km/s) = 3.79168 3.90292 3.84770
# Velocity P-wave (km/s) = 7.14784 7.31128 7.23002
#
# Compressibility (1/GPa) = 0.01541649
#
# Stress axis : x y z
#
# Youngs Moduli (GPa) = 47.98403 75.30109 79.54280
#
# Poissons Ratio (x) = 0.55664 0.42133
# Poissons Ratio (y) = 0.35471 0.23455
# Poissons Ratio (z) = 0.25417 0.22204
#
# Static dielectric constant tensor:
#      x y z
#    x 3.992530 0.000000 0.000000 
#    y 0.000000 3.795700 0.000000 
#    z 0.000000 0.000000 3.722690 
# 
# 
# High freq. dielectric constant tensor:
#      x y z
#    x 1.802990 0.000000 0.000000 
#    y 0.000000 1.792370 0.000000 
#    z 0.000000 0.000000 1.796820 
# 
# From -- ./inp_files/14405.got.cif
#   From: 2010.03.12/outbox.cif.g09.slc.cpg/sg56_8_cif.got.tgz:14405.got - 2010.04.16 15:33:40.
