data_PCOD8228150
_publ_section_title
;
Structure prediction by ZEFSAII (Michael W. Deem and Ramdas Pophale) SiO2 
 PCOD8228150
Probable space group: P C C N
;
_chemical_formula_sum "Si O2"
_cell_formula_units_Z 60
_cell_length_a 14.458119
_cell_length_b 7.967555
_cell_length_c 21.945581
_cell_angle_alpha 90.000000
_cell_angle_beta 90.000000
_cell_angle_gamma 90.000000
_cell_volume 2528.040040
_symmetry_space_group_name_H-M "P C C N"
_symmetry_group_IT_number 56
_symmetry_cell_setting 'orthorhombic'
loop_
_space_group_symop_operation_xyz
x,y,z
1/2-x,1/2-y,z
1/2+x,-y,1/2-z
-x,1/2+y,1/2-z
-x,-y,-z
1/2+x,1/2+y,-z
1/2-x,y,1/2+z
x,1/2-y,1/2+z
loop_
_atom_site_type_symbol
_atom_site_label
_atom_site_fract_x
_atom_site_fract_y
_atom_site_fract_z
Si Si1 0.852861 0.684259 0.159203
Si Si2 0.867831 0.443324 0.372295
Si Si3 0.250000 0.750000 0.037321
Si Si4 0.007673 0.235503 0.163948
Si Si5 0.455685 0.173257 0.440299
Si Si6 0.082039 0.795875 0.955595
Si Si7 0.712357 0.081594 0.243940
Si Si8 0.409672 0.462030 0.756496
O O1 0.750000 0.750000 0.156141
O O2 0.891780 0.681827 0.089949
O O3 0.855158 0.507324 0.195027
O O4 0.919654 0.814698 0.193967
O O5 0.781321 0.408253 0.419180
O O6 0.902154 0.636433 0.363474
O O7 0.843369 0.373310 0.305270
O O8 0.952455 0.339913 0.399337
O O9 0.166013 0.705413 0.991096
O O10 0.039447 0.409261 0.194186
O O11 0.935626 0.285155 0.110568
O O12 0.953881 0.129128 0.215620
O O13 0.486229 0.230155 0.507352
O O14 0.400428 0.996210 0.445595
O O15 0.750000 0.250000 0.212228
O O16 0.801402 0.971182 0.260950
#
# Coordination Sequence:
#
# PCOD8228150 Si02
#       8
#     8   8   4   8   8   8   8   8
#     4  10  20  38  65  98 139 176 229 281 354 421
#     4  10  19  35  66  94 138 183 235 280 352 418
#     4  10  20  36  64 108 134 188 230 300 348 418
#     4  11  23  42  68 102 138 189 230 293 363 442
#     4   9  18  38  67  96 126 187 231 287 351 427
#     4   9  19  38  67  96 135 174 239 283 354 414
#     4  11  24  41  63 101 143 187 233 293 356 432
#     4  11  24  40  66 101 143 180 231 287 369 429
#
# _framework density 23.733799999999999
#
# number of rings (size 3 to 8) (size 9 to 14) (size 15 to 20)
#    0.000    1.867    4.667    0.800    1.867    0.000 
#    1.200    2.667   11.733    0.800    0.000    0.000 
#    0.000    0.000    0.000    0.000    0.000    0.000 
#
# Total GULP energy -743510.514633 kJ/mol
# GULP energy per Si atom -12391.841911 kJ/mol
# Density = 2.367978 g / cm^3
# Si number density = 23.733800 Si / 1000 Ang^3
#
#
#
# Elastic Constant Matrix: (Units=GPa)
#
#
# Indices 1 2 3 4 5 6 
#
# 1 78.5906 15.7840 52.4717 0.0000 0.0000 0.0000
# 2 15.7840 41.7856 39.8483 0.0000 0.0000 0.0000
# 3 52.4717 39.8483 150.1982 0.0000 0.0000 0.0000
# 4 0.0000 0.0000 0.0000 36.6727 0.0000 0.0000
# 5 0.0000 0.0000 0.0000 0.0000 55.8270 0.0000
# 6 0.0000 0.0000 0.0000 0.0000 0.0000 33.7339
#
#
#
# Elastic Compliance Matrix: (Units=1/GPa)
#
#
# Indices 1 2 3 4 5 6 
#
# 1 0.016626 -0.000992 -0.005545 0.000000 0.000000 0.000000
# 2 -0.000992 0.032096 -0.008169 0.000000 0.000000 0.000000
# 3 -0.005545 -0.008169 0.010762 0.000000 0.000000 0.000000
# 4 0.000000 0.000000 0.000000 0.027268 0.000000 0.000000
# 5 0.000000 0.000000 0.000000 0.000000 0.017912 0.000000
# 6 0.000000 0.000000 0.000000 0.000000 0.000000 0.029644
#
#
# Mechanical properties :
#
#
# Convention : Reuss Voigt Hill
#
# Bulk Modulus (GPa) = 33.25306 54.08695 43.67000
# Shear Modulus (GPa) = 28.77790 36.07808 32.42799
#
# Velocity S-wave (km/s) = 3.48591 3.90309 3.70039
# Velocity P-wave (km/s) = 5.49940 6.56892 6.05781
#
# Compressibility (1/GPa) = 0.03007242
#
# Stress axis : x y z
#
# Youngs Moduli (GPa) = 60.14841 31.15611 92.91824
#
# Poissons Ratio (x) = 0.03092 0.51522
# Poissons Ratio (y) = 0.05969 0.75902
# Poissons Ratio (z) = 0.33351 0.25450
#
# Static dielectric constant tensor:
#      x y z
#    x 4.418320 0.000000 0.000000 
#    y 0.000000 3.932820 0.000000 
#    z 0.000000 0.000000 4.571490 
# 
# 
# High freq. dielectric constant tensor:
#      x y z
#    x 1.942950 0.000000 0.000000 
#    y 0.000000 1.897380 0.000000 
#    z 0.000000 0.000000 1.949700 
# 
# From -- ./inp_files/21143.got.cif
#   From: 2010.03.12/outbox.cif.g09.slc.cpg/sg56_11_cif.got.tgz:21143.got - 2010.04.16 15:33:40.
