data_PCOD8228643
_publ_section_title
;
Structure prediction by ZEFSAII (Michael W. Deem and Ramdas Pophale) SiO2 
 PCOD8228643
Probable space group: P C C N
;
_chemical_formula_sum "Si O2"
_cell_formula_units_Z 40
_cell_length_a 6.157619
_cell_length_b 18.579838
_cell_length_c 18.225588
_cell_angle_alpha 90.000000
_cell_angle_beta 90.000000
_cell_angle_gamma 90.000000
_cell_volume 2085.145116
_symmetry_space_group_name_H-M "P C C N"
_symmetry_group_IT_number 56
_symmetry_cell_setting 'orthorhombic'
loop_
_space_group_symop_operation_xyz
x,y,z
1/2-x,1/2-y,z
1/2+x,-y,1/2-z
-x,1/2+y,1/2-z
-x,-y,-z
1/2+x,1/2+y,-z
1/2-x,y,1/2+z
x,1/2-y,1/2+z
loop_
_atom_site_type_symbol
_atom_site_label
_atom_site_fract_x
_atom_site_fract_y
_atom_site_fract_z
Si Si1 0.455425 0.074064 0.088864
Si Si2 0.060232 0.412339 0.306584
Si Si3 0.792790 0.166295 0.692448
Si Si4 0.191412 0.039083 0.956265
Si Si5 0.905278 0.566536 0.298045
O O1 0.535413 0.147980 0.127328
O O2 0.263882 0.042360 0.138962
O O3 0.657937 0.019299 0.084810
O O4 0.347868 0.086822 0.008693
O O5 0.079041 0.409382 0.395046
O O6 0.293761 0.393849 0.271294
O O7 0.879497 0.358431 0.273209
O O8 0.019228 0.492551 0.274902
O O9 0.750000 0.250000 0.693902
O O10 0.574449 0.124511 0.671344
O O11 0.000000 0.000000 0.000000
#
# Coordination Sequence:
#
# PCOD8228643 Si02
#       5
#     8   8   8   8   8
#     4  10  21  34  60  91 119 159 203 260 322 371
#     4  11  20  33  62  91 117 155 206 263 309 371
#     4  11  24  39  60  89 127 167 207 263 318 381
#     4  11  20  35  60  96 122 154 205 265 315 377
#     4  11  19  37  60  90 115 152 210 260 310 372
#
# _framework density 19.183316000000001
#
# number of rings (size 3 to 8) (size 9 to 14) (size 15 to 20)
#    0.000    1.200    6.000    1.200    0.000    3.200 
#    0.000    0.000    0.000   18.000    0.000    0.000 
#    0.000    0.000    0.000    0.000    0.000    0.000 
#
# Total GULP energy -495744.274979 kJ/mol
# GULP energy per Si atom -12393.606874 kJ/mol
# Density = 1.913965 g / cm^3
# Si number density = 19.183316 Si / 1000 Ang^3
#
#
#
# Elastic Constant Matrix: (Units=GPa)
#
#
# Indices 1 2 3 4 5 6 
#
# 1 101.0245 37.4974 49.1104 0.0000 0.0000 0.0000
# 2 37.4974 109.8795 39.6924 0.0000 0.0000 0.0000
# 3 49.1104 39.6924 141.0272 0.0000 0.0000 0.0000
# 4 0.0000 0.0000 0.0000 13.7395 0.0000 0.0000
# 5 0.0000 0.0000 0.0000 0.0000 43.8473 0.0000
# 6 0.0000 0.0000 0.0000 0.0000 0.0000 23.1165
#
#
#
# Elastic Compliance Matrix: (Units=1/GPa)
#
#
# Indices 1 2 3 4 5 6 
#
# 1 0.012781 -0.003065 -0.003588 0.000000 0.000000 0.000000
# 2 -0.003065 0.010866 -0.001991 0.000000 0.000000 0.000000
# 3 -0.003588 -0.001991 0.008901 0.000000 0.000000 0.000000
# 4 0.000000 0.000000 0.000000 0.072783 0.000000 0.000000
# 5 0.000000 0.000000 0.000000 0.000000 0.022806 0.000000
# 6 0.000000 0.000000 0.000000 0.000000 0.000000 0.043259
#
#
# Mechanical properties :
#
#
# Convention : Reuss Voigt Hill
#
# Bulk Modulus (GPa) = 65.53479 67.17017 66.35248
# Shear Modulus (GPa) = 25.80379 31.18274 28.49326
#
# Velocity S-wave (km/s) = 3.67156 4.03614 3.85816
# Velocity P-wave (km/s) = 7.22567 7.53734 7.38315
#
# Compressibility (1/GPa) = 0.01525907
#
# Stress axis : x y z
#
# Youngs Moduli (GPa) = 78.24414 92.02902 112.35252
#
# Poissons Ratio (x) = 0.28211 0.40310
# Poissons Ratio (y) = 0.23985 0.22367
# Poissons Ratio (z) = 0.28073 0.18321
#
# Static dielectric constant tensor:
#      x y z
#    x 3.890140 0.000000 0.000000 
#    y 0.000000 2.938210 0.000000 
#    z 0.000000 0.000000 3.682610 
# 
# 
# High freq. dielectric constant tensor:
#      x y z
#    x 1.775870 0.000000 0.000000 
#    y 0.000000 1.680410 0.000000 
#    z 0.000000 0.000000 1.753680 
# 
# From -- ./inp_files/13815.got.cif
#   From: 2010.03.12/outbox.cif.g09.slc.cpg/sg56_7_cif.got.tgz:13815.got - 2010.04.16 15:33:40.
