data_PCOD8228863
_publ_section_title
;
Structure prediction by ZEFSAII (Michael W. Deem and Ramdas Pophale) SiO2 
 PCOD8228863
Probable space group: P C C N
;
_chemical_formula_sum "Si O2"
_cell_formula_units_Z 56
_cell_length_a 10.086299
_cell_length_b 18.725307
_cell_length_c 12.415654
_cell_angle_alpha 90.000000
_cell_angle_beta 90.000000
_cell_angle_gamma 90.000000
_cell_volume 2344.932717
_symmetry_space_group_name_H-M "P C C N"
_symmetry_group_IT_number 56
_symmetry_cell_setting 'orthorhombic'
loop_
_space_group_symop_operation_xyz
x,y,z
1/2-x,1/2-y,z
1/2+x,-y,1/2-z
-x,1/2+y,1/2-z
-x,-y,-z
1/2+x,1/2+y,-z
1/2-x,y,1/2+z
x,1/2-y,1/2+z
loop_
_atom_site_type_symbol
_atom_site_label
_atom_site_fract_x
_atom_site_fract_y
_atom_site_fract_z
Si Si1 0.937241 0.936330 0.247632
Si Si2 0.250000 0.250000 0.509227
Si Si3 0.464353 0.795355 0.048637
Si Si4 0.472814 0.425970 0.327229
Si Si5 0.781629 0.988995 0.060908
Si Si6 0.250000 0.750000 0.698719
Si Si7 0.194685 0.109291 0.134072
Si Si8 0.823382 0.365549 0.146044
O O1 0.825730 0.883857 0.293071
O O2 0.081256 0.903523 0.266950
O O3 0.910902 0.958217 0.123705
O O4 0.926221 0.008709 0.317088
O O5 0.379219 0.275440 0.442282
O O6 0.312420 0.184236 0.573588
O O7 0.442873 0.870271 0.106450
O O8 0.377087 0.739524 0.118704
O O9 0.406931 0.809978 0.929020
O O10 0.345011 0.448229 0.394454
O O11 0.433312 0.396780 0.209420
O O12 0.760595 0.075045 0.078041
O O13 0.802407 0.962474 0.939023
O O14 0.270805 0.681584 0.776976
#
# Coordination Sequence:
#
# PCOD8228863 Si02
#       8
#     8   4   8   8   8   4   8   8
#     4  10  21  41  67 100 135 187 248 306 366 441
#     4  12  26  44  74 106 144 198 244 316 370 442
#     4  12  26  48  72 103 150 199 245 306 378 451
#     4  10  22  40  68  99 134 187 239 303 366 439
#     4  10  21  41  68 101 138 182 249 310 369 434
#     4  12  30  46  70 106 150 202 252 306 380 460
#     4  11  23  41  67 106 143 183 251 311 378 438
#     4  11  24  46  71 100 149 201 250 304 384 454
#
# _framework density 23.881283
#
# number of rings (size 3 to 8) (size 9 to 14) (size 15 to 20)
#    0.000    1.143    2.857    2.143    4.000    5.714 
#    2.571    0.000    0.000    0.000    0.000    0.000 
#    0.000    0.000    0.000    0.000    0.000    0.000 
#
# Total GULP energy -693974.437761 kJ/mol
# GULP energy per Si atom -12392.400674 kJ/mol
# Density = 2.382693 g / cm^3
# Si number density = 23.881283 Si / 1000 Ang^3
#
#
#
# Elastic Constant Matrix: (Units=GPa)
#
#
# Indices 1 2 3 4 5 6 
#
# 1 58.4118 6.7987 27.6856 0.0000 0.0000 0.0000
# 2 6.7987 89.8282 17.7881 0.0000 0.0000 0.0000
# 3 27.6856 17.7881 81.4586 0.0000 0.0000 0.0000
# 4 0.0000 0.0000 0.0000 26.1809 0.0000 0.0000
# 5 0.0000 0.0000 0.0000 0.0000 34.1612 0.0000
# 6 0.0000 0.0000 0.0000 0.0000 0.0000 21.1516
#
#
#
# Elastic Compliance Matrix: (Units=1/GPa)
#
#
# Indices 1 2 3 4 5 6 
#
# 1 0.020410 -0.000179 -0.006898 0.000000 0.000000 0.000000
# 2 -0.000179 0.011637 -0.002480 0.000000 0.000000 0.000000
# 3 -0.006898 -0.002480 0.015162 0.000000 0.000000 0.000000
# 4 0.000000 0.000000 0.000000 0.038196 0.000000 0.000000
# 5 0.000000 0.000000 0.000000 0.000000 0.029273 0.000000
# 6 0.000000 0.000000 0.000000 0.000000 0.000000 0.047278
#
#
# Mechanical properties :
#
#
# Convention : Reuss Voigt Hill
#
# Bulk Modulus (GPa) = 35.59320 37.13817 36.36569
# Shear Modulus (GPa) = 26.25570 28.12716 27.19143
#
# Velocity S-wave (km/s) = 3.31936 3.43562 3.37799
# Velocity P-wave (km/s) = 5.44311 5.59669 5.52043
#
# Compressibility (1/GPa) = 0.02809525
#
# Stress axis : x y z
#
# Youngs Moduli (GPa) = 48.99561 85.93222 65.95356
#
# Poissons Ratio (x) = 0.01537 0.45493
# Poissons Ratio (y) = 0.00876 0.16359
# Poissons Ratio (z) = 0.33796 0.21315
#
# Static dielectric constant tensor:
#      x y z
#    x 4.164030 0.000000 0.000000 
#    y 0.000000 4.363240 0.000000 
#    z 0.000000 0.000000 4.320550 
# 
# 
# High freq. dielectric constant tensor:
#      x y z
#    x 1.939860 0.000000 0.000000 
#    y 0.000000 1.946830 0.000000 
#    z 0.000000 0.000000 1.943560 
# 
# From -- ./inp_files/7280.got.cif
#   From: 2010.03.12/outbox.cif.g09.slc.cpg/sg56_4_cif.got.tgz:7280.got - 2010.04.16 15:33:40.
