data_PCOD8228446
_publ_section_title
;
Structure prediction by ZEFSAII (Michael W. Deem and Ramdas Pophale) SiO2 
 PCOD8228446
Probable space group: P C C N
;
_chemical_formula_sum "Si O2"
_cell_formula_units_Z 52
_cell_length_a 10.888792
_cell_length_b 9.411705
_cell_length_c 23.395929
_cell_angle_alpha 90.000000
_cell_angle_beta 90.000000
_cell_angle_gamma 90.000000
_cell_volume 2397.663891
_symmetry_space_group_name_H-M "P C C N"
_symmetry_group_IT_number 56
_symmetry_cell_setting 'orthorhombic'
loop_
_space_group_symop_operation_xyz
x,y,z
1/2-x,1/2-y,z
1/2+x,-y,1/2-z
-x,1/2+y,1/2-z
-x,-y,-z
1/2+x,1/2+y,-z
1/2-x,y,1/2+z
x,1/2-y,1/2+z
loop_
_atom_site_type_symbol
_atom_site_label
_atom_site_fract_x
_atom_site_fract_y
_atom_site_fract_z
Si Si1 0.125844 0.670232 0.518221
Si Si2 0.504098 0.325992 0.866879
Si Si3 0.241726 0.509970 0.759725
Si Si4 0.136202 0.160116 0.032612
Si Si5 0.250000 0.250000 0.344539
Si Si6 0.391575 0.387250 0.159085
Si Si7 0.564578 0.235822 0.742635
O O1 0.250000 0.750000 0.496572
O O2 0.149974 0.502354 0.511882
O O3 0.101477 0.715469 0.584135
O O4 0.001665 0.714760 0.483806
O O5 0.366003 0.281782 0.885684
O O6 0.506639 0.495056 0.857599
O O7 0.529652 0.243806 0.808657
O O8 0.226336 0.384647 0.804305
O O9 0.219709 0.459549 0.694336
O O10 0.145302 0.632101 0.776861
O O11 0.374852 0.580301 0.763602
O O12 0.250000 0.250000 0.005218
O O13 0.154401 0.180838 0.100606
O O14 0.447372 0.266411 0.200890
#
# Coordination Sequence:
#
# PCOD8228446 Si02
#       7
#     8   8   8   8   4   8   8
#     4  10  24  48  69  91 129 169 217 278 330 383
#     4  10  22  35  62  89 122 166 210 260 318 382
#     4  10  22  34  57  85 128 165 204 250 313 374
#     4  10  24  45  70  97 126 169 219 274 328 383
#     4  12  20  36  54  92 126 164 206 258 310 382
#     4  10  20  39  59  89 128 163 205 261 311 378
#     4  10  20  38  55  89 126 164 206 251 311 388
#
# _framework density 21.687777000000001
#
# number of rings (size 3 to 8) (size 9 to 14) (size 15 to 20)
#    0.000    1.846    3.077    0.000    8.615    0.615 
#    5.538    0.000    0.000    0.000    0.000    0.000 
#    0.000    0.000    0.000    0.000    0.000    0.000 
#
# Total GULP energy -644449.537133 kJ/mol
# GULP energy per Si atom -12393.260329 kJ/mol
# Density = 2.163842 g / cm^3
# Si number density = 21.687777 Si / 1000 Ang^3
#
#
#
# Elastic Constant Matrix: (Units=GPa)
#
#
# Indices 1 2 3 4 5 6 
#
# 1 138.4577 56.2531 17.1404 0.0000 0.0000 0.0000
# 2 56.2531 73.2928 26.5210 0.0000 0.0000 0.0000
# 3 17.1404 26.5210 46.9840 0.0000 0.0000 0.0000
# 4 0.0000 0.0000 0.0000 21.7567 0.0000 0.0000
# 5 0.0000 0.0000 0.0000 0.0000 22.9996 0.0000
# 6 0.0000 0.0000 0.0000 0.0000 0.0000 36.0632
#
#
#
# Elastic Compliance Matrix: (Units=1/GPa)
#
#
# Indices 1 2 3 4 5 6 
#
# 1 0.010526 -0.008406 0.000905 0.000000 0.000000 0.000000
# 2 -0.008406 0.023859 -0.010401 0.000000 0.000000 0.000000
# 3 0.000905 -0.010401 0.026825 0.000000 0.000000 0.000000
# 4 0.000000 0.000000 0.000000 0.045963 0.000000 0.000000
# 5 0.000000 0.000000 0.000000 0.000000 0.043479 0.000000
# 6 0.000000 0.000000 0.000000 0.000000 0.000000 0.027729
#
#
# Mechanical properties :
#
#
# Convention : Reuss Voigt Hill
#
# Bulk Modulus (GPa) = 39.36172 50.95149 45.15660
# Shear Modulus (GPa) = 22.45641 26.75190 24.60416
#
# Velocity S-wave (km/s) = 3.22132 3.51593 3.37185
# Velocity P-wave (km/s) = 5.65902 6.32666 6.00213
#
# Compressibility (1/GPa) = 0.02540539
#
# Stress axis : x y z
#
# Youngs Moduli (GPa) = 95.00634 41.91231 37.27885
#
# Poissons Ratio (x) = 0.35232 -0.03374
# Poissons Ratio (y) = 0.79863 0.38775
# Poissons Ratio (z) = -0.08599 0.43594
#
# Static dielectric constant tensor:
#      x y z
#    x 4.245830 0.000000 0.000000 
#    y 0.000000 3.832470 0.000000 
#    z 0.000000 0.000000 3.846750 
# 
# 
# High freq. dielectric constant tensor:
#      x y z
#    x 1.860790 0.000000 0.000000 
#    y 0.000000 1.844540 0.000000 
#    z 0.000000 0.000000 1.838660 
# 
# From -- ./inp_files/22287.got.cif
#   From: 2010.03.12/outbox.cif.g09.slc.cpg/sg56_12_cif.got.tgz:22287.got - 2010.04.16 15:33:40.
