data_PCOD8228711
_publ_section_title
;
Structure prediction by ZEFSAII (Michael W. Deem and Ramdas Pophale) SiO2 
 PCOD8228711
Probable space group: P C C N
;
_chemical_formula_sum "Si O2"
_cell_formula_units_Z 24
_cell_length_a 5.034333
_cell_length_b 8.274827
_cell_length_c 28.473640
_cell_angle_alpha 90.000000
_cell_angle_beta 90.000000
_cell_angle_gamma 90.000000
_cell_volume 1186.161576
_symmetry_space_group_name_H-M "P C C N"
_symmetry_group_IT_number 56
_symmetry_cell_setting 'orthorhombic'
loop_
_space_group_symop_operation_xyz
x,y,z
1/2-x,1/2-y,z
1/2+x,-y,1/2-z
-x,1/2+y,1/2-z
-x,-y,-z
1/2+x,1/2+y,-z
1/2-x,y,1/2+z
x,1/2-y,1/2+z
loop_
_atom_site_type_symbol
_atom_site_label
_atom_site_fract_x
_atom_site_fract_y
_atom_site_fract_z
Si Si1 0.509186 0.857403 0.536271
Si Si2 0.994217 0.640943 0.641641
Si Si3 0.158772 0.065278 0.225607
O O1 0.250000 0.750000 0.534050
O O2 0.562829 0.924365 0.589062
O O3 0.750000 0.750000 0.518963
O O4 0.500000 0.000000 0.500000
O O5 0.250000 0.750000 0.640796
O O6 0.041154 0.488028 0.675285
O O7 0.750000 0.750000 0.660601
O O8 0.250000 0.250000 0.224069
O O9 0.415410 0.955247 0.237766
#
# Coordination Sequence:
#
# PCOD8228711 Si02
#       3
#     8   8   8
#     4  10  21  38  61  87 117 153 190 236 288 339
#     4  10  21  39  60  83 116 154 191 234 286 339
#     4  12  24  39  60  86 115 151 192 238 286 340
#
# _framework density 20.233329999999999
#
# number of rings (size 3 to 8) (size 9 to 14) (size 15 to 20)
#    0.000    1.333    0.000    7.000    0.000    1.333 
#    0.000    3.333    0.000    0.000    0.000    0.000 
#    0.000    0.000    0.000    0.000    0.000    0.000 
#
# Total GULP energy -297626.114019 kJ/mol
# GULP energy per Si atom -12401.088084 kJ/mol
# Density = 2.018728 g / cm^3
# Si number density = 20.233330 Si / 1000 Ang^3
#
#
#
# Elastic Constant Matrix: (Units=GPa)
#
#
# Indices 1 2 3 4 5 6 
#
# 1 151.9783 58.6889 43.1048 0.0000 0.0000 0.0000
# 2 58.6889 135.3798 91.2585 0.0000 0.0000 0.0000
# 3 43.1048 91.2585 132.7421 0.0000 0.0000 0.0000
# 4 0.0000 0.0000 0.0000 47.5885 0.0000 0.0000
# 5 0.0000 0.0000 0.0000 0.0000 34.9617 0.0000
# 6 0.0000 0.0000 0.0000 0.0000 0.0000 36.5514
#
#
#
# Elastic Compliance Matrix: (Units=1/GPa)
#
#
# Indices 1 2 3 4 5 6 
#
# 1 0.007914 -0.003165 -0.000394 0.000000 0.000000 0.000000
# 2 -0.003165 0.015032 -0.009307 0.000000 0.000000 0.000000
# 3 -0.000394 -0.009307 0.014059 0.000000 0.000000 0.000000
# 4 0.000000 0.000000 0.000000 0.021013 0.000000 0.000000
# 5 0.000000 0.000000 0.000000 0.000000 0.028603 0.000000
# 6 0.000000 0.000000 0.000000 0.000000 0.000000 0.027359
#
#
# Mechanical properties :
#
#
# Convention : Reuss Voigt Hill
#
# Bulk Modulus (GPa) = 88.69774 89.57827 89.13801
# Shear Modulus (GPa) = 34.85036 38.95687 36.90362
#
# Velocity S-wave (km/s) = 4.15471 4.39268 4.27535
# Velocity P-wave (km/s) = 8.18218 8.37235 8.27781
#
# Compressibility (1/GPa) = 0.01127424
#
# Stress axis : x y z
#
# Youngs Moduli (GPa) = 126.35965 66.52262 71.12628
#
# Poissons Ratio (x) = 0.21057 0.02800
# Poissons Ratio (y) = 0.39998 0.66195
# Poissons Ratio (z) = 0.04974 0.61911
#
# Static dielectric constant tensor:
#      x y z
#    x 4.110010 0.000000 0.000000 
#    y 0.000000 3.513740 0.000000 
#    z 0.000000 0.000000 4.166540 
# 
# 
# High freq. dielectric constant tensor:
#      x y z
#    x 1.820650 0.000000 0.000000 
#    y 0.000000 1.768800 0.000000 
#    z 0.000000 0.000000 1.801340 
# 
# From -- ./inp_files/19742.got.cif
#   From: 2010.03.12/outbox.cif.g09.slc.cpg/sg56_10_cif.got.tgz:19742.got - 2010.04.16 15:33:40.
