data_PCOD8228528
_publ_section_title
;
Structure prediction by ZEFSAII (Michael W. Deem and Ramdas Pophale) SiO2 
 PCOD8228528
Probable space group: P C C N
;
_chemical_formula_sum "Si O2"
_cell_formula_units_Z 60
_cell_length_a 10.147742
_cell_length_b 23.138688
_cell_length_c 11.166152
_cell_angle_alpha 90.000000
_cell_angle_beta 90.000000
_cell_angle_gamma 90.000000
_cell_volume 2621.873189
_symmetry_space_group_name_H-M "P C C N"
_symmetry_group_IT_number 56
_symmetry_cell_setting 'orthorhombic'
loop_
_space_group_symop_operation_xyz
x,y,z
1/2-x,1/2-y,z
1/2+x,-y,1/2-z
-x,1/2+y,1/2-z
-x,-y,-z
1/2+x,1/2+y,-z
1/2-x,y,1/2+z
x,1/2-y,1/2+z
loop_
_atom_site_type_symbol
_atom_site_label
_atom_site_fract_x
_atom_site_fract_y
_atom_site_fract_z
Si Si1 0.197483 0.536435 0.509736
Si Si2 0.546620 0.148947 0.762433
Si Si3 0.975979 0.532158 0.318946
Si Si4 0.503264 0.726470 0.259486
Si Si5 0.334842 0.630328 0.187020
Si Si6 0.250000 0.250000 0.901400
Si Si7 0.532156 0.052593 0.119702
Si Si8 0.421136 0.342237 0.512980
O O1 0.157517 0.492878 0.619383
O O2 0.168258 0.601886 0.554679
O O3 0.351734 0.532692 0.472572
O O4 0.104485 0.520529 0.399187
O O5 0.451300 0.100602 0.703801
O O6 0.533128 0.209653 0.694812
O O7 0.693868 0.126310 0.750041
O O8 0.516498 0.162618 0.900120
O O9 0.013640 0.505360 0.188218
O O10 0.389813 0.695902 0.178193
O O11 0.635847 0.726580 0.183167
O O12 0.510481 0.690687 0.379929
O O13 0.426916 0.593451 0.272335
O O14 0.213033 0.306937 0.981410
O O15 0.415837 0.088714 0.048799
#
# Coordination Sequence:
#
# PCOD8228528 Si02
#       8
#     8   8   8   8   8   4   8   8
#     4  10  20  42  65  93 140 176 221 286 336 392
#     4  11  21  40  64 103 135 171 226 276 339 412
#     4  10  23  38  64  97 134 182 223 281 339 399
#     4  10  23  41  65  96 136 171 221 279 338 412
#     4  10  20  39  67  97 134 171 223 281 335 407
#     4  10  22  44  64  92 138 168 226 272 338 422
#     4  10  20  41  66  95 133 174 228 277 336 410
#     4  10  22  42  69  92 130 183 217 282 341 398
#
# _framework density 22.884402000000001
#
# number of rings (size 3 to 8) (size 9 to 14) (size 15 to 20)
#    0.000    1.867    2.667    0.800    0.000    2.667 
#    0.000   21.333    0.000    0.000    0.000    0.000 
#    0.000    0.000    0.000    0.000    0.000    0.000 
#
# Total GULP energy -743404.014879 kJ/mol
# GULP energy per Si atom -12390.066915 kJ/mol
# Density = 2.283232 g / cm^3
# Si number density = 22.884402 Si / 1000 Ang^3
#
#
#
# Elastic Constant Matrix: (Units=GPa)
#
#
# Indices 1 2 3 4 5 6 
#
# 1 63.4306 30.8927 18.0489 0.0000 0.0000 0.0000
# 2 30.8927 150.8125 41.0578 0.0000 0.0000 0.0000
# 3 18.0489 41.0578 81.8530 0.0000 0.0000 0.0000
# 4 0.0000 0.0000 0.0000 33.6089 0.0000 0.0000
# 5 0.0000 0.0000 0.0000 0.0000 29.9867 0.0000
# 6 0.0000 0.0000 0.0000 0.0000 0.0000 35.7850
#
#
#
# Elastic Compliance Matrix: (Units=1/GPa)
#
#
# Indices 1 2 3 4 5 6 
#
# 1 0.017925 -0.003006 -0.002445 0.000000 0.000000 0.000000
# 2 -0.003006 0.008184 -0.003442 0.000000 0.000000 0.000000
# 3 -0.002445 -0.003442 0.014483 0.000000 0.000000 0.000000
# 4 0.000000 0.000000 0.000000 0.029754 0.000000 0.000000
# 5 0.000000 0.000000 0.000000 0.000000 0.033348 0.000000
# 6 0.000000 0.000000 0.000000 0.000000 0.000000 0.027945
#
#
# Mechanical properties :
#
#
# Convention : Reuss Voigt Hill
#
# Bulk Modulus (GPa) = 43.84916 52.89944 48.37430
# Shear Modulus (GPa) = 31.84195 33.61592 32.72893
#
# Velocity S-wave (km/s) = 3.73423 3.83684 3.78588
# Velocity P-wave (km/s) = 6.14779 6.54176 6.34783
#
# Compressibility (1/GPa) = 0.02280545
#
# Stress axis : x y z
#
# Youngs Moduli (GPa) = 55.78804 122.19506 69.04831
#
# Poissons Ratio (x) = 0.36735 0.16879
# Poissons Ratio (y) = 0.16771 0.23767
# Poissons Ratio (z) = 0.13638 0.42060
#
# Static dielectric constant tensor:
#      x y z
#    x 3.890410 0.000000 0.000000 
#    y 0.000000 4.871920 0.000000 
#    z 0.000000 0.000000 4.221160 
# 
# 
# High freq. dielectric constant tensor:
#      x y z
#    x 1.875440 0.000000 0.000000 
#    y 0.000000 1.918420 0.000000 
#    z 0.000000 0.000000 1.912320 
# 
# From -- ./inp_files/7314.got.cif
#   From: 2010.03.12/outbox.cif.g09.slc.cpg/sg56_4_cif.got.tgz:7314.got - 2010.04.16 15:33:40.
