data_PCOD8228860
_publ_section_title
;
Structure prediction by ZEFSAII (Michael W. Deem and Ramdas Pophale) SiO2 
 PCOD8228860
Probable space group: P C C N
;
_chemical_formula_sum "Si O2"
_cell_formula_units_Z 40
_cell_length_a 9.238395
_cell_length_b 8.678953
_cell_length_c 22.626972
_cell_angle_alpha 90.000000
_cell_angle_beta 90.000000
_cell_angle_gamma 90.000000
_cell_volume 1814.221474
_symmetry_space_group_name_H-M "P C C N"
_symmetry_group_IT_number 56
_symmetry_cell_setting 'orthorhombic'
loop_
_space_group_symop_operation_xyz
x,y,z
1/2-x,1/2-y,z
1/2+x,-y,1/2-z
-x,1/2+y,1/2-z
-x,-y,-z
1/2+x,1/2+y,-z
1/2-x,y,1/2+z
x,1/2-y,1/2+z
loop_
_atom_site_type_symbol
_atom_site_label
_atom_site_fract_x
_atom_site_fract_y
_atom_site_fract_z
Si Si1 0.632289 0.008514 0.929339
Si Si2 0.736790 0.566860 0.178504
Si Si3 0.922746 0.005160 0.781982
Si Si4 0.195343 0.421408 0.948344
Si Si5 0.250000 0.750000 0.158919
Si Si6 0.250000 0.250000 0.142930
O O1 0.636399 0.838088 0.900135
O O2 0.476185 0.078370 0.940505
O O3 0.705737 0.111552 0.881443
O O4 0.725875 0.013824 0.990734
O O5 0.750000 0.750000 0.175692
O O6 0.596227 0.500262 0.212278
O O7 0.878613 0.506082 0.213003
O O8 0.733386 0.503941 0.110639
O O9 0.843835 0.865438 0.816334
O O10 0.878352 0.177884 0.801977
O O11 0.250000 0.250000 0.957836
#
# Coordination Sequence:
#
# PCOD8228860 Si02
#       6
#     8   8   8   8   4   4
#     4  10  21  42  66  93 131 177 217 281 331 401
#     4  11  25  43  68  99 137 176 225 278 333 402
#     4  11  25  42  70  98 138 181 224 282 332 403
#     4  10  21  41  66  93 131 175 221 273 333 399
#     4  10  22  40  64  94 134 174 222 270 342 390
#     4  10  22  44  66  98 134 174 230 274 340 396
#
# _framework density 22.048024999999999
#
# number of rings (size 3 to 8) (size 9 to 14) (size 15 to 20)
#    0.000    1.600    2.000    2.400    8.400    0.000 
#    7.200    3.000    0.000    0.000    0.000    0.000 
#    0.000    0.000    0.000    0.000    0.000    0.000 
#
# Total GULP energy -495669.517917 kJ/mol
# GULP energy per Si atom -12391.737948 kJ/mol
# Density = 2.199784 g / cm^3
# Si number density = 22.048025 Si / 1000 Ang^3
#
#
#
# Elastic Constant Matrix: (Units=GPa)
#
#
# Indices 1 2 3 4 5 6 
#
# 1 76.7978 27.2675 11.7060 0.0000 0.0000 0.0000
# 2 27.2675 75.7365 31.3256 0.0000 0.0000 0.0000
# 3 11.7060 31.3256 118.2708 0.0000 0.0000 0.0000
# 4 0.0000 0.0000 0.0000 21.9564 0.0000 0.0000
# 5 0.0000 0.0000 0.0000 0.0000 29.0374 0.0000
# 6 0.0000 0.0000 0.0000 0.0000 0.0000 36.7627
#
#
#
# Elastic Compliance Matrix: (Units=1/GPa)
#
#
# Indices 1 2 3 4 5 6 
#
# 1 0.014930 -0.005350 -0.000061 0.000000 0.000000 0.000000
# 2 -0.005350 0.016745 -0.003906 0.000000 0.000000 0.000000
# 3 -0.000061 -0.003906 0.009496 0.000000 0.000000 0.000000
# 4 0.000000 0.000000 0.000000 0.045545 0.000000 0.000000
# 5 0.000000 0.000000 0.000000 0.000000 0.034438 0.000000
# 6 0.000000 0.000000 0.000000 0.000000 0.000000 0.027202
#
#
# Mechanical properties :
#
#
# Convention : Reuss Voigt Hill
#
# Bulk Modulus (GPa) = 44.36954 45.71149 45.04051
# Shear Modulus (GPa) = 28.65303 30.91834 29.78568
#
# Velocity S-wave (km/s) = 3.60887 3.74882 3.67951
# Velocity P-wave (km/s) = 6.12642 6.28616 6.20681
#
# Compressibility (1/GPa) = 0.02253799
#
# Stress axis : x y z
#
# Youngs Moduli (GPa) = 66.97887 59.71802 105.31140
#
# Poissons Ratio (x) = 0.31950 0.00639
# Poissons Ratio (y) = 0.35835 0.41131
# Poissons Ratio (z) = 0.00406 0.23324
#
# Static dielectric constant tensor:
#      x y z
#    x 3.726650 0.000000 0.000000 
#    y 0.000000 3.419950 0.000000 
#    z 0.000000 0.000000 4.786260 
# 
# 
# High freq. dielectric constant tensor:
#      x y z
#    x 1.849230 0.000000 0.000000 
#    y 0.000000 1.859740 0.000000 
#    z 0.000000 0.000000 1.896530 
# 
# From -- ./inp_files/20358.got.cif
#   From: 2010.03.12/outbox.cif.g09.slc.cpg/sg56_11_cif.got.tgz:20358.got - 2010.04.16 15:33:40.
