data_PCOD8228176
_publ_section_title
;
Structure prediction by ZEFSAII (Michael W. Deem and Ramdas Pophale) SiO2 
 PCOD8228176
Probable space group: P C C N
;
_chemical_formula_sum "Si O2"
_cell_formula_units_Z 60
_cell_length_a 11.632240
_cell_length_b 8.840488
_cell_length_c 26.337632
_cell_angle_alpha 90.000000
_cell_angle_beta 90.000000
_cell_angle_gamma 90.000000
_cell_volume 2708.421910
_symmetry_space_group_name_H-M "P C C N"
_symmetry_group_IT_number 56
_symmetry_cell_setting 'orthorhombic'
loop_
_space_group_symop_operation_xyz
x,y,z
1/2-x,1/2-y,z
1/2+x,-y,1/2-z
-x,1/2+y,1/2-z
-x,-y,-z
1/2+x,1/2+y,-z
1/2-x,y,1/2+z
x,1/2-y,1/2+z
loop_
_atom_site_type_symbol
_atom_site_label
_atom_site_fract_x
_atom_site_fract_y
_atom_site_fract_z
Si Si1 0.068541 0.638067 0.345260
Si Si2 0.612467 0.771522 0.202257
Si Si3 0.750000 0.250000 0.734740
Si Si4 0.430761 0.898328 0.922312
Si Si5 0.872573 0.315435 0.488630
Si Si6 0.031766 0.216834 0.408874
Si Si7 0.185079 0.453893 0.432116
Si Si8 0.062887 0.960013 0.229377
O O1 0.163965 0.655136 0.301198
O O2 0.046032 0.799804 0.372060
O O3 0.107117 0.516898 0.386379
O O4 0.952260 0.571176 0.319416
O O5 0.750000 0.750000 0.196112
O O6 0.539242 0.759989 0.150757
O O7 0.553892 0.640763 0.236997
O O8 0.583374 0.937811 0.221394
O O9 0.823716 0.144847 0.773157
O O10 0.439391 0.796794 0.972274
O O11 0.511736 0.046509 0.923848
O O12 0.309855 0.987125 0.917204
O O13 0.750000 0.250000 0.475544
O O14 0.857638 0.479681 0.513977
O O15 0.940587 0.329488 0.435869
O O16 0.156719 0.272619 0.432319
#
# Coordination Sequence:
#
# PCOD8228176 Si02
#       8
#     8   8   4   8   8   8   8   8
#     4  11  20  41  65  95 127 173 225 269 338 401
#     4  12  27  45  67 103 134 171 237 283 334 410
#     4  12  22  42  68  92 138 180 220 284 338 408
#     4  10  20  36  66  95 130 169 215 278 335 393
#     4   9  21  40  58  89 135 174 213 265 338 408
#     4  12  22  36  63  99 128 168 225 279 326 399
#     4  10  19  36  64  95 124 169 216 273 326 394
#     4  12  26  43  68  97 136 179 223 285 349 395
#
# _framework density 22.153122
#
# number of rings (size 3 to 8) (size 9 to 14) (size 15 to 20)
#    0.000    1.067    4.000    4.400    0.000    0.000 
#    1.200    0.000    0.000    0.000    0.000    0.000 
#    0.000    0.000    0.000    0.000    0.000    0.000 
#
# Total GULP energy -743283.468562 kJ/mol
# GULP energy per Si atom -12388.057809 kJ/mol
# Density = 2.210270 g / cm^3
# Si number density = 22.153122 Si / 1000 Ang^3
#
#
#
# Elastic Constant Matrix: (Units=GPa)
#
#
# Indices 1 2 3 4 5 6 
#
# 1 70.9845 22.3764 59.8703 0.0000 0.0000 0.0000
# 2 22.3764 102.0446 24.1785 0.0000 0.0000 0.0000
# 3 59.8703 24.1785 94.4363 0.0000 0.0000 0.0000
# 4 0.0000 0.0000 0.0000 0.2815 0.0000 0.0000
# 5 0.0000 0.0000 0.0000 0.0000 18.0160 0.0000
# 6 0.0000 0.0000 0.0000 0.0000 0.0000 31.3893
#
#
#
# Elastic Compliance Matrix: (Units=1/GPa)
#
#
# Indices 1 2 3 4 5 6 
#
# 1 0.030760 -0.002262 -0.018922 0.000000 0.000000 0.000000
# 2 -0.002262 0.010599 -0.001280 0.000000 0.000000 0.000000
# 3 -0.018922 -0.001280 0.022913 0.000000 0.000000 0.000000
# 4 0.000000 0.000000 0.000000 3.553001 0.000000 0.000000
# 5 0.000000 0.000000 0.000000 0.000000 0.055506 0.000000
# 6 0.000000 0.000000 0.000000 0.000000 0.000000 0.031858
#
#
# Mechanical properties :
#
#
# Convention : Reuss Voigt Hill
#
# Bulk Modulus (GPa) = 51.69361 53.36844 52.53102
# Shear Modulus (GPa) = 1.33120 20.67338 11.00229
#
# Velocity S-wave (km/s) = 0.77602 3.05815 2.23098
# Velocity P-wave (km/s) = 4.91816 6.05085 5.51367
#
# Compressibility (1/GPa) = 0.01934475
#
# Stress axis : x y z
#
# Youngs Moduli (GPa) = 32.51003 94.35030 43.64374
#
# Poissons Ratio (x) = 0.21339 0.82582
# Poissons Ratio (y) = 0.07353 0.05585
# Poissons Ratio (z) = 0.61515 0.12075
#
# Static dielectric constant tensor:
#      x y z
#    x 3.854030 0.000000 0.000000 
#    y 0.000000 4.632050 0.000000 
#    z 0.000000 0.000000 3.859460 
# 
# 
# High freq. dielectric constant tensor:
#      x y z
#    x 1.842810 0.000000 0.000000 
#    y 0.000000 1.901590 0.000000 
#    z 0.000000 0.000000 1.857170 
# 
# From -- ./inp_files/22308.got.cif
#   From: 2010.03.12/outbox.cif.g09.slc.cpg/sg56_12_cif.got.tgz:22308.got - 2010.04.16 15:33:40.
