data_PCOD8228852
_publ_section_title
;
Structure prediction by ZEFSAII (Michael W. Deem and Ramdas Pophale) SiO2 
 PCOD8228852
Probable space group: P C C N
;
_chemical_formula_sum "Si O2"
_cell_formula_units_Z 56
_cell_length_a 8.427698
_cell_length_b 20.549758
_cell_length_c 14.195338
_cell_angle_alpha 90.000000
_cell_angle_beta 90.000000
_cell_angle_gamma 90.000000
_cell_volume 2458.450194
_symmetry_space_group_name_H-M "P C C N"
_symmetry_group_IT_number 56
_symmetry_cell_setting 'orthorhombic'
loop_
_space_group_symop_operation_xyz
x,y,z
1/2-x,1/2-y,z
1/2+x,-y,1/2-z
-x,1/2+y,1/2-z
-x,-y,-z
1/2+x,1/2+y,-z
1/2-x,y,1/2+z
x,1/2-y,1/2+z
loop_
_atom_site_type_symbol
_atom_site_label
_atom_site_fract_x
_atom_site_fract_y
_atom_site_fract_z
Si Si1 0.085852 0.994318 0.218690
Si Si2 0.308067 0.641114 0.283768
Si Si3 0.720583 0.568253 0.152284
Si Si4 0.382957 0.205154 0.274109
Si Si5 0.283341 0.034606 0.050181
Si Si6 0.892851 0.098518 0.524267
Si Si7 0.608219 0.293907 0.371115
O O1 0.163234 0.923131 0.222016
O O2 0.900466 0.983755 0.199722
O O3 0.109821 0.036799 0.315050
O O4 0.164856 0.039390 0.137845
O O5 0.467347 0.685693 0.289762
O O6 0.274815 0.624916 0.393547
O O7 0.163923 0.677680 0.231450
O O8 0.703168 0.641456 0.186228
O O9 0.703455 0.568770 0.040152
O O10 0.250000 0.250000 0.221124
O O11 0.452002 0.249752 0.358934
O O12 0.447153 0.071708 0.075102
O O13 0.304769 0.958878 0.028945
O O14 0.937195 0.151983 0.447021
O O15 0.750000 0.250000 0.413109
#
# Coordination Sequence:
#
# PCOD8228852 Si02
#       7
#     8   8   8   8   8   8   8
#     4  11  22  40  63  98 128 166 210 269 329 372
#     4  10  21  41  64  91 122 162 221 262 308 385
#     4  11  24  40  66  97 134 165 217 265 323 390
#     4  10  22  41  61  87 127 171 205 259 324 379
#     4  11  22  38  65  96 133 162 207 274 329 378
#     4  11  22  39  66  97 123 167 216 266 325 376
#     4  10  22  41  67  88 125 173 215 266 309 386
#
# _framework density 22.778579000000001
#
# number of rings (size 3 to 8) (size 9 to 14) (size 15 to 20)
#    0.000    1.429    2.857    3.000    2.000    2.857 
#    0.000    3.571    0.000    0.000    0.000    0.000 
#    0.000    0.000    0.000    0.000    0.000    0.000 
#
# Total GULP energy -694249.426977 kJ/mol
# GULP energy per Si atom -12397.311196 kJ/mol
# Density = 2.272673 g / cm^3
# Si number density = 22.778579 Si / 1000 Ang^3
#
#
#
# Elastic Constant Matrix: (Units=GPa)
#
#
# Indices 1 2 3 4 5 6 
#
# 1 57.4889 28.9606 8.0667 0.0000 0.0000 0.0000
# 2 28.9606 103.6019 27.5690 0.0000 0.0000 0.0000
# 3 8.0667 27.5690 89.0886 0.0000 0.0000 0.0000
# 4 0.0000 0.0000 0.0000 23.8813 0.0000 0.0000
# 5 0.0000 0.0000 0.0000 0.0000 20.1198 0.0000
# 6 0.0000 0.0000 0.0000 0.0000 0.0000 34.2373
#
#
#
# Elastic Compliance Matrix: (Units=1/GPa)
#
#
# Indices 1 2 3 4 5 6 
#
# 1 0.020246 -0.005636 -0.000089 0.000000 0.000000 0.000000
# 2 -0.005636 0.012087 -0.003230 0.000000 0.000000 0.000000
# 3 -0.000089 -0.003230 0.012232 0.000000 0.000000 0.000000
# 4 0.000000 0.000000 0.000000 0.041874 0.000000 0.000000
# 5 0.000000 0.000000 0.000000 0.000000 0.049702 0.000000
# 6 0.000000 0.000000 0.000000 0.000000 0.000000 0.029208
#
#
# Mechanical properties :
#
#
# Convention : Reuss Voigt Hill
#
# Bulk Modulus (GPa) = 37.51554 42.15244 39.83399
# Shear Modulus (GPa) = 26.02191 28.01989 27.02090
#
# Velocity S-wave (km/s) = 3.38359 3.51108 3.44792
# Velocity P-wave (km/s) = 5.63651 5.91459 5.77723
#
# Compressibility (1/GPa) = 0.02665562
#
# Stress axis : x y z
#
# Youngs Moduli (GPa) = 49.39170 82.73119 81.74968
#
# Poissons Ratio (x) = 0.46626 0.00729
# Poissons Ratio (y) = 0.27837 0.26407
# Poissons Ratio (z) = 0.00441 0.26724
#
# Static dielectric constant tensor:
#      x y z
#    x 3.984210 0.000000 0.000000 
#    y 0.000000 4.297940 0.000000 
#    z 0.000000 0.000000 3.829100 
# 
# 
# High freq. dielectric constant tensor:
#      x y z
#    x 1.887500 0.000000 0.000000 
#    y 0.000000 1.912770 0.000000 
#    z 0.000000 0.000000 1.880850 
# 
# From -- ./inp_files/10897.got.cif
#   From: 2010.03.12/outbox.cif.g09.slc.cpg/sg56_6_cif.got.tgz:10897.got - 2010.04.16 15:33:40.
