data_PCOD8228964
_publ_section_title
;
Structure prediction by ZEFSAII (Michael W. Deem and Ramdas Pophale) SiO2 
 PCOD8228964
Probable space group: P C C N
;
_chemical_formula_sum "Si O2"
_cell_formula_units_Z 36
_cell_length_a 12.484811
_cell_length_b 5.389940
_cell_length_c 24.999514
_cell_angle_alpha 90.000000
_cell_angle_beta 90.000000
_cell_angle_gamma 90.000000
_cell_volume 1682.276851
_symmetry_space_group_name_H-M "P C C N"
_symmetry_group_IT_number 56
_symmetry_cell_setting 'orthorhombic'
loop_
_space_group_symop_operation_xyz
x,y,z
1/2-x,1/2-y,z
1/2+x,-y,1/2-z
-x,1/2+y,1/2-z
-x,-y,-z
1/2+x,1/2+y,-z
1/2-x,y,1/2+z
x,1/2-y,1/2+z
loop_
_atom_site_type_symbol
_atom_site_label
_atom_site_fract_x
_atom_site_fract_y
_atom_site_fract_z
Si Si1 0.057026 0.734692 0.934964
Si Si2 0.639913 0.141070 0.273950
Si Si3 0.368532 0.240133 0.486544
Si Si4 0.750000 0.750000 0.201113
Si Si5 0.439453 0.942550 0.323746
O O1 0.114568 0.475721 0.947694
O O2 0.048678 0.741291 0.870670
O O3 0.116844 0.980817 0.955632
O O4 0.940177 0.735648 0.960899
O O5 0.750000 0.250000 0.299662
O O6 0.581911 0.333345 0.234699
O O7 0.671861 0.905711 0.239004
O O8 0.553892 0.084933 0.320678
O O9 0.250000 0.250000 0.509534
O O10 0.667522 0.602506 0.162710
#
# Coordination Sequence:
#
# PCOD8228964 Si02
#       5
#     8   8   8   4   8
#     4  10  24  40  67  97 125 166 221 264 331 385
#     4  10  22  39  60  88 131 170 213 264 320 384
#     4  10  22  44  64  93 129 166 210 278 327 395
#     4  10  22  38  60  88 126 170 214 260 320 368
#     4  11  22  40  63  95 126 172 215 271 315 401
#
# _framework density 21.399567999999999
#
# number of rings (size 3 to 8) (size 9 to 14) (size 15 to 20)
#    0.000    1.778    2.222    0.667    4.667    3.556 
#    2.000    4.444    0.000    0.000    0.000    0.000 
#    0.000    0.000    0.000    0.000    0.000    0.000 
#
# Total GULP energy -446220.821854 kJ/mol
# GULP energy per Si atom -12395.022829 kJ/mol
# Density = 2.135086 g / cm^3
# Si number density = 21.399568 Si / 1000 Ang^3
#
#
#
# Elastic Constant Matrix: (Units=GPa)
#
#
# Indices 1 2 3 4 5 6 
#
# 1 165.7917 34.9657 42.6081 0.0000 0.0000 0.0000
# 2 34.9657 99.2729 5.5889 0.0000 0.0000 0.0000
# 3 42.6081 5.5889 58.4361 0.0000 0.0000 0.0000
# 4 0.0000 0.0000 0.0000 30.7079 0.0000 0.0000
# 5 0.0000 0.0000 0.0000 0.0000 7.8077 0.0000
# 6 0.0000 0.0000 0.0000 0.0000 0.0000 -6.6394
#
#
#
# Elastic Compliance Matrix: (Units=1/GPa)
#
#
# Indices 1 2 3 4 5 6 
#
# 1 0.007996 -0.002502 -0.005591 0.000000 0.000000 0.000000
# 2 -0.002502 0.010910 0.000781 0.000000 0.000000 0.000000
# 3 -0.005591 0.000781 0.021115 0.000000 0.000000 0.000000
# 4 0.000000 0.000000 0.000000 0.032565 0.000000 0.000000
# 5 0.000000 0.000000 0.000000 0.000000 0.128079 0.000000
# 6 0.000000 0.000000 0.000000 0.000000 0.000000 -0.150617
#
#
# Mechanical properties :
#
#
# Convention : Reuss Voigt Hill
#
# Bulk Modulus (GPa) = 39.37469 54.42513 46.89991
# Shear Modulus (GPa) = 68.36325 22.39777 45.38051
#
# Velocity S-wave (km/s) = 5.65822 3.23870 4.61002
# Velocity P-wave (km/s) = 7.81837 6.28280 7.09227
#
# Compressibility (1/GPa) = 0.02539702
#
# Stress axis : x y z
#
# Youngs Moduli (GPa) = 125.06014 91.65552 47.36033
#
# Poissons Ratio (x) = 0.22929 0.26479
# Poissons Ratio (y) = 0.31285 -0.03697
# Poissons Ratio (z) = 0.69922 -0.07154
#
# Static dielectric constant tensor:
#      x y z
#    x 4.504860 0.000000 0.000000 
#    y 0.000000 4.173890 0.000000 
#    z 0.000000 0.000000 3.354140 
# 
# 
# High freq. dielectric constant tensor:
#      x y z
#    x 1.860250 0.000000 0.000000 
#    y 0.000000 1.851060 0.000000 
#    z 0.000000 0.000000 1.803240 
# 
# From -- ./inp_files/19876.got.cif
#   From: 2010.03.12/outbox.cif.g09.slc.cpg/sg56_10_cif.got.tgz:19876.got - 2010.04.16 15:33:40.
