data_PCOD8228944
_publ_section_title
;
Structure prediction by ZEFSAII (Michael W. Deem and Ramdas Pophale) SiO2 
 PCOD8228944
Probable space group: P C C N
;
_chemical_formula_sum "Si O2"
_cell_formula_units_Z 32
_cell_length_a 14.690910
_cell_length_b 11.209956
_cell_length_c 8.764177
_cell_angle_alpha 90.000000
_cell_angle_beta 90.000000
_cell_angle_gamma 90.000000
_cell_volume 1443.323710
_symmetry_space_group_name_H-M "P C C N"
_symmetry_group_IT_number 56
_symmetry_cell_setting 'orthorhombic'
loop_
_space_group_symop_operation_xyz
x,y,z
1/2-x,1/2-y,z
1/2+x,-y,1/2-z
-x,1/2+y,1/2-z
-x,-y,-z
1/2+x,1/2+y,-z
1/2-x,y,1/2+z
x,1/2-y,1/2+z
loop_
_atom_site_type_symbol
_atom_site_label
_atom_site_fract_x
_atom_site_fract_y
_atom_site_fract_z
Si Si1 0.142250 0.041284 0.303834
Si Si2 0.175453 0.499005 0.132393
Si Si3 0.654952 0.297283 0.585365
Si Si4 0.468511 0.577315 0.860384
O O1 0.233263 0.055831 0.204299
O O2 0.156061 0.081472 0.480987
O O3 0.058288 0.115942 0.235105
O O4 0.117329 0.899560 0.300402
O O5 0.096573 0.493276 0.258406
O O6 0.177772 0.639053 0.078701
O O7 0.750000 0.250000 0.652182
O O8 0.581232 0.193337 0.572775
O O9 0.500000 0.500000 0.000000
#
# Coordination Sequence:
#
# PCOD8228944 Si02
#       4
#     8   8   8   8
#     4  10  22  37  64  94 129 168 207 272 317 382
#     4  10  22  40  60  97 128 167 211 267 325 360
#     4  10  22  36  66  92 133 160 216 265 321 359
#     4  12  23  36  61 101 128 170 214 261 324 381
#
# _framework density 22.171047999999999
#
# number of rings (size 3 to 8) (size 9 to 14) (size 15 to 20)
#    1.500    0.000    2.500    3.750    7.000    0.000 
#    0.000    0.000    0.000    1.500    0.000    0.000 
#    0.000    0.000    0.000    0.000    0.000    0.000 
#
# Total GULP energy -396439.374650 kJ/mol
# GULP energy per Si atom -12388.730458 kJ/mol
# Density = 2.212059 g / cm^3
# Si number density = 22.171048 Si / 1000 Ang^3
#
#
#
# Elastic Constant Matrix: (Units=GPa)
#
#
# Indices 1 2 3 4 5 6 
#
# 1 156.3471 16.0283 46.4628 0.0000 0.0000 0.0000
# 2 16.0283 27.6822 8.4803 0.0000 0.0000 0.0000
# 3 46.4628 8.4803 115.7184 0.0000 0.0000 0.0000
# 4 0.0000 0.0000 0.0000 13.6293 0.0000 0.0000
# 5 0.0000 0.0000 0.0000 0.0000 50.8548 0.0000
# 6 0.0000 0.0000 0.0000 0.0000 0.0000 43.1971
#
#
#
# Elastic Compliance Matrix: (Units=1/GPa)
#
#
# Indices 1 2 3 4 5 6 
#
# 1 0.007587 -0.003539 -0.002787 0.000000 0.000000 0.000000
# 2 -0.003539 0.038605 -0.001408 0.000000 0.000000 0.000000
# 3 -0.002787 -0.001408 0.009864 0.000000 0.000000 0.000000
# 4 0.000000 0.000000 0.000000 0.073371 0.000000 0.000000
# 5 0.000000 0.000000 0.000000 0.000000 0.019664 0.000000
# 6 0.000000 0.000000 0.000000 0.000000 0.000000 0.023150
#
#
# Mechanical properties :
#
#
# Convention : Reuss Voigt Hill
#
# Bulk Modulus (GPa) = 24.63822 49.07672 36.85747
# Shear Modulus (GPa) = 24.84618 36.78801 30.81710
#
# Velocity S-wave (km/s) = 3.35126 4.07785 3.73228
# Velocity P-wave (km/s) = 5.10994 6.65998 5.93577
#
# Compressibility (1/GPa) = 0.04058734
#
# Stress axis : x y z
#
# Youngs Moduli (GPa) = 131.80307 25.90343 101.38010
#
# Poissons Ratio (x) = 0.09168 0.28254
# Poissons Ratio (y) = 0.46648 0.14275
# Poissons Ratio (z) = 0.36733 0.03647
#
# Static dielectric constant tensor:
#      x y z
#    x 4.037640 0.000000 0.000000 
#    y 0.000000 3.429780 0.000000 
#    z 0.000000 0.000000 4.091250 
# 
# 
# High freq. dielectric constant tensor:
#      x y z
#    x 1.878590 0.000000 0.000000 
#    y 0.000000 1.814260 0.000000 
#    z 0.000000 0.000000 1.890730 
# 
# From -- ./inp_files/2485.got.cif
#   From: 2010.03.12/outbox.cif.g09.slc.cpg/sg56_2_cif.got.tgz:2485.got - 2010.04.16 15:33:40.
