data_PCOD8228454
_publ_section_title
;
Structure prediction by ZEFSAII (Michael W. Deem and Ramdas Pophale) SiO2 
 PCOD8228454
Probable space group: P C C N
;
_chemical_formula_sum "Si O2"
_cell_formula_units_Z 64
_cell_length_a 18.036885
_cell_length_b 8.717390
_cell_length_c 19.172896
_cell_angle_alpha 90.000000
_cell_angle_beta 90.000000
_cell_angle_gamma 90.000000
_cell_volume 3014.641884
_symmetry_space_group_name_H-M "P C C N"
_symmetry_group_IT_number 56
_symmetry_cell_setting 'orthorhombic'
loop_
_space_group_symop_operation_xyz
x,y,z
1/2-x,1/2-y,z
1/2+x,-y,1/2-z
-x,1/2+y,1/2-z
-x,-y,-z
1/2+x,1/2+y,-z
1/2-x,y,1/2+z
x,1/2-y,1/2+z
loop_
_atom_site_type_symbol
_atom_site_label
_atom_site_fract_x
_atom_site_fract_y
_atom_site_fract_z
Si Si1 0.533401 0.247925 0.267109
Si Si2 0.993320 0.383790 0.409896
Si Si3 0.850995 0.517367 0.626638
Si Si4 0.778293 0.075665 0.540089
Si Si5 0.404101 0.676304 0.368914
Si Si6 0.395031 0.426498 0.728340
Si Si7 0.818244 0.864707 0.417439
Si Si8 0.032842 0.222572 0.050262
O O1 0.549386 0.190447 0.345117
O O2 0.589864 0.156388 0.214938
O O3 0.548814 0.428992 0.265800
O O4 0.448332 0.220864 0.241355
O O5 0.081691 0.377862 0.398950
O O6 0.983415 0.282376 0.479464
O O7 0.959893 0.552372 0.418364
O O8 0.779442 0.539788 0.577930
O O9 0.874634 0.343783 0.614425
O O10 0.835636 0.556865 0.708139
O O11 0.750000 0.250000 0.532201
O O12 0.849534 0.060157 0.591616
O O13 0.794260 0.012346 0.462743
O O14 0.488196 0.662666 0.398673
O O15 0.348219 0.419023 0.657768
O O16 0.750000 0.750000 0.406123
O O17 0.884076 0.782482 0.459878
#
# Coordination Sequence:
#
# PCOD8228454 Si02
#       8
#     8   8   8   8   8   8   8   8
#     4  10  20  39  64  96 127 162 213 272 319 383
#     4   9  19  35  66  90 120 167 212 253 322 391
#     4   8  17  39  61  84 121 166 204 243 316 388
#     4  10  22  42  65  88 127 175 218 262 322 390
#     4   9  18  35  63  90 122 157 201 271 313 360
#     4  10  22  41  65  96 129 166 213 267 328 384
#     4  12  26  43  61  93 140 170 211 275 323 387
#     4  10  20  38  59  91 127 164 206 262 326 376
#
# _framework density 21.229718999999999
#
# number of rings (size 3 to 8) (size 9 to 14) (size 15 to 20)
#    0.000    2.250    1.250    1.500    1.750    2.500 
#    2.250    5.000    0.000    0.000    0.000    0.000 
#    0.000    0.000    0.000    0.000    0.000    0.000 
#
# Total GULP energy -793162.411254 kJ/mol
# GULP energy per Si atom -12393.162676 kJ/mol
# Density = 2.118140 g / cm^3
# Si number density = 21.229719 Si / 1000 Ang^3
#
#
#
# Elastic Constant Matrix: (Units=GPa)
#
#
# Indices 1 2 3 4 5 6 
#
# 1 91.6233 35.4759 36.6964 0.0000 0.0000 0.0000
# 2 35.4759 55.8654 40.7652 0.0000 0.0000 0.0000
# 3 36.6964 40.7652 147.2833 0.0000 0.0000 0.0000
# 4 0.0000 0.0000 0.0000 26.8645 0.0000 0.0000
# 5 0.0000 0.0000 0.0000 0.0000 36.9582 0.0000
# 6 0.0000 0.0000 0.0000 0.0000 0.0000 23.6370
#
#
#
# Elastic Compliance Matrix: (Units=1/GPa)
#
#
# Indices 1 2 3 4 5 6 
#
# 1 0.014684 -0.008339 -0.001350 0.000000 0.000000 0.000000
# 2 -0.008339 0.027166 -0.005441 0.000000 0.000000 0.000000
# 3 -0.001350 -0.005441 0.008632 0.000000 0.000000 0.000000
# 4 0.000000 0.000000 0.000000 0.037224 0.000000 0.000000
# 5 0.000000 0.000000 0.000000 0.000000 0.027058 0.000000
# 6 0.000000 0.000000 0.000000 0.000000 0.000000 0.042307
#
#
# Mechanical properties :
#
#
# Convention : Reuss Voigt Hill
#
# Bulk Modulus (GPa) = 49.45502 57.84968 53.65235
# Shear Modulus (GPa) = 25.76351 29.61424 27.68887
#
# Velocity S-wave (km/s) = 3.48740 3.73894 3.61536
# Velocity P-wave (km/s) = 6.28981 6.77851 6.53872
#
# Compressibility (1/GPa) = 0.02022040
#
# Stress axis : x y z
#
# Youngs Moduli (GPa) = 68.10114 36.81021 115.84582
#
# Poissons Ratio (x) = 0.30697 0.15644
# Poissons Ratio (y) = 0.56792 0.63036
# Poissons Ratio (z) = 0.09197 0.20030
#
# Static dielectric constant tensor:
#      x y z
#    x 3.935290 0.000000 0.000000 
#    y 0.000000 3.500180 0.000000 
#    z 0.000000 0.000000 4.137600 
# 
# 
# High freq. dielectric constant tensor:
#      x y z
#    x 1.814470 0.000000 0.000000 
#    y 0.000000 1.806020 0.000000 
#    z 0.000000 0.000000 1.853770 
# 
# From -- ./inp_files/19356.got.cif
#   From: 2010.03.12/outbox.cif.g09.slc.cpg/sg56_10_cif.got.tgz:19356.got - 2010.04.16 15:33:40.
