data_PCOD8228961
_publ_section_title
;
Structure prediction by ZEFSAII (Michael W. Deem and Ramdas Pophale) SiO2 
 PCOD8228961
Probable space group: P C C N
;
_chemical_formula_sum "Si O2"
_cell_formula_units_Z 48
_cell_length_a 5.194852
_cell_length_b 30.734635
_cell_length_c 14.273325
_cell_angle_alpha 90.000000
_cell_angle_beta 90.000000
_cell_angle_gamma 90.000000
_cell_volume 2278.905905
_symmetry_space_group_name_H-M "P C C N"
_symmetry_group_IT_number 56
_symmetry_cell_setting 'orthorhombic'
loop_
_space_group_symop_operation_xyz
x,y,z
1/2-x,1/2-y,z
1/2+x,-y,1/2-z
-x,1/2+y,1/2-z
-x,-y,-z
1/2+x,1/2+y,-z
1/2-x,y,1/2+z
x,1/2-y,1/2+z
loop_
_atom_site_type_symbol
_atom_site_label
_atom_site_fract_x
_atom_site_fract_y
_atom_site_fract_z
Si Si1 0.250246 0.029967 0.896526
Si Si2 0.460428 0.683552 0.710951
Si Si3 0.236565 0.024153 0.607954
Si Si4 0.999875 0.220983 0.490496
Si Si5 0.542915 0.683949 0.308183
Si Si6 0.279180 0.100383 0.748193
O O1 0.221302 0.075754 0.844632
O O2 0.478490 0.999713 0.851924
O O3 0.324459 0.040326 0.003329
O O4 0.973056 0.008497 0.889182
O O5 0.462007 0.690661 0.599793
O O6 0.205437 0.704213 0.756766
O O7 0.473162 0.631528 0.733097
O O8 0.703916 0.706753 0.762574
O O9 0.323848 0.065473 0.667300
O O10 0.750000 0.250000 0.506694
O O11 0.036799 0.190333 0.580519
O O12 0.250000 0.250000 0.475122
O O13 0.546619 0.632159 0.284269
#
# Coordination Sequence:
#
# PCOD8228961 Si02
#       6
#     8   8   8   8   8   8
#     4  10  22  38  59  90 122 169 214 259 316 370
#     4  10  25  43  65 100 127 168 215 266 328 383
#     4  10  22  38  59  90 122 169 214 259 316 370
#     4  12  26  46  72  96 130 171 210 269 330 404
#     4  10  25  43  65 100 127 168 215 266 328 383
#     4  10  24  38  67  84 134 160 218 262 321 370
#
# _framework density 21.062736999999998
#
# number of rings (size 3 to 8) (size 9 to 14) (size 15 to 20)
#    1.000    0.667    0.000    3.000    7.000    4.000 
#    3.000    0.000    0.000    0.000    0.000    0.000 
#    0.000    0.000    0.000    0.000    0.000    0.000 
#
# Total GULP energy -594943.759121 kJ/mol
# GULP energy per Si atom -12394.661648 kJ/mol
# Density = 2.101480 g / cm^3
# Si number density = 21.062737 Si / 1000 Ang^3
#
#
#
# Elastic Constant Matrix: (Units=GPa)
#
#
# Indices 1 2 3 4 5 6 
#
# 1 123.3627 3.0464 26.5071 0.0000 0.0000 0.0000
# 2 3.0464 50.5617 19.5795 0.0000 0.0000 0.0000
# 3 26.5071 19.5795 135.9940 0.0000 0.0000 0.0000
# 4 0.0000 0.0000 0.0000 36.1822 0.0000 0.0000
# 5 0.0000 0.0000 0.0000 0.0000 27.4155 0.0000
# 6 0.0000 0.0000 0.0000 0.0000 0.0000 8.5365
#
#
#
# Elastic Compliance Matrix: (Units=1/GPa)
#
#
# Indices 1 2 3 4 5 6 
#
# 1 0.008461 0.000136 -0.001669 0.000000 0.000000 0.000000
# 2 0.000136 0.020948 -0.003043 0.000000 0.000000 0.000000
# 3 -0.001669 -0.003043 0.008117 0.000000 0.000000 0.000000
# 4 0.000000 0.000000 0.000000 0.027638 0.000000 0.000000
# 5 0.000000 0.000000 0.000000 0.000000 0.036476 0.000000
# 6 0.000000 0.000000 0.000000 0.000000 0.000000 0.117145
#
#
# Mechanical properties :
#
#
# Convention : Reuss Voigt Hill
#
# Bulk Modulus (GPa) = 35.24119 45.35381 40.29750
# Shear Modulus (GPa) = 21.06217 31.81253 26.43735
#
# Velocity S-wave (km/s) = 3.16567 3.89056 3.54668
# Velocity P-wave (km/s) = 5.48906 6.46231 5.99547
#
# Compressibility (1/GPa) = 0.02837588
#
# Stress axis : x y z
#
# Youngs Moduli (GPa) = 118.18367 47.73775 123.20434
#
# Poissons Ratio (x) = -0.00651 0.20561
# Poissons Ratio (y) = -0.01613 0.37485
# Poissons Ratio (z) = 0.19724 0.14524
#
# Static dielectric constant tensor:
#      x y z
#    x 3.883860 0.000000 0.000000 
#    y 0.000000 3.576330 0.000000 
#    z 0.000000 0.000000 3.899760 
# 
# 
# High freq. dielectric constant tensor:
#      x y z
#    x 1.832640 0.000000 0.000000 
#    y 0.000000 1.814570 0.000000 
#    z 0.000000 0.000000 1.836500 
# 
# From -- ./inp_files/9773.got.cif
#   From: 2010.03.12/outbox.cif.g09.slc.cpg/sg56_5_cif.got.tgz:9773.got - 2010.04.16 15:33:40.
