data_PCOD8228571
_publ_section_title
;
Structure prediction by ZEFSAII (Michael W. Deem and Ramdas Pophale) SiO2 
 PCOD8228571
Probable space group: P C C N
;
_chemical_formula_sum "Si O2"
_cell_formula_units_Z 60
_cell_length_a 16.627676
_cell_length_b 9.275315
_cell_length_c 18.317462
_cell_angle_alpha 90.000000
_cell_angle_beta 90.000000
_cell_angle_gamma 90.000000
_cell_volume 2825.045978
_symmetry_space_group_name_H-M "P C C N"
_symmetry_group_IT_number 56
_symmetry_cell_setting 'orthorhombic'
loop_
_space_group_symop_operation_xyz
x,y,z
1/2-x,1/2-y,z
1/2+x,-y,1/2-z
-x,1/2+y,1/2-z
-x,-y,-z
1/2+x,1/2+y,-z
1/2-x,y,1/2+z
x,1/2-y,1/2+z
loop_
_atom_site_type_symbol
_atom_site_label
_atom_site_fract_x
_atom_site_fract_y
_atom_site_fract_z
Si Si1 0.578245 0.183773 0.663447
Si Si2 0.345012 0.737466 0.982790
Si Si3 0.171176 0.087650 0.792756
Si Si4 0.173299 0.517162 0.603504
Si Si5 0.163554 0.038597 0.534646
Si Si6 0.250000 0.250000 0.419724
Si Si7 0.601286 0.767909 0.849982
Si Si8 0.192207 0.879284 0.254397
O O1 0.603135 0.165059 0.580264
O O2 0.484997 0.213434 0.676202
O O3 0.625671 0.325935 0.689243
O O4 0.601923 0.034671 0.703747
O O5 0.250000 0.750000 0.962998
O O6 0.366481 0.625862 0.046548
O O7 0.377807 0.897701 0.999513
O O8 0.180876 0.178567 0.867830
O O9 0.151713 0.188183 0.722598
O O10 0.258563 0.014118 0.785732
O O11 0.268674 0.517643 0.590932
O O12 0.144131 0.353361 0.600631
O O13 0.146401 0.574373 0.681992
O O14 0.203902 0.135692 0.471284
O O15 0.096657 0.108351 0.587984
O O16 0.250000 0.750000 0.232635
#
# Coordination Sequence:
#
# PCOD8228571 Si02
#       8
#     8   8   8   8   8   4   8   8
#     4  11  26  43  63 100 143 179 218 277 347 412
#     4  10  22  42  70  95 127 177 233 281 329 398
#     4  11  24  43  69 101 131 180 231 281 334 395
#     4  11  21  40  68  96 127 175 230 277 332 396
#     4  11  22  42  69 104 129 170 233 286 327 402
#     4  12  22  40  72 100 126 166 234 296 324 378
#     4  12  26  42  63 100 144 174 217 276 350 409
#     4  10  20  40  69  92 122 174 232 272 316 396
#
# _framework density 21.238592000000001
#
# number of rings (size 3 to 8) (size 9 to 14) (size 15 to 20)
#    0.000    1.067    2.667    5.600    3.733    1.067 
#    0.000    0.000    0.000    0.000    0.000    0.000 
#    0.000    0.000    0.000    0.000    0.000    0.000 
#
# Total GULP energy -743766.332782 kJ/mol
# GULP energy per Si atom -12396.105546 kJ/mol
# Density = 2.119025 g / cm^3
# Si number density = 21.238592 Si / 1000 Ang^3
#
#
#
# Elastic Constant Matrix: (Units=GPa)
#
#
# Indices 1 2 3 4 5 6 
#
# 1 49.9042 13.9005 16.3235 0.0000 0.0000 0.0000
# 2 13.9005 102.2687 46.8634 0.0000 0.0000 0.0000
# 3 16.3235 46.8634 108.8142 0.0000 0.0000 0.0000
# 4 0.0000 0.0000 0.0000 41.6685 0.0000 0.0000
# 5 0.0000 0.0000 0.0000 0.0000 17.0482 0.0000
# 6 0.0000 0.0000 0.0000 0.0000 0.0000 23.6647
#
#
#
# Elastic Compliance Matrix: (Units=1/GPa)
#
#
# Indices 1 2 3 4 5 6 
#
# 1 0.021331 -0.001785 -0.002431 0.000000 0.000000 0.000000
# 2 -0.001785 0.012332 -0.005043 0.000000 0.000000 0.000000
# 3 -0.002431 -0.005043 0.011727 0.000000 0.000000 0.000000
# 4 0.000000 0.000000 0.000000 0.023999 0.000000 0.000000
# 5 0.000000 0.000000 0.000000 0.000000 0.058657 0.000000
# 6 0.000000 0.000000 0.000000 0.000000 0.000000 0.042257
#
#
# Mechanical properties :
#
#
# Convention : Reuss Voigt Hill
#
# Bulk Modulus (GPa) = 37.21587 46.12912 41.67250
# Shear Modulus (GPa) = 25.28085 28.73626 27.00856
#
# Velocity S-wave (km/s) = 3.45385 3.68233 3.56992
# Velocity P-wave (km/s) = 5.78500 6.31238 6.05443
#
# Compressibility (1/GPa) = 0.02687026
#
# Stress axis : x y z
#
# Youngs Moduli (GPa) = 46.88047 81.09120 85.27605
#
# Poissons Ratio (x) = 0.14477 0.20731
# Poissons Ratio (y) = 0.08370 0.43006
# Poissons Ratio (z) = 0.11397 0.40896
#
# Static dielectric constant tensor:
#      x y z
#    x 3.401740 0.000000 0.000000 
#    y 0.000000 4.284820 0.000000 
#    z 0.000000 0.000000 3.908680 
# 
# 
# High freq. dielectric constant tensor:
#      x y z
#    x 1.786780 0.000000 0.000000 
#    y 0.000000 1.854130 0.000000 
#    z 0.000000 0.000000 1.847500 
# 
# From -- ./inp_files/16672.got.cif
#   From: 2010.03.12/outbox.cif.g09.slc.cpg/sg56_9_cif.got.tgz:16672.got - 2010.04.16 15:33:40.
