data_PCOD8228281
_publ_section_title
;
Structure prediction by ZEFSAII (Michael W. Deem and Ramdas Pophale) SiO2 
 PCOD8228281
Probable space group: P C C N
;
_chemical_formula_sum "Si O2"
_cell_formula_units_Z 64
_cell_length_a 23.225191
_cell_length_b 16.593024
_cell_length_c 9.100001
_cell_angle_alpha 90.000000
_cell_angle_beta 90.000000
_cell_angle_gamma 90.000000
_cell_volume 3506.923366
_symmetry_space_group_name_H-M "P C C N"
_symmetry_group_IT_number 56
_symmetry_cell_setting 'orthorhombic'
loop_
_space_group_symop_operation_xyz
x,y,z
1/2-x,1/2-y,z
1/2+x,-y,1/2-z
-x,1/2+y,1/2-z
-x,-y,-z
1/2+x,1/2+y,-z
1/2-x,y,1/2+z
x,1/2-y,1/2+z
loop_
_atom_site_type_symbol
_atom_site_label
_atom_site_fract_x
_atom_site_fract_y
_atom_site_fract_z
Si Si1 0.950822 0.564143 0.168906
Si Si2 0.509408 0.916924 0.702104
Si Si3 0.212629 0.350691 0.150802
Si Si4 0.536800 0.266743 0.638713
Si Si5 0.060177 0.158299 0.056817
Si Si6 0.884626 0.973323 0.387838
Si Si7 0.569394 0.140751 0.873600
Si Si8 0.314413 0.193115 0.478914
O O1 0.927080 0.633256 0.275921
O O2 0.964426 0.487313 0.269671
O O3 0.009260 0.594219 0.088879
O O4 0.901169 0.541595 0.056580
O O5 0.478642 0.833525 0.742695
O O6 0.524033 0.910513 0.529173
O O7 0.569008 0.928910 0.787484
O O8 0.177917 0.434818 0.141622
O O9 0.211491 0.315864 0.315527
O O10 0.187925 0.285179 0.035213
O O11 0.278537 0.363621 0.094113
O O12 0.477516 0.239895 0.559071
O O13 0.566599 0.190783 0.721601
O O14 0.580466 0.301122 0.513756
O O15 0.119175 0.169912 0.970535
O O16 0.882487 0.070329 0.357825
#
# Coordination Sequence:
#
# PCOD8228281 Si02
#       8
#     8   8   8   8   8   8   8   8
#     4  10  21  31  52  73 110 147 182 215 268 332
#     4  11  18  35  47  76 109 144 180 219 262 325
#     4  11  24  39  58  76 110 142 185 238 271 319
#     4  11  19  31  50  76 109 144 183 214 262 328
#     4  11  23  31  52  76 107 145 180 221 268 321
#     4  11  20  36  55  73 109 152 188 222 279 321
#     4  10  20  33  49  78 109 150 180 222 259 334
#     4  11  24  39  55  79 105 140 192 228 270 318
#
# _framework density 18.249614999999999
#
# number of rings (size 3 to 8) (size 9 to 14) (size 15 to 20)
#    0.000    1.250    5.000    3.375    3.500    0.000 
#    0.000    0.000    0.000    0.000    0.000    0.000 
#    0.000    8.000    0.000    0.000    0.000    0.000 
#
# Total GULP energy -793397.458734 kJ/mol
# GULP energy per Si atom -12396.835293 kJ/mol
# Density = 1.820808 g / cm^3
# Si number density = 18.249615 Si / 1000 Ang^3
#
#
#
# Elastic Constant Matrix: (Units=GPa)
#
#
# Indices 1 2 3 4 5 6 
#
# 1 43.7082 29.0405 14.2461 0.0000 0.0000 0.0000
# 2 29.0405 98.7042 28.3201 0.0000 0.0000 0.0000
# 3 14.2461 28.3201 96.2392 0.0000 0.0000 0.0000
# 4 0.0000 0.0000 0.0000 30.2702 0.0000 0.0000
# 5 0.0000 0.0000 0.0000 0.0000 17.9641 0.0000
# 6 0.0000 0.0000 0.0000 0.0000 0.0000 28.2845
#
#
#
# Elastic Compliance Matrix: (Units=1/GPa)
#
#
# Indices 1 2 3 4 5 6 
#
# 1 0.028763 -0.007909 -0.001930 0.000000 0.000000 0.000000
# 2 -0.007909 0.013240 -0.002725 0.000000 0.000000 0.000000
# 3 -0.001930 -0.002725 0.011479 0.000000 0.000000 0.000000
# 4 0.000000 0.000000 0.000000 0.033036 0.000000 0.000000
# 5 0.000000 0.000000 0.000000 0.000000 0.055667 0.000000
# 6 0.000000 0.000000 0.000000 0.000000 0.000000 0.035355
#
#
# Mechanical properties :
#
#
# Convention : Reuss Voigt Hill
#
# Bulk Modulus (GPa) = 35.27036 42.42947 38.84991
# Shear Modulus (GPa) = 23.57168 26.44008 25.00588
#
# Velocity S-wave (km/s) = 3.59782 3.81044 3.70566
# Velocity P-wave (km/s) = 6.05208 6.53141 6.29631
#
# Compressibility (1/GPa) = 0.02835242
#
# Stress axis : x y z
#
# Youngs Moduli (GPa) = 34.76709 75.52792 87.11906
#
# Poissons Ratio (x) = 0.59732 0.16818
# Poissons Ratio (y) = 0.27496 0.23744
# Poissons Ratio (z) = 0.06712 0.20585
#
# Static dielectric constant tensor:
#      x y z
#    x 3.045490 0.000000 0.000000 
#    y 0.000000 3.439790 0.000000 
#    z 0.000000 0.000000 3.476050 
# 
# 
# High freq. dielectric constant tensor:
#      x y z
#    x 1.648840 0.000000 0.000000 
#    y 0.000000 1.704600 0.000000 
#    z 0.000000 0.000000 1.728400 
# 
# From -- ./inp_files/5030.got.cif
#   From: 2010.03.12/outbox.cif.g09.slc.cpg/sg56_3_cif.got.tgz:5030.got - 2010.04.16 15:33:40.
