data_PCOD8228930
_publ_section_title
;
Structure prediction by ZEFSAII (Michael W. Deem and Ramdas Pophale) SiO2 
 PCOD8228930
Probable space group: P C C N
;
_chemical_formula_sum "Si O2"
_cell_formula_units_Z 48
_cell_length_a 9.024511
_cell_length_b 11.075254
_cell_length_c 22.149728
_cell_angle_alpha 90.000000
_cell_angle_beta 90.000000
_cell_angle_gamma 90.000000
_cell_volume 2213.837661
_symmetry_space_group_name_H-M "P C C N"
_symmetry_group_IT_number 56
_symmetry_cell_setting 'orthorhombic'
loop_
_space_group_symop_operation_xyz
x,y,z
1/2-x,1/2-y,z
1/2+x,-y,1/2-z
-x,1/2+y,1/2-z
-x,-y,-z
1/2+x,1/2+y,-z
1/2-x,y,1/2+z
x,1/2-y,1/2+z
loop_
_atom_site_type_symbol
_atom_site_label
_atom_site_fract_x
_atom_site_fract_y
_atom_site_fract_z
Si Si1 0.905741 0.188157 0.139915
Si Si2 0.592981 0.685500 0.268526
Si Si3 0.085004 0.721490 0.067217
Si Si4 0.997277 0.928533 0.146222
Si Si5 0.105552 0.183968 0.543501
Si Si6 0.329539 0.992543 0.139753
O O1 0.750000 0.250000 0.125825
O O2 0.964193 0.226445 0.206351
O O3 0.024634 0.228063 0.090467
O O4 0.888369 0.042738 0.136441
O O5 0.750000 0.750000 0.277555
O O6 0.564016 0.654713 0.199601
O O7 0.585063 0.561522 0.307108
O O8 0.250000 0.750000 0.043349
O O9 0.002372 0.845387 0.086339
O O10 0.094960 0.636981 0.126954
O O11 0.997996 0.655325 0.013573
O O12 0.160559 0.978069 0.161154
O O13 0.250000 0.250000 0.518206
O O14 0.156985 0.062174 0.576172
#
# Coordination Sequence:
#
# PCOD8228930 Si02
#       6
#     8   8   8   8   8   8
#     4  11  24  42  67  98 132 184 223 272 345 408
#     4  11  24  42  70  93 138 173 223 274 335 406
#     4  10  24  41  66  99 132 176 227 282 334 401
#     4  11  24  42  66 101 136 168 229 285 335 402
#     4  11  21  45  68  93 137 176 223 281 337 404
#     4  10  21  45  68  96 134 180 218 274 343 404
#
# _framework density 21.681806999999999
#
# number of rings (size 3 to 8) (size 9 to 14) (size 15 to 20)
#    0.000    1.333    3.333    2.000    4.667    2.000 
#   12.000    0.000    0.000    0.000    0.000    0.000 
#    0.000    0.000    0.000    0.000    0.000    0.000 
#
# Total GULP energy -595362.063895 kJ/mol
# GULP energy per Si atom -12403.376331 kJ/mol
# Density = 2.163246 g / cm^3
# Si number density = 21.681807 Si / 1000 Ang^3
#
#
#
# Elastic Constant Matrix: (Units=GPa)
#
#
# Indices 1 2 3 4 5 6 
#
# 1 94.9196 33.3515 29.6702 0.0000 0.0000 0.0000
# 2 33.3515 97.8524 11.2381 0.0000 0.0000 0.0000
# 3 29.6702 11.2381 66.0292 0.0000 0.0000 0.0000
# 4 0.0000 0.0000 0.0000 26.0091 0.0000 0.0000
# 5 0.0000 0.0000 0.0000 0.0000 30.1313 0.0000
# 6 0.0000 0.0000 0.0000 0.0000 0.0000 28.9291
#
#
#
# Elastic Compliance Matrix: (Units=1/GPa)
#
#
# Indices 1 2 3 4 5 6 
#
# 1 0.013654 -0.004028 -0.005450 0.000000 0.000000 0.000000
# 2 -0.004028 0.011611 -0.000166 0.000000 0.000000 0.000000
# 3 -0.005450 -0.000166 0.017622 0.000000 0.000000 0.000000
# 4 0.000000 0.000000 0.000000 0.038448 0.000000 0.000000
# 5 0.000000 0.000000 0.000000 0.000000 0.033188 0.000000
# 6 0.000000 0.000000 0.000000 0.000000 0.000000 0.034567
#
#
# Mechanical properties :
#
#
# Convention : Reuss Voigt Hill
#
# Bulk Modulus (GPa) = 42.37414 45.25786 43.81600
# Shear Modulus (GPa) = 28.36954 29.31668 28.84311
#
# Velocity S-wave (km/s) = 3.62117 3.68112 3.65127
# Velocity P-wave (km/s) = 6.08851 6.24392 6.16670
#
# Compressibility (1/GPa) = 0.02359930
#
# Stress axis : x y z
#
# Youngs Moduli (GPa) = 73.23853 86.12218 56.74720
#
# Poissons Ratio (x) = 0.34689 0.30927
# Poissons Ratio (y) = 0.29499 0.00944
# Poissons Ratio (z) = 0.39914 0.01432
#
# Static dielectric constant tensor:
#      x y z
#    x 3.800450 0.000000 0.000000 
#    y 0.000000 4.060390 0.000000 
#    z 0.000000 0.000000 3.647980 
# 
# 
# High freq. dielectric constant tensor:
#      x y z
#    x 1.844640 0.000000 0.000000 
#    y 0.000000 1.863370 0.000000 
#    z 0.000000 0.000000 1.839560 
# 
# From -- ./inp_files/20494.got.cif
#   From: 2010.03.12/outbox.cif.g09.slc.cpg/sg56_11_cif.got.tgz:20494.got - 2010.04.16 15:33:40.
