data_PCOD8228606
_publ_section_title
;
Structure prediction by ZEFSAII (Michael W. Deem and Ramdas Pophale) SiO2 
 PCOD8228606
Probable space group: P C C N
;
_chemical_formula_sum "Si O2"
_cell_formula_units_Z 36
_cell_length_a 24.305888
_cell_length_b 7.344268
_cell_length_c 8.506978
_cell_angle_alpha 90.000000
_cell_angle_beta 90.000000
_cell_angle_gamma 90.000000
_cell_volume 1518.571757
_symmetry_space_group_name_H-M "P C C N"
_symmetry_group_IT_number 56
_symmetry_cell_setting 'orthorhombic'
loop_
_space_group_symop_operation_xyz
x,y,z
1/2-x,1/2-y,z
1/2+x,-y,1/2-z
-x,1/2+y,1/2-z
-x,-y,-z
1/2+x,1/2+y,-z
1/2-x,y,1/2+z
x,1/2-y,1/2+z
loop_
_atom_site_type_symbol
_atom_site_label
_atom_site_fract_x
_atom_site_fract_y
_atom_site_fract_z
Si Si1 0.926077 0.670671 0.255331
Si Si2 0.750000 0.750000 0.142240
Si Si3 0.413579 0.868685 0.008147
Si Si4 0.538514 0.051257 0.672015
Si Si5 0.173079 0.107494 0.615561
O O1 0.913854 0.511324 0.133886
O O2 0.872542 0.732770 0.354401
O O3 0.974751 0.597108 0.373953
O O4 0.947120 0.841161 0.152691
O O5 0.781209 0.900024 0.248632
O O6 0.703270 0.851692 0.046544
O O7 0.419020 0.668165 0.934594
O O8 0.459993 0.898812 0.140841
O O9 0.355848 0.908872 0.099956
#
# Coordination Sequence:
#
# PCOD8228606 Si02
#       5
#     8   4   8   8   8
#     4  11  22  41  67 101 138 187 224 280 332 416
#     4  10  20  42  70 102 118 174 226 294 342 406
#     4  11  24  44  60 103 135 186 226 273 338 409
#     4  11  25  39  67  96 148 180 228 271 339 411
#     4  10  22  39  69 100 128 165 237 274 344 403
#
# _framework density 23.706485000000001
#
# number of rings (size 3 to 8) (size 9 to 14) (size 15 to 20)
#    0.000    1.333    4.444    0.667    3.111    4.444 
#    0.000    0.000    0.000   16.000    0.000    0.000 
#    0.000    0.000    0.000    0.000    0.000    0.000 
#
# Total GULP energy -446170.921890 kJ/mol
# GULP energy per Si atom -12393.636719 kJ/mol
# Density = 2.365253 g / cm^3
# Si number density = 23.706485 Si / 1000 Ang^3
#
#
#
# Elastic Constant Matrix: (Units=GPa)
#
#
# Indices 1 2 3 4 5 6 
#
# 1 147.2329 29.4140 37.7749 0.0000 0.0000 0.0000
# 2 29.4140 75.7225 -20.6981 0.0000 0.0000 0.0000
# 3 37.7749 -20.6981 54.5665 0.0000 0.0000 0.0000
# 4 0.0000 0.0000 0.0000 19.8905 0.0000 0.0000
# 5 0.0000 0.0000 0.0000 0.0000 32.6427 0.0000
# 6 0.0000 0.0000 0.0000 0.0000 0.0000 30.5550
#
#
#
# Elastic Compliance Matrix: (Units=1/GPa)
#
#
# Indices 1 2 3 4 5 6 
#
# 1 0.010765 -0.006938 -0.010084 0.000000 0.000000 0.000000
# 2 -0.006938 0.019205 0.012088 0.000000 0.000000 0.000000
# 3 -0.010084 0.012088 0.029893 0.000000 0.000000 0.000000
# 4 0.000000 0.000000 0.000000 0.050275 0.000000 0.000000
# 5 0.000000 0.000000 0.000000 0.000000 0.030635 0.000000
# 6 0.000000 0.000000 0.000000 0.000000 0.000000 0.032728
#
#
# Mechanical properties :
#
#
# Convention : Reuss Voigt Hill
#
# Bulk Modulus (GPa) = 20.00225 41.16707 30.58466
# Shear Modulus (GPa) = 24.99563 32.01971 28.50767
#
# Velocity S-wave (km/s) = 3.25064 3.67914 3.47151
# Velocity P-wave (km/s) = 4.74812 5.95408 5.38497
#
# Compressibility (1/GPa) = 0.04999438
#
# Stress axis : x y z
#
# Youngs Moduli (GPa) = 92.89050 52.06871 33.45311
#
# Poissons Ratio (x) = 0.36126 0.33735
# Poissons Ratio (y) = 0.64449 -0.40438
# Poissons Ratio (z) = 0.93674 -0.62941
#
# Static dielectric constant tensor:
#      x y z
#    x 4.628310 0.000000 0.000000 
#    y 0.000000 4.096090 0.000000 
#    z 0.000000 0.000000 4.587370 
# 
# 
# High freq. dielectric constant tensor:
#      x y z
#    x 1.935830 0.000000 0.000000 
#    y 0.000000 1.909020 0.000000 
#    z 0.000000 0.000000 1.969570 
# 
# From -- ./inp_files/4894.got.cif
#   From: 2010.03.12/outbox.cif.g09.slc.cpg/sg56_3_cif.got.tgz:4894.got - 2010.04.16 15:33:40.
