data_PCOD8228865
_publ_section_title
;
Structure prediction by ZEFSAII (Michael W. Deem and Ramdas Pophale) SiO2 
 PCOD8228865
Probable space group: P C C N
;
_chemical_formula_sum "Si O2"
_cell_formula_units_Z 52
_cell_length_a 8.261178
_cell_length_b 17.292393
_cell_length_c 17.450635
_cell_angle_alpha 90.000000
_cell_angle_beta 90.000000
_cell_angle_gamma 90.000000
_cell_volume 2492.919827
_symmetry_space_group_name_H-M "P C C N"
_symmetry_group_IT_number 56
_symmetry_cell_setting 'orthorhombic'
loop_
_space_group_symop_operation_xyz
x,y,z
1/2-x,1/2-y,z
1/2+x,-y,1/2-z
-x,1/2+y,1/2-z
-x,-y,-z
1/2+x,1/2+y,-z
1/2-x,y,1/2+z
x,1/2-y,1/2+z
loop_
_atom_site_type_symbol
_atom_site_label
_atom_site_fract_x
_atom_site_fract_y
_atom_site_fract_z
Si Si1 0.250000 0.750000 0.206014
Si Si2 0.090855 0.892013 0.460141
Si Si3 0.270085 0.598706 0.298792
Si Si4 0.330885 0.124018 0.413865
Si Si5 0.236033 0.029163 0.553144
Si Si6 0.491049 0.285743 0.416722
Si Si7 0.018232 0.507745 0.688293
O O1 0.307372 0.679481 0.258080
O O2 0.392602 0.785133 0.155565
O O3 0.210167 0.887443 0.388959
O O4 0.914634 0.915294 0.427294
O O5 0.079625 0.810453 0.504591
O O6 0.162741 0.949209 0.523605
O O7 0.087350 0.567092 0.288749
O O8 0.395780 0.535986 0.265827
O O9 0.344402 0.068495 0.487315
O O10 0.433226 0.199526 0.432573
O O11 0.147686 0.151214 0.396483
O O12 0.402070 0.076392 0.342528
O O13 0.343884 0.014842 0.627515
#
# Coordination Sequence:
#
# PCOD8228865 Si02
#       7
#     4   8   8   8   8   8   8
#     4  12  26  44  60  96 136 174 220 272 348 392
#     4  10  22  41  66  95 128 165 220 276 333 389
#     4  12  27  41  63  99 136 175 214 278 343 404
#     4  10  21  41  68  92 121 172 227 267 327 394
#     4  10  21  41  67  96 124 167 223 278 319 404
#     4  10  23  42  68  88 126 176 223 272 325 402
#     4  12  24  42  67  97 136 174 226 269 342 404
#
# _framework density 20.859074
#
# number of rings (size 3 to 8) (size 9 to 14) (size 15 to 20)
#    0.000    1.231    3.077    2.308    2.154    1.846 
#    0.000    0.000    0.000    0.000    0.000    0.000 
#    0.000    0.000    0.000    0.000    0.000    0.000 
#
# Total GULP energy -644931.247193 kJ/mol
# GULP energy per Si atom -12402.523984 kJ/mol
# Density = 2.081160 g / cm^3
# Si number density = 20.859074 Si / 1000 Ang^3
#
#
#
# Elastic Constant Matrix: (Units=GPa)
#
#
# Indices 1 2 3 4 5 6 
#
# 1 71.7523 23.0637 29.4329 0.0000 0.0000 0.0000
# 2 23.0637 82.5855 28.7890 0.0000 0.0000 0.0000
# 3 29.4329 28.7890 78.7423 0.0000 0.0000 0.0000
# 4 0.0000 0.0000 0.0000 10.4717 0.0000 0.0000
# 5 0.0000 0.0000 0.0000 0.0000 52.7783 0.0000
# 6 0.0000 0.0000 0.0000 0.0000 0.0000 30.7937
#
#
#
# Elastic Compliance Matrix: (Units=1/GPa)
#
#
# Indices 1 2 3 4 5 6 
#
# 1 0.017050 -0.002911 -0.005309 0.000000 0.000000 0.000000
# 2 -0.002911 0.014374 -0.004167 0.000000 0.000000 0.000000
# 3 -0.005309 -0.004167 0.016208 0.000000 0.000000 0.000000
# 4 0.000000 0.000000 0.000000 0.095496 0.000000 0.000000
# 5 0.000000 0.000000 0.000000 0.000000 0.018947 0.000000
# 6 0.000000 0.000000 0.000000 0.000000 0.000000 0.032474
#
#
# Mechanical properties :
#
#
# Convention : Reuss Voigt Hill
#
# Bulk Modulus (GPa) = 43.74857 43.96124 43.85490
# Shear Modulus (GPa) = 22.03198 28.92837 25.48018
#
# Velocity S-wave (km/s) = 3.25350 3.72808 3.49884
# Velocity P-wave (km/s) = 5.92727 6.29703 6.11495
#
# Compressibility (1/GPa) = 0.02285789
#
# Stress axis : x y z
#
# Youngs Moduli (GPa) = 58.65021 69.56853 61.69928
#
# Poissons Ratio (x) = 0.20251 0.32755
# Poissons Ratio (y) = 0.17073 0.25712
# Poissons Ratio (z) = 0.31137 0.28991
#
# Static dielectric constant tensor:
#      x y z
#    x 3.788850 0.000000 0.000000 
#    y 0.000000 3.814840 0.000000 
#    z 0.000000 0.000000 3.625010 
# 
# 
# High freq. dielectric constant tensor:
#      x y z
#    x 1.825680 0.000000 0.000000 
#    y 0.000000 1.821430 0.000000 
#    z 0.000000 0.000000 1.811370 
# 
# From -- ./inp_files/15037.got.cif
#   From: 2010.03.12/outbox.cif.g09.slc.cpg/sg56_8_cif.got.tgz:15037.got - 2010.04.16 15:33:40.
