data_PCOD8228010
_publ_section_title
;
Structure prediction by ZEFSAII (Michael W. Deem and Ramdas Pophale) SiO2 
 PCOD8228010
Probable space group: P C C N
;
_chemical_formula_sum "Si O2"
_cell_formula_units_Z 44
_cell_length_a 12.368921
_cell_length_b 10.303352
_cell_length_c 17.765445
_cell_angle_alpha 90.000000
_cell_angle_beta 90.000000
_cell_angle_gamma 90.000000
_cell_volume 2264.052239
_symmetry_space_group_name_H-M "P C C N"
_symmetry_group_IT_number 56
_symmetry_cell_setting 'orthorhombic'
loop_
_space_group_symop_operation_xyz
x,y,z
1/2-x,1/2-y,z
1/2+x,-y,1/2-z
-x,1/2+y,1/2-z
-x,-y,-z
1/2+x,1/2+y,-z
1/2-x,y,1/2+z
x,1/2-y,1/2+z
loop_
_atom_site_type_symbol
_atom_site_label
_atom_site_fract_x
_atom_site_fract_y
_atom_site_fract_z
Si Si1 0.642992 0.180494 0.042038
Si Si2 0.420216 0.224199 0.554879
Si Si3 0.750000 0.750000 0.561605
Si Si4 0.373543 0.514066 0.602112
Si Si5 0.104503 0.450545 0.849761
Si Si6 0.693970 0.886155 0.306742
O O1 0.750000 0.250000 0.067520
O O2 0.546178 0.286805 0.032255
O O3 0.616928 0.090160 0.112918
O O4 0.666362 0.106587 0.964435
O O5 0.338041 0.174059 0.490224
O O6 0.399489 0.377628 0.563091
O O7 0.395566 0.143045 0.629722
O O8 0.685620 0.650205 0.612664
O O9 0.477599 0.583685 0.640237
O O10 0.281099 0.491721 0.664469
O O11 0.131638 0.453508 0.761647
O O12 0.750000 0.750000 0.283391
#
# Coordination Sequence:
#
# PCOD8228010 Si02
#       6
#     8   8   4   8   8   8
#     4  11  22  38  58  86 123 160 194 240 306 361
#     4  10  18  36  62  83 108 152 201 247 279 350
#     4  12  16  34  68  86 104 144 222 244 270 342
#     4  10  19  38  58  80 116 157 195 240 301 347
#     4  11  21  35  61  90 115 156 198 251 298 356
#     4  10  20  35  59  88 116 146 200 252 300 353
#
# _framework density 19.434180000000001
#
# number of rings (size 3 to 8) (size 9 to 14) (size 15 to 20)
#    0.000    1.455    7.273    1.091    0.000    1.455 
#    0.000   11.818    0.000    0.000    0.000    0.000 
#    0.000    0.000    0.000    0.000    0.000    0.000 
#
# Total GULP energy -545468.018997 kJ/mol
# GULP energy per Si atom -12397.000432 kJ/mol
# Density = 1.938995 g / cm^3
# Si number density = 19.434180 Si / 1000 Ang^3
#
#
#
# Elastic Constant Matrix: (Units=GPa)
#
#
# Indices 1 2 3 4 5 6 
#
# 1 126.8592 38.9551 44.6794 0.0000 0.0000 0.0000
# 2 38.9551 37.9570 31.8651 0.0000 0.0000 0.0000
# 3 44.6794 31.8651 112.3338 0.0000 0.0000 0.0000
# 4 0.0000 0.0000 0.0000 15.2859 0.0000 0.0000
# 5 0.0000 0.0000 0.0000 0.0000 29.1970 0.0000
# 6 0.0000 0.0000 0.0000 0.0000 0.0000 33.1074
#
#
#
# Elastic Compliance Matrix: (Units=1/GPa)
#
#
# Indices 1 2 3 4 5 6 
#
# 1 0.011737 -0.010666 -0.001642 0.000000 0.000000 0.000000
# 2 -0.010666 0.044274 -0.008317 0.000000 0.000000 0.000000
# 3 -0.001642 -0.008317 0.011914 0.000000 0.000000 0.000000
# 4 0.000000 0.000000 0.000000 0.065420 0.000000 0.000000
# 5 0.000000 0.000000 0.000000 0.000000 0.034250 0.000000
# 6 0.000000 0.000000 0.000000 0.000000 0.000000 0.030205
#
#
# Mechanical properties :
#
#
# Convention : Reuss Voigt Hill
#
# Bulk Modulus (GPa) = 37.48898 56.46103 46.97500
# Shear Modulus (GPa) = 20.16597 26.29476 23.23036
#
# Velocity S-wave (km/s) = 3.22476 3.68233 3.46111
# Velocity P-wave (km/s) = 5.76173 6.86985 6.34005
#
# Compressibility (1/GPa) = 0.02667451
#
# Stress axis : x y z
#
# Youngs Moduli (GPa) = 85.20368 22.58638 83.93193
#
# Poissons Ratio (x) = 0.24092 0.13785
# Poissons Ratio (y) = 0.90882 0.69803
# Poissons Ratio (z) = 0.13994 0.18784
#
# Static dielectric constant tensor:
#      x y z
#    x 4.084170 0.000000 0.000000 
#    y 0.000000 3.236930 0.000000 
#    z 0.000000 0.000000 3.518560 
# 
# 
# High freq. dielectric constant tensor:
#      x y z
#    x 1.771120 0.000000 0.000000 
#    y 0.000000 1.718750 0.000000 
#    z 0.000000 0.000000 1.755630 
# 
# From -- ./inp_files/15495.got.cif
#   From: 2010.03.12/outbox.cif.g09.slc.cpg/sg56_8_cif.got.tgz:15495.got - 2010.04.16 15:33:40.
