data_PCOD8228921
_publ_section_title
;
Structure prediction by ZEFSAII (Michael W. Deem and Ramdas Pophale) SiO2 
 PCOD8228921
Probable space group: P C C N
;
_chemical_formula_sum "Si O2"
_cell_formula_units_Z 64
_cell_length_a 11.637445
_cell_length_b 16.464449
_cell_length_c 14.019527
_cell_angle_alpha 90.000000
_cell_angle_beta 90.000000
_cell_angle_gamma 90.000000
_cell_volume 2686.199129
_symmetry_space_group_name_H-M "P C C N"
_symmetry_group_IT_number 56
_symmetry_cell_setting 'orthorhombic'
loop_
_space_group_symop_operation_xyz
x,y,z
1/2-x,1/2-y,z
1/2+x,-y,1/2-z
-x,1/2+y,1/2-z
-x,-y,-z
1/2+x,1/2+y,-z
1/2-x,y,1/2+z
x,1/2-y,1/2+z
loop_
_atom_site_type_symbol
_atom_site_label
_atom_site_fract_x
_atom_site_fract_y
_atom_site_fract_z
Si Si1 0.402857 0.519478 0.077511
Si Si2 0.637080 0.558585 0.730583
Si Si3 0.576413 0.343917 0.297233
Si Si4 0.069377 0.574860 0.901083
Si Si5 0.333298 0.180960 0.266573
Si Si6 0.349709 0.984965 0.094029
Si Si7 0.972869 0.193517 0.915667
Si Si8 0.515257 0.247493 0.125720
O O1 0.431993 0.476790 0.177823
O O2 0.273986 0.485502 0.055028
O O3 0.388049 0.616556 0.082749
O O4 0.500000 0.500000 0.000000
O O5 0.554595 0.625644 0.683222
O O6 0.654984 0.484395 0.656686
O O7 0.761021 0.597892 0.757348
O O8 0.663758 0.418401 0.319529
O O9 0.595856 0.267389 0.367171
O O10 0.584805 0.314418 0.187462
O O11 0.934343 0.558064 0.873223
O O12 0.097046 0.668270 0.877616
O O13 0.082530 0.564198 0.013218
O O14 0.250000 0.250000 0.306840
O O15 0.420263 0.162327 0.352527
O O16 0.395642 0.220531 0.174721
O O17 0.013565 0.216319 0.022209
#
# Coordination Sequence:
#
# PCOD8228921 Si02
#       8
#     8   8   8   8   8   8   8   8
#     4  12  28  45  68 104 147 192 234 306 364 430
#     4  11  22  45  67 106 145 179 247 295 366 441
#     4  10  21  44  69  95 139 180 230 298 350 433
#     4  10  22  43  77 101 133 191 242 291 364 429
#     4  11  23  40  69 105 142 194 235 307 372 421
#     4  10  23  46  70  99 139 186 239 295 357 434
#     4  11  24  44  68 102 149 182 249 296 362 443
#     4  11  21  42  70 104 143 188 241 301 365 439
#
# _framework density 23.825485
#
# number of rings (size 3 to 8) (size 9 to 14) (size 15 to 20)
#    0.000    1.250    3.750    3.000    1.750    2.000 
#    2.250    0.000    2.750    0.000    0.000    0.000 
#    0.000    0.000    0.000    0.000    0.000    0.000 
#
# Total GULP energy -793266.714028 kJ/mol
# GULP energy per Si atom -12394.792407 kJ/mol
# Density = 2.377126 g / cm^3
# Si number density = 23.825485 Si / 1000 Ang^3
#
#
#
# Elastic Constant Matrix: (Units=GPa)
#
#
# Indices 1 2 3 4 5 6 
#
# 1 73.0145 2.4326 17.6072 0.0000 0.0000 0.0000
# 2 2.4326 90.8774 25.6660 0.0000 0.0000 0.0000
# 3 17.6072 25.6660 126.7789 0.0000 0.0000 0.0000
# 4 0.0000 0.0000 0.0000 37.0683 0.0000 0.0000
# 5 0.0000 0.0000 0.0000 0.0000 33.9185 0.0000
# 6 0.0000 0.0000 0.0000 0.0000 0.0000 29.4672
#
#
#
# Elastic Compliance Matrix: (Units=1/GPa)
#
#
# Indices 1 2 3 4 5 6 
#
# 1 0.014173 0.000187 -0.002006 0.000000 0.000000 0.000000
# 2 0.000187 0.011674 -0.002389 0.000000 0.000000 0.000000
# 3 -0.002006 -0.002389 0.008650 0.000000 0.000000 0.000000
# 4 0.000000 0.000000 0.000000 0.026977 0.000000 0.000000
# 5 0.000000 0.000000 0.000000 0.000000 0.029482 0.000000
# 6 0.000000 0.000000 0.000000 0.000000 0.000000 0.033936
#
#
# Mechanical properties :
#
#
# Convention : Reuss Voigt Hill
#
# Bulk Modulus (GPa) = 38.34292 42.45360 40.39826
# Shear Modulus (GPa) = 35.21049 36.42180 35.81614
#
# Velocity S-wave (km/s) = 3.84845 3.91409 3.88141
# Velocity P-wave (km/s) = 5.98963 6.18741 6.08932
#
# Compressibility (1/GPa) = 0.02608043
#
# Stress axis : x y z
#
# Youngs Moduli (GPa) = 70.55426 85.66320 115.60566
#
# Poissons Ratio (x) = -0.01604 0.23194
# Poissons Ratio (y) = -0.01321 0.27622
# Poissons Ratio (z) = 0.14156 0.20467
#
# Static dielectric constant tensor:
#      x y z
#    x 3.853630 0.000000 0.000000 
#    y 0.000000 4.531120 0.000000 
#    z 0.000000 0.000000 4.253700 
# 
# 
# High freq. dielectric constant tensor:
#      x y z
#    x 1.915720 0.000000 0.000000 
#    y 0.000000 1.962520 0.000000 
#    z 0.000000 0.000000 1.944540 
# 
# From -- ./inp_files/11847.got.cif
#   From: 2010.03.12/outbox.cif.g09.slc.cpg/sg56_6_cif.got.tgz:11847.got - 2010.04.16 15:33:40.
