data_PCOD8228341
_publ_section_title
;
Structure prediction by ZEFSAII (Michael W. Deem and Ramdas Pophale) SiO2 
 PCOD8228341
Probable space group: P C C N
;
_chemical_formula_sum "Si O2"
_cell_formula_units_Z 48
_cell_length_a 8.280484
_cell_length_b 15.200138
_cell_length_c 18.711533
_cell_angle_alpha 90.000000
_cell_angle_beta 90.000000
_cell_angle_gamma 90.000000
_cell_volume 2355.117736
_symmetry_space_group_name_H-M "P C C N"
_symmetry_group_IT_number 56
_symmetry_cell_setting 'orthorhombic'
loop_
_space_group_symop_operation_xyz
x,y,z
1/2-x,1/2-y,z
1/2+x,-y,1/2-z
-x,1/2+y,1/2-z
-x,-y,-z
1/2+x,1/2+y,-z
1/2-x,y,1/2+z
x,1/2-y,1/2+z
loop_
_atom_site_type_symbol
_atom_site_label
_atom_site_fract_x
_atom_site_fract_y
_atom_site_fract_z
Si Si1 0.450379 0.108632 0.550185
Si Si2 0.869231 0.173430 0.399141
Si Si3 0.075904 0.405211 0.017310
Si Si4 0.066518 0.219847 0.797177
Si Si5 0.563799 0.724053 0.364471
Si Si6 0.068451 0.924568 0.101740
O O1 0.269161 0.100660 0.518073
O O2 0.512632 0.192197 0.595158
O O3 0.560041 0.107759 0.480258
O O4 0.480524 0.026816 0.604423
O O5 0.750000 0.250000 0.426910
O O6 0.759986 0.087599 0.380792
O O7 0.011040 0.159423 0.456084
O O8 0.954663 0.202412 0.326206
O O9 0.019522 0.365982 0.093747
O O10 0.000000 0.500000 0.000000
O O11 0.250000 0.250000 0.801121
O O12 0.006415 0.206626 0.716019
O O13 0.042540 0.130533 0.843323
O O14 0.750000 0.750000 0.366211
#
# Coordination Sequence:
#
# PCOD8228341 Si02
#       6
#     8   8   8   8   8   8
#     4  10  20  38  62  87 117 157 198 248 296 353
#     4  10  20  35  58  87 116 153 195 243 296 354
#     4  11  20  37  63  90 118 150 201 252 295 353
#     4  10  20  38  58  81 117 161 198 239 300 360
#     4   9  20  37  58  85 117 156 197 239 294 356
#     4  10  20  36  59  85 119 152 198 247 297 352
#
# _framework density 20.381146999999999
#
# number of rings (size 3 to 8) (size 9 to 14) (size 15 to 20)
#    0.000    2.000    1.667    3.000    0.000    1.333 
#    3.000    7.500    0.000    0.000    0.000    0.000 
#    0.000    0.000    0.000    0.000    0.000    0.000 
#
# Total GULP energy -594755.342046 kJ/mol
# GULP energy per Si atom -12390.736293 kJ/mol
# Density = 2.033476 g / cm^3
# Si number density = 20.381147 Si / 1000 Ang^3
#
#
#
# Elastic Constant Matrix: (Units=GPa)
#
#
# Indices 1 2 3 4 5 6 
#
# 1 64.4868 28.0087 31.1143 0.0000 0.0000 0.0000
# 2 28.0087 115.1942 76.8476 0.0000 0.0000 0.0000
# 3 31.1143 76.8476 140.3329 0.0000 0.0000 0.0000
# 4 0.0000 0.0000 0.0000 23.8928 0.0000 0.0000
# 5 0.0000 0.0000 0.0000 0.0000 21.9575 0.0000
# 6 0.0000 0.0000 0.0000 0.0000 0.0000 27.5736
#
#
#
# Elastic Compliance Matrix: (Units=1/GPa)
#
#
# Indices 1 2 3 4 5 6 
#
# 1 0.017876 -0.002682 -0.002495 0.000000 0.000000 0.000000
# 2 -0.002682 0.014080 -0.007116 0.000000 0.000000 0.000000
# 3 -0.002495 -0.007116 0.011576 0.000000 0.000000 0.000000
# 4 0.000000 0.000000 0.000000 0.041854 0.000000 0.000000
# 5 0.000000 0.000000 0.000000 0.000000 0.045543 0.000000
# 6 0.000000 0.000000 0.000000 0.000000 0.000000 0.036267
#
#
# Mechanical properties :
#
#
# Convention : Reuss Voigt Hill
#
# Bulk Modulus (GPa) = 52.78031 65.77279 59.27655
# Shear Modulus (GPa) = 25.24047 26.95433 26.09740
#
# Velocity S-wave (km/s) = 3.52294 3.64058 3.58224
# Velocity P-wave (km/s) = 6.51928 7.07200 6.80126
#
# Compressibility (1/GPa) = 0.01894646
#
# Stress axis : x y z
#
# Youngs Moduli (GPa) = 55.94218 71.02200 86.38831
#
# Poissons Ratio (x) = 0.19049 0.21550
# Poissons Ratio (y) = 0.15005 0.61472
# Poissons Ratio (z) = 0.13955 0.50537
#
# Static dielectric constant tensor:
#      x y z
#    x 3.779080 0.000000 0.000000 
#    y 0.000000 3.921050 0.000000 
#    z 0.000000 0.000000 3.744750 
# 
# 
# High freq. dielectric constant tensor:
#      x y z
#    x 1.790540 0.000000 0.000000 
#    y 0.000000 1.798850 0.000000 
#    z 0.000000 0.000000 1.786740 
# 
# From -- ./inp_files/14779.got.cif
#   From: 2010.03.12/outbox.cif.g09.slc.cpg/sg56_8_cif.got.tgz:14779.got - 2010.04.16 15:33:40.
