data_PCOD8228850
_publ_section_title
;
Structure prediction by ZEFSAII (Michael W. Deem and Ramdas Pophale) SiO2 
 PCOD8228850
Probable space group: P C C N
;
_chemical_formula_sum "Si O2"
_cell_formula_units_Z 48
_cell_length_a 8.019339
_cell_length_b 15.933642
_cell_length_c 17.586181
_cell_angle_alpha 90.000000
_cell_angle_beta 90.000000
_cell_angle_gamma 90.000000
_cell_volume 2247.114316
_symmetry_space_group_name_H-M "P C C N"
_symmetry_group_IT_number 56
_symmetry_cell_setting 'orthorhombic'
loop_
_space_group_symop_operation_xyz
x,y,z
1/2-x,1/2-y,z
1/2+x,-y,1/2-z
-x,1/2+y,1/2-z
-x,-y,-z
1/2+x,1/2+y,-z
1/2-x,y,1/2+z
x,1/2-y,1/2+z
loop_
_atom_site_type_symbol
_atom_site_label
_atom_site_fract_x
_atom_site_fract_y
_atom_site_fract_z
Si Si1 0.540396 0.361786 0.914611
Si Si2 0.326475 0.488047 0.169358
Si Si3 0.750000 0.750000 0.027540
Si Si4 0.750000 0.250000 0.801815
Si Si5 0.246690 0.565475 0.955187
Si Si6 0.363049 0.414379 0.532670
Si Si7 0.137430 0.600137 0.288677
O O1 0.536763 0.454422 0.876113
O O2 0.370607 0.308699 0.921629
O O3 0.645386 0.308402 0.855880
O O4 0.630669 0.374638 0.996138
O O5 0.186072 0.447151 0.115918
O O6 0.225945 0.534578 0.233946
O O7 0.440424 0.416191 0.205492
O O8 0.843588 0.685514 0.972677
O O9 0.858974 0.306864 0.745248
O O10 0.267524 0.592704 0.868868
O O11 0.057840 0.575631 0.985273
O O12 0.263281 0.464371 0.973116
#
# Coordination Sequence:
#
# PCOD8228850 Si02
#       7
#     8   8   4   4   8   8   8
#     4  10  22  40  60  85 119 155 197 245 299 352
#     4  10  22  40  59  85 122 160 196 240 297 364
#     4  12  22  34  62  94 114 144 200 260 296 338
#     4  10  24  40  56  84 118 158 196 240 300 354
#     4  10  21  41  64  84 115 162 200 237 293 368
#     4  10  22  38  61  90 117 151 200 245 295 353
#     4  11  22  38  61  86 117 156 197 239 294 354
#
# _framework density 21.360728000000002
#
# number of rings (size 3 to 8) (size 9 to 14) (size 15 to 20)
#    0.000    1.667    0.000    4.000    0.000   11.333 
#    0.000    0.000    0.000    2.000    0.000    0.000 
#    0.000    0.000    0.000    0.000    0.000    0.000 
#
# Total GULP energy -594811.766687 kJ/mol
# GULP energy per Si atom -12391.911806 kJ/mol
# Density = 2.131211 g / cm^3
# Si number density = 21.360728 Si / 1000 Ang^3
#
#
#
# Elastic Constant Matrix: (Units=GPa)
#
#
# Indices 1 2 3 4 5 6 
#
# 1 57.0485 1.4946 -8.5930 0.0000 0.0000 0.0000
# 2 1.4946 100.8854 13.7886 0.0000 0.0000 0.0000
# 3 -8.5930 13.7886 91.4952 0.0000 0.0000 0.0000
# 4 0.0000 0.0000 0.0000 17.5097 0.0000 0.0000
# 5 0.0000 0.0000 0.0000 0.0000 -10.8407 0.0000
# 6 0.0000 0.0000 0.0000 0.0000 0.0000 25.7407
#
#
#
# Elastic Compliance Matrix: (Units=1/GPa)
#
#
# Indices 1 2 3 4 5 6 
#
# 1 0.017805 -0.000503 0.001748 0.000000 0.000000 0.000000
# 2 -0.000503 0.010135 -0.001575 0.000000 0.000000 0.000000
# 3 0.001748 -0.001575 0.011331 0.000000 0.000000 0.000000
# 4 0.000000 0.000000 0.000000 0.057111 0.000000 0.000000
# 5 0.000000 0.000000 0.000000 0.000000 -0.092245 0.000000
# 6 0.000000 0.000000 0.000000 0.000000 0.000000 0.038849
#
#
# Mechanical properties :
#
#
# Convention : Reuss Voigt Hill
#
# Bulk Modulus (GPa) = 25.89817 29.20105 27.54961
# Shear Modulus (GPa) = 88.47022 22.66452 55.56737
#
# Velocity S-wave (km/s) = 6.44260 3.26089 5.10591
# Velocity P-wave (km/s) = 8.21544 5.27996 6.90548
#
# Compressibility (1/GPa) = 0.03861277
#
# Stress axis : x y z
#
# Youngs Moduli (GPa) = 56.16267 98.66902 88.25352
#
# Poissons Ratio (x) = 0.04960 -0.15427
# Poissons Ratio (y) = 0.02823 0.13896
# Poissons Ratio (z) = -0.09817 0.15536
#
# Static dielectric constant tensor:
#      x y z
#    x 3.765950 0.000000 0.000000 
#    y 0.000000 4.857290 0.000000 
#    z 0.000000 0.000000 3.869810 
# 
# 
# High freq. dielectric constant tensor:
#      x y z
#    x 1.839440 0.000000 0.000000 
#    y 0.000000 1.849760 0.000000 
#    z 0.000000 0.000000 1.838690 
# 
# From -- ./inp_files/12713.got.cif
#   From: 2010.03.12/outbox.cif.g09.slc.cpg/sg56_7_cif.got.tgz:12713.got - 2010.04.16 15:33:40.
