data_PCOD8228877
_publ_section_title
;
Structure prediction by ZEFSAII (Michael W. Deem and Ramdas Pophale) SiO2 
 PCOD8228877
Probable space group: P C C N
;
_chemical_formula_sum "Si O2"
_cell_formula_units_Z 64
_cell_length_a 8.908586
_cell_length_b 25.276210
_cell_length_c 13.857168
_cell_angle_alpha 90.000000
_cell_angle_beta 90.000000
_cell_angle_gamma 90.000000
_cell_volume 3120.291830
_symmetry_space_group_name_H-M "P C C N"
_symmetry_group_IT_number 56
_symmetry_cell_setting 'orthorhombic'
loop_
_space_group_symop_operation_xyz
x,y,z
1/2-x,1/2-y,z
1/2+x,-y,1/2-z
-x,1/2+y,1/2-z
-x,-y,-z
1/2+x,1/2+y,-z
1/2-x,y,1/2+z
x,1/2-y,1/2+z
loop_
_atom_site_type_symbol
_atom_site_label
_atom_site_fract_x
_atom_site_fract_y
_atom_site_fract_z
Si Si1 0.525016 0.292855 0.181132
Si Si2 0.983830 0.329304 0.152151
Si Si3 0.146169 0.533631 0.186012
Si Si4 0.802993 0.536171 0.164820
Si Si5 0.265802 0.690402 0.993329
Si Si6 0.708403 0.618719 0.824592
Si Si7 0.845555 0.526206 0.464701
Si Si8 0.748109 0.148670 0.804456
O O1 0.480793 0.231463 0.180290
O O2 0.599568 0.312892 0.082269
O O3 0.376977 0.326862 0.193830
O O4 0.643615 0.302868 0.267725
O O5 0.130150 0.364453 0.133578
O O6 0.887766 0.330941 0.054194
O O7 0.895575 0.356872 0.239622
O O8 0.199807 0.508272 0.286132
O O9 0.252713 0.516288 0.097857
O O10 0.148661 0.596194 0.201852
O O11 0.975280 0.516663 0.166238
O O12 0.777219 0.591109 0.220814
O O13 0.752541 0.544171 0.055404
O O14 0.250000 0.750000 0.029191
O O15 0.303143 0.655613 0.086150
O O16 0.626782 0.578452 0.899020
O O17 0.000000 0.500000 0.500000
#
# Coordination Sequence:
#
# PCOD8228877 Si02
#       8
#     8   8   8   8   8   8   8   8
#     4  10  21  42  60  93 129 166 210 259 313 374
#     4  10  23  38  65  93 129 165 208 264 310 377
#     4  11  25  41  69  92 126 165 204 266 318 385
#     4  11  24  46  62  94 128 160 215 262 319 381
#     4   9  20  38  61  89 124 161 209 255 304 375
#     4  11  24  40  64  93 127 169 210 258 319 379
#     4  11  27  43  66  92 131 166 215 267 325 383
#     4  11  22  38  68  93 121 166 210 253 320 375
#
# _framework density 20.510902999999999
#
# number of rings (size 3 to 8) (size 9 to 14) (size 15 to 20)
#    0.000    1.500    1.250    4.125    8.750    1.000 
#    0.000    0.000    0.000    4.500    0.000    0.000 
#    0.000    0.000    0.000    0.000    0.000    0.000 
#
# Total GULP energy -793777.733504 kJ/mol
# GULP energy per Si atom -12402.777086 kJ/mol
# Density = 2.046422 g / cm^3
# Si number density = 20.510903 Si / 1000 Ang^3
#
#
#
# Elastic Constant Matrix: (Units=GPa)
#
#
# Indices 1 2 3 4 5 6 
#
# 1 97.7182 16.8188 10.6747 0.0000 0.0000 0.0000
# 2 16.8188 68.1683 19.3327 0.0000 0.0000 0.0000
# 3 10.6747 19.3327 99.7206 0.0000 0.0000 0.0000
# 4 0.0000 0.0000 0.0000 22.3837 0.0000 0.0000
# 5 0.0000 0.0000 0.0000 0.0000 24.5399 0.0000
# 6 0.0000 0.0000 0.0000 0.0000 0.0000 39.9617
#
#
#
# Elastic Compliance Matrix: (Units=1/GPa)
#
#
# Indices 1 2 3 4 5 6 
#
# 1 0.010730 -0.002457 -0.000672 0.000000 0.000000 0.000000
# 2 -0.002457 0.016086 -0.002856 0.000000 0.000000 0.000000
# 3 -0.000672 -0.002856 0.010654 0.000000 0.000000 0.000000
# 4 0.000000 0.000000 0.000000 0.044675 0.000000 0.000000
# 5 0.000000 0.000000 0.000000 0.000000 0.040750 0.000000
# 6 0.000000 0.000000 0.000000 0.000000 0.000000 0.025024
#
#
# Mechanical properties :
#
#
# Convention : Reuss Voigt Hill
#
# Bulk Modulus (GPa) = 39.21574 39.91772 39.56673
# Shear Modulus (GPa) = 29.69349 31.96244 30.82797
#
# Velocity S-wave (km/s) = 3.80898 3.95183 3.88107
# Velocity P-wave (km/s) = 6.20528 6.35032 6.27822
#
# Compressibility (1/GPa) = 0.02549997
#
# Stress axis : x y z
#
# Youngs Moduli (GPa) = 93.19854 62.16772 93.86514
#
# Poissons Ratio (x) = 0.15272 0.06311
# Poissons Ratio (y) = 0.22895 0.26803
# Poissons Ratio (z) = 0.06266 0.17752
#
# Static dielectric constant tensor:
#      x y z
#    x 3.654600 0.000000 0.000000 
#    y 0.000000 3.692270 0.000000 
#    z 0.000000 0.000000 3.671380 
# 
# 
# High freq. dielectric constant tensor:
#      x y z
#    x 1.801880 0.000000 0.000000 
#    y 0.000000 1.805980 0.000000 
#    z 0.000000 0.000000 1.804300 
# 
# From -- ./inp_files/11035.got.cif
#   From: 2010.03.12/outbox.cif.g09.slc.cpg/sg56_6_cif.got.tgz:11035.got - 2010.04.16 15:33:40.
