data_PCOD8228344
_publ_section_title
;
Structure prediction by ZEFSAII (Michael W. Deem and Ramdas Pophale) SiO2 
 PCOD8228344
Probable space group: P C C N
;
_chemical_formula_sum "Si O2"
_cell_formula_units_Z 52
_cell_length_a 6.487881
_cell_length_b 18.093954
_cell_length_c 24.254755
_cell_angle_alpha 90.000000
_cell_angle_beta 90.000000
_cell_angle_gamma 90.000000
_cell_volume 2847.300140
_symmetry_space_group_name_H-M "P C C N"
_symmetry_group_IT_number 56
_symmetry_cell_setting 'orthorhombic'
loop_
_space_group_symop_operation_xyz
x,y,z
1/2-x,1/2-y,z
1/2+x,-y,1/2-z
-x,1/2+y,1/2-z
-x,-y,-z
1/2+x,1/2+y,-z
1/2-x,y,1/2+z
x,1/2-y,1/2+z
loop_
_atom_site_type_symbol
_atom_site_label
_atom_site_fract_x
_atom_site_fract_y
_atom_site_fract_z
Si Si1 0.936513 0.429484 0.212480
Si Si2 0.750000 0.750000 0.040373
Si Si3 0.866152 0.174560 0.410968
Si Si4 0.161562 0.832548 0.865817
Si Si5 0.829638 0.830593 0.778026
Si Si6 0.123689 0.823589 0.986867
Si Si7 0.607120 0.086092 0.802350
O O1 0.812499 0.388442 0.164754
O O2 0.819285 0.431404 0.270838
O O3 0.151406 0.390260 0.222465
O O4 0.969381 0.513002 0.192713
O O5 0.603981 0.803625 0.076856
O O6 0.611712 0.695599 0.002761
O O7 0.750000 0.250000 0.394260
O O8 0.747909 0.136000 0.463366
O O9 0.846677 0.114763 0.363277
O O10 0.250000 0.750000 0.863143
O O11 0.129532 0.864803 0.927900
O O12 0.938067 0.832109 0.837536
O O13 0.750000 0.750000 0.763525
O O14 0.991198 0.849381 0.730332
O O15 0.250000 0.750000 0.976484
#
# Coordination Sequence:
#
# PCOD8228344 Si02
#       7
#     8   4   8   8   8   8   8
#     4  11  23  41  54  84 118 153 190 228 301 335
#     4   8  16  32  54  84 110 144 188 224 288 326
#     4   9  20  35  56  85 110 148 190 233 277 331
#     4  10  20  35  59  87 117 144 190 240 275 345
#     4  11  23  35  59  88 110 152 196 234 285 333
#     4   8  17  33  54  85 116 143 184 236 281 328
#     4  11  24  39  57  80 120 154 186 240 283 353
#
# _framework density 18.262916000000001
#
# number of rings (size 3 to 8) (size 9 to 14) (size 15 to 20)
#    0.000    2.462    3.077    0.000    4.308    2.462 
#    0.000    0.769    0.000    1.846    0.000    0.000 
#    0.000    0.000    0.000    0.000    0.000    0.000 
#
# Total GULP energy -644605.823758 kJ/mol
# GULP energy per Si atom -12396.265842 kJ/mol
# Density = 1.822135 g / cm^3
# Si number density = 18.262916 Si / 1000 Ang^3
#
#
#
# Elastic Constant Matrix: (Units=GPa)
#
#
# Indices 1 2 3 4 5 6 
#
# 1 112.1743 29.3199 49.3696 0.0000 0.0000 0.0000
# 2 29.3199 73.9237 49.6792 0.0000 0.0000 0.0000
# 3 49.3696 49.6792 152.0217 0.0000 0.0000 0.0000
# 4 0.0000 0.0000 0.0000 11.2798 0.0000 0.0000
# 5 0.0000 0.0000 0.0000 0.0000 415.7289 0.0000
# 6 0.0000 0.0000 0.0000 0.0000 0.0000 29.2217
#
#
#
# Elastic Compliance Matrix: (Units=1/GPa)
#
#
# Indices 1 2 3 4 5 6 
#
# 1 0.010738 -0.002454 -0.002685 0.000000 0.000000 0.000000
# 2 -0.002454 0.017895 -0.005051 0.000000 0.000000 0.000000
# 3 -0.002685 -0.005051 0.009101 0.000000 0.000000 0.000000
# 4 0.000000 0.000000 0.000000 0.088654 0.000000 0.000000
# 5 0.000000 0.000000 0.000000 0.000000 0.002405 0.000000
# 6 0.000000 0.000000 0.000000 0.000000 0.000000 0.034221
#
#
# Mechanical properties :
#
#
# Convention : Reuss Voigt Hill
#
# Bulk Modulus (GPa) = 57.62706 66.09522 61.86114
# Shear Modulus (GPa) = 26.42988 105.22948 65.82968
#
# Velocity S-wave (km/s) = 3.80832 7.59897 6.01031
# Velocity P-wave (km/s) = 7.13865 10.64246 9.06152
#
# Compressibility (1/GPa) = 0.01735296
#
# Stress axis : x y z
#
# Youngs Moduli (GPa) = 93.12727 55.88041 109.88281
#
# Poissons Ratio (x) = 0.13716 0.29505
# Poissons Ratio (y) = 0.22858 0.55501
# Poissons Ratio (z) = 0.25006 0.28225
#
# Static dielectric constant tensor:
#      x y z
#    x 3.236190 0.000000 0.000000 
#    y 0.000000 3.155430 0.000000 
#    z 0.000000 0.000000 3.756210 
# 
# 
# High freq. dielectric constant tensor:
#      x y z
#    x 1.723220 0.000000 0.000000 
#    y 0.000000 1.678500 0.000000 
#    z 0.000000 0.000000 1.712440 
# 
# From -- ./inp_files/21765.got.cif
#   From: 2010.03.12/outbox.cif.g09.slc.cpg/sg56_11_cif.got.tgz:21765.got - 2010.04.16 15:33:40.
