data_PCOD8228604
_publ_section_title
;
Structure prediction by ZEFSAII (Michael W. Deem and Ramdas Pophale) SiO2 
 PCOD8228604
Probable space group: P C C N
;
_chemical_formula_sum "Si O2"
_cell_formula_units_Z 48
_cell_length_a 8.945588
_cell_length_b 8.518543
_cell_length_c 30.385643
_cell_angle_alpha 90.000000
_cell_angle_beta 90.000000
_cell_angle_gamma 90.000000
_cell_volume 2315.488580
_symmetry_space_group_name_H-M "P C C N"
_symmetry_group_IT_number 56
_symmetry_cell_setting 'orthorhombic'
loop_
_space_group_symop_operation_xyz
x,y,z
1/2-x,1/2-y,z
1/2+x,-y,1/2-z
-x,1/2+y,1/2-z
-x,-y,-z
1/2+x,1/2+y,-z
1/2-x,y,1/2+z
x,1/2-y,1/2+z
loop_
_atom_site_type_symbol
_atom_site_label
_atom_site_fract_x
_atom_site_fract_y
_atom_site_fract_z
Si Si1 0.217541 0.925465 0.615159
Si Si2 0.388224 0.340590 0.780803
Si Si3 0.542974 0.492281 0.550282
Si Si4 0.454345 0.009178 0.367058
Si Si5 0.750000 0.250000 0.092692
Si Si6 0.750000 0.750000 0.086243
Si Si7 0.861914 0.112348 0.284776
O O1 0.250000 0.750000 0.598912
O O2 0.140846 0.922939 0.663112
O O3 0.377018 0.018137 0.614870
O O4 0.103740 0.004351 0.581056
O O5 0.250000 0.250000 0.802875
O O6 0.469831 0.457830 0.814971
O O7 0.337859 0.445546 0.739122
O O8 0.485959 0.189966 0.767754
O O9 0.500000 0.500000 0.500000
O O10 0.631639 0.333640 0.561063
O O11 0.659643 0.631798 0.555978
O O12 0.345569 0.863012 0.375601
O O13 0.378409 0.165263 0.385915
O O14 0.750000 0.250000 0.271201
#
# Coordination Sequence:
#
# PCOD8228604 Si02
#       7
#     8   8   8   8   4   4   8
#     4  11  22  44  69  92 127 182 224 263 337 404
#     4  12  24  39  65  95 134 179 228 280 330 393
#     4  11  25  44  71 100 136 170 223 278 341 404
#     4  11  22  43  68  95 137 177 225 268 334 403
#     4  10  28  42  64 110 130 168 224 280 340 396
#     4  10  20  42  68  94 132 182 214 270 330 408
#     4  11  24  43  61  96 130 178 232 274 336 398
#
# _framework density 20.729966999999998
#
# number of rings (size 3 to 8) (size 9 to 14) (size 15 to 20)
#    0.000    1.000    5.833    1.000    4.667    3.333 
#    0.000    3.333    0.000    0.000    0.000    0.000 
#    0.000    0.000    0.000    0.000    0.000    0.000 
#
# Total GULP energy -594967.661559 kJ/mol
# GULP energy per Si atom -12395.159616 kJ/mol
# Density = 2.068278 g / cm^3
# Si number density = 20.729967 Si / 1000 Ang^3
#
#
#
# Elastic Constant Matrix: (Units=GPa)
#
#
# Indices 1 2 3 4 5 6 
#
# 1 140.9683 37.7654 51.4614 0.0000 0.0000 0.0000
# 2 37.7654 87.6764 42.9526 0.0000 0.0000 0.0000
# 3 51.4614 42.9526 106.4811 0.0000 0.0000 0.0000
# 4 0.0000 0.0000 0.0000 19.4474 0.0000 0.0000
# 5 0.0000 0.0000 0.0000 0.0000 29.0706 0.0000
# 6 0.0000 0.0000 0.0000 0.0000 0.0000 36.3208
#
#
#
# Elastic Compliance Matrix: (Units=1/GPa)
#
#
# Indices 1 2 3 4 5 6 
#
# 1 0.008930 -0.002159 -0.003445 0.000000 0.000000 0.000000
# 2 -0.002159 0.014736 -0.004901 0.000000 0.000000 0.000000
# 3 -0.003445 -0.004901 0.013033 0.000000 0.000000 0.000000
# 4 0.000000 0.000000 0.000000 0.051421 0.000000 0.000000
# 5 0.000000 0.000000 0.000000 0.000000 0.034399 0.000000
# 6 0.000000 0.000000 0.000000 0.000000 0.000000 0.027532
#
#
# Mechanical properties :
#
#
# Convention : Reuss Voigt Hill
#
# Bulk Modulus (GPa) = 63.73494 66.60940 65.17217
# Shear Modulus (GPa) = 28.36217 30.49750 29.42984
#
# Velocity S-wave (km/s) = 3.70289 3.83976 3.77195
# Velocity P-wave (km/s) = 7.00671 7.20139 7.10472
#
# Compressibility (1/GPa) = 0.01568998
#
# Stress axis : x y z
#
# Youngs Moduli (GPa) = 111.98608 67.85880 76.72686
#
# Poissons Ratio (x) = 0.14649 0.26431
# Poissons Ratio (y) = 0.24175 0.37605
# Poissons Ratio (z) = 0.38578 0.33259
#
# Static dielectric constant tensor:
#      x y z
#    x 3.868130 0.000000 0.000000 
#    y 0.000000 3.825600 0.000000 
#    z 0.000000 0.000000 3.499160 
# 
# 
# High freq. dielectric constant tensor:
#      x y z
#    x 1.836210 0.000000 0.000000 
#    y 0.000000 1.811080 0.000000 
#    z 0.000000 0.000000 1.791340 
# 
# From -- ./inp_files/23286.got.cif
#   From: 2010.03.12/outbox.cif.g09.slc.cpg/sg56_12_cif.got.tgz:23286.got - 2010.04.16 15:33:40.
