data_PCOD8228762
_publ_section_title
;
Structure prediction by ZEFSAII (Michael W. Deem and Ramdas Pophale) SiO2 
 PCOD8228762
Probable space group: P C C N
;
_chemical_formula_sum "Si O2"
_cell_formula_units_Z 60
_cell_length_a 6.330692
_cell_length_b 16.979766
_cell_length_c 27.272497
_cell_angle_alpha 90.000000
_cell_angle_beta 90.000000
_cell_angle_gamma 90.000000
_cell_volume 2931.620759
_symmetry_space_group_name_H-M "P C C N"
_symmetry_group_IT_number 56
_symmetry_cell_setting 'orthorhombic'
loop_
_space_group_symop_operation_xyz
x,y,z
1/2-x,1/2-y,z
1/2+x,-y,1/2-z
-x,1/2+y,1/2-z
-x,-y,-z
1/2+x,1/2+y,-z
1/2-x,y,1/2+z
x,1/2-y,1/2+z
loop_
_atom_site_type_symbol
_atom_site_label
_atom_site_fract_x
_atom_site_fract_y
_atom_site_fract_z
Si Si1 0.469860 0.890724 0.458025
Si Si2 0.250000 0.250000 0.557023
Si Si3 0.483306 0.452680 0.682978
Si Si4 0.594835 0.057466 0.435527
Si Si5 0.377583 0.557018 0.207384
Si Si6 0.657598 0.163561 0.860107
Si Si7 0.377065 0.824038 0.885005
Si Si8 0.742372 0.917289 0.136106
O O1 0.614456 0.815196 0.472382
O O2 0.364877 0.915652 0.509120
O O3 0.280995 0.872254 0.420343
O O4 0.611154 0.961716 0.434760
O O5 0.412917 0.300079 0.587727
O O6 0.598337 0.455035 0.735241
O O7 0.235613 0.476394 0.688006
O O8 0.528396 0.367079 0.662263
O O9 0.582474 0.510880 0.642776
O O10 0.762401 0.100961 0.400958
O O11 0.359914 0.079679 0.416077
O O12 0.227236 0.631712 0.193731
O O13 0.596961 0.576028 0.181259
O O14 0.750000 0.250000 0.870650
O O15 0.400972 0.162769 0.862151
O O16 0.250000 0.750000 0.863843
#
# Coordination Sequence:
#
# PCOD8228762 Si02
#       8
#     8   4   8   8   8   8   8   8
#     4  10  22  40  61  96 129 166 219 261 312 379
#     4  10  24  40  62  92 130 170 206 262 324 380
#     4  11  20  38  63  90 123 162 211 262 315 383
#     4  10  22  39  66  94 124 171 218 259 315 377
#     4  10  22  36  63  93 117 164 210 260 320 376
#     4  10  24  41  61  93 128 165 211 262 322 382
#     4  10  23  40  61  90 129 169 206 264 318 376
#     4  10  21  39  63  90 123 161 203 266 308 373
#
# _framework density 20.466493
#
# number of rings (size 3 to 8) (size 9 to 14) (size 15 to 20)
#    0.000    1.867    2.667    0.000    5.600    6.400 
#    0.000    4.000    0.000    0.000    0.000    0.000 
#    0.000    0.000    0.000    0.000    0.000    0.000 
#
# Total GULP energy -743347.566173 kJ/mol
# GULP energy per Si atom -12389.126103 kJ/mol
# Density = 2.041991 g / cm^3
# Si number density = 20.466493 Si / 1000 Ang^3
#
#
#
# Elastic Constant Matrix: (Units=GPa)
#
#
# Indices 1 2 3 4 5 6 
#
# 1 106.4412 49.9251 35.7329 0.0000 0.0000 0.0000
# 2 49.9251 117.2721 51.8353 0.0000 0.0000 0.0000
# 3 35.7329 51.8353 84.4256 0.0000 0.0000 0.0000
# 4 0.0000 0.0000 0.0000 18.7314 0.0000 0.0000
# 5 0.0000 0.0000 0.0000 0.0000 10.4390 0.0000
# 6 0.0000 0.0000 0.0000 0.0000 0.0000 34.5974
#
#
#
# Elastic Compliance Matrix: (Units=1/GPa)
#
#
# Indices 1 2 3 4 5 6 
#
# 1 0.012173 -0.003987 -0.002704 0.000000 0.000000 0.000000
# 2 -0.003987 0.013009 -0.006300 0.000000 0.000000 0.000000
# 3 -0.002704 -0.006300 0.016857 0.000000 0.000000 0.000000
# 4 0.000000 0.000000 0.000000 0.053386 0.000000 0.000000
# 5 0.000000 0.000000 0.000000 0.000000 0.095795 0.000000
# 6 0.000000 0.000000 0.000000 0.000000 0.000000 0.028904
#
#
# Mechanical properties :
#
#
# Convention : Reuss Voigt Hill
#
# Bulk Modulus (GPa) = 62.27747 64.79172 63.53460
# Shear Modulus (GPa) = 19.88404 24.12992 22.00698
#
# Velocity S-wave (km/s) = 3.12034 3.43738 3.28269
# Velocity P-wave (km/s) = 6.59371 6.89059 6.74379
#
# Compressibility (1/GPa) = 0.01605717
#
# Stress axis : x y z
#
# Youngs Moduli (GPa) = 82.15115 76.86967 59.32178
#
# Poissons Ratio (x) = 0.30647 0.16042
# Poissons Ratio (y) = 0.32753 0.37372
# Poissons Ratio (z) = 0.22215 0.48426
#
# Static dielectric constant tensor:
#      x y z
#    x 3.949950 0.000000 0.000000 
#    y 0.000000 3.893600 0.000000 
#    z 0.000000 0.000000 3.575630 
# 
# 
# High freq. dielectric constant tensor:
#      x y z
#    x 1.808720 0.000000 0.000000 
#    y 0.000000 1.796440 0.000000 
#    z 0.000000 0.000000 1.788640 
# 
# From -- ./inp_files/21784.got.cif
#   From: 2010.03.12/outbox.cif.g09.slc.cpg/sg56_11_cif.got.tgz:21784.got - 2010.04.16 15:33:40.
