data_PCOD8228469
_publ_section_title
;
Structure prediction by ZEFSAII (Michael W. Deem and Ramdas Pophale) SiO2 
 PCOD8228469
Probable space group: P C C N
;
_chemical_formula_sum "Si O2"
_cell_formula_units_Z 52
_cell_length_a 15.093032
_cell_length_b 7.837030
_cell_length_c 20.298973
_cell_angle_alpha 90.000000
_cell_angle_beta 90.000000
_cell_angle_gamma 90.000000
_cell_volume 2401.054777
_symmetry_space_group_name_H-M "P C C N"
_symmetry_group_IT_number 56
_symmetry_cell_setting 'orthorhombic'
loop_
_space_group_symop_operation_xyz
x,y,z
1/2-x,1/2-y,z
1/2+x,-y,1/2-z
-x,1/2+y,1/2-z
-x,-y,-z
1/2+x,1/2+y,-z
1/2-x,y,1/2+z
x,1/2-y,1/2+z
loop_
_atom_site_type_symbol
_atom_site_label
_atom_site_fract_x
_atom_site_fract_y
_atom_site_fract_z
Si Si1 0.074333 0.459108 0.948890
Si Si2 0.470981 0.963556 0.172504
Si Si3 0.753082 0.953619 0.986463
Si Si4 0.268870 0.942911 0.156491
Si Si5 0.072954 0.443816 0.447140
Si Si6 0.935183 0.872043 0.192276
Si Si7 0.250000 0.250000 0.751141
O O1 0.081540 0.258027 0.941230
O O2 0.042680 0.544589 0.879259
O O3 0.167287 0.530256 0.976073
O O4 0.000000 0.500000 0.000000
O O5 0.372022 0.985273 0.145717
O O6 0.490966 0.765812 0.176786
O O7 0.476965 0.038790 0.244798
O O8 0.750000 0.750000 0.978471
O O9 0.772505 0.035365 0.915389
O O10 0.834494 0.020368 0.029437
O O11 0.250000 0.750000 0.182725
O O12 0.227880 0.082342 0.207049
O O13 0.061006 0.502909 0.370592
O O14 0.000000 0.500000 0.500000
O O15 0.836185 0.792831 0.203846
#
# Coordination Sequence:
#
# PCOD8228469 Si02
#       7
#     8   8   8   8   8   8   4
#     4  10  20  38  61  90 127 164 215 265 327 395
#     4  10  23  40  61  93 126 173 214 273 331 397
#     4  10  21  38  63  91 127 171 217 268 334 394
#     4  11  23  39  66  98 132 169 225 270 330 399
#     4  10  24  39  64  93 123 166 221 279 329 395
#     4  10  24  42  64  92 129 174 226 267 343 397
#     4  10  24  44  66  94 136 186 214 268 336 406
#
# _framework density 21.657149
#
# number of rings (size 3 to 8) (size 9 to 14) (size 15 to 20)
#    0.000    1.846    2.308    0.000   11.846    1.231 
#    0.000    0.000    0.000    0.923    0.000    0.000 
#    0.000    0.000    0.000    0.000    0.000    0.000 
#
# Total GULP energy -644322.890344 kJ/mol
# GULP energy per Si atom -12390.824814 kJ/mol
# Density = 2.160786 g / cm^3
# Si number density = 21.657149 Si / 1000 Ang^3
#
#
#
# Elastic Constant Matrix: (Units=GPa)
#
#
# Indices 1 2 3 4 5 6 
#
# 1 117.2068 4.5165 62.6794 0.0000 0.0000 0.0000
# 2 4.5165 50.8056 26.1512 0.0000 0.0000 0.0000
# 3 62.6794 26.1512 193.8305 0.0000 0.0000 0.0000
# 4 0.0000 0.0000 0.0000 31.1247 0.0000 0.0000
# 5 0.0000 0.0000 0.0000 0.0000 35.8518 0.0000
# 6 0.0000 0.0000 0.0000 0.0000 0.0000 28.3147
#
#
#
# Elastic Compliance Matrix: (Units=1/GPa)
#
#
# Indices 1 2 3 4 5 6 
#
# 1 0.010351 0.000863 -0.003464 0.000000 0.000000 0.000000
# 2 0.000863 0.021224 -0.003142 0.000000 0.000000 0.000000
# 3 -0.003464 -0.003142 0.006703 0.000000 0.000000 0.000000
# 4 0.000000 0.000000 0.000000 0.032129 0.000000 0.000000
# 5 0.000000 0.000000 0.000000 0.000000 0.027893 0.000000
# 6 0.000000 0.000000 0.000000 0.000000 0.000000 0.035317
#
#
# Mechanical properties :
#
#
# Convention : Reuss Voigt Hill
#
# Bulk Modulus (GPa) = 37.32592 60.94857 49.13724
# Shear Modulus (GPa) = 32.46044 36.95794 34.70919
#
# Velocity S-wave (km/s) = 3.87568 4.13546 4.00767
# Velocity P-wave (km/s) = 6.10738 7.14187 6.64479
#
# Compressibility (1/GPa) = 0.02679104
#
# Stress axis : x y z
#
# Youngs Moduli (GPa) = 96.60969 47.11718 149.18376
#
# Poissons Ratio (x) = -0.04065 0.51671
# Poissons Ratio (y) = -0.08334 0.46880
# Poissons Ratio (z) = 0.33462 0.14806
#
# Static dielectric constant tensor:
#      x y z
#    x 4.877460 0.000000 0.000000 
#    y 0.000000 3.632930 0.000000 
#    z 0.000000 0.000000 4.848380 
# 
# 
# High freq. dielectric constant tensor:
#      x y z
#    x 1.856600 0.000000 0.000000 
#    y 0.000000 1.822440 0.000000 
#    z 0.000000 0.000000 1.871000 
# 
# From -- ./inp_files/19072.got.cif
#   From: 2010.03.12/outbox.cif.g09.slc.cpg/sg56_10_cif.got.tgz:19072.got - 2010.04.16 15:33:40.
