data_PCOD8228437
_publ_section_title
;
Structure prediction by ZEFSAII (Michael W. Deem and Ramdas Pophale) SiO2 
 PCOD8228437
Probable space group: P C C N
;
_chemical_formula_sum "Si O2"
_cell_formula_units_Z 64
_cell_length_a 9.349506
_cell_length_b 16.975560
_cell_length_c 20.086558
_cell_angle_alpha 90.000000
_cell_angle_beta 90.000000
_cell_angle_gamma 90.000000
_cell_volume 3187.999890
_symmetry_space_group_name_H-M "P C C N"
_symmetry_group_IT_number 56
_symmetry_cell_setting 'orthorhombic'
loop_
_space_group_symop_operation_xyz
x,y,z
1/2-x,1/2-y,z
1/2+x,-y,1/2-z
-x,1/2+y,1/2-z
-x,-y,-z
1/2+x,1/2+y,-z
1/2-x,y,1/2+z
x,1/2-y,1/2+z
loop_
_atom_site_type_symbol
_atom_site_label
_atom_site_fract_x
_atom_site_fract_y
_atom_site_fract_z
Si Si1 0.071433 0.171304 0.893673
Si Si2 0.956324 0.060558 0.060067
Si Si3 0.327694 0.465553 0.816407
Si Si4 0.708995 0.109397 0.450136
Si Si5 0.401223 0.030034 0.058553
Si Si6 0.496663 0.530642 0.694129
Si Si7 0.381212 0.696329 0.648018
Si Si8 0.790781 0.666193 0.462788
O O1 0.161584 0.125440 0.838312
O O2 0.161165 0.179993 0.961123
O O3 0.928663 0.120407 0.903727
O O4 0.027486 0.255739 0.863179
O O5 0.881371 0.020378 0.122733
O O6 0.833656 0.117982 0.027798
O O7 0.087963 0.118607 0.079138
O O8 0.000000 0.000000 0.000000
O O9 0.425173 0.483870 0.753775
O O10 0.165017 0.472225 0.793061
O O11 0.830756 0.170481 0.426619
O O12 0.755790 0.019911 0.437170
O O13 0.480984 0.021692 0.128155
O O14 0.357793 0.118752 0.040902
O O15 0.500000 0.000000 0.000000
O O16 0.422977 0.618012 0.689880
O O17 0.250000 0.750000 0.679780
O O18 0.750000 0.750000 0.429987
#
# Coordination Sequence:
#
# PCOD8228437 Si02
#       8
#     8   8   8   8   8   8   8   8
#     4  10  20  37  65  95 129 163 217 286 338 397
#     4  11  19  39  67  92 132 177 215 279 344 394
#     4  12  25  43  69  98 130 180 235 275 328 412
#     4   9  17  34  62  93 117 166 213 255 340 393
#     4  11  21  38  63  90 130 163 219 277 330 391
#     4  11  28  41  69 100 129 182 236 272 330 410
#     4   9  21  38  65  96 136 165 216 285 346 395
#     4  11  23  35  64 100 134 166 219 282 353 393
#
# _framework density 20.075282999999999
#
# number of rings (size 3 to 8) (size 9 to 14) (size 15 to 20)
#    0.000    1.500    3.750    1.500   12.250    0.000 
#    0.000    1.250    0.000    0.000    0.000    0.000 
#    0.000    0.000    0.000    0.000    0.000    0.000 
#
# Total GULP energy -792960.249686 kJ/mol
# GULP energy per Si atom -12390.003901 kJ/mol
# Density = 2.002959 g / cm^3
# Si number density = 20.075283 Si / 1000 Ang^3
#
#
#
# Elastic Constant Matrix: (Units=GPa)
#
#
# Indices 1 2 3 4 5 6 
#
# 1 102.0765 38.9952 30.7725 0.0000 0.0000 0.0000
# 2 38.9952 97.1367 5.9504 0.0000 0.0000 0.0000
# 3 30.7725 5.9504 77.0861 0.0000 0.0000 0.0000
# 4 0.0000 0.0000 0.0000 21.9362 0.0000 0.0000
# 5 0.0000 0.0000 0.0000 0.0000 30.5934 0.0000
# 6 0.0000 0.0000 0.0000 0.0000 0.0000 38.9802
#
#
#
# Elastic Compliance Matrix: (Units=1/GPa)
#
#
# Indices 1 2 3 4 5 6 
#
# 1 0.013172 -0.004989 -0.004873 0.000000 0.000000 0.000000
# 2 -0.004989 0.012233 0.001047 0.000000 0.000000 0.000000
# 3 -0.004873 0.001047 0.014837 0.000000 0.000000 0.000000
# 4 0.000000 0.000000 0.000000 0.045587 0.000000 0.000000
# 5 0.000000 0.000000 0.000000 0.000000 0.032687 0.000000
# 6 0.000000 0.000000 0.000000 0.000000 0.000000 0.025654
#
#
# Mechanical properties :
#
#
# Convention : Reuss Voigt Hill
#
# Bulk Modulus (GPa) = 44.22340 47.52617 45.87478
# Shear Modulus (GPa) = 29.52698 31.67403 30.60051
#
# Velocity S-wave (km/s) = 3.83928 3.97642 3.90845
# Velocity P-wave (km/s) = 6.45988 6.69387 6.57791
#
# Compressibility (1/GPa) = 0.02261246
#
# Stress axis : x y z
#
# Youngs Moduli (GPa) = 75.92116 81.74280 67.39939
#
# Poissons Ratio (x) = 0.40783 0.32843
# Poissons Ratio (y) = 0.37878 -0.07059
# Poissons Ratio (z) = 0.36996 -0.08561
#
# Static dielectric constant tensor:
#      x y z
#    x 3.947440 0.000000 0.000000 
#    y 0.000000 3.958810 0.000000 
#    z 0.000000 0.000000 3.498930 
# 
# 
# High freq. dielectric constant tensor:
#      x y z
#    x 1.803120 0.000000 0.000000 
#    y 0.000000 1.785870 0.000000 
#    z 0.000000 0.000000 1.742280 
# 
# From -- ./inp_files/18373.got.cif
#   From: 2010.03.12/outbox.cif.g09.slc.cpg/sg56_10_cif.got.tgz:18373.got - 2010.04.16 15:33:40.
