data_PCOD8228487
_publ_section_title
;
Structure prediction by ZEFSAII (Michael W. Deem and Ramdas Pophale) SiO2 
 PCOD8228487
Probable space group: P C C N
;
_chemical_formula_sum "Si O2"
_cell_formula_units_Z 36
_cell_length_a 11.747649
_cell_length_b 9.144506
_cell_length_c 14.414548
_cell_angle_alpha 90.000000
_cell_angle_beta 90.000000
_cell_angle_gamma 90.000000
_cell_volume 1548.503673
_symmetry_space_group_name_H-M "P C C N"
_symmetry_group_IT_number 56
_symmetry_cell_setting 'orthorhombic'
loop_
_space_group_symop_operation_xyz
x,y,z
1/2-x,1/2-y,z
1/2+x,-y,1/2-z
-x,1/2+y,1/2-z
-x,-y,-z
1/2+x,1/2+y,-z
1/2-x,y,1/2+z
x,1/2-y,1/2+z
loop_
_atom_site_type_symbol
_atom_site_label
_atom_site_fract_x
_atom_site_fract_y
_atom_site_fract_z
Si Si1 0.619030 0.868214 0.897777
Si Si2 0.250000 0.250000 0.272950
Si Si3 0.009461 0.596619 0.640693
Si Si4 0.651035 0.926000 0.488708
Si Si5 0.961262 0.592787 0.182553
O O1 0.666811 0.848592 0.792550
O O2 0.715049 0.931041 0.967709
O O3 0.586321 0.711814 0.939565
O O4 0.510448 0.977890 0.893503
O O5 0.328998 0.359470 0.334903
O O6 0.879251 0.585158 0.598927
O O7 0.035598 0.758290 0.679818
O O8 0.095221 0.571058 0.554908
O O9 0.030208 0.472835 0.715779
#
# Coordination Sequence:
#
# PCOD8228487 Si02
#       5
#     8   4   8   8   8
#     4  10  20  42  64  93 137 181 227 272 349 414
#     4  10  20  38  64 100 138 174 220 286 340 396
#     4  11  21  38  67  95 135 171 230 280 347 402
#     4   9  21  42  62  92 136 182 215 290 346 410
#     4  12  22  39  69 101 130 186 229 289 336 414
#
# _framework density 23.248246999999999
#
# number of rings (size 3 to 8) (size 9 to 14) (size 15 to 20)
#    0.000    1.778    6.667    0.000    0.000    3.556 
#    0.000    0.000    0.000    8.000    0.000    0.000 
#    0.000    0.000    0.000    0.000    0.000    0.000 
#
# Total GULP energy -446089.389137 kJ/mol
# GULP energy per Si atom -12391.371920 kJ/mol
# Density = 2.319533 g / cm^3
# Si number density = 23.248247 Si / 1000 Ang^3
#
#
#
# Elastic Constant Matrix: (Units=GPa)
#
#
# Indices 1 2 3 4 5 6 
#
# 1 113.3934 39.6991 14.4604 0.0000 0.0000 0.0000
# 2 39.6991 108.7187 23.1899 0.0000 0.0000 0.0000
# 3 14.4604 23.1899 60.9612 0.0000 0.0000 0.0000
# 4 0.0000 0.0000 0.0000 20.4942 0.0000 0.0000
# 5 0.0000 0.0000 0.0000 0.0000 27.5956 0.0000
# 6 0.0000 0.0000 0.0000 0.0000 0.0000 54.7239
#
#
#
# Elastic Compliance Matrix: (Units=1/GPa)
#
#
# Indices 1 2 3 4 5 6 
#
# 1 0.010177 -0.003484 -0.001089 0.000000 0.000000 0.000000
# 2 -0.003484 0.011203 -0.003435 0.000000 0.000000 0.000000
# 3 -0.001089 -0.003435 0.017969 0.000000 0.000000 0.000000
# 4 0.000000 0.000000 0.000000 0.048794 0.000000 0.000000
# 5 0.000000 0.000000 0.000000 0.000000 0.036238 0.000000
# 6 0.000000 0.000000 0.000000 0.000000 0.000000 0.018274
#
#
# Mechanical properties :
#
#
# Convention : Reuss Voigt Hill
#
# Bulk Modulus (GPa) = 42.85743 48.64135 45.74939
# Shear Modulus (GPa) = 30.03923 34.27767 32.15845
#
# Velocity S-wave (km/s) = 3.59849 3.84398 3.72326
# Velocity P-wave (km/s) = 5.97831 6.37727 6.18101
#
# Compressibility (1/GPa) = 0.02333318
#
# Stress axis : x y z
#
# Youngs Moduli (GPa) = 98.25598 89.26161 55.65161
#
# Poissons Ratio (x) = 0.31100 0.06059
# Poissons Ratio (y) = 0.34234 0.19118
# Poissons Ratio (z) = 0.10698 0.30663
#
# Static dielectric constant tensor:
#      x y z
#    x 4.147000 0.000000 0.000000 
#    y 0.000000 4.194750 0.000000 
#    z 0.000000 0.000000 4.261120 
# 
# 
# High freq. dielectric constant tensor:
#      x y z
#    x 1.900120 0.000000 0.000000 
#    y 0.000000 1.908390 0.000000 
#    z 0.000000 0.000000 1.931990 
# 
# From -- ./inp_files/18560.got.cif
#   From: 2010.03.12/outbox.cif.g09.slc.cpg/sg56_10_cif.got.tgz:18560.got - 2010.04.16 15:33:40.
