data_PCOD8228713
_publ_section_title
;
Structure prediction by ZEFSAII (Michael W. Deem and Ramdas Pophale) SiO2 
 PCOD8228713
Probable space group: P C C N
;
_chemical_formula_sum "Si O2"
_cell_formula_units_Z 56
_cell_length_a 22.300340
_cell_length_b 22.574821
_cell_length_c 5.225204
_cell_angle_alpha 90.000000
_cell_angle_beta 90.000000
_cell_angle_gamma 90.000000
_cell_volume 2630.504509
_symmetry_space_group_name_H-M "P C C N"
_symmetry_group_IT_number 56
_symmetry_cell_setting 'orthorhombic'
loop_
_space_group_symop_operation_xyz
x,y,z
1/2-x,1/2-y,z
1/2+x,-y,1/2-z
-x,1/2+y,1/2-z
-x,-y,-z
1/2+x,1/2+y,-z
1/2-x,y,1/2+z
x,1/2-y,1/2+z
loop_
_atom_site_type_symbol
_atom_site_label
_atom_site_fract_x
_atom_site_fract_y
_atom_site_fract_z
Si Si1 0.183500 0.224428 0.888540
Si Si2 0.528173 0.784373 0.431085
Si Si3 0.275992 0.816384 0.488799
Si Si4 0.918768 0.945158 0.515144
Si Si5 0.589073 0.349695 0.001286
Si Si6 0.444576 0.581322 0.506999
Si Si7 0.880197 0.613355 0.511066
O O1 0.250000 0.250000 0.844142
O O2 0.150050 0.241317 0.622221
O O3 0.179648 0.153961 0.942011
O O4 0.544729 0.764506 0.144339
O O5 0.457703 0.797421 0.448043
O O6 0.563056 0.843672 0.504855
O O7 0.250000 0.750000 0.480184
O O8 0.251380 0.849879 0.236167
O O9 0.347346 0.817193 0.496553
O O10 0.887285 0.932108 0.244555
O O11 0.983503 0.913757 0.531864
O O12 0.924742 0.014835 0.550188
O O13 0.876051 0.921909 0.744502
O O14 0.578067 0.378875 0.725870
O O15 0.584740 0.398369 0.226271
#
# Coordination Sequence:
#
# PCOD8228713 Si02
#       7
#     8   8   8   8   8   8   8
#     4  10  21  38  61  90 122 163 211 251 304 370
#     4  12  24  34  54  87 132 167 192 249 308 375
#     4  10  23  40  59  88 117 160 215 254 300 369
#     4  11  22  38  63  92 132 162 211 254 313 383
#     4  12  23  40  64  88 128 165 212 255 320 367
#     4  11  22  41  61  95 124 167 209 259 316 373
#     4  12  21  39  57  94 128 166 204 251 310 370
#
# _framework density 21.288691
#
# number of rings (size 3 to 8) (size 9 to 14) (size 15 to 20)
#    0.000    0.857    2.857    5.143    4.000    2.286 
#    0.000    0.000    0.000    0.000   74.286    0.000 
#    0.000    0.000    0.000    0.000    0.000    0.000 
#
# Total GULP energy -694317.055592 kJ/mol
# GULP energy per Si atom -12398.518850 kJ/mol
# Density = 2.124024 g / cm^3
# Si number density = 21.288691 Si / 1000 Ang^3
#
#
#
# Elastic Constant Matrix: (Units=GPa)
#
#
# Indices 1 2 3 4 5 6 
#
# 1 74.0447 6.6169 7.6058 0.0000 0.0000 0.0000
# 2 6.6169 54.4429 21.3675 0.0000 0.0000 0.0000
# 3 7.6058 21.3675 167.8217 0.0000 0.0000 0.0000
# 4 0.0000 0.0000 0.0000 32.0092 0.0000 0.0000
# 5 0.0000 0.0000 0.0000 0.0000 19.3651 0.0000
# 6 0.0000 0.0000 0.0000 0.0000 0.0000 32.0705
#
#
#
# Elastic Compliance Matrix: (Units=1/GPa)
#
#
# Indices 1 2 3 4 5 6 
#
# 1 0.013683 -0.001494 -0.000430 0.000000 0.000000 0.000000
# 2 -0.001494 0.019497 -0.002415 0.000000 0.000000 0.000000
# 3 -0.000430 -0.002415 0.006286 0.000000 0.000000 0.000000
# 4 0.000000 0.000000 0.000000 0.031241 0.000000 0.000000
# 5 0.000000 0.000000 0.000000 0.000000 0.051639 0.000000
# 6 0.000000 0.000000 0.000000 0.000000 0.000000 0.031181
#
#
# Mechanical properties :
#
#
# Convention : Reuss Voigt Hill
#
# Bulk Modulus (GPa) = 32.48006 40.83219 36.65613
# Shear Modulus (GPa) = 28.99089 34.07022 31.53055
#
# Velocity S-wave (km/s) = 3.69426 4.00483 3.85267
# Velocity P-wave (km/s) = 5.78678 6.37234 6.08661
#
# Compressibility (1/GPa) = 0.03078812
#
# Stress axis : x y z
#
# Youngs Moduli (GPa) = 73.08312 51.28943 159.09291
#
# Poissons Ratio (x) = 0.07664 0.06839
# Poissons Ratio (y) = 0.10921 0.38416
# Poissons Ratio (z) = 0.03142 0.12385
#
# Static dielectric constant tensor:
#      x y z
#    x 3.790640 0.000000 0.000000 
#    y 0.000000 3.689690 0.000000 
#    z 0.000000 0.000000 6.755220 
# 
# 
# High freq. dielectric constant tensor:
#      x y z
#    x 1.819500 0.000000 0.000000 
#    y 0.000000 1.810600 0.000000 
#    z 0.000000 0.000000 1.873870 
# 
# From -- ./inp_files/1078.got.cif
#   From: 2010.03.12/outbox.cif.g09.slc.cpg/sg56_1_cif.got.tgz:1078.got - 2010.04.16 15:33:40.
