data_PCOD8228626
_publ_section_title
;
Structure prediction by ZEFSAII (Michael W. Deem and Ramdas Pophale) SiO2 
 PCOD8228626
Probable space group: P C C N
;
_chemical_formula_sum "Si O2"
_cell_formula_units_Z 48
_cell_length_a 12.670996
_cell_length_b 13.169781
_cell_length_c 13.012145
_cell_angle_alpha 90.000000
_cell_angle_beta 90.000000
_cell_angle_gamma 90.000000
_cell_volume 2171.391839
_symmetry_space_group_name_H-M "P C C N"
_symmetry_group_IT_number 56
_symmetry_cell_setting 'orthorhombic'
loop_
_space_group_symop_operation_xyz
x,y,z
1/2-x,1/2-y,z
1/2+x,-y,1/2-z
-x,1/2+y,1/2-z
-x,-y,-z
1/2+x,1/2+y,-z
1/2-x,y,1/2+z
x,1/2-y,1/2+z
loop_
_atom_site_type_symbol
_atom_site_label
_atom_site_fract_x
_atom_site_fract_y
_atom_site_fract_z
Si Si1 0.340805 0.329308 0.512151
Si Si2 0.321155 0.650410 0.003791
Si Si3 0.144390 0.814982 0.238304
Si Si4 0.009757 0.303856 0.636444
Si Si5 0.806403 0.495906 0.121873
Si Si6 0.226691 0.365663 0.706852
O O1 0.250000 0.250000 0.473309
O O2 0.445137 0.274359 0.551905
O O3 0.376018 0.410943 0.425261
O O4 0.293083 0.393036 0.606746
O O5 0.250000 0.750000 0.982715
O O6 0.419478 0.639667 0.927099
O O7 0.256028 0.550147 0.974557
O O8 0.357891 0.645143 0.121771
O O9 0.250000 0.750000 0.260540
O O10 0.131891 0.908322 0.317821
O O11 0.041735 0.747679 0.262231
O O12 0.101403 0.377184 0.679794
O O13 0.735372 0.554216 0.207232
O O14 0.250000 0.250000 0.741767
#
# Coordination Sequence:
#
# PCOD8228626 Si02
#       6
#     8   8   8   8   8   8
#     4   9  22  41  63  89 129 167 213 265 325 375
#     4  11  23  42  65  90 133 167 212 266 324 379
#     4  11  23  41  65  92 130 169 208 268 325 378
#     4  10  20  45  63  92 125 172 213 257 322 387
#     4  12  20  41  64  95 123 170 210 267 314 385
#     4   9  22  42  62  91 132 167 209 264 326 380
#
# _framework density 22.105637000000002
#
# number of rings (size 3 to 8) (size 9 to 14) (size 15 to 20)
#    0.000    2.000    3.333    1.500    2.333    0.667 
#    9.000    4.167    0.000    0.000    0.000    0.000 
#    0.000    0.000    0.000    0.000    0.000    0.000 
#
# Total GULP energy -594632.321507 kJ/mol
# GULP energy per Si atom -12388.173365 kJ/mol
# Density = 2.205532 g / cm^3
# Si number density = 22.105637 Si / 1000 Ang^3
#
#
#
# Elastic Constant Matrix: (Units=GPa)
#
#
# Indices 1 2 3 4 5 6 
#
# 1 48.7148 -0.5209 -9.5653 0.0000 0.0000 0.0000
# 2 -0.5209 73.0951 31.7242 0.0000 0.0000 0.0000
# 3 -9.5653 31.7242 101.3138 0.0000 0.0000 0.0000
# 4 0.0000 0.0000 0.0000 45.6942 0.0000 0.0000
# 5 0.0000 0.0000 0.0000 0.0000 5.6004 0.0000
# 6 0.0000 0.0000 0.0000 0.0000 0.0000 12.3011
#
#
#
# Elastic Compliance Matrix: (Units=1/GPa)
#
#
# Indices 1 2 3 4 5 6 
#
# 1 0.020958 -0.000821 0.002236 0.000000 0.000000 0.000000
# 2 -0.000821 0.015865 -0.005045 0.000000 0.000000 0.000000
# 3 0.002236 -0.005045 0.011661 0.000000 0.000000 0.000000
# 4 0.000000 0.000000 0.000000 0.021885 0.000000 0.000000
# 5 0.000000 0.000000 0.000000 0.000000 0.178558 0.000000
# 6 0.000000 0.000000 0.000000 0.000000 0.000000 0.081294
#
#
# Mechanical properties :
#
#
# Convention : Reuss Voigt Hill
#
# Bulk Modulus (GPa) = 24.25837 29.59996 26.92917
# Shear Modulus (GPa) = 14.23601 26.15151 20.19376
#
# Velocity S-wave (km/s) = 2.54047 3.44324 3.02571
# Velocity P-wave (km/s) = 4.42752 5.40622 4.94116
#
# Compressibility (1/GPa) = 0.04122289
#
# Stress axis : x y z
#
# Youngs Moduli (GPa) = 47.71475 63.03328 85.75453
#
# Poissons Ratio (x) = 0.05175 -0.19173
# Poissons Ratio (y) = 0.03917 0.43265
# Poissons Ratio (z) = -0.10668 0.31801
#
# Static dielectric constant tensor:
#      x y z
#    x 3.701130 0.000000 0.000000 
#    y 0.000000 3.919590 0.000000 
#    z 0.000000 0.000000 4.150670 
# 
# 
# High freq. dielectric constant tensor:
#      x y z
#    x 1.838670 0.000000 0.000000 
#    y 0.000000 1.863430 0.000000 
#    z 0.000000 0.000000 1.889540 
# 
# From -- ./inp_files/11581.got.cif
#   From: 2010.03.12/outbox.cif.g09.slc.cpg/sg56_6_cif.got.tgz:11581.got - 2010.04.16 15:33:40.
