data_PCOD8228683
_publ_section_title
;
Structure prediction by ZEFSAII (Michael W. Deem and Ramdas Pophale) SiO2 
 PCOD8228683
Probable space group: P C C N
;
_chemical_formula_sum "Si O2"
_cell_formula_units_Z 60
_cell_length_a 19.285448
_cell_length_b 12.626978
_cell_length_c 12.570986
_cell_angle_alpha 90.000000
_cell_angle_beta 90.000000
_cell_angle_gamma 90.000000
_cell_volume 3061.247888
_symmetry_space_group_name_H-M "P C C N"
_symmetry_group_IT_number 56
_symmetry_cell_setting 'orthorhombic'
loop_
_space_group_symop_operation_xyz
x,y,z
1/2-x,1/2-y,z
1/2+x,-y,1/2-z
-x,1/2+y,1/2-z
-x,-y,-z
1/2+x,1/2+y,-z
1/2-x,y,1/2+z
x,1/2-y,1/2+z
loop_
_atom_site_type_symbol
_atom_site_label
_atom_site_fract_x
_atom_site_fract_y
_atom_site_fract_z
Si Si1 0.403723 0.307285 0.879704
Si Si2 0.640488 0.120632 0.875900
Si Si3 0.327836 0.396756 0.706515
Si Si4 0.327836 0.103244 0.793486
Si Si5 0.859512 0.120632 0.624099
Si Si6 0.750000 0.250000 0.250000
Si Si7 0.596277 0.692716 0.879704
Si Si8 0.468802 0.750000 0.250000
O O1 0.375086 0.406318 0.812235
O O2 0.352873 0.206988 0.858403
O O3 0.483163 0.211138 0.653295
O O4 0.483163 0.288863 0.846705
O O5 0.707321 0.178883 0.831112
O O6 0.576335 0.155506 0.801345
O O7 0.656166 0.996166 0.867974
O O8 0.627129 0.148769 1.000000
O O9 0.250000 0.388144 0.750000
O O10 0.352873 0.293012 0.641597
O O11 0.375087 0.093682 0.687765
O O12 0.343834 0.003835 0.867975
O O13 0.792677 0.178881 0.668888
O O14 0.923664 0.155506 0.698655
O O15 0.599024 0.657954 1.000000
#
# Coordination Sequence:
#
# PCOD8228683 Si02
#       8
#     8   8   8   8   8   4   8   8
#     4  10  21  38  59  83 119 159 192 243 293 334
#     4  11  21  38  62  84 116 155 188 238 295 342
#     4  10  21  37  57  90 120 145 200 240 281 361
#     4  10  21  37  57  90 120 145 200 240 281 361
#     4  11  21  38  62  84 116 155 188 238 295 342
#     4  10  22  40  56  88 118 144 196 232 278 352
#     4  10  21  38  59  83 119 159 192 243 293 334
#     4   9  22  39  57  86 117 148 206 244 277 354
#
# _framework density 19.599851000000001
#
# number of rings (size 3 to 8) (size 9 to 14) (size 15 to 20)
#    0.000    2.133    1.333    3.600    0.000    7.467 
#    0.000   10.667    0.000    0.000    0.000    0.000 
#    0.000    0.000    0.000    0.000    0.000    0.000 
#
# Total GULP energy -743473.124823 kJ/mol
# GULP energy per Si atom -12391.218747 kJ/mol
# Density = 1.955524 g / cm^3
# Si number density = 19.599851 Si / 1000 Ang^3
#
#
#
# Elastic Constant Matrix: (Units=GPa)
#
#
# Indices 1 2 3 4 5 6 
#
# 1 115.5923 22.9941 17.8268 0.0000 0.0000 0.0000
# 2 22.9941 65.3222 14.0539 0.0000 0.0000 0.0000
# 3 17.8268 14.0539 129.1565 0.0000 0.0000 0.0000
# 4 0.0000 0.0000 0.0000 18.6043 0.0000 0.0000
# 5 0.0000 0.0000 0.0000 0.0000 20.8609 0.0000
# 6 0.0000 0.0000 0.0000 0.0000 0.0000 16.9302
#
#
#
# Elastic Compliance Matrix: (Units=1/GPa)
#
#
# Indices 1 2 3 4 5 6 
#
# 1 0.009418 -0.003108 -0.000962 0.000000 0.000000 0.000000
# 2 -0.003108 0.016702 -0.001388 0.000000 0.000000 0.000000
# 3 -0.000962 -0.001388 0.008026 0.000000 0.000000 0.000000
# 4 0.000000 0.000000 0.000000 0.053751 0.000000 0.000000
# 5 0.000000 0.000000 0.000000 0.000000 0.047937 0.000000
# 6 0.000000 0.000000 0.000000 0.000000 0.000000 0.059066
#
#
# Mechanical properties :
#
#
# Convention : Reuss Voigt Hill
#
# Bulk Modulus (GPa) = 43.04934 46.64672 44.84803
# Shear Modulus (GPa) = 23.41276 28.29216 25.85246
#
# Velocity S-wave (km/s) = 3.45996 3.80345 3.63576
# Velocity P-wave (km/s) = 6.16227 6.56807 6.36840
#
# Compressibility (1/GPa) = 0.02322916
#
# Stress axis : x y z
#
# Youngs Moduli (GPa) = 106.18296 59.87468 124.58965
#
# Poissons Ratio (x) = 0.18610 0.11981
# Poissons Ratio (y) = 0.33004 0.17297
# Poissons Ratio (z) = 0.10211 0.08313
#
# Static dielectric constant tensor:
#      x y z
#    x 3.735410 0.000000 0.000000 
#    y 0.000000 3.428240 0.000000 
#    z 0.000000 0.000000 3.758350 
# 
# 
# High freq. dielectric constant tensor:
#      x y z
#    x 1.778850 0.000000 0.000000 
#    y 0.000000 1.745990 0.000000 
#    z 0.000000 0.000000 1.769980 
# 
# From -- ./inp_files/12808.got.cif
#   From: 2010.03.12/outbox.cif.g09.slc.cpg/sg56_7_cif.got.tgz:12808.got - 2010.04.16 15:33:40.
