data_PCOD8228026
_publ_section_title
;
Structure prediction by ZEFSAII (Michael W. Deem and Ramdas Pophale) SiO2 
 PCOD8228026
Probable space group: P C C N
;
_chemical_formula_sum "Si O2"
_cell_formula_units_Z 60
_cell_length_a 11.206290
_cell_length_b 25.457847
_cell_length_c 9.301395
_cell_angle_alpha 90.000000
_cell_angle_beta 90.000000
_cell_angle_gamma 90.000000
_cell_volume 2653.576528
_symmetry_space_group_name_H-M "P C C N"
_symmetry_group_IT_number 56
_symmetry_cell_setting 'orthorhombic'
loop_
_space_group_symop_operation_xyz
x,y,z
1/2-x,1/2-y,z
1/2+x,-y,1/2-z
-x,1/2+y,1/2-z
-x,-y,-z
1/2+x,1/2+y,-z
1/2-x,y,1/2+z
x,1/2-y,1/2+z
loop_
_atom_site_type_symbol
_atom_site_label
_atom_site_fract_x
_atom_site_fract_y
_atom_site_fract_z
Si Si1 0.966294 0.894070 0.575273
Si Si2 0.750000 0.750000 0.358251
Si Si3 0.350652 0.553678 0.770041
Si Si4 0.985575 0.309140 0.395389
Si Si5 0.996706 0.788337 0.436903
Si Si6 0.629038 0.416629 0.908354
Si Si7 0.770739 0.847551 0.178946
Si Si8 0.081037 0.058985 0.707149
O O1 0.030981 0.840357 0.525483
O O2 0.826627 0.882873 0.599988
O O3 0.979560 0.937724 0.450035
O O4 0.027432 0.918068 0.717328
O O5 0.855486 0.774915 0.453578
O O6 0.704976 0.799318 0.260545
O O7 0.241306 0.583417 0.697161
O O8 0.340438 0.493164 0.720636
O O9 0.341985 0.555053 0.941893
O O10 0.901147 0.356454 0.441041
O O11 0.968262 0.294734 0.228371
O O12 0.937388 0.261121 0.491568
O O13 0.126170 0.323256 0.426027
O O14 0.518341 0.445064 0.831324
O O15 0.842173 0.887337 0.284255
#
# Coordination Sequence:
#
# PCOD8228026 Si02
#       8
#     8   4   8   8   8   8   8   8
#     4  12  23  42  69 103 141 184 230 282 348 414
#     4  10  18  38  60 104 144 182 212 280 350 422
#     4  12  29  44  78  92 142 189 234 292 349 406
#     4  10  23  42  70  98 148 174 232 289 342 425
#     4  11  21  39  66 101 139 183 222 282 348 414
#     4  11  26  51  69 102 135 180 239 288 346 413
#     4  10  22  36  66 105 146 176 224 277 349 412
#     4  11  25  47  68 106 137 184 232 296 334 425
#
# _framework density 22.610994000000002
#
# number of rings (size 3 to 8) (size 9 to 14) (size 15 to 20)
#    0.000    1.067    4.000    4.000    7.467    1.600 
#    0.000    0.667    0.000    0.000    0.000    0.000 
#    0.000    0.000    0.000    0.000    0.000    0.000 
#
# Total GULP energy -744046.737124 kJ/mol
# GULP energy per Si atom -12400.778952 kJ/mol
# Density = 2.255953 g / cm^3
# Si number density = 22.610994 Si / 1000 Ang^3
#
#
#
# Elastic Constant Matrix: (Units=GPa)
#
#
# Indices 1 2 3 4 5 6 
#
# 1 54.8185 17.5652 23.1133 0.0000 0.0000 0.0000
# 2 17.5652 84.4575 5.6323 0.0000 0.0000 0.0000
# 3 23.1133 5.6323 85.6634 0.0000 0.0000 0.0000
# 4 0.0000 0.0000 0.0000 36.4553 0.0000 0.0000
# 5 0.0000 0.0000 0.0000 0.0000 17.1354 0.0000
# 6 0.0000 0.0000 0.0000 0.0000 0.0000 24.2460
#
#
#
# Elastic Compliance Matrix: (Units=1/GPa)
#
#
# Indices 1 2 3 4 5 6 
#
# 1 0.021968 -0.004192 -0.005652 0.000000 0.000000 0.000000
# 2 -0.004192 0.012692 0.000297 0.000000 0.000000 0.000000
# 3 -0.005652 0.000297 0.013179 0.000000 0.000000 0.000000
# 4 0.000000 0.000000 0.000000 0.027431 0.000000 0.000000
# 5 0.000000 0.000000 0.000000 0.000000 0.058359 0.000000
# 6 0.000000 0.000000 0.000000 0.000000 0.000000 0.041244
#
#
# Mechanical properties :
#
#
# Convention : Reuss Voigt Hill
#
# Bulk Modulus (GPa) = 34.78838 35.28455 35.03647
# Shear Modulus (GPa) = 24.56409 27.47591 26.02000
#
# Velocity S-wave (km/s) = 3.29960 3.48969 3.39598
# Velocity P-wave (km/s) = 5.47133 5.64590 5.55930
#
# Compressibility (1/GPa) = 0.02874523
#
# Stress axis : x y z
#
# Youngs Moduli (GPa) = 45.52035 78.78775 75.87815
#
# Poissons Ratio (x) = 0.33028 0.42884
# Poissons Ratio (y) = 0.19082 -0.02250
# Poissons Ratio (z) = 0.25727 -0.02336
#
# Static dielectric constant tensor:
#      x y z
#    x 3.721760 0.000000 0.000000 
#    y 0.000000 4.227330 0.000000 
#    z 0.000000 0.000000 4.007220 
# 
# 
# High freq. dielectric constant tensor:
#      x y z
#    x 1.854800 0.000000 0.000000 
#    y 0.000000 1.908980 0.000000 
#    z 0.000000 0.000000 1.895920 
# 
# From -- ./inp_files/2902.got.cif
#   From: 2010.03.12/outbox.cif.g09.slc.cpg/sg56_2_cif.got.tgz:2902.got - 2010.04.16 15:33:40.
