data_PCOD8228157
_publ_section_title
;
Structure prediction by ZEFSAII (Michael W. Deem and Ramdas Pophale) SiO2 
 PCOD8228157
Probable space group: P C C N
;
_chemical_formula_sum "Si O2"
_cell_formula_units_Z 52
_cell_length_a 8.482766
_cell_length_b 15.696510
_cell_length_c 21.177492
_cell_angle_alpha 90.000000
_cell_angle_beta 90.000000
_cell_angle_gamma 90.000000
_cell_volume 2819.779276
_symmetry_space_group_name_H-M "P C C N"
_symmetry_group_IT_number 56
_symmetry_cell_setting 'orthorhombic'
loop_
_space_group_symop_operation_xyz
x,y,z
1/2-x,1/2-y,z
1/2+x,-y,1/2-z
-x,1/2+y,1/2-z
-x,-y,-z
1/2+x,1/2+y,-z
1/2-x,y,1/2+z
x,1/2-y,1/2+z
loop_
_atom_site_type_symbol
_atom_site_label
_atom_site_fract_x
_atom_site_fract_y
_atom_site_fract_z
Si Si1 0.574428 0.244123 0.990036
Si Si2 0.559539 0.029881 0.174355
Si Si3 0.659785 0.660789 0.088920
Si Si4 0.920286 0.217149 0.635445
Si Si5 0.327585 0.411156 0.780859
Si Si6 0.454459 0.065894 0.946003
Si Si7 0.750000 0.750000 0.293158
O O1 0.750000 0.250000 0.966980
O O2 0.480154 0.323505 0.960450
O O3 0.526439 0.155457 0.961227
O O4 0.555518 0.250151 0.064826
O O5 0.598052 0.115898 0.136752
O O6 0.452879 0.048156 0.234295
O O7 0.716291 0.988727 0.201383
O O8 0.481141 0.967649 0.121879
O O9 0.750000 0.750000 0.099388
O O10 0.591647 0.628333 0.156238
O O11 0.766945 0.584510 0.059928
O O12 0.750000 0.250000 0.663097
O O13 0.082461 0.246445 0.669615
O O14 0.230796 0.335111 0.747869
O O15 0.500000 0.000000 0.000000
#
# Coordination Sequence:
#
# PCOD8228157 Si02
#       7
#     8   8   8   8   8   8   4
#     4  10  21  37  59  86 114 146 196 245 298 357
#     4  10  22  37  59  84 117 157 190 249 293 349
#     4   9  19  35  58  79 112 153 187 238 283 351
#     4  10  22  38  60  90 119 152 199 249 297 350
#     4  10  21  38  56  83 115 153 203 233 298 357
#     4  10  19  36  59  81 115 150 191 237 300 350
#     4  10  22  38  60  84 114 164 200 234 298 362
#
# _framework density 18.441161000000001
#
# number of rings (size 3 to 8) (size 9 to 14) (size 15 to 20)
#    0.000    2.154    2.308    0.000    5.385    1.231 
#    0.000    3.846    0.000    0.000    0.000    0.000 
#    0.000    0.000    0.000    0.000    0.000    0.000 
#
# Total GULP energy -644261.677212 kJ/mol
# GULP energy per Si atom -12389.647639 kJ/mol
# Density = 1.839919 g / cm^3
# Si number density = 18.441161 Si / 1000 Ang^3
#
#
#
# Elastic Constant Matrix: (Units=GPa)
#
#
# Indices 1 2 3 4 5 6 
#
# 1 108.4273 35.3698 59.1974 0.0000 0.0000 0.0000
# 2 35.3698 67.0206 35.9627 0.0000 0.0000 0.0000
# 3 59.1974 35.9627 115.0389 0.0000 0.0000 0.0000
# 4 0.0000 0.0000 0.0000 35.7136 0.0000 0.0000
# 5 0.0000 0.0000 0.0000 0.0000 18.9473 0.0000
# 6 0.0000 0.0000 0.0000 0.0000 0.0000 28.3918
#
#
#
# Elastic Compliance Matrix: (Units=1/GPa)
#
#
# Indices 1 2 3 4 5 6 
#
# 1 0.013724 -0.004149 -0.005765 0.000000 0.000000 0.000000
# 2 -0.004149 0.019183 -0.003862 0.000000 0.000000 0.000000
# 3 -0.005765 -0.003862 0.012866 0.000000 0.000000 0.000000
# 4 0.000000 0.000000 0.000000 0.028001 0.000000 0.000000
# 5 0.000000 0.000000 0.000000 0.000000 0.052778 0.000000
# 6 0.000000 0.000000 0.000000 0.000000 0.000000 0.035221
#
#
# Mechanical properties :
#
#
# Convention : Reuss Voigt Hill
#
# Bulk Modulus (GPa) = 54.88091 61.28296 58.08194
# Shear Modulus (GPa) = 25.58878 27.27432 26.43155
#
# Velocity S-wave (km/s) = 3.72908 3.84994 3.78999
# Velocity P-wave (km/s) = 6.95457 7.28467 7.12153
#
# Compressibility (1/GPa) = 0.01822127
#
# Stress axis : x y z
#
# Youngs Moduli (GPa) = 72.86658 52.13047 77.72146
#
# Poissons Ratio (x) = 0.21630 0.44806
# Poissons Ratio (y) = 0.30234 0.30013
# Poissons Ratio (z) = 0.42007 0.20131
#
# Static dielectric constant tensor:
#      x y z
#    x 4.126300 0.000000 0.000000 
#    y 0.000000 3.801510 0.000000 
#    z 0.000000 0.000000 3.022850 
# 
# 
# High freq. dielectric constant tensor:
#      x y z
#    x 1.700780 0.000000 0.000000 
#    y 0.000000 1.726220 0.000000 
#    z 0.000000 0.000000 1.727480 
# 
# From -- ./inp_files/18124.got.cif
#   From: 2010.03.12/outbox.cif.g09.slc.cpg/sg56_10_cif.got.tgz:18124.got - 2010.04.16 15:33:40.
