data_PCOD8228115
_publ_section_title
;
Structure prediction by ZEFSAII (Michael W. Deem and Ramdas Pophale) SiO2 
 PCOD8228115
Probable space group: P C C N
;
_chemical_formula_sum "Si O2"
_cell_formula_units_Z 64
_cell_length_a 20.821161
_cell_length_b 8.652102
_cell_length_c 18.050617
_cell_angle_alpha 90.000000
_cell_angle_beta 90.000000
_cell_angle_gamma 90.000000
_cell_volume 3251.761048
_symmetry_space_group_name_H-M "P C C N"
_symmetry_group_IT_number 56
_symmetry_cell_setting 'orthorhombic'
loop_
_space_group_symop_operation_xyz
x,y,z
1/2-x,1/2-y,z
1/2+x,-y,1/2-z
-x,1/2+y,1/2-z
-x,-y,-z
1/2+x,1/2+y,-z
1/2-x,y,1/2+z
x,1/2-y,1/2+z
loop_
_atom_site_type_symbol
_atom_site_label
_atom_site_fract_x
_atom_site_fract_y
_atom_site_fract_z
Si Si1 0.500949 0.067076 0.331459
Si Si2 0.124188 0.066415 0.416909
Si Si3 0.750000 0.934630 0.665861
Si Si4 0.000949 0.567076 0.168541
Si Si5 0.122231 0.433784 0.585478
Si Si6 0.750000 0.933433 0.333049
Si Si7 0.622231 0.566216 0.414522
Si Si8 0.375812 0.066415 0.416909
O O1 0.499502 0.250000 0.326690
O O2 0.438754 0.003720 0.375171
O O3 0.500000 0.000000 0.250000
O O4 0.563439 0.012611 0.373976
O O5 0.187165 0.000579 0.375825
O O6 0.123455 0.007225 0.501122
O O7 0.126015 0.250000 0.415672
O O8 0.061246 0.003720 0.375171
O O9 0.750000 0.750000 0.665814
O O10 0.750000 0.998970 0.749591
O O11 0.687165 0.999421 0.624175
O O12 0.063439 0.512611 0.126024
O O13 0.187148 0.493165 0.624340
O O14 0.115025 0.250000 0.590989
O O15 0.123455 0.492775 0.501122
O O16 0.750000 0.750000 0.331910
O O17 0.812852 0.993165 0.375660
#
# Coordination Sequence:
#
# PCOD8228115 Si02
#       8
#     8   8   8   8   8   8   8   8
#     4  11  22  36  53  77 107 141 177 220 268 317
#     4   9  18  31  51  77 106 136 172 216 264 313
#     4   9  15  27  47  75 106 135 168 212 258 307
#     4  11  22  36  53  77 107 141 177 220 268 317
#     4  10  19  34  55  80 106 137 175 217 262 314
#     4   9  17  29  52  81 108 137 174 216 260 309
#     4  10  19  34  55  80 106 137 175 217 262 314
#     4   9  18  31  51  77 106 136 172 216 264 313
#
# _framework density 19.681643999999999
#
# number of rings (size 3 to 8) (size 9 to 14) (size 15 to 20)
#    0.000    2.250    0.000    3.750    0.000    7.000 
#    0.000    1.875    0.000    0.000    0.000    6.125 
#    0.000    0.000    0.000    0.000    0.000    0.000 
#
# Total GULP energy -793707.679448 kJ/mol
# GULP energy per Si atom -12401.682491 kJ/mol
# Density = 1.963685 g / cm^3
# Si number density = 19.681644 Si / 1000 Ang^3
#
#
#
# Elastic Constant Matrix: (Units=GPa)
#
#
# Indices 1 2 3 4 5 6 
#
# 1 222.5514 27.5034 124.5976 0.0000 0.0000 0.0000
# 2 27.5034 27.5961 26.5556 0.0000 0.0000 0.0000
# 3 124.5976 26.5556 227.2779 0.0000 0.0000 0.0000
# 4 0.0000 0.0000 0.0000 21.6978 0.0000 0.0000
# 5 0.0000 0.0000 0.0000 0.0000 49.7741 0.0000
# 6 0.0000 0.0000 0.0000 0.0000 0.0000 25.5252
#
#
#
# Elastic Compliance Matrix: (Units=1/GPa)
#
#
# Indices 1 2 3 4 5 6 
#
# 1 0.006784 -0.003586 -0.003300 0.000000 0.000000 0.000000
# 2 -0.003586 0.042723 -0.003026 0.000000 0.000000 0.000000
# 3 -0.003300 -0.003026 0.006563 0.000000 0.000000 0.000000
# 4 0.000000 0.000000 0.000000 0.046088 0.000000 0.000000
# 5 0.000000 0.000000 0.000000 0.000000 0.020091 0.000000
# 6 0.000000 0.000000 0.000000 0.000000 0.000000 0.039177
#
#
# Mechanical properties :
#
#
# Convention : Reuss Voigt Hill
#
# Bulk Modulus (GPa) = 27.58955 92.74872 60.16914
# Shear Modulus (GPa) = 25.86248 39.31735 32.58991
#
# Velocity S-wave (km/s) = 3.62890 4.47437 4.07363
# Velocity P-wave (km/s) = 5.62200 8.59768 7.26385
#
# Compressibility (1/GPa) = 0.03624561
#
# Stress axis : x y z
#
# Youngs Moduli (GPa) = 147.40314 23.40684 152.37585
#
# Poissons Ratio (x) = 0.08393 0.50287
# Poissons Ratio (y) = 0.52852 0.46111
# Poissons Ratio (z) = 0.48646 0.07083
#
# Static dielectric constant tensor:
#      x y z
#    x 3.870350 0.000000 0.000000 
#    y 0.000000 3.070250 0.000000 
#    z 0.000000 0.000000 3.909810 
# 
# 
# High freq. dielectric constant tensor:
#      x y z
#    x 1.789110 0.000000 0.000000 
#    y 0.000000 1.710650 0.000000 
#    z 0.000000 0.000000 1.790130 
# 
# From -- ./inp_files/16874.got.cif
#   From: 2010.03.12/outbox.cif.g09.slc.cpg/sg56_9_cif.got.tgz:16874.got - 2010.04.16 15:33:40.
