data_PCOD8228584
_publ_section_title
;
Structure prediction by ZEFSAII (Michael W. Deem and Ramdas Pophale) SiO2 
 PCOD8228584
Probable space group: P C C N
;
_chemical_formula_sum "Si O2"
_cell_formula_units_Z 60
_cell_length_a 8.389143
_cell_length_b 26.075724
_cell_length_c 12.680697
_cell_angle_alpha 90.000000
_cell_angle_beta 90.000000
_cell_angle_gamma 90.000000
_cell_volume 2773.940225
_symmetry_space_group_name_H-M "P C C N"
_symmetry_group_IT_number 56
_symmetry_cell_setting 'orthorhombic'
loop_
_space_group_symop_operation_xyz
x,y,z
1/2-x,1/2-y,z
1/2+x,-y,1/2-z
-x,1/2+y,1/2-z
-x,-y,-z
1/2+x,1/2+y,-z
1/2-x,y,1/2+z
x,1/2-y,1/2+z
loop_
_atom_site_type_symbol
_atom_site_label
_atom_site_fract_x
_atom_site_fract_y
_atom_site_fract_z
Si Si1 0.666685 0.825996 0.663473
Si Si2 0.491700 0.021389 0.643788
Si Si3 0.857141 0.926163 0.043906
Si Si4 0.028234 0.221753 0.407405
Si Si5 0.359720 0.521055 0.645952
Si Si6 0.250000 0.750000 0.731336
Si Si7 0.993870 0.573942 0.958877
Si Si8 0.522484 0.180461 0.134794
O O1 0.591631 0.878447 0.616745
O O2 0.855936 0.820302 0.646613
O O3 0.586662 0.779810 0.600569
O O4 0.631331 0.822300 0.788339
O O5 0.466557 0.068155 0.561206
O O6 0.563456 0.046405 0.749571
O O7 0.623339 0.980005 0.605270
O O8 0.324418 0.992464 0.661698
O O9 0.674561 0.915522 0.014906
O O10 0.863776 0.216689 0.344328
O O11 0.016136 0.212839 0.531539
O O12 0.468611 0.470881 0.625785
O O13 0.375651 0.559342 0.547288
O O14 0.334602 0.792366 0.803583
O O15 0.066643 0.622816 0.899190
#
# Coordination Sequence:
#
# PCOD8228584 Si02
#       8
#     8   8   8   8   8   4   8   8
#     4  10  22  41  68  95 129 166 228 273 330 390
#     4  10  21  38  67  90 134 173 215 269 338 383
#     4  10  20  41  62  95 124 169 219 273 316 402
#     4  10  22  43  66  96 128 172 219 277 329 400
#     4  10  21  39  60  92 129 175 212 273 323 399
#     4  10  24  44  66  94 138 172 222 276 342 396
#     4  10  21  40  63  88 131 168 224 267 328 389
#     4  11  22  44  68  94 131 182 212 285 334 390
#
# _framework density 21.629881000000001
#
# number of rings (size 3 to 8) (size 9 to 14) (size 15 to 20)
#    0.000    1.867    1.333    2.000    0.000    6.400 
#    9.600    0.000    0.000    0.000    0.000    0.000 
#    0.000    0.000    0.000    0.000    0.000    0.000 
#
# Total GULP energy -743889.003744 kJ/mol
# GULP energy per Si atom -12398.150062 kJ/mol
# Density = 2.158065 g / cm^3
# Si number density = 21.629881 Si / 1000 Ang^3
#
#
#
# Elastic Constant Matrix: (Units=GPa)
#
#
# Indices 1 2 3 4 5 6 
#
# 1 94.9959 25.8479 62.4637 0.0000 0.0000 0.0000
# 2 25.8479 106.4963 52.6174 0.0000 0.0000 0.0000
# 3 62.4637 52.6174 160.2793 0.0000 0.0000 0.0000
# 4 0.0000 0.0000 0.0000 37.4097 0.0000 0.0000
# 5 0.0000 0.0000 0.0000 0.0000 27.3208 0.0000
# 6 0.0000 0.0000 0.0000 0.0000 0.0000 21.2900
#
#
#
# Elastic Compliance Matrix: (Units=1/GPa)
#
#
# Indices 1 2 3 4 5 6 
#
# 1 0.014218 -0.000851 -0.005262 0.000000 0.000000 0.000000
# 2 -0.000851 0.011259 -0.003364 0.000000 0.000000 0.000000
# 3 -0.005262 -0.003364 0.009394 0.000000 0.000000 0.000000
# 4 0.000000 0.000000 0.000000 0.026731 0.000000 0.000000
# 5 0.000000 0.000000 0.000000 0.000000 0.036602 0.000000
# 6 0.000000 0.000000 0.000000 0.000000 0.000000 0.046970
#
#
# Mechanical properties :
#
#
# Convention : Reuss Voigt Hill
#
# Bulk Modulus (GPa) = 62.82735 71.51439 67.17087
# Shear Modulus (GPa) = 29.50988 31.92693 30.71840
#
# Velocity S-wave (km/s) = 3.69767 3.84612 3.77262
# Velocity P-wave (km/s) = 6.88040 7.27035 7.07806
#
# Compressibility (1/GPa) = 0.01591664
#
# Stress axis : x y z
#
# Youngs Moduli (GPa) = 70.33287 88.81888 106.44953
#
# Poissons Ratio (x) = 0.07561 0.56009
# Poissons Ratio (y) = 0.05987 0.35814
# Poissons Ratio (z) = 0.37006 0.29882
#
# Static dielectric constant tensor:
#      x y z
#    x 3.903320 0.000000 0.000000 
#    y 0.000000 3.841600 0.000000 
#    z 0.000000 0.000000 4.117490 
# 
# 
# High freq. dielectric constant tensor:
#      x y z
#    x 1.841960 0.000000 0.000000 
#    y 0.000000 1.836340 0.000000 
#    z 0.000000 0.000000 1.865310 
# 
# From -- ./inp_files/6595.got.cif
#   From: 2010.03.12/outbox.cif.g09.slc.cpg/sg56_4_cif.got.tgz:6595.got - 2010.04.16 15:33:40.
