data_PCOD8228246
_publ_section_title
;
Structure prediction by ZEFSAII (Michael W. Deem and Ramdas Pophale) SiO2 
 PCOD8228246
Probable space group: P C C N
;
_chemical_formula_sum "Si O2"
_cell_formula_units_Z 40
_cell_length_a 11.057715
_cell_length_b 9.244203
_cell_length_c 16.514257
_cell_angle_alpha 90.000000
_cell_angle_beta 90.000000
_cell_angle_gamma 90.000000
_cell_volume 1688.083423
_symmetry_space_group_name_H-M "P C C N"
_symmetry_group_IT_number 56
_symmetry_cell_setting 'orthorhombic'
loop_
_space_group_symop_operation_xyz
x,y,z
1/2-x,1/2-y,z
1/2+x,-y,1/2-z
-x,1/2+y,1/2-z
-x,-y,-z
1/2+x,1/2+y,-z
1/2-x,y,1/2+z
x,1/2-y,1/2+z
loop_
_atom_site_type_symbol
_atom_site_label
_atom_site_fract_x
_atom_site_fract_y
_atom_site_fract_z
Si Si1 0.962727 0.017137 0.693350
Si Si2 0.890184 0.701407 0.325563
Si Si3 0.800768 0.983526 0.547617
Si Si4 0.368235 0.689780 0.593693
Si Si5 0.923217 0.686430 0.510131
O O1 0.909347 0.943446 0.773532
O O2 0.848557 0.039742 0.633824
O O3 0.062655 0.914007 0.654153
O O4 0.026056 0.170824 0.711727
O O5 0.750000 0.750000 0.325303
O O6 0.933192 0.655831 0.414916
O O7 0.881477 0.851353 0.516701
O O8 0.662924 0.928612 0.554980
O O9 0.813290 0.108790 0.483491
O O10 0.250000 0.750000 0.640877
O O11 0.450049 0.821322 0.558072
#
# Coordination Sequence:
#
# PCOD8228246 Si02
#       5
#     8   8   8   8   8
#     4  11  25  44  69 101 143 182 233 288 352 427
#     4  12  24  45  69 103 144 190 223 292 365 424
#     4  10  19  42  72  93 125 177 233 284 337 406
#     4  11  22  40  69  98 134 179 234 294 341 411
#     4  10  19  40  71  94 126 176 234 279 350 409
#
# _framework density 23.695511
#
# number of rings (size 3 to 8) (size 9 to 14) (size 15 to 20)
#    0.000    1.200    6.000    1.200    5.600    4.000 
#    3.600    1.000    0.000    0.000    0.000    0.000 
#    0.000    0.000    0.000    0.000    0.000    0.000 
#
# Total GULP energy -495972.669288 kJ/mol
# GULP energy per Si atom -12399.316732 kJ/mol
# Density = 2.364158 g / cm^3
# Si number density = 23.695511 Si / 1000 Ang^3
#
#
#
# Elastic Constant Matrix: (Units=GPa)
#
#
# Indices 1 2 3 4 5 6 
#
# 1 109.3646 20.2474 -9.8713 0.0000 0.0000 0.0000
# 2 20.2474 47.5946 -1.9571 0.0000 0.0000 0.0000
# 3 -9.8713 -1.9571 35.6258 0.0000 0.0000 0.0000
# 4 0.0000 0.0000 0.0000 27.3438 0.0000 0.0000
# 5 0.0000 0.0000 0.0000 0.0000 7.0952 0.0000
# 6 0.0000 0.0000 0.0000 0.0000 0.0000 29.1570
#
#
#
# Elastic Compliance Matrix: (Units=1/GPa)
#
#
# Indices 1 2 3 4 5 6 
#
# 1 0.010157 -0.004215 0.002583 0.000000 0.000000 0.000000
# 2 -0.004215 0.022807 0.000085 0.000000 0.000000 0.000000
# 3 0.002583 0.000085 0.028790 0.000000 0.000000 0.000000
# 4 0.000000 0.000000 0.000000 0.036571 0.000000 0.000000
# 5 0.000000 0.000000 0.000000 0.000000 0.140940 0.000000
# 6 0.000000 0.000000 0.000000 0.000000 0.000000 0.034297
#
#
# Mechanical properties :
#
#
# Convention : Reuss Voigt Hill
#
# Bulk Modulus (GPa) = 17.04723 23.26924 20.15823
# Shear Modulus (GPa) = 16.87992 24.99694 20.93843
#
# Velocity S-wave (km/s) = 2.67192 3.25148 2.97584
# Velocity P-wave (km/s) = 4.09008 4.89261 4.50923
#
# Compressibility (1/GPa) = 0.05866057
#
# Stress axis : x y z
#
# Youngs Moduli (GPa) = 98.45262 43.84556 34.73443
#
# Poissons Ratio (x) = 0.18480 -0.08971
# Poissons Ratio (y) = 0.41496 -0.00295
# Poissons Ratio (z) = -0.25429 -0.00373
#
# Static dielectric constant tensor:
#      x y z
#    x 4.833560 0.000000 0.000000 
#    y 0.000000 4.199000 0.000000 
#    z 0.000000 0.000000 4.161760 
# 
# 
# High freq. dielectric constant tensor:
#      x y z
#    x 1.951280 0.000000 0.000000 
#    y 0.000000 1.938720 0.000000 
#    z 0.000000 0.000000 1.922130 
# 
# From -- ./inp_files/15422.got.cif
#   From: 2010.03.12/outbox.cif.g09.slc.cpg/sg56_8_cif.got.tgz:15422.got - 2010.04.16 15:33:40.
