data_PCOD8228594
_publ_section_title
;
Structure prediction by ZEFSAII (Michael W. Deem and Ramdas Pophale) SiO2 
 PCOD8228594
Probable space group: P C C N
;
_chemical_formula_sum "Si O2"
_cell_formula_units_Z 36
_cell_length_a 12.579632
_cell_length_b 7.855240
_cell_length_c 17.011097
_cell_angle_alpha 90.000000
_cell_angle_beta 90.000000
_cell_angle_gamma 90.000000
_cell_volume 1680.969045
_symmetry_space_group_name_H-M "P C C N"
_symmetry_group_IT_number 56
_symmetry_cell_setting 'orthorhombic'
loop_
_space_group_symop_operation_xyz
x,y,z
1/2-x,1/2-y,z
1/2+x,-y,1/2-z
-x,1/2+y,1/2-z
-x,-y,-z
1/2+x,1/2+y,-z
1/2-x,y,1/2+z
x,1/2-y,1/2+z
loop_
_atom_site_type_symbol
_atom_site_label
_atom_site_fract_x
_atom_site_fract_y
_atom_site_fract_z
Si Si1 0.593667 0.077316 0.791970
Si Si2 0.996733 0.394205 0.347970
Si Si3 0.770168 0.050604 0.906563
Si Si4 0.214244 0.065656 0.921642
Si Si5 0.250000 0.750000 0.320140
O O1 0.516506 0.188601 0.848216
O O2 0.682711 0.980298 0.844515
O O3 0.649002 0.217898 0.735368
O O4 0.528905 0.942942 0.741113
O O5 0.887712 0.485864 0.373274
O O6 0.087215 0.450526 0.409473
O O7 0.750000 0.250000 0.920930
O O8 0.755521 0.950169 0.987423
O O9 0.250000 0.250000 0.889558
O O10 0.273306 0.916538 0.873248
#
# Coordination Sequence:
#
# PCOD8228594 Si02
#       5
#     8   8   8   8   4
#     4  10  21  38  65  88 125 171 206 265 319 366
#     4  10  22  37  64  93 121 164 218 254 312 384
#     4  10  20  43  61  84 132 170 204 253 332 372
#     4  11  24  38  65  95 126 164 210 259 311 378
#     4  10  20  42  60  86 128 168 192 264 316 360
#
# _framework density 21.416219000000002
#
# number of rings (size 3 to 8) (size 9 to 14) (size 15 to 20)
#    0.000    1.778    4.444    0.667    3.111    1.778 
#    0.000    5.556    0.000    0.000    0.000    0.000 
#    0.000    0.000    0.000    0.000    0.000    0.000 
#
# Total GULP energy -446375.717542 kJ/mol
# GULP energy per Si atom -12399.325487 kJ/mol
# Density = 2.136747 g / cm^3
# Si number density = 21.416219 Si / 1000 Ang^3
#
#
#
# Elastic Constant Matrix: (Units=GPa)
#
#
# Indices 1 2 3 4 5 6 
#
# 1 80.9514 18.8339 30.8884 0.0000 0.0000 0.0000
# 2 18.8339 76.0450 25.8269 0.0000 0.0000 0.0000
# 3 30.8884 25.8269 116.9867 0.0000 0.0000 0.0000
# 4 0.0000 0.0000 0.0000 28.2773 0.0000 0.0000
# 5 0.0000 0.0000 0.0000 0.0000 28.7120 0.0000
# 6 0.0000 0.0000 0.0000 0.0000 0.0000 25.7063
#
#
#
# Elastic Compliance Matrix: (Units=1/GPa)
#
#
# Indices 1 2 3 4 5 6 
#
# 1 0.014136 -0.002414 -0.003199 0.000000 0.000000 0.000000
# 2 -0.002414 0.014628 -0.002592 0.000000 0.000000 0.000000
# 3 -0.003199 -0.002592 0.009965 0.000000 0.000000 0.000000
# 4 0.000000 0.000000 0.000000 0.035364 0.000000 0.000000
# 5 0.000000 0.000000 0.000000 0.000000 0.034829 0.000000
# 6 0.000000 0.000000 0.000000 0.000000 0.000000 0.038901
#
#
# Mechanical properties :
#
#
# Convention : Reuss Voigt Hill
#
# Bulk Modulus (GPa) = 44.80767 47.23129 46.01948
# Shear Modulus (GPa) = 29.12516 29.76806 29.44661
#
# Velocity S-wave (km/s) = 3.69176 3.73228 3.71208
# Velocity P-wave (km/s) = 6.25619 6.37770 6.31724
#
# Compressibility (1/GPa) = 0.02231761
#
# Stress axis : x y z
#
# Youngs Moduli (GPa) = 70.74369 68.36029 100.35202
#
# Poissons Ratio (x) = 0.16505 0.32105
# Poissons Ratio (y) = 0.17080 0.26011
# Poissons Ratio (z) = 0.22633 0.17719
#
# Static dielectric constant tensor:
#      x y z
#    x 3.836960 0.000000 0.000000 
#    y 0.000000 3.595620 0.000000 
#    z 0.000000 0.000000 3.881010 
# 
# 
# High freq. dielectric constant tensor:
#      x y z
#    x 1.840400 0.000000 0.000000 
#    y 0.000000 1.820170 0.000000 
#    z 0.000000 0.000000 1.840430 
# 
# From -- ./inp_files/14566.got.cif
#   From: 2010.03.12/outbox.cif.g09.slc.cpg/sg56_8_cif.got.tgz:14566.got - 2010.04.16 15:33:40.
