data_PCOD8228784
_publ_section_title
;
Structure prediction by ZEFSAII (Michael W. Deem and Ramdas Pophale) SiO2 
 PCOD8228784
Probable space group: P C C N
;
_chemical_formula_sum "Si O2"
_cell_formula_units_Z 44
_cell_length_a 8.825039
_cell_length_b 14.794094
_cell_length_c 13.919169
_cell_angle_alpha 90.000000
_cell_angle_beta 90.000000
_cell_angle_gamma 90.000000
_cell_volume 1817.265221
_symmetry_space_group_name_H-M "P C C N"
_symmetry_group_IT_number 56
_symmetry_cell_setting 'orthorhombic'
loop_
_space_group_symop_operation_xyz
x,y,z
1/2-x,1/2-y,z
1/2+x,-y,1/2-z
-x,1/2+y,1/2-z
-x,-y,-z
1/2+x,1/2+y,-z
1/2-x,y,1/2+z
x,1/2-y,1/2+z
loop_
_atom_site_type_symbol
_atom_site_label
_atom_site_fract_x
_atom_site_fract_y
_atom_site_fract_z
Si Si1 0.750000 0.250000 0.114471
Si Si2 0.328142 0.036466 0.171843
Si Si3 0.063504 0.097934 0.274045
Si Si4 0.002957 0.296961 0.474537
Si Si5 0.818206 0.886317 0.523284
Si Si6 0.985033 0.303036 0.256718
O O1 0.842881 0.316609 0.185314
O O2 0.636244 0.310363 0.048921
O O3 0.148043 0.039288 0.191881
O O4 0.388595 0.125467 0.227043
O O5 0.396578 0.943592 0.212392
O O6 0.361274 0.040350 0.057755
O O7 0.162030 0.077099 0.369686
O O8 0.054911 0.202425 0.244197
O O9 0.065415 0.196248 0.487303
O O10 0.142469 0.362827 0.495973
O O11 0.936991 0.314697 0.367819
#
# Coordination Sequence:
#
# PCOD8228784 Si02
#       6
#     4   8   8   8   8   8
#     4  12  22  38  68 106 134 174 236 278 340 398
#     4  12  24  45  70 100 137 183 232 283 343 412
#     4  11  26  44  69 102 139 181 232 286 341 408
#     4  10  21  39  69 102 132 179 230 278 332 417
#     4  10  21  44  69  97 136 183 231 271 346 416
#     4  11  24  44  70  96 141 185 220 282 352 403
#
# _framework density 24.212205000000001
#
# number of rings (size 3 to 8) (size 9 to 14) (size 15 to 20)
#    0.000    1.091    3.636    2.727    5.091    0.000 
#    0.000    0.909    0.000    0.000    0.000    0.000 
#    0.000    0.000    0.000    0.000    0.000    0.000 
#
# Total GULP energy -545558.010217 kJ/mol
# GULP energy per Si atom -12399.045687 kJ/mol
# Density = 2.415710 g / cm^3
# Si number density = 24.212205 Si / 1000 Ang^3
#
#
#
# Elastic Constant Matrix: (Units=GPa)
#
#
# Indices 1 2 3 4 5 6 
#
# 1 93.1129 -1.6873 36.1304 0.0000 0.0000 0.0000
# 2 -1.6873 48.7281 -3.3008 0.0000 0.0000 0.0000
# 3 36.1304 -3.3008 128.1107 0.0000 0.0000 0.0000
# 4 0.0000 0.0000 0.0000 19.8265 0.0000 0.0000
# 5 0.0000 0.0000 0.0000 0.0000 55.2157 0.0000
# 6 0.0000 0.0000 0.0000 0.0000 0.0000 25.5618
#
#
#
# Elastic Compliance Matrix: (Units=1/GPa)
#
#
# Indices 1 2 3 4 5 6 
#
# 1 0.012061 0.000188 -0.003397 0.000000 0.000000 0.000000
# 2 0.000188 0.020561 0.000477 0.000000 0.000000 0.000000
# 3 -0.003397 0.000477 0.008776 0.000000 0.000000 0.000000
# 4 0.000000 0.000000 0.000000 0.050437 0.000000 0.000000
# 5 0.000000 0.000000 0.000000 0.000000 0.018111 0.000000
# 6 0.000000 0.000000 0.000000 0.000000 0.000000 0.039121
#
#
# Mechanical properties :
#
#
# Convention : Reuss Voigt Hill
#
# Bulk Modulus (GPa) = 27.82934 36.91516 32.37225
# Shear Modulus (GPa) = 30.02834 36.04142 33.03488
#
# Velocity S-wave (km/s) = 3.52549 3.86238 3.69777
# Velocity P-wave (km/s) = 5.30009 5.93045 5.62411
#
# Compressibility (1/GPa) = 0.03593329
#
# Stress axis : x y z
#
# Youngs Moduli (GPa) = 82.91143 48.63620 113.94731
#
# Poissons Ratio (x) = -0.00912 0.38704
# Poissons Ratio (y) = -0.01555 -0.05434
# Poissons Ratio (z) = 0.28162 -0.02319
#
# Static dielectric constant tensor:
#      x y z
#    x 4.317070 0.000000 0.000000 
#    y 0.000000 3.840890 0.000000 
#    z 0.000000 0.000000 4.670410 
# 
# 
# High freq. dielectric constant tensor:
#      x y z
#    x 1.962590 0.000000 0.000000 
#    y 0.000000 1.921900 0.000000 
#    z 0.000000 0.000000 1.981820 
# 
# From -- ./inp_files/10559.got.cif
#   From: 2010.03.12/outbox.cif.g09.slc.cpg/sg56_6_cif.got.tgz:10559.got - 2010.04.16 15:33:40.
