data_PCOD8228997
_publ_section_title
;
Structure prediction by ZEFSAII (Michael W. Deem and Ramdas Pophale) SiO2 
 PCOD8228997
Probable space group: P C C N
;
_chemical_formula_sum "Si O2"
_cell_formula_units_Z 48
_cell_length_a 9.490241
_cell_length_b 16.380764
_cell_length_c 15.755552
_cell_angle_alpha 90.000000
_cell_angle_beta 90.000000
_cell_angle_gamma 90.000000
_cell_volume 2449.317120
_symmetry_space_group_name_H-M "P C C N"
_symmetry_group_IT_number 56
_symmetry_cell_setting 'orthorhombic'
loop_
_space_group_symop_operation_xyz
x,y,z
1/2-x,1/2-y,z
1/2+x,-y,1/2-z
-x,1/2+y,1/2-z
-x,-y,-z
1/2+x,1/2+y,-z
1/2-x,y,1/2+z
x,1/2-y,1/2+z
loop_
_atom_site_type_symbol
_atom_site_label
_atom_site_fract_x
_atom_site_fract_y
_atom_site_fract_z
Si Si1 0.250000 0.250000 0.449003
Si Si2 0.227707 0.922475 0.806579
Si Si3 0.956611 0.555470 0.773667
Si Si4 0.473344 0.584512 0.954775
Si Si5 0.250000 0.750000 0.223191
Si Si6 0.992438 0.175328 0.876930
Si Si7 0.752393 0.840850 0.390418
O O1 0.371722 0.230670 0.383938
O O2 0.208315 0.172682 0.509709
O O3 0.385447 0.960406 0.808270
O O4 0.168538 0.926453 0.901347
O O5 0.226383 0.828074 0.781640
O O6 0.128540 0.971809 0.740718
O O7 0.870985 0.607895 0.842579
O O8 0.972183 0.598342 0.682366
O O9 0.600372 0.613184 0.891356
O O10 0.500000 0.500000 0.000000
O O11 0.444170 0.649631 0.028830
O O12 0.119216 0.764143 0.162681
O O13 0.750000 0.750000 0.347145
#
# Coordination Sequence:
#
# PCOD8228997 Si02
#       7
#     4   8   8   8   4   8   8
#     4   8  20  36  60  92 124 168 202 256 312 382
#     4  11  25  42  66  91 132 164 220 259 327 376
#     4  11  23  41  64  95 122 172 212 264 312 383
#     4  11  22  43  65  90 129 172 204 268 321 381
#     4  10  26  40  60 100 118 164 212 268 306 376
#     4  10  22  39  64  88 126 158 214 252 324 360
#     4   9  22  39  62  94 126 165 214 253 321 384
#
# _framework density 19.597297999999999
#
# number of rings (size 3 to 8) (size 9 to 14) (size 15 to 20)
#    0.500    1.333    1.667    1.000    8.167    3.333 
#    0.000    0.833    0.000    0.000    0.000    0.000 
#    0.000    0.000    0.000    0.000    0.000    0.000 
#
# Total GULP energy -594956.623728 kJ/mol
# GULP energy per Si atom -12394.929661 kJ/mol
# Density = 1.955269 g / cm^3
# Si number density = 19.597298 Si / 1000 Ang^3
#
#
#
# Elastic Constant Matrix: (Units=GPa)
#
#
# Indices 1 2 3 4 5 6 
#
# 1 142.8231 58.2578 71.5893 0.0000 0.0000 0.0000
# 2 58.2578 101.2835 25.0433 0.0000 0.0000 0.0000
# 3 71.5893 25.0433 92.1336 0.0000 0.0000 0.0000
# 4 0.0000 0.0000 0.0000 -57.6890 0.0000 0.0000
# 5 0.0000 0.0000 0.0000 0.0000 138.4567 0.0000
# 6 0.0000 0.0000 0.0000 0.0000 0.0000 35.9485
#
#
#
# Elastic Compliance Matrix: (Units=1/GPa)
#
#
# Indices 1 2 3 4 5 6 
#
# 1 0.014032 -0.005763 -0.009337 0.000000 0.000000 0.000000
# 2 -0.005763 0.012951 0.000957 0.000000 0.000000 0.000000
# 3 -0.009337 0.000957 0.017849 0.000000 0.000000 0.000000
# 4 0.000000 0.000000 0.000000 -0.017334 0.000000 0.000000
# 5 0.000000 0.000000 0.000000 0.000000 0.007222 0.000000
# 6 0.000000 0.000000 0.000000 0.000000 0.000000 0.027818
#
#
# Mechanical properties :
#
#
# Convention : Reuss Voigt Hill
#
# Bulk Modulus (GPa) = 60.43197 71.78010 66.10603
# Shear Modulus (GPa) = 51.90036 35.43326 43.66681
#
# Velocity S-wave (km/s) = 5.15179 4.25675 4.72551
# Velocity P-wave (km/s) = 8.14197 7.80173 7.97367
#
# Compressibility (1/GPa) = 0.01654753
#
# Stress axis : x y z
#
# Youngs Moduli (GPa) = 71.26359 77.21272 56.02686
#
# Poissons Ratio (x) = 0.44495 0.52312
# Poissons Ratio (y) = 0.41067 -0.05364
# Poissons Ratio (z) = 0.66539 -0.07392
#
# Static dielectric constant tensor:
#      x y z
#    x 3.610420 0.000000 0.000000 
#    y 0.000000 3.608220 0.000000 
#    z 0.000000 0.000000 3.602970 
# 
# 
# High freq. dielectric constant tensor:
#      x y z
#    x 1.765150 0.000000 0.000000 
#    y 0.000000 1.764700 0.000000 
#    z 0.000000 0.000000 1.763380 
# 
# From -- ./inp_files/10717.got.cif
#   From: 2010.03.12/outbox.cif.g09.slc.cpg/sg56_6_cif.got.tgz:10717.got - 2010.04.16 15:33:40.
