data_PCOD8228747
_publ_section_title
;
Structure prediction by ZEFSAII (Michael W. Deem and Ramdas Pophale) SiO2 
 PCOD8228747
Probable space group: P C C N
;
_chemical_formula_sum "Si O2"
_cell_formula_units_Z 60
_cell_length_a 6.340734
_cell_length_b 27.692384
_cell_length_c 16.730936
_cell_angle_alpha 90.000000
_cell_angle_beta 90.000000
_cell_angle_gamma 90.000000
_cell_volume 2937.785734
_symmetry_space_group_name_H-M "P C C N"
_symmetry_group_IT_number 56
_symmetry_cell_setting 'orthorhombic'
loop_
_space_group_symop_operation_xyz
x,y,z
1/2-x,1/2-y,z
1/2+x,-y,1/2-z
-x,1/2+y,1/2-z
-x,-y,-z
1/2+x,1/2+y,-z
1/2-x,y,1/2+z
x,1/2-y,1/2+z
loop_
_atom_site_type_symbol
_atom_site_label
_atom_site_fract_x
_atom_site_fract_y
_atom_site_fract_z
Si Si1 0.360523 0.199914 0.612462
Si Si2 0.750000 0.250000 0.667888
Si Si3 0.697482 0.961928 0.700587
Si Si4 0.121194 0.294346 0.266960
Si Si5 0.777615 0.604666 0.483049
Si Si6 0.927548 0.071308 0.406659
Si Si7 0.344927 0.484268 0.127020
Si Si8 0.035993 0.880371 0.137993
O O1 0.250000 0.250000 0.587055
O O2 0.613118 0.211465 0.615097
O O3 0.277417 0.182734 0.700039
O O4 0.296653 0.158937 0.549895
O O5 0.592927 0.279724 0.723353
O O6 0.726322 0.982690 0.788349
O O7 0.533848 0.917149 0.708122
O O8 0.913646 0.943606 0.662902
O O9 0.589301 0.001922 0.642688
O O10 0.250000 0.250000 0.306413
O O11 0.054148 0.328170 0.340033
O O12 0.542519 0.590655 0.513279
O O13 0.846231 0.567147 0.415452
O O14 0.935069 0.600146 0.556473
O O15 0.788447 0.116389 0.372792
O O16 0.775310 0.025330 0.425710
#
# Coordination Sequence:
#
# PCOD8228747 Si02
#       8
#     8   4   8   8   8   8   8   8
#     4   9  20  40  63  91 120 157 203 258 307 366
#     4   8  18  36  60  86 114 152 202 254 300 352
#     4  10  21  39  61  85 115 154 213 258 300 362
#     4   9  19  38  63  89 116 151 203 256 301 357
#     4  11  24  38  59  89 127 163 202 253 312 382
#     4  10  23  40  58  87 126 162 204 252 311 376
#     4  11  21  39  62  89 117 163 208 261 310 364
#     4  10  23  38  55  88 121 161 201 245 310 374
#
# _framework density 20.423542999999999
#
# number of rings (size 3 to 8) (size 9 to 14) (size 15 to 20)
#    0.000    2.400    1.333    1.200    0.000   13.867 
#    0.000    0.667    0.000    0.000    0.000    0.000 
#    0.000    0.000    0.000    0.000    0.000    0.000 
#
# Total GULP energy -743602.208377 kJ/mol
# GULP energy per Si atom -12393.370140 kJ/mol
# Density = 2.037706 g / cm^3
# Si number density = 20.423543 Si / 1000 Ang^3
#
#
#
# Elastic Constant Matrix: (Units=GPa)
#
#
# Indices 1 2 3 4 5 6 
#
# 1 134.7059 53.5321 44.3223 0.0000 0.0000 0.0000
# 2 53.5321 125.7890 52.3660 0.0000 0.0000 0.0000
# 3 44.3223 52.3660 67.6817 0.0000 0.0000 0.0000
# 4 0.0000 0.0000 0.0000 42.2794 0.0000 0.0000
# 5 0.0000 0.0000 0.0000 0.0000 24.1245 0.0000
# 6 0.0000 0.0000 0.0000 0.0000 0.0000 36.8939
#
#
#
# Elastic Compliance Matrix: (Units=1/GPa)
#
#
# Indices 1 2 3 4 5 6 
#
# 1 0.009868 -0.002226 -0.004739 0.000000 0.000000 0.000000
# 2 -0.002226 0.012229 -0.008004 0.000000 0.000000 0.000000
# 3 -0.004739 -0.008004 0.024072 0.000000 0.000000 0.000000
# 4 0.000000 0.000000 0.000000 0.023652 0.000000 0.000000
# 5 0.000000 0.000000 0.000000 0.000000 0.041452 0.000000
# 6 0.000000 0.000000 0.000000 0.000000 0.000000 0.027105
#
#
# Mechanical properties :
#
#
# Convention : Reuss Voigt Hill
#
# Bulk Modulus (GPa) = 61.61829 69.84637 65.73233
# Shear Modulus (GPa) = 28.78083 32.52330 30.65207
#
# Velocity S-wave (km/s) = 3.75800 3.99487 3.87824
# Velocity P-wave (km/s) = 7.00470 7.45331 7.23248
#
# Compressibility (1/GPa) = 0.01622895
#
# Stress axis : x y z
#
# Youngs Moduli (GPa) = 101.34000 81.77024 41.54285
#
# Poissons Ratio (x) = 0.18205 0.19689
# Poissons Ratio (y) = 0.22562 0.33251
# Poissons Ratio (z) = 0.48030 0.65449
#
# Static dielectric constant tensor:
#      x y z
#    x 3.982610 0.000000 0.000000 
#    y 0.000000 3.677940 0.000000 
#    z 0.000000 0.000000 3.473550 
# 
# 
# High freq. dielectric constant tensor:
#      x y z
#    x 1.812400 0.000000 0.000000 
#    y 0.000000 1.793600 0.000000 
#    z 0.000000 0.000000 1.775800 
# 
# From -- ./inp_files/14103.got.cif
#   From: 2010.03.12/outbox.cif.g09.slc.cpg/sg56_8_cif.got.tgz:14103.got - 2010.04.16 15:33:40.
