data_PCOD8228301
_publ_section_title
;
Structure prediction by ZEFSAII (Michael W. Deem and Ramdas Pophale) SiO2 
 PCOD8228301
Probable space group: P C C N
;
_chemical_formula_sum "Si O2"
_cell_formula_units_Z 48
_cell_length_a 19.526823
_cell_length_b 21.202003
_cell_length_c 5.036870
_cell_angle_alpha 90.000000
_cell_angle_beta 90.000000
_cell_angle_gamma 90.000000
_cell_volume 2085.303265
_symmetry_space_group_name_H-M "P C C N"
_symmetry_group_IT_number 56
_symmetry_cell_setting 'orthorhombic'
loop_
_space_group_symop_operation_xyz
x,y,z
1/2-x,1/2-y,z
1/2+x,-y,1/2-z
-x,1/2+y,1/2-z
-x,-y,-z
1/2+x,1/2+y,-z
1/2-x,y,1/2+z
x,1/2-y,1/2+z
loop_
_atom_site_type_symbol
_atom_site_label
_atom_site_fract_x
_atom_site_fract_y
_atom_site_fract_z
Si Si1 0.434441 0.586313 0.999308
Si Si2 0.291106 0.558583 0.226663
Si Si3 0.847493 0.789623 0.766284
Si Si4 0.349684 0.426342 0.225571
Si Si5 0.433737 0.045131 0.233696
Si Si6 0.990876 0.210856 0.236117
O O1 0.362810 0.590829 0.155235
O O2 0.491147 0.574551 0.226697
O O3 0.433399 0.529559 0.787304
O O4 0.447699 0.649151 0.833081
O O5 0.266586 0.580489 0.516219
O O6 0.294462 0.482118 0.228013
O O7 0.823120 0.742334 0.537669
O O8 0.813612 0.858733 0.719430
O O9 0.928501 0.803135 0.774361
O O10 0.410644 0.442023 0.433371
O O11 0.382387 0.420310 0.934143
O O12 0.971047 0.233699 0.529899
#
# Coordination Sequence:
#
# PCOD8228301 Si02
#       6
#     8   8   8   8   8   8
#     4  10  22  40  61  89 126 153 203 252 306 378
#     4  11  25  42  61  85 114 160 205 254 302 344
#     4  10  20  34  55  87 126 160 188 232 300 375
#     4  11  21  39  60  89 126 153 198 250 305 373
#     4  10  22  34  62  95 117 155 189 250 326 361
#     4  10  22  35  56  88 126 159 187 236 302 375
#
# _framework density 23.018235000000001
#
# number of rings (size 3 to 8) (size 9 to 14) (size 15 to 20)
#    0.000    1.667    1.667    3.000    4.667   11.333 
#    0.000    0.000    0.000    6.000    0.000    0.000 
#    0.000    0.000    0.000    0.000    0.000    0.000 
#
# Total GULP energy -595343.394287 kJ/mol
# GULP energy per Si atom -12402.987381 kJ/mol
# Density = 2.296584 g / cm^3
# Si number density = 23.018235 Si / 1000 Ang^3
#
#
#
# Elastic Constant Matrix: (Units=GPa)
#
#
# Indices 1 2 3 4 5 6 
#
# 1 48.9450 -12.4318 2.1550 0.0000 0.0000 0.0000
# 2 -12.4318 69.5689 2.6454 0.0000 0.0000 0.0000
# 3 2.1550 2.6454 87.3256 0.0000 0.0000 0.0000
# 4 0.0000 0.0000 0.0000 24.7190 0.0000 0.0000
# 5 0.0000 0.0000 0.0000 0.0000 1.1840 0.0000
# 6 0.0000 0.0000 0.0000 0.0000 0.0000 16.9629
#
#
#
# Elastic Compliance Matrix: (Units=1/GPa)
#
#
# Indices 1 2 3 4 5 6 
#
# 1 0.021439 0.003856 -0.000646 0.000000 0.000000 0.000000
# 2 0.003856 0.015084 -0.000552 0.000000 0.000000 0.000000
# 3 -0.000646 -0.000552 0.011484 0.000000 0.000000 0.000000
# 4 0.000000 0.000000 0.000000 0.040455 0.000000 0.000000
# 5 0.000000 0.000000 0.000000 0.000000 0.844628 0.000000
# 6 0.000000 0.000000 0.000000 0.000000 0.000000 0.058952
#
#
# Mechanical properties :
#
#
# Convention : Reuss Voigt Hill
#
# Bulk Modulus (GPa) = 18.75380 21.17518 19.96449
# Shear Modulus (GPa) = 4.97760 22.80456 13.89108
#
# Velocity S-wave (km/s) = 1.47213 3.15098 2.45925
# Velocity P-wave (km/s) = 3.32484 4.73894 4.09342
#
# Compressibility (1/GPa) = 0.05332251
#
# Stress axis : x y z
#
# Youngs Moduli (GPa) = 46.64425 66.29436 87.07718
#
# Poissons Ratio (x) = -0.25561 0.05624
# Poissons Ratio (y) = -0.17984 0.04808
# Poissons Ratio (z) = 0.03013 0.03660
#
# Static dielectric constant tensor:
#      x y z
#    x 3.917440 0.000000 0.000000 
#    y 0.000000 4.086550 0.000000 
#    z 0.000000 0.000000 4.181590 
# 
# 
# High freq. dielectric constant tensor:
#      x y z
#    x 1.884400 0.000000 0.000000 
#    y 0.000000 1.895540 0.000000 
#    z 0.000000 0.000000 1.922840 
# 
# From -- ./inp_files/867.got.cif
#   From: 2010.03.12/outbox.cif.g09.slc.cpg/sg56_1_cif.got.tgz:867.got - 2010.04.16 15:33:40.
