data_PCOD8228080
_publ_section_title
;
Structure prediction by ZEFSAII (Michael W. Deem and Ramdas Pophale) SiO2 
 PCOD8228080
Probable space group: P C C N
;
_chemical_formula_sum "Si O2"
_cell_formula_units_Z 64
_cell_length_a 24.673722
_cell_length_b 12.293499
_cell_length_c 11.846872
_cell_angle_alpha 90.000000
_cell_angle_beta 90.000000
_cell_angle_gamma 90.000000
_cell_volume 3593.468759
_symmetry_space_group_name_H-M "P C C N"
_symmetry_group_IT_number 56
_symmetry_cell_setting 'orthorhombic'
loop_
_space_group_symop_operation_xyz
x,y,z
1/2-x,1/2-y,z
1/2+x,-y,1/2-z
-x,1/2+y,1/2-z
-x,-y,-z
1/2+x,1/2+y,-z
1/2-x,y,1/2+z
x,1/2-y,1/2+z
loop_
_atom_site_type_symbol
_atom_site_label
_atom_site_fract_x
_atom_site_fract_y
_atom_site_fract_z
Si Si1 0.985557 0.742346 0.687565
Si Si2 0.592433 0.822825 0.017201
Si Si3 0.403179 0.071779 0.218151
Si Si4 0.641580 0.897189 0.422497
Si Si5 0.057011 0.578032 0.585231
Si Si6 0.185190 0.147710 0.318059
Si Si7 0.468474 0.588777 0.846024
Si Si8 0.200036 0.104385 0.856463
O O1 0.965975 0.814104 0.579844
O O2 0.933746 0.665925 0.711916
O O3 0.043450 0.682954 0.663644
O O4 0.994555 0.814678 0.798612
O O5 0.634046 0.882073 0.103732
O O6 0.589891 0.906767 0.914001
O O7 0.606305 0.700907 0.974605
O O8 0.340499 0.064756 0.257344
O O9 0.429700 0.955008 0.246421
O O10 0.672363 0.851550 0.314474
O O11 0.682164 0.938722 0.520202
O O12 0.607893 0.003204 0.381179
O O13 0.065198 0.623644 0.457424
O O14 0.003624 0.507886 0.603897
O O15 0.237313 0.067696 0.335965
O O16 0.200989 0.266688 0.357288
#
# Coordination Sequence:
#
# PCOD8228080 Si02
#       8
#     8   8   8   8   8   8   8   8
#     4  11  20  33  48  76 102 140 176 212 252 300
#     4  11  19  31  48  74 111 141 164 208 256 305
#     4  11  19  33  49  71 105 138 169 210 256 307
#     4  11  18  34  51  72 105 135 178 208 247 319
#     4  10  19  32  54  72  98 140 180 210 251 309
#     4  10  21  29  50  76 107 140 168 208 256 309
#     4  10  20  33  51  72 100 139 178 210 254 308
#     4  10  20  31  47  76 102 140 168 204 259 306
#
# _framework density 17.810089999999999
#
# number of rings (size 3 to 8) (size 9 to 14) (size 15 to 20)
#    0.000    1.500    5.000    3.750    1.750    1.500 
#    0.000    1.250    0.000    0.000    0.000    0.875 
#    0.000    0.000    0.000    0.000    0.000    0.000 
#
# Total GULP energy -792960.439699 kJ/mol
# GULP energy per Si atom -12390.006870 kJ/mol
# Density = 1.776955 g / cm^3
# Si number density = 17.810090 Si / 1000 Ang^3
#
#
#
# Elastic Constant Matrix: (Units=GPa)
#
#
# Indices 1 2 3 4 5 6 
#
# 1 70.4608 21.4329 13.0255 0.0000 0.0000 0.0000
# 2 21.4329 26.9140 15.6147 0.0000 0.0000 0.0000
# 3 13.0255 15.6147 89.0751 0.0000 0.0000 0.0000
# 4 0.0000 0.0000 0.0000 16.4674 0.0000 0.0000
# 5 0.0000 0.0000 0.0000 0.0000 16.8123 0.0000
# 6 0.0000 0.0000 0.0000 0.0000 0.0000 13.2545
#
#
#
# Elastic Compliance Matrix: (Units=1/GPa)
#
#
# Indices 1 2 3 4 5 6 
#
# 1 0.018731 -0.014836 -0.000138 0.000000 0.000000 0.000000
# 2 -0.014836 0.053113 -0.007141 0.000000 0.000000 0.000000
# 3 -0.000138 -0.007141 0.012499 0.000000 0.000000 0.000000
# 4 0.000000 0.000000 0.000000 0.060726 0.000000 0.000000
# 5 0.000000 0.000000 0.000000 0.000000 0.059480 0.000000
# 6 0.000000 0.000000 0.000000 0.000000 0.000000 0.075446
#
#
# Mechanical properties :
#
#
# Convention : Reuss Voigt Hill
#
# Bulk Modulus (GPa) = 24.93051 31.84403 28.38727
# Shear Modulus (GPa) = 14.81064 18.39865 16.60464
#
# Velocity S-wave (km/s) = 2.88685 3.21759 3.05670
# Velocity P-wave (km/s) = 5.01401 5.63227 5.33211
#
# Compressibility (1/GPa) = 0.04011149
#
# Stress axis : x y z
#
# Youngs Moduli (GPa) = 53.38844 18.82784 80.00943
#
# Poissons Ratio (x) = 0.27933 0.01107
# Poissons Ratio (y) = 0.79206 0.57136
# Poissons Ratio (z) = 0.00738 0.13445
#
# Static dielectric constant tensor:
#      x y z
#    x 3.620790 0.000000 0.000000 
#    y 0.000000 2.921360 0.000000 
#    z 0.000000 0.000000 3.464000 
# 
# 
# High freq. dielectric constant tensor:
#      x y z
#    x 1.673500 0.000000 0.000000 
#    y 0.000000 1.628580 0.000000 
#    z 0.000000 0.000000 1.705870 
# 
# From -- ./inp_files/9112.got.cif
#   From: 2010.03.12/outbox.cif.g09.slc.cpg/sg56_5_cif.got.tgz:9112.got - 2010.04.16 15:33:40.
