data_PCOD8228810
_publ_section_title
;
Structure prediction by ZEFSAII (Michael W. Deem and Ramdas Pophale) SiO2 
 PCOD8228810
Probable space group: P C C N
;
_chemical_formula_sum "Si O2"
_cell_formula_units_Z 64
_cell_length_a 8.791367
_cell_length_b 14.222242
_cell_length_c 24.746979
_cell_angle_alpha 90.000000
_cell_angle_beta 90.000000
_cell_angle_gamma 90.000000
_cell_volume 3094.187763
_symmetry_space_group_name_H-M "P C C N"
_symmetry_group_IT_number 56
_symmetry_cell_setting 'orthorhombic'
loop_
_space_group_symop_operation_xyz
x,y,z
1/2-x,1/2-y,z
1/2+x,-y,1/2-z
-x,1/2+y,1/2-z
-x,-y,-z
1/2+x,1/2+y,-z
1/2-x,y,1/2+z
x,1/2-y,1/2+z
loop_
_atom_site_type_symbol
_atom_site_label
_atom_site_fract_x
_atom_site_fract_y
_atom_site_fract_z
Si Si1 0.643235 0.614402 0.626688
Si Si2 0.117396 0.546338 0.959917
Si Si3 0.098279 0.364098 0.608294
Si Si4 0.434671 0.897804 0.498790
Si Si5 0.026034 0.312779 0.387940
Si Si6 0.112677 0.961560 0.182515
Si Si7 0.041060 0.005672 0.706283
Si Si8 0.559983 0.839324 0.878371
O O1 0.661419 0.537668 0.580000
O O2 0.812003 0.652614 0.634542
O O3 0.526523 0.699288 0.612271
O O4 0.577592 0.569076 0.681540
O O5 0.055471 0.634541 0.925982
O O6 0.253512 0.591293 0.994499
O O7 0.000000 0.500000 0.000000
O O8 0.056056 0.457847 0.640812
O O9 0.053190 0.269286 0.640735
O O10 0.277059 0.366508 0.596294
O O11 0.005660 0.349192 0.553436
O O12 0.483847 0.840122 0.551167
O O13 0.500000 0.000000 0.500000
O O14 0.905311 0.360328 0.346788
O O15 0.998680 0.973732 0.232200
O O16 0.286462 0.968998 0.201289
O O17 0.024598 0.103871 0.675587
#
# Coordination Sequence:
#
# PCOD8228810 Si02
#       8
#     8   8   8   8   8   8   8   8
#     4  10  23  42  61  90 125 166 209 254 314 374
#     4  11  23  38  58  86 126 167 203 250 303 362
#     4  10  21  40  64  88 119 161 210 249 309 374
#     4  12  22  38  61  91 127 166 206 251 305 370
#     4  11  24  40  64  93 126 166 211 257 310 378
#     4  11  22  41  65  91 121 164 207 261 317 372
#     4  10  23  42  65  90 125 162 205 263 317 369
#     4   9  22  40  61  90 120 157 208 257 305 373
#
# _framework density 20.683941999999998
#
# number of rings (size 3 to 8) (size 9 to 14) (size 15 to 20)
#    0.000    1.500    2.500    1.500    5.250    4.000 
#    0.000    2.500    0.000    0.000    0.000    0.000 
#    0.000    0.000    0.000    0.000    0.000    0.000 
#
# Total GULP energy -793436.785017 kJ/mol
# GULP energy per Si atom -12397.449766 kJ/mol
# Density = 2.063686 g / cm^3
# Si number density = 20.683942 Si / 1000 Ang^3
#
#
#
# Elastic Constant Matrix: (Units=GPa)
#
#
# Indices 1 2 3 4 5 6 
#
# 1 92.6931 21.6477 41.8208 0.0000 0.0000 0.0000
# 2 21.6477 96.9623 22.1170 0.0000 0.0000 0.0000
# 3 41.8208 22.1170 109.8907 0.0000 0.0000 0.0000
# 4 0.0000 0.0000 0.0000 14.5450 0.0000 0.0000
# 5 0.0000 0.0000 0.0000 0.0000 35.5832 0.0000
# 6 0.0000 0.0000 0.0000 0.0000 0.0000 28.1846
#
#
#
# Elastic Compliance Matrix: (Units=1/GPa)
#
#
# Indices 1 2 3 4 5 6 
#
# 1 0.013354 -0.001910 -0.004698 0.000000 0.000000 0.000000
# 2 -0.001910 0.011083 -0.001504 0.000000 0.000000 0.000000
# 3 -0.004698 -0.001504 0.011190 0.000000 0.000000 0.000000
# 4 0.000000 0.000000 0.000000 0.068752 0.000000 0.000000
# 5 0.000000 0.000000 0.000000 0.000000 0.028103 0.000000
# 6 0.000000 0.000000 0.000000 0.000000 0.000000 0.035480
#
#
# Mechanical properties :
#
#
# Convention : Reuss Voigt Hill
#
# Bulk Modulus (GPa) = 51.53455 52.30187 51.91821
# Shear Modulus (GPa) = 26.22564 29.92660 28.07612
#
# Velocity S-wave (km/s) = 3.56465 3.80788 3.68827
# Velocity P-wave (km/s) = 6.47392 6.68389 6.57974
#
# Compressibility (1/GPa) = 0.01940446
#
# Stress axis : x y z
#
# Youngs Moduli (GPa) = 74.88528 90.23096 89.36265
#
# Poissons Ratio (x) = 0.17233 0.41979
# Poissons Ratio (y) = 0.14302 0.13438
# Poissons Ratio (z) = 0.35178 0.13568
#
# Static dielectric constant tensor:
#      x y z
#    x 4.746780 0.000000 0.000000 
#    y 0.000000 4.079260 0.000000 
#    z 0.000000 0.000000 3.305860 
# 
# 
# High freq. dielectric constant tensor:
#      x y z
#    x 1.815080 0.000000 0.000000 
#    y 0.000000 1.818850 0.000000 
#    z 0.000000 0.000000 1.802250 
# 
# From -- ./inp_files/20649.got.cif
#   From: 2010.03.12/outbox.cif.g09.slc.cpg/sg56_11_cif.got.tgz:20649.got - 2010.04.16 15:33:40.
