data_PCOD8228760
_publ_section_title
;
Structure prediction by ZEFSAII (Michael W. Deem and Ramdas Pophale) SiO2 
 PCOD8228760
Probable space group: P C C N
;
_chemical_formula_sum "Si O2"
_cell_formula_units_Z 48
_cell_length_a 9.182249
_cell_length_b 27.060709
_cell_length_c 9.080752
_cell_angle_alpha 90.000000
_cell_angle_beta 90.000000
_cell_angle_gamma 90.000000
_cell_volume 2256.368622
_symmetry_space_group_name_H-M "P C C N"
_symmetry_group_IT_number 56
_symmetry_cell_setting 'orthorhombic'
loop_
_space_group_symop_operation_xyz
x,y,z
1/2-x,1/2-y,z
1/2+x,-y,1/2-z
-x,1/2+y,1/2-z
-x,-y,-z
1/2+x,1/2+y,-z
1/2-x,y,1/2+z
x,1/2-y,1/2+z
loop_
_atom_site_type_symbol
_atom_site_label
_atom_site_fract_x
_atom_site_fract_y
_atom_site_fract_z
Si Si1 0.670279 0.056889 0.387047
Si Si2 0.308314 0.695597 0.888301
Si Si3 0.356535 0.002564 0.901762
Si Si4 0.940694 0.865939 0.003448
Si Si5 0.622959 0.143432 0.898146
Si Si6 0.820276 0.614055 0.187670
O O1 0.718934 0.015720 0.504016
O O2 0.613085 0.032251 0.237938
O O3 0.542505 0.087692 0.462556
O O4 0.808674 0.091406 0.346484
O O5 0.250000 0.750000 0.919131
O O6 0.458432 0.682812 0.977446
O O7 0.330933 0.686494 0.715878
O O8 0.181619 0.658285 0.941705
O O9 0.311681 0.056436 0.847857
O O10 0.500000 0.000000 0.000000
O O11 0.844446 0.877789 0.860102
O O12 0.828488 0.858242 0.138287
O O13 0.450270 0.138436 0.905999
#
# Coordination Sequence:
#
# PCOD8228760 Si02
#       6
#     8   8   8   8   8   8
#     4  11  24  42  59  90 125 176 227 259 311 370
#     4  10  21  41  67  93 116 158 206 259 322 399
#     4  12  25  37  62  89 129 180 227 269 301 372
#     4  10  25  41  64  90 132 166 212 271 322 389
#     4  10  21  39  63  89 124 157 207 259 316 384
#     4  11  23  39  58  93 128 171 210 262 326 362
#
# _framework density 21.273121
#
# number of rings (size 3 to 8) (size 9 to 14) (size 15 to 20)
#    0.000    1.333    1.667    4.500    4.667    2.667 
#    0.000    0.833    0.000    4.000    0.000    0.000 
#    0.000    0.000    0.000    0.000    0.000    0.000 
#
# Total GULP energy -595279.568729 kJ/mol
# GULP energy per Si atom -12401.657682 kJ/mol
# Density = 2.122470 g / cm^3
# Si number density = 21.273121 Si / 1000 Ang^3
#
#
#
# Elastic Constant Matrix: (Units=GPa)
#
#
# Indices 1 2 3 4 5 6 
#
# 1 118.1179 36.9843 46.2166 0.0000 0.0000 0.0000
# 2 36.9843 109.0253 36.0330 0.0000 0.0000 0.0000
# 3 46.2166 36.0330 86.5602 0.0000 0.0000 0.0000
# 4 0.0000 0.0000 0.0000 27.9859 0.0000 0.0000
# 5 0.0000 0.0000 0.0000 0.0000 45.2971 0.0000
# 6 0.0000 0.0000 0.0000 0.0000 0.0000 24.0201
#
#
#
# Elastic Compliance Matrix: (Units=1/GPa)
#
#
# Indices 1 2 3 4 5 6 
#
# 1 0.011100 -0.002095 -0.005054 0.000000 0.000000 0.000000
# 2 -0.002095 0.011031 -0.003473 0.000000 0.000000 0.000000
# 3 -0.005054 -0.003473 0.015697 0.000000 0.000000 0.000000
# 4 0.000000 0.000000 0.000000 0.035732 0.000000 0.000000
# 5 0.000000 0.000000 0.000000 0.000000 0.022076 0.000000
# 6 0.000000 0.000000 0.000000 0.000000 0.000000 0.041632
#
#
# Mechanical properties :
#
#
# Convention : Reuss Voigt Hill
#
# Bulk Modulus (GPa) = 60.30452 61.35234 60.82843
# Shear Modulus (GPa) = 30.48023 32.42526 31.45274
#
# Velocity S-wave (km/s) = 3.78935 3.90838 3.84932
# Velocity P-wave (km/s) = 6.89600 7.01927 6.95791
#
# Compressibility (1/GPa) = 0.01658251
#
# Stress axis : x y z
#
# Youngs Moduli (GPa) = 90.09265 90.65561 63.70565
#
# Poissons Ratio (x) = 0.18991 0.32199
# Poissons Ratio (y) = 0.18873 0.22127
# Poissons Ratio (z) = 0.45536 0.31488
#
# Static dielectric constant tensor:
#      x y z
#    x 3.958460 0.000000 0.000000 
#    y 0.000000 3.655010 0.000000 
#    z 0.000000 0.000000 3.914440 
# 
# 
# High freq. dielectric constant tensor:
#      x y z
#    x 1.840220 0.000000 0.000000 
#    y 0.000000 1.813290 0.000000 
#    z 0.000000 0.000000 1.843670 
# 
# From -- ./inp_files/2254.got.cif
#   From: 2010.03.12/outbox.cif.g09.slc.cpg/sg56_2_cif.got.tgz:2254.got - 2010.04.16 15:33:40.
