data_PCOD8228966
_publ_section_title
;
Structure prediction by ZEFSAII (Michael W. Deem and Ramdas Pophale) SiO2 
 PCOD8228966
Probable space group: P C C N
;
_chemical_formula_sum "Si O2"
_cell_formula_units_Z 32
_cell_length_a 16.742811
_cell_length_b 8.777236
_cell_length_c 9.438644
_cell_angle_alpha 90.000000
_cell_angle_beta 90.000000
_cell_angle_gamma 90.000000
_cell_volume 1387.061625
_symmetry_space_group_name_H-M "P C C N"
_symmetry_group_IT_number 56
_symmetry_cell_setting 'orthorhombic'
loop_
_space_group_symop_operation_xyz
x,y,z
1/2-x,1/2-y,z
1/2+x,-y,1/2-z
-x,1/2+y,1/2-z
-x,-y,-z
1/2+x,1/2+y,-z
1/2-x,y,1/2+z
x,1/2-y,1/2+z
loop_
_atom_site_type_symbol
_atom_site_label
_atom_site_fract_x
_atom_site_fract_y
_atom_site_fract_z
Si Si1 0.319037 0.058902 0.713523
Si Si2 0.750000 0.250000 0.708797
Si Si3 0.578186 0.170388 0.605577
Si Si4 0.977923 0.410083 0.308143
Si Si5 0.750000 0.750000 0.535180
O O1 0.298374 0.139077 0.861602
O O2 0.305815 0.152880 0.569587
O O3 0.271698 0.897886 0.696978
O O4 0.413260 0.039558 0.725899
O O5 0.671856 0.209819 0.615292
O O6 0.551944 0.183306 0.444240
O O7 0.519226 0.289987 0.681840
O O8 0.561869 0.998534 0.666821
#
# Coordination Sequence:
#
# PCOD8228966 Si02
#       5
#     8   4   8   8   4
#     4  10  22  39  62  90 126 168 216 270 324 385
#     4  10  22  42  66  92 126 172 222 266 314 382
#     4  10  23  41  63  92 126 165 213 262 320 381
#     4  10  23  41  62  91 125 164 211 265 322 384
#     4  10  22  38  60  92 128 168 214 268 330 384
#
# _framework density 23.070353999999998
#
# number of rings (size 3 to 8) (size 9 to 14) (size 15 to 20)
#    0.000    2.000    0.000    1.500    0.000   22.000 
#    0.000    0.000    0.000    0.000    0.000    0.000 
#    0.000    0.000    0.000    0.000    0.000    0.000 
#
# Total GULP energy -396614.748975 kJ/mol
# GULP energy per Si atom -12394.210905 kJ/mol
# Density = 2.301784 g / cm^3
# Si number density = 23.070354 Si / 1000 Ang^3
#
#
#
# Elastic Constant Matrix: (Units=GPa)
#
#
# Indices 1 2 3 4 5 6 
#
# 1 89.2888 42.9896 30.0534 0.0000 0.0000 0.0000
# 2 42.9896 117.8010 50.8841 0.0000 0.0000 0.0000
# 3 30.0534 50.8841 114.1177 0.0000 0.0000 0.0000
# 4 0.0000 0.0000 0.0000 17.1368 0.0000 0.0000
# 5 0.0000 0.0000 0.0000 0.0000 19.9857 0.0000
# 6 0.0000 0.0000 0.0000 0.0000 0.0000 47.2059
#
#
#
# Elastic Compliance Matrix: (Units=1/GPa)
#
#
# Indices 1 2 3 4 5 6 
#
# 1 0.013856 -0.004311 -0.001727 0.000000 0.000000 0.000000
# 2 -0.004311 0.011855 -0.004151 0.000000 0.000000 0.000000
# 3 -0.001727 -0.004151 0.011069 0.000000 0.000000 0.000000
# 4 0.000000 0.000000 0.000000 0.058354 0.000000 0.000000
# 5 0.000000 0.000000 0.000000 0.000000 0.050036 0.000000
# 6 0.000000 0.000000 0.000000 0.000000 0.000000 0.021184
#
#
# Mechanical properties :
#
#
# Convention : Reuss Voigt Hill
#
# Bulk Modulus (GPa) = 60.96516 63.22910 62.09713
# Shear Modulus (GPa) = 26.01484 30.01770 28.01627
#
# Velocity S-wave (km/s) = 3.36166 3.61104 3.48858
# Velocity P-wave (km/s) = 6.44599 6.69722 6.57281
#
# Compressibility (1/GPa) = 0.01640281
#
# Stress axis : x y z
#
# Youngs Moduli (GPa) = 72.16902 84.35309 90.34644
#
# Poissons Ratio (x) = 0.36362 0.15603
# Poissons Ratio (y) = 0.31110 0.37501
# Poissons Ratio (z) = 0.12464 0.35013
#
# Static dielectric constant tensor:
#      x y z
#    x 4.109490 0.000000 0.000000 
#    y 0.000000 4.550460 0.000000 
#    z 0.000000 0.000000 4.070200 
# 
# 
# High freq. dielectric constant tensor:
#      x y z
#    x 1.904990 0.000000 0.000000 
#    y 0.000000 1.924420 0.000000 
#    z 0.000000 0.000000 1.912290 
# 
# From -- ./inp_files/1943.got.cif
#   From: 2010.03.12/outbox.cif.g09.slc.cpg/sg56_1_cif.got.tgz:1943.got - 2010.04.16 15:33:40.
