data_PCOD8228967
_publ_section_title
;
Structure prediction by ZEFSAII (Michael W. Deem and Ramdas Pophale) SiO2 
 PCOD8228967
Probable space group: P C C N
;
_chemical_formula_sum "Si O2"
_cell_formula_units_Z 64
_cell_length_a 22.817388
_cell_length_b 17.155742
_cell_length_c 7.681027
_cell_angle_alpha 90.000000
_cell_angle_beta 90.000000
_cell_angle_gamma 90.000000
_cell_volume 3006.732041
_symmetry_space_group_name_H-M "P C C N"
_symmetry_group_IT_number 56
_symmetry_cell_setting 'orthorhombic'
loop_
_space_group_symop_operation_xyz
x,y,z
1/2-x,1/2-y,z
1/2+x,-y,1/2-z
-x,1/2+y,1/2-z
-x,-y,-z
1/2+x,1/2+y,-z
1/2-x,y,1/2+z
x,1/2-y,1/2+z
loop_
_atom_site_type_symbol
_atom_site_label
_atom_site_fract_x
_atom_site_fract_y
_atom_site_fract_z
Si Si1 0.960236 0.566073 0.923497
Si Si2 0.618510 0.841471 0.154312
Si Si3 0.732324 0.662876 0.855111
Si Si4 0.168413 0.414519 0.328412
Si Si5 0.934943 0.173021 0.943972
Si Si6 0.572202 0.681567 0.031040
Si Si7 0.427152 0.844841 0.938108
Si Si8 0.602878 0.054201 0.739400
O O1 0.940249 0.521276 0.746766
O O2 0.002327 0.642107 0.920555
O O3 0.901620 0.583929 0.038762
O O4 0.000000 0.500000 0.000000
O O5 0.689162 0.836501 0.185011
O O6 0.598451 0.767520 0.043098
O O7 0.583093 0.847937 0.335357
O O8 0.750000 0.750000 0.913776
O O9 0.792409 0.616742 0.828311
O O10 0.697141 0.613461 0.994055
O O11 0.105049 0.370598 0.321990
O O12 0.163559 0.509368 0.313319
O O13 0.904230 0.147431 0.761665
O O14 0.004507 0.174882 0.922269
O O15 0.913293 0.258559 0.994864
O O16 0.916193 0.113390 0.092121
O O17 0.394359 0.903711 0.070986
#
# Coordination Sequence:
#
# PCOD8228967 Si02
#       8
#     8   8   8   8   8   8   8   8
#     4  10  22  38  60  96 139 179 219 277 338 408
#     4  11  23  36  63  92 135 185 232 274 337 401
#     4  11  24  43  67  97 131 184 238 281 331 404
#     4  11  26  41  63  93 135 174 225 293 335 389
#     4  12  22  41  68  99 134 181 231 273 340 424
#     4  11  22  36  63  96 132 182 230 274 326 412
#     4  11  22  39  68  93 134 178 221 272 336 416
#     4  11  26  43  62  98 139 179 228 285 347 409
#
# _framework density 21.285568000000001
#
# number of rings (size 3 to 8) (size 9 to 14) (size 15 to 20)
#    0.000    1.000    3.750    3.375    5.250    6.000 
#    0.000    0.000    0.000    0.000    0.000    2.625 
#    0.000    0.000    0.000    0.000    0.000    0.000 
#
# Total GULP energy -792865.391468 kJ/mol
# GULP energy per Si atom -12388.521742 kJ/mol
# Density = 2.123712 g / cm^3
# Si number density = 21.285568 Si / 1000 Ang^3
#
#
#
# Elastic Constant Matrix: (Units=GPa)
#
#
# Indices 1 2 3 4 5 6 
#
# 1 46.7632 60.1896 15.9446 0.0000 0.0000 0.0000
# 2 60.1896 151.0605 68.4909 0.0000 0.0000 0.0000
# 3 15.9446 68.4909 111.5766 0.0000 0.0000 0.0000
# 4 0.0000 0.0000 0.0000 46.4477 0.0000 0.0000
# 5 0.0000 0.0000 0.0000 0.0000 19.0400 0.0000
# 6 0.0000 0.0000 0.0000 0.0000 0.0000 39.3428
#
#
#
# Elastic Compliance Matrix: (Units=1/GPa)
#
#
# Indices 1 2 3 4 5 6 
#
# 1 0.047209 -0.021826 0.006652 0.000000 0.000000 0.000000
# 2 -0.021826 0.019264 -0.008706 0.000000 0.000000 0.000000
# 3 0.006652 -0.008706 0.013356 0.000000 0.000000 0.000000
# 4 0.000000 0.000000 0.000000 0.021530 0.000000 0.000000
# 5 0.000000 0.000000 0.000000 0.000000 0.052521 0.000000
# 6 0.000000 0.000000 0.000000 0.000000 0.000000 0.025418
#
#
# Mechanical properties :
#
#
# Convention : Reuss Voigt Hill
#
# Bulk Modulus (GPa) = 31.18389 66.51673 48.85031
# Shear Modulus (GPa) = 21.03073 31.95113 26.49093
#
# Velocity S-wave (km/s) = 3.14670 3.87857 3.53164
# Velocity P-wave (km/s) = 5.28056 7.16765 6.29522
#
# Compressibility (1/GPa) = 0.03206784
#
# Stress axis : x y z
#
# Youngs Moduli (GPa) = 21.18233 51.91105 74.87256
#
# Poissons Ratio (x) = 1.13302 -0.49802
# Poissons Ratio (y) = 0.46233 0.65184
# Poissons Ratio (z) = -0.14090 0.45193
#
# Static dielectric constant tensor:
#      x y z
#    x 3.875340 0.000000 0.000000 
#    y 0.000000 4.125970 0.000000 
#    z 0.000000 0.000000 4.117330 
# 
# 
# High freq. dielectric constant tensor:
#      x y z
#    x 1.796870 0.000000 0.000000 
#    y 0.000000 1.838720 0.000000 
#    z 0.000000 0.000000 1.856650 
# 
# From -- ./inp_files/4858.got.cif
#   From: 2010.03.12/outbox.cif.g09.slc.cpg/sg56_3_cif.got.tgz:4858.got - 2010.04.16 15:33:40.
