data_PCOD8228008
_publ_section_title
;
Structure prediction by ZEFSAII (Michael W. Deem and Ramdas Pophale) SiO2 
 PCOD8228008
Probable space group: P C C N
;
_chemical_formula_sum "Si O2"
_cell_formula_units_Z 52
_cell_length_a 10.933483
_cell_length_b 30.151397
_cell_length_c 8.891076
_cell_angle_alpha 90.000000
_cell_angle_beta 90.000000
_cell_angle_gamma 90.000000
_cell_volume 2931.030216
_symmetry_space_group_name_H-M "P C C N"
_symmetry_group_IT_number 56
_symmetry_cell_setting 'orthorhombic'
loop_
_space_group_symop_operation_xyz
x,y,z
1/2-x,1/2-y,z
1/2+x,-y,1/2-z
-x,1/2+y,1/2-z
-x,-y,-z
1/2+x,1/2+y,-z
1/2-x,y,1/2+z
x,1/2-y,1/2+z
loop_
_atom_site_type_symbol
_atom_site_label
_atom_site_fract_x
_atom_site_fract_y
_atom_site_fract_z
Si Si1 0.617471 0.048935 0.911392
Si Si2 0.366754 0.306863 0.868896
Si Si3 0.414712 0.636692 0.100704
Si Si4 0.750000 0.750000 0.876820
Si Si5 0.651727 0.596243 0.181732
Si Si6 0.347851 0.049541 0.010680
Si Si7 0.259782 0.602778 0.842150
O O1 0.470822 0.051168 0.911678
O O2 0.667614 0.076601 0.051212
O O3 0.662188 0.067851 0.753262
O O4 0.668522 0.999166 0.920490
O O5 0.512059 0.316745 0.887111
O O6 0.319053 0.285960 0.022914
O O7 0.349274 0.274098 0.728564
O O8 0.295371 0.353513 0.838598
O O9 0.351219 0.633178 0.938752
O O10 0.511671 0.595720 0.119129
O O11 0.315312 0.635234 0.233263
O O12 0.648547 0.585518 0.357587
O O13 0.733410 0.560439 0.095539
#
# Coordination Sequence:
#
# PCOD8228008 Si02
#       7
#     8   8   8   4   8   8   8
#     4  10  21  34  51  76 107 154 187 230 282 307
#     4   9  20  34  57  87 108 145 169 216 282 330
#     4   9  21  36  59  79 105 143 195 220 273 328
#     4  10  18  36  60  86 124 128 162 228 280 342
#     4  10  21  36  53  83 108 139 187 227 269 338
#     4  11  21  34  51  78 115 141 187 239 275 316
#     4  10  19  39  54  73 108 151 195 229 260 323
#
# _framework density 17.741202000000001
#
# number of rings (size 3 to 8) (size 9 to 14) (size 15 to 20)
#    0.923    1.231    1.538    1.846    2.154    0.000 
#    0.000    6.923    0.000    2.769    0.000    0.000 
#    0.000    0.000    0.000    0.000    0.000    0.000 
#
# Total GULP energy -644655.007753 kJ/mol
# GULP energy per Si atom -12397.211688 kJ/mol
# Density = 1.770082 g / cm^3
# Si number density = 17.741202 Si / 1000 Ang^3
#
#
#
# Elastic Constant Matrix: (Units=GPa)
#
#
# Indices 1 2 3 4 5 6 
#
# 1 73.5811 22.4518 20.1182 0.0000 0.0000 0.0000
# 2 22.4518 79.4581 25.4619 0.0000 0.0000 0.0000
# 3 20.1182 25.4619 76.5216 0.0000 0.0000 0.0000
# 4 0.0000 0.0000 0.0000 17.6911 0.0000 0.0000
# 5 0.0000 0.0000 0.0000 0.0000 22.9754 0.0000
# 6 0.0000 0.0000 0.0000 0.0000 0.0000 25.9599
#
#
#
# Elastic Compliance Matrix: (Units=1/GPa)
#
#
# Indices 1 2 3 4 5 6 
#
# 1 0.015434 -0.003426 -0.002918 0.000000 0.000000 0.000000
# 2 -0.003426 0.014848 -0.004040 0.000000 0.000000 0.000000
# 3 -0.002918 -0.004040 0.015179 0.000000 0.000000 0.000000
# 4 0.000000 0.000000 0.000000 0.056526 0.000000 0.000000
# 5 0.000000 0.000000 0.000000 0.000000 0.043525 0.000000
# 6 0.000000 0.000000 0.000000 0.000000 0.000000 0.038521
#
#
# Mechanical properties :
#
#
# Convention : Reuss Voigt Hill
#
# Bulk Modulus (GPa) = 40.49558 40.62496 40.56027
# Shear Modulus (GPa) = 23.47082 24.09386 23.78234
#
# Velocity S-wave (km/s) = 3.64119 3.68920 3.66528
# Velocity P-wave (km/s) = 6.36812 6.41056 6.38938
#
# Compressibility (1/GPa) = 0.02469405
#
# Stress axis : x y z
#
# Youngs Moduli (GPa) = 64.79396 67.34995 65.87844
#
# Poissons Ratio (x) = 0.23074 0.19221
# Poissons Ratio (y) = 0.22198 0.26613
# Poissons Ratio (z) = 0.18905 0.27208
#
# Static dielectric constant tensor:
#      x y z
#    x 3.239000 0.000000 0.000000 
#    y 0.000000 3.105250 0.000000 
#    z 0.000000 0.000000 3.257410 
# 
# 
# High freq. dielectric constant tensor:
#      x y z
#    x 1.682300 0.000000 0.000000 
#    y 0.000000 1.667510 0.000000 
#    z 0.000000 0.000000 1.697330 
# 
# From -- ./inp_files/2928.got.cif
#   From: 2010.03.12/outbox.cif.g09.slc.cpg/sg56_2_cif.got.tgz:2928.got - 2010.04.16 15:33:40.
