data_PCOD8228062
_publ_section_title
;
Structure prediction by ZEFSAII (Michael W. Deem and Ramdas Pophale) SiO2 
 PCOD8228062
Probable space group: P C C N
;
_chemical_formula_sum "Si O2"
_cell_formula_units_Z 52
_cell_length_a 14.091540
_cell_length_b 20.642152
_cell_length_c 9.297155
_cell_angle_alpha 90.000000
_cell_angle_beta 90.000000
_cell_angle_gamma 90.000000
_cell_volume 2704.353756
_symmetry_space_group_name_H-M "P C C N"
_symmetry_group_IT_number 56
_symmetry_cell_setting 'orthorhombic'
loop_
_space_group_symop_operation_xyz
x,y,z
1/2-x,1/2-y,z
1/2+x,-y,1/2-z
-x,1/2+y,1/2-z
-x,-y,-z
1/2+x,1/2+y,-z
1/2-x,y,1/2+z
x,1/2-y,1/2+z
loop_
_atom_site_type_symbol
_atom_site_label
_atom_site_fract_x
_atom_site_fract_y
_atom_site_fract_z
Si Si1 0.831419 0.429197 0.042594
Si Si2 0.981028 0.399995 0.240678
Si Si3 0.250000 0.250000 0.988125
Si Si4 0.332584 0.449920 0.256597
Si Si5 0.178248 0.164557 0.740443
Si Si6 0.867529 0.050753 0.986709
Si Si7 0.537185 0.460319 0.286741
O O1 0.887771 0.379344 0.147637
O O2 0.813093 0.500387 0.113142
O O3 0.724872 0.403646 0.012549
O O4 0.887008 0.429782 0.892353
O O5 0.948274 0.408236 0.404952
O O6 0.068561 0.353021 0.231462
O O7 0.007551 0.467842 0.161904
O O8 0.183109 0.208754 0.882360
O O9 0.307542 0.202059 0.091271
O O10 0.251654 0.395093 0.253222
O O11 0.333811 0.488352 0.105459
O O12 0.438687 0.418624 0.277798
O O13 0.914152 0.027954 0.133651
#
# Coordination Sequence:
#
# PCOD8228062 Si02
#       7
#     8   8   4   8   8   8   8
#     4  10  19  32  48  87 117 150 182 221 260 374
#     4  10  20  33  55  76 116 150 181 221 294 329
#     4  10  28  42  60  82 110 138 224 234 280 332
#     4  10  21  31  55  74 120 157 181 220 294 323
#     4  11  24  43  60  82 112 154 188 253 286 322
#     4  10  19  32  48  87 117 150 182 221 260 374
#     4  10  19  29  48  88 106 156 193 210 261 379
#
# _framework density 19.228252999999999
#
# number of rings (size 3 to 8) (size 9 to 14) (size 15 to 20)
#    0.000    2.154    0.000    7.385   10.769    0.000 
#    0.000    0.000    0.000    0.000    0.000    3.231 
#    0.000    0.000    0.000    0.000    0.000    0.000 
#
# Total GULP energy -644301.242973 kJ/mol
# GULP energy per Si atom -12390.408519 kJ/mol
# Density = 1.918449 g / cm^3
# Si number density = 19.228253 Si / 1000 Ang^3
#
#
#
# Elastic Constant Matrix: (Units=GPa)
#
#
# Indices 1 2 3 4 5 6 
#
# 1 131.3155 43.3833 17.9397 0.0000 0.0000 0.0000
# 2 43.3833 54.2122 28.8782 0.0000 0.0000 0.0000
# 3 17.9397 28.8782 97.9975 0.0000 0.0000 0.0000
# 4 0.0000 0.0000 0.0000 6.6012 0.0000 0.0000
# 5 0.0000 0.0000 0.0000 0.0000 28.2487 0.0000
# 6 0.0000 0.0000 0.0000 0.0000 0.0000 14.1722
#
#
#
# Elastic Compliance Matrix: (Units=1/GPa)
#
#
# Indices 1 2 3 4 5 6 
#
# 1 0.010387 -0.008658 0.000650 0.000000 0.000000 0.000000
# 2 -0.008658 0.029098 -0.006990 0.000000 0.000000 0.000000
# 3 0.000650 -0.006990 0.012145 0.000000 0.000000 0.000000
# 4 0.000000 0.000000 0.000000 0.151488 0.000000 0.000000
# 5 0.000000 0.000000 0.000000 0.000000 0.035400 0.000000
# 6 0.000000 0.000000 0.000000 0.000000 0.000000 0.070560
#
#
# Mechanical properties :
#
#
# Convention : Reuss Voigt Hill
#
# Bulk Modulus (GPa) = 46.22335 51.54751 48.88543
# Shear Modulus (GPa) = 14.43892 22.69270 18.56581
#
# Velocity S-wave (km/s) = 2.74327 3.43909 3.11070
# Velocity P-wave (km/s) = 5.84170 6.52964 6.19523
#
# Compressibility (1/GPa) = 0.02163409
#
# Stress axis : x y z
#
# Youngs Moduli (GPa) = 96.27445 34.36626 82.33772
#
# Poissons Ratio (x) = 0.29756 -0.05352
# Poissons Ratio (y) = 0.83359 0.57552
# Poissons Ratio (z) = -0.06258 0.24021
#
# Static dielectric constant tensor:
#      x y z
#    x 4.005950 0.000000 0.000000 
#    y 0.000000 2.979050 0.000000 
#    z 0.000000 0.000000 3.730950 
# 
# 
# High freq. dielectric constant tensor:
#      x y z
#    x 1.774870 0.000000 0.000000 
#    y 0.000000 1.660210 0.000000 
#    z 0.000000 0.000000 1.775590 
# 
# From -- ./inp_files/3517.got.cif
#   From: 2010.03.12/outbox.cif.g09.slc.cpg/sg56_2_cif.got.tgz:3517.got - 2010.04.16 15:33:40.
