data_PCOD8228859
_publ_section_title
;
Structure prediction by ZEFSAII (Michael W. Deem and Ramdas Pophale) SiO2 
 PCOD8228859
Probable space group: P C C N
;
_chemical_formula_sum "Si O2"
_cell_formula_units_Z 56
_cell_length_a 30.174957
_cell_length_b 6.342106
_cell_length_c 13.506605
_cell_angle_alpha 90.000000
_cell_angle_beta 90.000000
_cell_angle_gamma 90.000000
_cell_volume 2584.796491
_symmetry_space_group_name_H-M "P C C N"
_symmetry_group_IT_number 56
_symmetry_cell_setting 'orthorhombic'
loop_
_space_group_symop_operation_xyz
x,y,z
1/2-x,1/2-y,z
1/2+x,-y,1/2-z
-x,1/2+y,1/2-z
-x,-y,-z
1/2+x,1/2+y,-z
1/2-x,y,1/2+z
x,1/2-y,1/2+z
loop_
_atom_site_type_symbol
_atom_site_label
_atom_site_fract_x
_atom_site_fract_y
_atom_site_fract_z
Si Si1 0.068007 0.994442 0.069145
Si Si2 0.155812 0.702892 0.562593
Si Si3 0.832894 0.378401 0.139234
Si Si4 0.641403 0.497688 0.260983
Si Si5 0.204967 0.373045 0.694358
Si Si6 0.513465 0.803083 0.062477
Si Si7 0.585062 0.646355 0.713027
O O1 0.113025 0.913665 0.015531
O O2 0.030874 0.820167 0.088163
O O3 0.082878 0.078884 0.174346
O O4 0.049468 0.174448 0.999156
O O5 0.177857 0.852647 0.477941
O O6 0.192715 0.543402 0.608402
O O7 0.132750 0.844263 0.647148
O O8 0.794256 0.505219 0.198848
O O9 0.879449 0.498641 0.156105
O O10 0.833637 0.137472 0.177745
O O11 0.668324 0.695391 0.302084
O O12 0.597603 0.603380 0.213121
O O13 0.250000 0.250000 0.670654
O O14 0.537067 0.878472 0.163252
O O15 0.500000 0.000000 0.000000
#
# Coordination Sequence:
#
# PCOD8228859 Si02
#       7
#     8   8   8   8   8   8   8
#     4  11  24  42  59  97 126 172 233 278 344 404
#     4  11  22  42  70  97 129 176 229 269 339 411
#     4  10  22  40  67  97 125 175 221 274 330 408
#     4  10  21  41  66  93 129 176 210 275 334 401
#     4  10  23  44  66 101 138 172 216 277 335 406
#     4  11  27  40  61  90 134 176 224 295 332 410
#     4  11  23  40  64  93 127 177 226 281 346 392
#
# _framework density 21.665147000000001
#
# number of rings (size 3 to 8) (size 9 to 14) (size 15 to 20)
#    0.000    1.429    4.286    1.714    6.000    5.714 
#    0.000    4.286    0.000    0.000    0.000    0.000 
#    0.000    0.000    0.000    0.000    0.000    0.000 
#
# Total GULP energy -694134.276888 kJ/mol
# GULP energy per Si atom -12395.254944 kJ/mol
# Density = 2.161584 g / cm^3
# Si number density = 21.665147 Si / 1000 Ang^3
#
#
#
# Elastic Constant Matrix: (Units=GPa)
#
#
# Indices 1 2 3 4 5 6 
#
# 1 91.0214 36.7592 33.1701 0.0000 0.0000 0.0000
# 2 36.7592 95.3383 14.0667 0.0000 0.0000 0.0000
# 3 33.1701 14.0667 73.1842 0.0000 0.0000 0.0000
# 4 0.0000 0.0000 0.0000 89.8176 0.0000 0.0000
# 5 0.0000 0.0000 0.0000 0.0000 27.7059 0.0000
# 6 0.0000 0.0000 0.0000 0.0000 0.0000 -11.6379
#
#
#
# Elastic Compliance Matrix: (Units=1/GPa)
#
#
# Indices 1 2 3 4 5 6 
#
# 1 0.015147 -0.004968 -0.005910 0.000000 0.000000 0.000000
# 2 -0.004968 0.012425 -0.000136 0.000000 0.000000 0.000000
# 3 -0.005910 -0.000136 0.016369 0.000000 0.000000 0.000000
# 4 0.000000 0.000000 0.000000 0.011134 0.000000 0.000000
# 5 0.000000 0.000000 0.000000 0.000000 0.036093 0.000000
# 6 0.000000 0.000000 0.000000 0.000000 0.000000 -0.085926
#
#
# Mechanical properties :
#
#
# Convention : Reuss Voigt Hill
#
# Bulk Modulus (GPa) = 45.63895 47.50400 46.57147
# Shear Modulus (GPa) = 144.61771 32.88033 88.74902
#
# Velocity S-wave (km/s) = 8.17901 3.89994 6.40725
# Velocity P-wave (km/s) = 10.50268 6.50027 8.73384
#
# Compressibility (1/GPa) = 0.02191111
#
# Stress axis : x y z
#
# Youngs Moduli (GPa) = 66.02176 80.48565 61.09078
#
# Poissons Ratio (x) = 0.39985 0.36105
# Poissons Ratio (y) = 0.32799 0.00833
# Poissons Ratio (z) = 0.39020 0.01098
#
# Static dielectric constant tensor:
#      x y z
#    x 3.629270 0.000000 0.000000 
#    y 0.000000 4.512660 0.000000 
#    z 0.000000 0.000000 3.911450 
# 
# 
# High freq. dielectric constant tensor:
#      x y z
#    x 1.832760 0.000000 0.000000 
#    y 0.000000 1.868810 0.000000 
#    z 0.000000 0.000000 1.850930 
# 
# From -- ./inp_files/13467.got.cif
#   From: 2010.03.12/outbox.cif.g09.slc.cpg/sg56_7_cif.got.tgz:13467.got - 2010.04.16 15:33:40.
