data_PCOD8228893
_publ_section_title
;
Structure prediction by ZEFSAII (Michael W. Deem and Ramdas Pophale) SiO2 
 PCOD8228893
Probable space group: P C C N
;
_chemical_formula_sum "Si O2"
_cell_formula_units_Z 48
_cell_length_a 7.964445
_cell_length_b 23.567710
_cell_length_c 11.272336
_cell_angle_alpha 90.000000
_cell_angle_beta 90.000000
_cell_angle_gamma 90.000000
_cell_volume 2115.859514
_symmetry_space_group_name_H-M "P C C N"
_symmetry_group_IT_number 56
_symmetry_cell_setting 'orthorhombic'
loop_
_space_group_symop_operation_xyz
x,y,z
1/2-x,1/2-y,z
1/2+x,-y,1/2-z
-x,1/2+y,1/2-z
-x,-y,-z
1/2+x,1/2+y,-z
1/2-x,y,1/2+z
x,1/2-y,1/2+z
loop_
_atom_site_type_symbol
_atom_site_label
_atom_site_fract_x
_atom_site_fract_y
_atom_site_fract_z
Si Si1 0.433099 0.804918 0.190149
Si Si2 0.405017 0.624874 0.923727
Si Si3 0.054186 0.038428 0.244423
Si Si4 0.421191 0.076212 0.209985
Si Si5 0.457158 0.901676 0.031736
Si Si6 0.455015 0.680757 0.155871
O O1 0.427890 0.826681 0.324675
O O2 0.531694 0.845854 0.098494
O O3 0.526507 0.743995 0.180616
O O4 0.242168 0.807906 0.147313
O O5 0.480092 0.565914 0.875247
O O6 0.216348 0.610519 0.963183
O O7 0.511189 0.650486 0.033521
O O8 0.241034 0.061659 0.264535
O O9 0.940048 0.052773 0.360914
O O10 0.051690 0.969971 0.235545
O O11 0.485100 0.139297 0.240289
O O12 0.412950 0.075137 0.066441
#
# Coordination Sequence:
#
# PCOD8228893 Si02
#       6
#     8   8   8   8   8   8
#     4   9  20  39  68 101 130 169 229 274 332 401
#     4  10  21  42  68  96 137 171 225 279 334 406
#     4  11  27  43  67 100 136 181 229 282 341 415
#     4  12  25  43  68  96 138 180 230 283 346 398
#     4  10  22  44  67  96 135 178 225 281 336 407
#     4  10  22  36  68 101 129 175 220 276 337 399
#
# _framework density 22.685817
#
# number of rings (size 3 to 8) (size 9 to 14) (size 15 to 20)
#    0.000    1.667    1.667    1.500    9.333    2.000 
#    0.000    3.333    0.000    0.000    0.000    0.000 
#    0.000    0.000    0.000    0.000    0.000    0.000 
#
# Total GULP energy -594816.202401 kJ/mol
# GULP energy per Si atom -12392.004217 kJ/mol
# Density = 2.263418 g / cm^3
# Si number density = 22.685817 Si / 1000 Ang^3
#
#
#
# Elastic Constant Matrix: (Units=GPa)
#
#
# Indices 1 2 3 4 5 6 
#
# 1 57.1479 35.1783 25.8136 0.0000 0.0000 0.0000
# 2 35.1783 123.2549 -2.3907 0.0000 0.0000 0.0000
# 3 25.8136 -2.3907 75.6481 0.0000 0.0000 0.0000
# 4 0.0000 0.0000 0.0000 26.6129 0.0000 0.0000
# 5 0.0000 0.0000 0.0000 0.0000 26.0342 0.0000
# 6 0.0000 0.0000 0.0000 0.0000 0.0000 25.2950
#
#
#
# Elastic Compliance Matrix: (Units=1/GPa)
#
#
# Indices 1 2 3 4 5 6 
#
# 1 0.026440 -0.007726 -0.009266 0.000000 0.000000 0.000000
# 2 -0.007726 0.010376 0.002964 0.000000 0.000000 0.000000
# 3 -0.009266 0.002964 0.016475 0.000000 0.000000 0.000000
# 4 0.000000 0.000000 0.000000 0.037576 0.000000 0.000000
# 5 0.000000 0.000000 0.000000 0.000000 0.038411 0.000000
# 6 0.000000 0.000000 0.000000 0.000000 0.000000 0.039534
#
#
# Mechanical properties :
#
#
# Convention : Reuss Voigt Hill
#
# Bulk Modulus (GPa) = 39.62838 41.47257 40.55048
# Shear Modulus (GPa) = 24.35717 28.75172 26.55445
#
# Velocity S-wave (km/s) = 3.28025 3.56390 3.42501
# Velocity P-wave (km/s) = 5.64385 5.93769 5.79263
#
# Compressibility (1/GPa) = 0.02523444
#
# Stress axis : x y z
#
# Youngs Moduli (GPa) = 37.82169 96.37776 60.69898
#
# Poissons Ratio (x) = 0.74461 0.56245
# Poissons Ratio (y) = 0.29221 -0.17993
# Poissons Ratio (z) = 0.35047 -0.28569
#
# Static dielectric constant tensor:
#      x y z
#    x 3.616940 0.000000 0.000000 
#    y 0.000000 4.631910 0.000000 
#    z 0.000000 0.000000 4.230470 
# 
# 
# High freq. dielectric constant tensor:
#      x y z
#    x 1.855200 0.000000 0.000000 
#    y 0.000000 1.907370 0.000000 
#    z 0.000000 0.000000 1.905860 
# 
# From -- ./inp_files/6414.got.cif
#   From: 2010.03.12/outbox.cif.g09.slc.cpg/sg56_4_cif.got.tgz:6414.got - 2010.04.16 15:33:40.
