data_PCOD8228046
_publ_section_title
;
Structure prediction by ZEFSAII (Michael W. Deem and Ramdas Pophale) SiO2 
 PCOD8228046
Probable space group: P C C N
;
_chemical_formula_sum "Si O2"
_cell_formula_units_Z 60
_cell_length_a 8.164007
_cell_length_b 23.413467
_cell_length_c 17.025986
_cell_angle_alpha 90.000000
_cell_angle_beta 90.000000
_cell_angle_gamma 90.000000
_cell_volume 3254.478209
_symmetry_space_group_name_H-M "P C C N"
_symmetry_group_IT_number 56
_symmetry_cell_setting 'orthorhombic'
loop_
_space_group_symop_operation_xyz
x,y,z
1/2-x,1/2-y,z
1/2+x,-y,1/2-z
-x,1/2+y,1/2-z
-x,-y,-z
1/2+x,1/2+y,-z
1/2-x,y,1/2+z
x,1/2-y,1/2+z
loop_
_atom_site_type_symbol
_atom_site_label
_atom_site_fract_x
_atom_site_fract_y
_atom_site_fract_z
Si Si1 0.171700 0.538969 0.828029
Si Si2 0.567704 0.755658 0.422782
Si Si3 0.384014 0.549494 0.969914
Si Si4 0.750000 0.250000 0.471771
Si Si5 0.604298 0.875829 0.362462
Si Si6 0.849195 0.372606 0.937957
Si Si7 0.536272 0.631804 0.401296
Si Si8 0.041524 0.567191 0.215637
O O1 0.263096 0.519401 0.907549
O O2 0.287225 0.549427 0.753960
O O3 0.085884 0.599496 0.843727
O O4 0.040205 0.491399 0.809670
O O5 0.750000 0.750000 0.464653
O O6 0.415192 0.764750 0.480560
O O7 0.576338 0.807764 0.361573
O O8 0.534349 0.697780 0.373976
O O9 0.479162 0.598676 0.924565
O O10 0.500000 0.500000 0.000000
O O11 0.291411 0.580921 0.041465
O O12 0.719129 0.308245 0.422723
O O13 0.783511 0.894477 0.391735
O O14 0.575499 0.899288 0.275474
O O15 0.934765 0.391823 0.858280
O O16 0.982336 0.372337 0.007791
#
# Coordination Sequence:
#
# PCOD8228046 Si02
#       8
#     8   8   8   4   8   8   8   8
#     4  10  23  39  55  83 117 161 192 244 300 363
#     4   9  18  35  65  89 111 152 209 245 286 358
#     4  10  22  35  60  87 108 154 205 238 293 357
#     4  10  18  40  62  88 126 150 194 264 296 348
#     4  10  20  39  59  86 117 158 195 243 295 363
#     4  10  22  38  60  91 116 154 199 246 305 353
#     4   9  20  38  65  84 110 154 206 245 289 352
#     4  11  24  38  56  85 125 154 195 243 313 357
#
# _framework density 18.436135
#
# number of rings (size 3 to 8) (size 9 to 14) (size 15 to 20)
#    0.000    2.133    1.333    0.800    9.333    1.067 
#    2.400    0.000    0.000    4.000    0.000    0.000 
#    0.000    0.000    0.000    0.000    0.000    0.000 
#
# Total GULP energy -743745.829409 kJ/mol
# GULP energy per Si atom -12395.763823 kJ/mol
# Density = 1.839417 g / cm^3
# Si number density = 18.436135 Si / 1000 Ang^3
#
#
#
# Elastic Constant Matrix: (Units=GPa)
#
#
# Indices 1 2 3 4 5 6 
#
# 1 110.5624 56.5169 42.9248 0.0000 0.0000 0.0000
# 2 56.5169 132.8797 60.5706 0.0000 0.0000 0.0000
# 3 42.9248 60.5706 83.5269 0.0000 0.0000 0.0000
# 4 0.0000 0.0000 0.0000 17.8540 0.0000 0.0000
# 5 0.0000 0.0000 0.0000 0.0000 24.5200 0.0000
# 6 0.0000 0.0000 0.0000 0.0000 0.0000 35.6329
#
#
#
# Elastic Compliance Matrix: (Units=1/GPa)
#
#
# Indices 1 2 3 4 5 6 
#
# 1 0.012307 -0.003513 -0.003777 0.000000 0.000000 0.000000
# 2 -0.003513 0.012244 -0.007074 0.000000 0.000000 0.000000
# 3 -0.003777 -0.007074 0.019043 0.000000 0.000000 0.000000
# 4 0.000000 0.000000 0.000000 0.056010 0.000000 0.000000
# 5 0.000000 0.000000 0.000000 0.000000 0.040783 0.000000
# 6 0.000000 0.000000 0.000000 0.000000 0.000000 0.028064
#
#
# Mechanical properties :
#
#
# Convention : Reuss Voigt Hill
#
# Bulk Modulus (GPa) = 67.26546 71.88815 69.57681
# Shear Modulus (GPa) = 24.73617 26.73184 25.73401
#
# Velocity S-wave (km/s) = 3.66693 3.81198 3.74016
# Velocity P-wave (km/s) = 7.38196 7.64543 7.51485
#
# Compressibility (1/GPa) = 0.01486647
#
# Stress axis : x y z
#
# Youngs Moduli (GPa) = 81.25667 81.67261 52.51265
#
# Poissons Ratio (x) = 0.28688 0.19836
# Poissons Ratio (y) = 0.28541 0.37146
# Poissons Ratio (z) = 0.30693 0.57774
#
# Static dielectric constant tensor:
#      x y z
#    x 3.828330 0.000000 0.000000 
#    y 0.000000 3.586040 0.000000 
#    z 0.000000 0.000000 3.213840 
# 
# 
# High freq. dielectric constant tensor:
#      x y z
#    x 1.734300 0.000000 0.000000 
#    y 0.000000 1.732550 0.000000 
#    z 0.000000 0.000000 1.681640 
# 
# From -- ./inp_files/11013.got.cif
#   From: 2010.03.12/outbox.cif.g09.slc.cpg/sg56_6_cif.got.tgz:11013.got - 2010.04.16 15:33:40.
