data_PCOD8228125
_publ_section_title
;
Structure prediction by ZEFSAII (Michael W. Deem and Ramdas Pophale) SiO2 
 PCOD8228125
Probable space group: P C C N
;
_chemical_formula_sum "Si O2"
_cell_formula_units_Z 64
_cell_length_a 30.895968
_cell_length_b 5.486916
_cell_length_c 18.553963
_cell_angle_alpha 90.000000
_cell_angle_beta 90.000000
_cell_angle_gamma 90.000000
_cell_volume 3145.334252
_symmetry_space_group_name_H-M "P C C N"
_symmetry_group_IT_number 56
_symmetry_cell_setting 'orthorhombic'
loop_
_space_group_symop_operation_xyz
x,y,z
1/2-x,1/2-y,z
1/2+x,-y,1/2-z
-x,1/2+y,1/2-z
-x,-y,-z
1/2+x,1/2+y,-z
1/2-x,y,1/2+z
x,1/2-y,1/2+z
loop_
_atom_site_type_symbol
_atom_site_label
_atom_site_fract_x
_atom_site_fract_y
_atom_site_fract_z
Si Si1 0.356039 0.553039 0.881915
Si Si2 0.506598 0.120697 0.792316
Si Si3 0.125031 0.562217 0.992111
Si Si4 0.397078 0.938683 0.154696
Si Si5 0.919123 0.671984 0.142177
Si Si6 0.207712 0.879838 0.303817
Si Si7 0.133414 0.052531 0.224557
Si Si8 0.293555 0.161081 0.943161
O O1 0.399522 0.443313 0.845471
O O2 0.334485 0.715201 0.820284
O O3 0.319607 0.360364 0.899770
O O4 0.370683 0.672648 0.957078
O O5 0.507255 0.372360 0.747872
O O6 0.552963 0.073278 0.825308
O O7 0.470940 0.164577 0.854984
O O8 0.102613 0.558141 0.068384
O O9 0.096465 0.404673 0.936884
O O10 0.174479 0.463752 0.000302
O O11 0.372383 0.689975 0.176028
O O12 0.376674 0.192296 0.183763
O O13 0.898259 0.512949 0.206515
O O14 0.250000 0.750000 0.268557
O O15 0.184681 0.068852 0.248088
O O16 0.223998 0.985002 0.379886
O O17 0.250000 0.250000 0.984152
#
# Coordination Sequence:
#
# PCOD8228125 Si02
#       8
#     8   8   8   8   8   8   8   8
#     4  10  19  37  64  94 135 162 233 277 346 390
#     4  12  25  43  71 104 133 176 236 291 342 423
#     4  10  25  40  65  97 136 181 224 283 352 414
#     4  12  27  47  66  99 141 187 222 282 364 417
#     4  11  22  40  70  99 128 177 230 282 334 400
#     4  11  21  35  64 106 131 174 231 296 334 399
#     4  12  24  43  70  95 139 180 226 282 346 411
#     4  10  19  34  64  97 126 173 231 285 325 405
#
# _framework density 20.347598000000001
#
# number of rings (size 3 to 8) (size 9 to 14) (size 15 to 20)
#    0.000    1.000    7.500    0.750    5.250    0.500 
#    0.000    1.875    0.000    0.000    0.000    0.000 
#    0.000    0.000    0.000    0.000    0.000    0.000 
#
# Total GULP energy -792866.353699 kJ/mol
# GULP energy per Si atom -12388.536777 kJ/mol
# Density = 2.030129 g / cm^3
# Si number density = 20.347598 Si / 1000 Ang^3
#
#
#
# Elastic Constant Matrix: (Units=GPa)
#
#
# Indices 1 2 3 4 5 6 
#
# 1 125.4125 44.3351 48.2720 0.0000 0.0000 0.0000
# 2 44.3351 119.1343 33.8215 0.0000 0.0000 0.0000
# 3 48.2720 33.8215 99.3534 0.0000 0.0000 0.0000
# 4 0.0000 0.0000 0.0000 8.4677 0.0000 0.0000
# 5 0.0000 0.0000 0.0000 0.0000 10.6348 0.0000
# 6 0.0000 0.0000 0.0000 0.0000 0.0000 31.7563
#
#
#
# Elastic Compliance Matrix: (Units=1/GPa)
#
#
# Indices 1 2 3 4 5 6 
#
# 1 0.010557 -0.002737 -0.004197 0.000000 0.000000 0.000000
# 2 -0.002737 0.010002 -0.002075 0.000000 0.000000 0.000000
# 3 -0.004197 -0.002075 0.012811 0.000000 0.000000 0.000000
# 4 0.000000 0.000000 0.000000 0.118096 0.000000 0.000000
# 5 0.000000 0.000000 0.000000 0.000000 0.094031 0.000000
# 6 0.000000 0.000000 0.000000 0.000000 0.000000 0.031490
#
#
# Mechanical properties :
#
#
# Convention : Reuss Voigt Hill
#
# Bulk Modulus (GPa) = 65.14457 66.30637 65.72547
# Shear Modulus (GPa) = 16.65991 24.66985 20.66488
#
# Velocity S-wave (km/s) = 2.86451 3.48576 3.19029
# Velocity P-wave (km/s) = 6.55942 6.98987 6.77806
#
# Compressibility (1/GPa) = 0.01535047
#
# Stress axis : x y z
#
# Youngs Moduli (GPa) = 94.72474 99.98495 78.05927
#
# Poissons Ratio (x) = 0.27366 0.32765
# Poissons Ratio (y) = 0.25927 0.16196
# Poissons Ratio (z) = 0.39760 0.20745
#
# Static dielectric constant tensor:
#      x y z
#    x 4.233570 0.000000 0.000000 
#    y 0.000000 4.381650 0.000000 
#    z 0.000000 0.000000 3.350860 
# 
# 
# High freq. dielectric constant tensor:
#      x y z
#    x 1.802600 0.000000 0.000000 
#    y 0.000000 1.813470 0.000000 
#    z 0.000000 0.000000 1.756670 
# 
# From -- ./inp_files/17144.got.cif
#   From: 2010.03.12/outbox.cif.g09.slc.cpg/sg56_9_cif.got.tgz:17144.got - 2010.04.16 15:33:40.
