data_PCOD8228749
_publ_section_title
;
Structure prediction by ZEFSAII (Michael W. Deem and Ramdas Pophale) SiO2 
 PCOD8228749
Probable space group: P C C N
;
_chemical_formula_sum "Si O2"
_cell_formula_units_Z 60
_cell_length_a 18.045394
_cell_length_b 16.779065
_cell_length_c 9.717239
_cell_angle_alpha 90.000000
_cell_angle_beta 90.000000
_cell_angle_gamma 90.000000
_cell_volume 2942.232645
_symmetry_space_group_name_H-M "P C C N"
_symmetry_group_IT_number 56
_symmetry_cell_setting 'orthorhombic'
loop_
_space_group_symop_operation_xyz
x,y,z
1/2-x,1/2-y,z
1/2+x,-y,1/2-z
-x,1/2+y,1/2-z
-x,-y,-z
1/2+x,1/2+y,-z
1/2-x,y,1/2+z
x,1/2-y,1/2+z
loop_
_atom_site_type_symbol
_atom_site_label
_atom_site_fract_x
_atom_site_fract_y
_atom_site_fract_z
Si Si1 0.608876 0.270108 0.545654
Si Si2 0.895064 0.543066 0.900899
Si Si3 0.508811 0.110588 0.907506
Si Si4 0.209627 0.886126 0.302067
Si Si5 0.733633 0.011020 0.453739
Si Si6 0.980143 0.115462 0.101570
Si Si7 0.596150 0.550252 0.086592
Si Si8 0.750000 0.250000 0.371021
O O1 0.550447 0.307652 0.440211
O O2 0.634578 0.336088 0.660572
O O3 0.568453 0.194802 0.611966
O O4 0.679101 0.235536 0.465205
O O5 0.931500 0.458505 0.937414
O O6 0.907343 0.572568 0.746048
O O7 0.807851 0.538430 0.926096
O O8 0.934758 0.606507 0.000125
O O9 0.482396 0.104924 0.750423
O O10 0.247898 0.916514 0.441621
O O11 0.266418 0.825655 0.227290
O O12 0.197132 0.956551 0.189684
O O13 0.678719 0.947615 0.524207
O O14 0.928758 0.040818 0.062466
O O15 0.046092 0.116293 0.990036
#
# Coordination Sequence:
#
# PCOD8228749 Si02
#       8
#     8   8   8   8   8   8   8   4
#     4  12  24  40  60  91 129 170 209 262 324 395
#     4  10  21  39  61  89 123 164 212 266 320 376
#     4  10  22  38  60  85 125 163 212 259 317 389
#     4  12  24  36  59  92 127 167 202 258 314 388
#     4  12  23  39  64  93 125 162 215 263 322 376
#     4  10  24  40  59  87 121 172 218 260 316 381
#     4  10  23  41  60  86 122 163 215 263 311 382
#     4  12  24  36  56  88 128 170 206 248 320 396
#
# _framework density 20.392678
#
# number of rings (size 3 to 8) (size 9 to 14) (size 15 to 20)
#    0.000    1.067    4.000    2.000    5.600    4.267 
#    0.000    0.000    0.000    0.800    0.000    3.733 
#    0.000    0.000    0.000    0.000    0.000    0.000 
#
# Total GULP energy -743985.404438 kJ/mol
# GULP energy per Si atom -12399.756741 kJ/mol
# Density = 2.034626 g / cm^3
# Si number density = 20.392678 Si / 1000 Ang^3
#
#
#
# Elastic Constant Matrix: (Units=GPa)
#
#
# Indices 1 2 3 4 5 6 
#
# 1 125.2592 39.0439 66.7686 0.0000 0.0000 0.0000
# 2 39.0439 44.9328 30.5604 0.0000 0.0000 0.0000
# 3 66.7686 30.5604 130.4046 0.0000 0.0000 0.0000
# 4 0.0000 0.0000 0.0000 28.1817 0.0000 0.0000
# 5 0.0000 0.0000 0.0000 0.0000 33.5139 0.0000
# 6 0.0000 0.0000 0.0000 0.0000 0.0000 38.3182
#
#
#
# Elastic Compliance Matrix: (Units=1/GPa)
#
#
# Indices 1 2 3 4 5 6 
#
# 1 0.013058 -0.008089 -0.004790 0.000000 0.000000 0.000000
# 2 -0.008089 0.031486 -0.003237 0.000000 0.000000 0.000000
# 3 -0.004790 -0.003237 0.010880 0.000000 0.000000 0.000000
# 4 0.000000 0.000000 0.000000 0.035484 0.000000 0.000000
# 5 0.000000 0.000000 0.000000 0.000000 0.029838 0.000000
# 6 0.000000 0.000000 0.000000 0.000000 0.000000 0.026097
#
#
# Mechanical properties :
#
#
# Convention : Reuss Voigt Hill
#
# Bulk Modulus (GPa) = 43.11970 63.70473 53.41221
# Shear Modulus (GPa) = 26.76569 30.95101 28.85835
#
# Velocity S-wave (km/s) = 3.62679 3.90006 3.76591
# Velocity P-wave (km/s) = 6.22325 7.18244 6.71998
#
# Compressibility (1/GPa) = 0.02319126
#
# Stress axis : x y z
#
# Youngs Moduli (GPa) = 76.58018 31.76038 91.91350
#
# Poissons Ratio (x) = 0.25690 0.44030
# Poissons Ratio (y) = 0.61944 0.29754
# Poissons Ratio (z) = 0.36685 0.10281
#
# Static dielectric constant tensor:
#      x y z
#    x 3.606760 0.000000 0.000000 
#    y 0.000000 3.303160 0.000000 
#    z 0.000000 0.000000 3.947880 
# 
# 
# High freq. dielectric constant tensor:
#      x y z
#    x 1.782580 0.000000 0.000000 
#    y 0.000000 1.751040 0.000000 
#    z 0.000000 0.000000 1.820960 
# 
# From -- ./inp_files/4161.got.cif
#   From: 2010.03.12/outbox.cif.g09.slc.cpg/sg56_3_cif.got.tgz:4161.got - 2010.04.16 15:33:40.
