data_PCOD8228884
_publ_section_title
;
Structure prediction by ZEFSAII (Michael W. Deem and Ramdas Pophale) SiO2 
 PCOD8228884
Probable space group: P C C N
;
_chemical_formula_sum "Si O2"
_cell_formula_units_Z 64
_cell_length_a 8.931397
_cell_length_b 13.517701
_cell_length_c 23.278121
_cell_angle_alpha 90.000000
_cell_angle_beta 90.000000
_cell_angle_gamma 90.000000
_cell_volume 2810.413037
_symmetry_space_group_name_H-M "P C C N"
_symmetry_group_IT_number 56
_symmetry_cell_setting 'orthorhombic'
loop_
_space_group_symop_operation_xyz
x,y,z
1/2-x,1/2-y,z
1/2+x,-y,1/2-z
-x,1/2+y,1/2-z
-x,-y,-z
1/2+x,1/2+y,-z
1/2-x,y,1/2+z
x,1/2-y,1/2+z
loop_
_atom_site_type_symbol
_atom_site_label
_atom_site_fract_x
_atom_site_fract_y
_atom_site_fract_z
Si Si1 0.077206 0.769834 0.727971
Si Si2 0.501622 0.894926 0.122130
Si Si3 0.760664 0.551093 0.867744
Si Si4 0.241205 0.961329 0.868078
Si Si5 0.082708 0.707287 0.560503
Si Si6 0.516410 0.194246 0.156706
Si Si7 0.975928 0.423262 0.330221
Si Si8 0.496285 0.851679 0.435843
O O1 0.250000 0.750000 0.713800
O O2 0.018328 0.860336 0.689176
O O3 0.998520 0.664955 0.713976
O O4 0.035316 0.781892 0.795403
O O5 0.513298 0.799997 0.082070
O O6 0.369274 0.969409 0.103450
O O7 0.655860 0.949971 0.110157
O O8 0.859822 0.636093 0.837544
O O9 0.662958 0.497745 0.817558
O O10 0.651064 0.596172 0.916610
O O11 0.341415 0.878737 0.836053
O O12 0.149399 0.917380 0.921592
O O13 0.123896 0.010093 0.824347
O O14 0.250000 0.750000 0.552549
O O15 0.066384 0.619354 0.606424
O O16 0.005921 0.666743 0.503287
O O17 0.520265 0.245771 0.095057
#
# Coordination Sequence:
#
# PCOD8228884 Si02
#       8
#     8   8   8   8   8   8   8   8
#     4  11  21  40  73  95 136 173 220 272 345 386
#     4  10  21  45  68 102 126 176 226 281 322 404
#     4  10  21  44  67  94 129 167 231 259 323 403
#     4  10  23  42  65  94 137 165 229 268 333 393
#     4  11  21  41  72  96 134 174 224 274 346 388
#     4  11  24  44  62  95 134 179 212 273 336 405
#     4  10  21  42  66 102 129 174 218 282 324 402
#     4  11  24  45  63  93 138 177 213 273 345 393
#
# _framework density 22.772455000000001
#
# number of rings (size 3 to 8) (size 9 to 14) (size 15 to 20)
#    0.000    1.500    2.500    3.000    0.000    5.000 
#   22.500    1.875    0.000    0.000    0.000    0.000 
#    0.000    0.000    0.000    0.000    0.000    0.000 
#
# Total GULP energy -793339.689202 kJ/mol
# GULP energy per Si atom -12395.932644 kJ/mol
# Density = 2.272062 g / cm^3
# Si number density = 22.772455 Si / 1000 Ang^3
#
#
#
# Elastic Constant Matrix: (Units=GPa)
#
#
# Indices 1 2 3 4 5 6 
#
# 1 136.9038 45.7989 15.4637 0.0000 0.0000 0.0000
# 2 45.7989 99.5972 14.2745 0.0000 0.0000 0.0000
# 3 15.4637 14.2745 83.5205 0.0000 0.0000 0.0000
# 4 0.0000 0.0000 0.0000 22.7474 0.0000 0.0000
# 5 0.0000 0.0000 0.0000 0.0000 17.4046 0.0000
# 6 0.0000 0.0000 0.0000 0.0000 0.0000 32.4794
#
#
#
# Elastic Compliance Matrix: (Units=1/GPa)
#
#
# Indices 1 2 3 4 5 6 
#
# 1 0.008705 -0.003867 -0.000951 0.000000 0.000000 0.000000
# 2 -0.003867 0.012010 -0.001337 0.000000 0.000000 0.000000
# 3 -0.000951 -0.001337 0.012378 0.000000 0.000000 0.000000
# 4 0.000000 0.000000 0.000000 0.043961 0.000000 0.000000
# 5 0.000000 0.000000 0.000000 0.000000 0.057456 0.000000
# 6 0.000000 0.000000 0.000000 0.000000 0.000000 0.030789
#
#
# Mechanical properties :
#
#
# Convention : Reuss Voigt Hill
#
# Bulk Modulus (GPa) = 48.11331 52.34397 50.22864
# Shear Modulus (GPa) = 27.09501 30.82526 28.96013
#
# Velocity S-wave (km/s) = 3.45311 3.68315 3.56998
# Velocity P-wave (km/s) = 6.08871 6.41272 6.25281
#
# Compressibility (1/GPa) = 0.02078427
#
# Stress axis : x y z
#
# Youngs Moduli (GPa) = 114.87145 83.26295 80.79096
#
# Poissons Ratio (x) = 0.32196 0.07683
# Poissons Ratio (y) = 0.44419 0.10799
# Poissons Ratio (z) = 0.10923 0.11130
#
# Static dielectric constant tensor:
#      x y z
#    x 4.252640 0.000000 0.000000 
#    y 0.000000 4.415680 0.000000 
#    z 0.000000 0.000000 3.622460 
# 
# 
# High freq. dielectric constant tensor:
#      x y z
#    x 1.907520 0.000000 0.000000 
#    y 0.000000 1.922460 0.000000 
#    z 0.000000 0.000000 1.859790 
# 
# From -- ./inp_files/20665.got.cif
#   From: 2010.03.12/outbox.cif.g09.slc.cpg/sg56_11_cif.got.tgz:20665.got - 2010.04.16 15:33:40.
