data_PCOD8228322
_publ_section_title
;
Structure prediction by ZEFSAII (Michael W. Deem and Ramdas Pophale) SiO2 
 PCOD8228322
Probable space group: P C C N
;
_chemical_formula_sum "Si O2"
_cell_formula_units_Z 48
_cell_length_a 13.548568
_cell_length_b 13.842640
_cell_length_c 13.896676
_cell_angle_alpha 90.000000
_cell_angle_beta 90.000000
_cell_angle_gamma 90.000000
_cell_volume 2606.293086
_symmetry_space_group_name_H-M "P C C N"
_symmetry_group_IT_number 56
_symmetry_cell_setting 'orthorhombic'
loop_
_space_group_symop_operation_xyz
x,y,z
1/2-x,1/2-y,z
1/2+x,-y,1/2-z
-x,1/2+y,1/2-z
-x,-y,-z
1/2+x,1/2+y,-z
1/2-x,y,1/2+z
x,1/2-y,1/2+z
loop_
_atom_site_type_symbol
_atom_site_label
_atom_site_fract_x
_atom_site_fract_y
_atom_site_fract_z
Si Si1 0.761517 0.364559 0.959708
Si Si2 0.540569 0.203893 0.657029
Si Si3 0.967498 0.879056 0.249263
Si Si4 0.146689 0.560011 0.220798
Si Si5 0.333645 0.621746 0.335183
Si Si6 0.961351 0.399221 0.461796
O O1 0.750000 0.250000 0.957048
O O2 0.846901 0.399769 0.887033
O O3 0.800304 0.408728 0.059160
O O4 0.654498 0.410016 0.938216
O O5 0.454285 0.271557 0.703216
O O6 0.556071 0.107331 0.719580
O O7 0.645906 0.261612 0.665060
O O8 0.518783 0.180249 0.545481
O O9 0.063887 0.928108 0.299990
O O10 0.872979 0.944871 0.274912
O O11 0.981037 0.867448 0.134298
O O12 0.252165 0.586290 0.262461
O O13 0.000000 0.500000 0.500000
#
# Coordination Sequence:
#
# PCOD8228322 Si02
#       6
#     8   8   8   8   8   8
#     4  12  19  33  60  87 115 155 197 257 308 345
#     4  10  21  35  56  87 120 149 200 248 301 361
#     4  10  23  36  53  92 120 155 197 249 311 362
#     4  12  20  35  59  82 124 156 191 256 303 357
#     4  10  20  35  55  89 120 147 204 249 302 354
#     4  12  20  36  61  88 121 160 199 252 312 371
#
# _framework density 18.416962000000002
#
# number of rings (size 3 to 8) (size 9 to 14) (size 15 to 20)
#    1.000    0.000    6.667    2.500    0.000    0.667 
#    0.000    0.000    0.000    4.000    0.000    9.333 
#    0.000    0.000    0.000    0.000    0.000    0.000 
#
# Total GULP energy -594801.753685 kJ/mol
# GULP energy per Si atom -12391.703202 kJ/mol
# Density = 1.837504 g / cm^3
# Si number density = 18.416962 Si / 1000 Ang^3
#
#
#
# Elastic Constant Matrix: (Units=GPa)
#
#
# Indices 1 2 3 4 5 6 
#
# 1 36.5176 32.3137 8.7398 0.0000 0.0000 0.0000
# 2 32.3137 70.6184 30.8318 0.0000 0.0000 0.0000
# 3 8.7398 30.8318 102.9311 0.0000 0.0000 0.0000
# 4 0.0000 0.0000 0.0000 24.2337 0.0000 0.0000
# 5 0.0000 0.0000 0.0000 0.0000 14.3386 0.0000
# 6 0.0000 0.0000 0.0000 0.0000 0.0000 38.5126
#
#
#
# Elastic Compliance Matrix: (Units=1/GPa)
#
#
# Indices 1 2 3 4 5 6 
#
# 1 0.046709 -0.022597 0.002803 0.000000 0.000000 0.000000
# 2 -0.022597 0.027223 -0.006236 0.000000 0.000000 0.000000
# 3 0.002803 -0.006236 0.011345 0.000000 0.000000 0.000000
# 4 0.000000 0.000000 0.000000 0.041265 0.000000 0.000000
# 5 0.000000 0.000000 0.000000 0.000000 0.069742 0.000000
# 6 0.000000 0.000000 0.000000 0.000000 0.000000 0.025966
#
#
# Mechanical properties :
#
#
# Convention : Reuss Voigt Hill
#
# Bulk Modulus (GPa) = 30.10489 39.31530 34.71009
# Shear Modulus (GPa) = 17.52048 24.62911 21.07480
#
# Velocity S-wave (km/s) = 3.08770 3.66089 3.38644
# Velocity P-wave (km/s) = 5.39385 6.26603 5.84623
#
# Compressibility (1/GPa) = 0.03321720
#
# Stress axis : x y z
#
# Youngs Moduli (GPa) = 21.40934 36.73379 88.14386
#
# Poissons Ratio (x) = 0.83006 -0.24703
# Poissons Ratio (y) = 0.48378 0.54963
# Poissons Ratio (z) = -0.06000 0.22906
#
# Static dielectric constant tensor:
#      x y z
#    x 1.569400 0.000000 0.000000 
#    y 0.000000 3.329960 0.000000 
#    z 0.000000 0.000000 3.664170 
# 
# 
# High freq. dielectric constant tensor:
#      x y z
#    x 1.678770 0.000000 0.000000 
#    y 0.000000 1.690560 0.000000 
#    z 0.000000 0.000000 1.737570 
# 
# From -- ./inp_files/11618.got.cif
#   From: 2010.03.12/outbox.cif.g09.slc.cpg/sg56_6_cif.got.tgz:11618.got - 2010.04.16 15:33:40.
