data_PCOD8228565
_publ_section_title
;
Structure prediction by ZEFSAII (Michael W. Deem and Ramdas Pophale) SiO2 
 PCOD8228565
Probable space group: P C C N
;
_chemical_formula_sum "Si O2"
_cell_formula_units_Z 56
_cell_length_a 11.229939
_cell_length_b 15.829857
_cell_length_c 15.441825
_cell_angle_alpha 90.000000
_cell_angle_beta 90.000000
_cell_angle_gamma 90.000000
_cell_volume 2745.067419
_symmetry_space_group_name_H-M "P C C N"
_symmetry_group_IT_number 56
_symmetry_cell_setting 'orthorhombic'
loop_
_space_group_symop_operation_xyz
x,y,z
1/2-x,1/2-y,z
1/2+x,-y,1/2-z
-x,1/2+y,1/2-z
-x,-y,-z
1/2+x,1/2+y,-z
1/2-x,y,1/2+z
x,1/2-y,1/2+z
loop_
_atom_site_type_symbol
_atom_site_label
_atom_site_fract_x
_atom_site_fract_y
_atom_site_fract_z
Si Si1 0.486961 0.898793 0.244098
Si Si2 0.962695 0.876097 0.031103
Si Si3 0.914059 0.537217 0.878181
Si Si4 0.138782 0.539641 0.407127
Si Si5 0.881530 0.269252 0.891811
Si Si6 0.874290 0.096073 0.523001
Si Si7 0.195109 0.342183 0.638002
O O1 0.399143 0.907537 0.324297
O O2 0.444241 0.828985 0.177112
O O3 0.613333 0.868416 0.280914
O O4 0.486127 0.991850 0.200013
O O5 0.022613 0.805084 0.091827
O O6 0.887906 0.938725 0.094830
O O7 0.874367 0.843965 0.954417
O O8 0.074881 0.925867 0.992913
O O9 0.798889 0.589382 0.851869
O O10 0.001443 0.601060 0.926957
O O11 0.871141 0.464895 0.941595
O O12 0.277309 0.560889 0.411040
O O13 0.750000 0.250000 0.853426
O O14 0.854730 0.310554 0.985776
O O15 0.250000 0.250000 0.651734
#
# Coordination Sequence:
#
# PCOD8228565 Si02
#       7
#     8   8   8   8   8   8   8
#     4  10  26  41  61  96 133 169 217 263 343 389
#     4  10  21  40  70  92 120 175 222 264 333 395
#     4  10  22  41  65  90 128 169 214 273 322 394
#     4  10  20  40  66  94 122 168 223 269 318 411
#     4  11  22  43  64  95 135 170 213 279 329 395
#     4  10  20  40  67  94 120 169 221 265 320 393
#     4  11  23  44  63  96 135 168 217 284 331 403
#
# _framework density 20.400227999999998
#
# number of rings (size 3 to 8) (size 9 to 14) (size 15 to 20)
#    0.000    1.714    2.857    0.857    2.000    1.143 
#    7.714    0.000    0.000    0.000    0.000    0.000 
#    0.000    0.000    0.000    0.000    0.000    0.000 
#
# Total GULP energy -694003.319750 kJ/mol
# GULP energy per Si atom -12392.916424 kJ/mol
# Density = 2.035380 g / cm^3
# Si number density = 20.400228 Si / 1000 Ang^3
#
#
#
# Elastic Constant Matrix: (Units=GPa)
#
#
# Indices 1 2 3 4 5 6 
#
# 1 169.5948 10.6106 53.0122 0.0000 0.0000 0.0000
# 2 10.6106 182.7283 36.5520 0.0000 0.0000 0.0000
# 3 53.0122 36.5520 81.5229 0.0000 0.0000 0.0000
# 4 0.0000 0.0000 0.0000 34.1305 0.0000 0.0000
# 5 0.0000 0.0000 0.0000 0.0000 32.3024 0.0000
# 6 0.0000 0.0000 0.0000 0.0000 0.0000 35.7631
#
#
#
# Elastic Compliance Matrix: (Units=1/GPa)
#
#
# Indices 1 2 3 4 5 6 
#
# 1 0.007458 0.000590 -0.005114 0.000000 0.000000 0.000000
# 2 0.000590 0.006058 -0.003100 0.000000 0.000000 0.000000
# 3 -0.005114 -0.003100 0.016982 0.000000 0.000000 0.000000
# 4 0.000000 0.000000 0.000000 0.029299 0.000000 0.000000
# 5 0.000000 0.000000 0.000000 0.000000 0.030957 0.000000
# 6 0.000000 0.000000 0.000000 0.000000 0.000000 0.027962
#
#
# Mechanical properties :
#
#
# Convention : Reuss Voigt Hill
#
# Bulk Modulus (GPa) = 65.57409 70.46617 68.02013
# Shear Modulus (GPa) = 35.95840 42.68394 39.32117
#
# Velocity S-wave (km/s) = 4.20294 4.57916 4.39508
# Velocity P-wave (km/s) = 7.46770 7.91044 7.69226
#
# Compressibility (1/GPa) = 0.01524992
#
# Stress axis : x y z
#
# Youngs Moduli (GPa) = 134.08146 165.05836 58.88525
#
# Poissons Ratio (x) = -0.09738 0.30116
# Poissons Ratio (y) = -0.07910 0.18255
# Poissons Ratio (z) = 0.68574 0.51169
#
# Static dielectric constant tensor:
#      x y z
#    x 3.756330 0.000000 0.000000 
#    y 0.000000 3.980750 0.000000 
#    z 0.000000 0.000000 3.673700 
# 
# 
# High freq. dielectric constant tensor:
#      x y z
#    x 1.806810 0.000000 0.000000 
#    y 0.000000 1.801000 0.000000 
#    z 0.000000 0.000000 1.788670 
# 
# From -- ./inp_files/11669.got.cif
#   From: 2010.03.12/outbox.cif.g09.slc.cpg/sg56_6_cif.got.tgz:11669.got - 2010.04.16 15:33:40.
