data_PCOD8228022
_publ_section_title
;
Structure prediction by ZEFSAII (Michael W. Deem and Ramdas Pophale) SiO2 
 PCOD8228022
Probable space group: P C C N
;
_chemical_formula_sum "Si O2"
_cell_formula_units_Z 64
_cell_length_a 19.168712
_cell_length_b 18.316401
_cell_length_c 9.767909
_cell_angle_alpha 90.000000
_cell_angle_beta 90.000000
_cell_angle_gamma 90.000000
_cell_volume 3429.530585
_symmetry_space_group_name_H-M "P C C N"
_symmetry_group_IT_number 56
_symmetry_cell_setting 'orthorhombic'
loop_
_space_group_symop_operation_xyz
x,y,z
1/2-x,1/2-y,z
1/2+x,-y,1/2-z
-x,1/2+y,1/2-z
-x,-y,-z
1/2+x,1/2+y,-z
1/2-x,y,1/2+z
x,1/2-y,1/2+z
loop_
_atom_site_type_symbol
_atom_site_label
_atom_site_fract_x
_atom_site_fract_y
_atom_site_fract_z
Si Si1 0.978352 0.317275 0.759692
Si Si2 0.411999 0.965642 0.901933
Si Si3 0.467461 0.688282 0.432869
Si Si4 0.300657 0.078557 0.873274
Si Si5 0.549139 0.021505 0.789833
Si Si6 0.871430 0.664426 0.353738
Si Si7 0.857876 0.912051 0.128036
Si Si8 0.371163 0.173062 0.107753
O O1 0.946584 0.258846 0.654754
O O2 0.942321 0.395436 0.739460
O O3 0.061304 0.324801 0.742009
O O4 0.961049 0.287547 0.910178
O O5 0.414688 0.877580 0.894355
O O6 0.338436 0.999922 0.856042
O O7 0.467908 0.999529 0.795759
O O8 0.422539 0.991961 0.057712
O O9 0.546036 0.660006 0.409755
O O10 0.311170 0.127016 0.736517
O O11 0.220267 0.058897 0.896002
O O12 0.328877 0.123089 0.003237
O O13 0.592084 0.975687 0.680546
O O14 0.890055 0.615766 0.485549
O O15 0.847334 0.743154 0.411133
O O16 0.853743 0.846812 0.236416
#
# Coordination Sequence:
#
# PCOD8228022 Si02
#       8
#     8   8   8   8   8   8   8   8
#     4  10  21  37  60  86 114 142 192 237 287 341
#     4  10  18  37  64  78 108 156 197 224 288 350
#     4  10  20  36  62  87 109 147 190 238 284 341
#     4  12  22  40  55  82 113 158 201 230 282 352
#     4  10  19  39  60  83 109 154 190 241 283 339
#     4  11  24  35  53  87 117 152 191 236 278 329
#     4  12  25  35  57  83 117 153 196 242 281 331
#     4  11  21  38  56  76 116 160 194 219 277 348
#
# _framework density 18.661446000000002
#
# number of rings (size 3 to 8) (size 9 to 14) (size 15 to 20)
#    0.000    1.250    5.000    2.250    5.250    3.500 
#    2.250    0.000    0.000    0.750    0.000    3.500 
#    0.000    0.000    0.000    0.000    0.000    0.000 
#
# Total GULP energy -793668.761649 kJ/mol
# GULP energy per Si atom -12401.074401 kJ/mol
# Density = 1.861897 g / cm^3
# Si number density = 18.661446 Si / 1000 Ang^3
#
#
#
# Elastic Constant Matrix: (Units=GPa)
#
#
# Indices 1 2 3 4 5 6 
#
# 1 55.3604 42.2036 15.4566 0.0000 0.0000 0.0000
# 2 42.2036 119.1179 60.2750 0.0000 0.0000 0.0000
# 3 15.4566 60.2750 99.3947 0.0000 0.0000 0.0000
# 4 0.0000 0.0000 0.0000 35.2787 0.0000 0.0000
# 5 0.0000 0.0000 0.0000 0.0000 18.4062 0.0000
# 6 0.0000 0.0000 0.0000 0.0000 0.0000 14.5687
#
#
#
# Elastic Compliance Matrix: (Units=1/GPa)
#
#
# Indices 1 2 3 4 5 6 
#
# 1 0.025061 -0.009965 0.002146 0.000000 0.000000 0.000000
# 2 -0.009965 0.016074 -0.008198 0.000000 0.000000 0.000000
# 3 0.002146 -0.008198 0.014699 0.000000 0.000000 0.000000
# 4 0.000000 0.000000 0.000000 0.028346 0.000000 0.000000
# 5 0.000000 0.000000 0.000000 0.000000 0.054330 0.000000
# 6 0.000000 0.000000 0.000000 0.000000 0.000000 0.068640
#
#
# Mechanical properties :
#
#
# Convention : Reuss Voigt Hill
#
# Bulk Modulus (GPa) = 42.01788 56.63813 49.32801
# Shear Modulus (GPa) = 20.23339 24.04657 22.13998
#
# Velocity S-wave (km/s) = 3.29634 3.59356 3.44816
# Velocity P-wave (km/s) = 6.08709 6.90177 6.50719
#
# Compressibility (1/GPa) = 0.02379939
#
# Stress axis : x y z
#
# Youngs Moduli (GPa) = 39.90249 62.21277 68.03374
#
# Poissons Ratio (x) = 0.61995 -0.14599
# Poissons Ratio (y) = 0.39763 0.55773
# Poissons Ratio (z) = -0.08562 0.51001
#
# Static dielectric constant tensor:
#      x y z
#    x 3.132250 0.000000 0.000000 
#    y 0.000000 3.488960 0.000000 
#    z 0.000000 0.000000 3.473000 
# 
# 
# High freq. dielectric constant tensor:
#      x y z
#    x 1.685200 0.000000 0.000000 
#    y 0.000000 1.726340 0.000000 
#    z 0.000000 0.000000 1.732620 
# 
# From -- ./inp_files/4555.got.cif
#   From: 2010.03.12/outbox.cif.g09.slc.cpg/sg56_3_cif.got.tgz:4555.got - 2010.04.16 15:33:40.
