data_PCOD8228599
_publ_section_title
;
Structure prediction by ZEFSAII (Michael W. Deem and Ramdas Pophale) SiO2 
 PCOD8228599
Probable space group: P C C N
;
_chemical_formula_sum "Si O2"
_cell_formula_units_Z 48
_cell_length_a 13.443860
_cell_length_b 6.634557
_cell_length_c 26.973621
_cell_angle_alpha 90.000000
_cell_angle_beta 90.000000
_cell_angle_gamma 90.000000
_cell_volume 2405.886648
_symmetry_space_group_name_H-M "P C C N"
_symmetry_group_IT_number 56
_symmetry_cell_setting 'orthorhombic'
loop_
_space_group_symop_operation_xyz
x,y,z
1/2-x,1/2-y,z
1/2+x,-y,1/2-z
-x,1/2+y,1/2-z
-x,-y,-z
1/2+x,1/2+y,-z
1/2-x,y,1/2+z
x,1/2-y,1/2+z
loop_
_atom_site_type_symbol
_atom_site_label
_atom_site_fract_x
_atom_site_fract_y
_atom_site_fract_z
Si Si1 0.994711 0.114600 0.614623
Si Si2 0.480980 0.498833 0.942213
Si Si3 0.511334 0.068372 0.697761
Si Si4 0.639596 0.259435 0.780160
Si Si5 0.639555 0.283508 0.394697
Si Si6 0.634358 0.764690 0.628292
O O1 0.960662 0.270713 0.572578
O O2 0.016639 0.237640 0.664957
O O3 0.906225 0.962141 0.628156
O O4 0.087812 0.994222 0.589511
O O5 0.575739 0.409351 0.912005
O O6 0.384779 0.365565 0.926146
O O7 0.500000 0.500000 0.000000
O O8 0.572703 0.117837 0.746532
O O9 0.406377 0.983616 0.717906
O O10 0.574030 0.899934 0.667755
O O11 0.750000 0.250000 0.757242
O O12 0.641777 0.180971 0.836063
O O13 0.750000 0.250000 0.416594
O O14 0.750000 0.750000 0.641259
#
# Coordination Sequence:
#
# PCOD8228599 Si02
#       6
#     8   8   8   8   8   8
#     4  10  20  42  66  83 130 168 193 277 313 370
#     4  10  22  43  64  95 127 167 214 259 325 386
#     4  11  23  40  62  91 128 168 219 263 317 389
#     4  11  23  39  62  91 127 168 219 264 319 387
#     4  10  21  42  59  92 127 164 210 261 320 378
#     4  10  23  41  64  94 126 167 216 265 328 380
#
# _framework density 19.951065
#
# number of rings (size 3 to 8) (size 9 to 14) (size 15 to 20)
#    0.000    1.667    5.000    1.000    2.333    5.333 
#    6.000    1.667    0.000    0.000    0.000    0.000 
#    0.000    0.000    0.000    0.000    0.000    0.000 
#
# Total GULP energy -594832.201464 kJ/mol
# GULP energy per Si atom -12392.337530 kJ/mol
# Density = 1.990566 g / cm^3
# Si number density = 19.951065 Si / 1000 Ang^3
#
#
#
# Elastic Constant Matrix: (Units=GPa)
#
#
# Indices 1 2 3 4 5 6 
#
# 1 149.0156 62.8695 13.7611 0.0000 0.0000 0.0000
# 2 62.8695 146.7827 33.3317 0.0000 0.0000 0.0000
# 3 13.7611 33.3317 81.7763 0.0000 0.0000 0.0000
# 4 0.0000 0.0000 0.0000 20.5046 0.0000 0.0000
# 5 0.0000 0.0000 0.0000 0.0000 21.6808 0.0000
# 6 0.0000 0.0000 0.0000 0.0000 0.0000 20.6587
#
#
#
# Elastic Compliance Matrix: (Units=1/GPa)
#
#
# Indices 1 2 3 4 5 6 
#
# 1 0.008191 -0.003521 0.000057 0.000000 0.000000 0.000000
# 2 -0.003521 0.009021 -0.003085 0.000000 0.000000 0.000000
# 3 0.000057 -0.003085 0.013476 0.000000 0.000000 0.000000
# 4 0.000000 0.000000 0.000000 0.048770 0.000000 0.000000
# 5 0.000000 0.000000 0.000000 0.000000 0.046124 0.000000
# 6 0.000000 0.000000 0.000000 0.000000 0.000000 0.048406
#
#
# Mechanical properties :
#
#
# Convention : Reuss Voigt Hill
#
# Bulk Modulus (GPa) = 56.84794 66.38879 61.61836
# Shear Modulus (GPa) = 25.91355 30.40964 28.16159
#
# Velocity S-wave (km/s) = 3.60787 3.90835 3.76111
# Velocity P-wave (km/s) = 6.77578 7.32905 7.05784
#
# Compressibility (1/GPa) = 0.01759079
#
# Stress axis : x y z
#
# Youngs Moduli (GPa) = 122.08392 110.84662 74.20507
#
# Poissons Ratio (x) = 0.39032 -0.00422
# Poissons Ratio (y) = 0.42989 0.22889
# Poissons Ratio (z) = -0.00695 0.34191
#
# Static dielectric constant tensor:
#      x y z
#    x 3.825830 0.000000 0.000000 
#    y 0.000000 3.751600 0.000000 
#    z 0.000000 0.000000 3.606490 
# 
# 
# High freq. dielectric constant tensor:
#      x y z
#    x 1.769630 0.000000 0.000000 
#    y 0.000000 1.789360 0.000000 
#    z 0.000000 0.000000 1.766840 
# 
# From -- ./inp_files/21657.got.cif
#   From: 2010.03.12/outbox.cif.g09.slc.cpg/sg56_11_cif.got.tgz:21657.got - 2010.04.16 15:33:40.
