data_PCOD8228542
_publ_section_title
;
Structure prediction by ZEFSAII (Michael W. Deem and Ramdas Pophale) SiO2 
 PCOD8228542
Probable space group: P C C N
;
_chemical_formula_sum "Si O2"
_cell_formula_units_Z 48
_cell_length_a 9.709599
_cell_length_b 15.964714
_cell_length_c 16.202545
_cell_angle_alpha 90.000000
_cell_angle_beta 90.000000
_cell_angle_gamma 90.000000
_cell_volume 2511.572235
_symmetry_space_group_name_H-M "P C C N"
_symmetry_group_IT_number 56
_symmetry_cell_setting 'orthorhombic'
loop_
_space_group_symop_operation_xyz
x,y,z
1/2-x,1/2-y,z
1/2+x,-y,1/2-z
-x,1/2+y,1/2-z
-x,-y,-z
1/2+x,1/2+y,-z
1/2-x,y,1/2+z
x,1/2-y,1/2+z
loop_
_atom_site_type_symbol
_atom_site_label
_atom_site_fract_x
_atom_site_fract_y
_atom_site_fract_z
Si Si1 0.507295 0.671037 0.397804
Si Si2 0.619196 0.295225 0.873110
Si Si3 0.016588 0.941666 0.242298
Si Si4 0.750000 0.750000 0.311971
Si Si5 0.280809 0.081393 0.789188
Si Si6 0.250000 0.750000 0.969311
Si Si7 0.372983 0.186040 0.930385
O O1 0.497785 0.593867 0.335008
O O2 0.610574 0.743052 0.365220
O O3 0.352870 0.704069 0.407655
O O4 0.563994 0.644878 0.487305
O O5 0.750000 0.250000 0.828504
O O6 0.585115 0.377753 0.822155
O O7 0.486980 0.234217 0.875152
O O8 0.665287 0.313697 0.969025
O O9 0.865192 0.966801 0.209950
O O10 0.106653 0.025096 0.243561
O O11 0.736255 0.831161 0.256640
O O12 0.322556 0.103680 0.882260
O O13 0.250000 0.250000 0.951177
#
# Coordination Sequence:
#
# PCOD8228542 Si02
#       7
#     8   8   8   4   8   4   8
#     4  10  21  35  62  91 116 148 208 248 298 347
#     4   9  20  37  61  87 114 157 199 233 302 358
#     4  11  24  39  57  93 118 155 204 256 292 353
#     4  10  20  40  62  88 110 162 202 244 290 374
#     4  11  24  39  61  86 123 159 206 240 311 353
#     4   8  20  34  60  90 118 158 194 238 302 362
#     4  11  18  39  65  82 119 164 195 245 295 375
#
# _framework density 19.111535
#
# number of rings (size 3 to 8) (size 9 to 14) (size 15 to 20)
#    0.500    1.333    3.333    1.000    3.500    2.000 
#    0.000    1.667    0.000    7.000    0.000    0.000 
#    0.000    0.000    0.000    0.000    0.000    0.000 
#
# Total GULP energy -594933.209668 kJ/mol
# GULP energy per Si atom -12394.441868 kJ/mol
# Density = 1.906804 g / cm^3
# Si number density = 19.111535 Si / 1000 Ang^3
#
#
#
# Elastic Constant Matrix: (Units=GPa)
#
#
# Indices 1 2 3 4 5 6 
#
# 1 144.9430 38.5302 27.7197 0.0000 0.0000 0.0000
# 2 38.5302 63.0428 20.4809 0.0000 0.0000 0.0000
# 3 27.7197 20.4809 75.4738 0.0000 0.0000 0.0000
# 4 0.0000 0.0000 0.0000 -5.6037 0.0000 0.0000
# 5 0.0000 0.0000 0.0000 0.0000 25.5304 0.0000
# 6 0.0000 0.0000 0.0000 0.0000 0.0000 33.2652
#
#
#
# Elastic Compliance Matrix: (Units=1/GPa)
#
#
# Indices 1 2 3 4 5 6 
#
# 1 0.008472 -0.004570 -0.001871 0.000000 0.000000 0.000000
# 2 -0.004570 0.019861 -0.003711 0.000000 0.000000 0.000000
# 3 -0.001871 -0.003711 0.014944 0.000000 0.000000 0.000000
# 4 0.000000 0.000000 0.000000 -0.178453 0.000000 0.000000
# 5 0.000000 0.000000 0.000000 0.000000 0.039169 0.000000
# 6 0.000000 0.000000 0.000000 0.000000 0.000000 0.030061
#
#
# Mechanical properties :
#
#
# Convention : Reuss Voigt Hill
#
# Bulk Modulus (GPa) = 43.53131 50.76904 47.15018
# Shear Modulus (GPa) = -131.63697 23.75362 -53.94168
#
# Velocity S-wave (km/s) = -8.30830 3.52930 -5.31845
# Velocity P-wave (km/s) = 8.31926 6.57497 3.60416
#
# Compressibility (1/GPa) = 0.02297197
#
# Stress axis : x y z
#
# Youngs Moduli (GPa) = 118.03615 50.35025 66.91631
#
# Poissons Ratio (x) = 0.23009 0.12523
# Poissons Ratio (y) = 0.53941 0.24833
# Poissons Ratio (z) = 0.22090 0.18686
#
# Static dielectric constant tensor:
#      x y z
#    x 3.993280 0.000000 0.000000 
#    y 0.000000 3.088270 0.000000 
#    z 0.000000 0.000000 3.578310 
# 
# 
# High freq. dielectric constant tensor:
#      x y z
#    x 1.771760 0.000000 0.000000 
#    y 0.000000 1.698860 0.000000 
#    z 0.000000 0.000000 1.748140 
# 
# From -- ./inp_files/14864.got.cif
#   From: 2010.03.12/outbox.cif.g09.slc.cpg/sg56_8_cif.got.tgz:14864.got - 2010.04.16 15:33:40.
