data_PCOD8228577
_publ_section_title
;
Structure prediction by ZEFSAII (Michael W. Deem and Ramdas Pophale) SiO2 
 PCOD8228577
Probable space group: P C C N
;
_chemical_formula_sum "Si O2"
_cell_formula_units_Z 40
_cell_length_a 8.651830
_cell_length_b 24.384117
_cell_length_c 7.655214
_cell_angle_alpha 90.000000
_cell_angle_beta 90.000000
_cell_angle_gamma 90.000000
_cell_volume 1614.999331
_symmetry_space_group_name_H-M "P C C N"
_symmetry_group_IT_number 56
_symmetry_cell_setting 'orthorhombic'
loop_
_space_group_symop_operation_xyz
x,y,z
1/2-x,1/2-y,z
1/2+x,-y,1/2-z
-x,1/2+y,1/2-z
-x,-y,-z
1/2+x,1/2+y,-z
1/2-x,y,1/2+z
x,1/2-y,1/2+z
loop_
_atom_site_type_symbol
_atom_site_label
_atom_site_fract_x
_atom_site_fract_y
_atom_site_fract_z
Si Si1 0.430803 0.945702 0.419832
Si Si2 0.881899 0.409528 0.944132
Si Si3 0.408793 0.172504 0.102907
Si Si4 0.558319 0.830792 0.503609
Si Si5 0.619853 0.294877 0.316924
O O1 0.245990 0.943528 0.451847
O O2 0.455575 0.946353 0.210341
O O3 0.517366 0.894838 0.507907
O O4 0.500000 0.000000 0.500000
O O5 0.803549 0.354859 0.855371
O O6 0.021907 0.388885 0.069629
O O7 0.451230 0.192843 0.298701
O O8 0.014859 0.214695 0.462938
O O9 0.227013 0.173778 0.080201
O O10 0.444842 0.796065 0.379858
O O11 0.750000 0.250000 0.331536
#
# Coordination Sequence:
#
# PCOD8228577 Si02
#       5
#     8   8   8   8   8
#     4  11  23  41  68 107 147 199 251 310 386 458
#     4   9  22  42  65 104 149 190 252 312 373 456
#     4  10  20  40  71 107 153 195 250 317 389 443
#     4  11  20  40  71 110 151 196 248 328 373 461
#     4   9  21  41  71 110 151 197 260 310 395 464
#
# _framework density 24.767811999999999
#
# number of rings (size 3 to 8) (size 9 to 14) (size 15 to 20)
#    1.200    0.800    2.000    1.200    0.000    4.000 
#    0.000    7.000    0.000    1.200   10.400    0.000 
#    0.000    0.000    0.000    0.000    0.000    0.000 
#
# Total GULP energy -495961.150331 kJ/mol
# GULP energy per Si atom -12399.028758 kJ/mol
# Density = 2.471144 g / cm^3
# Si number density = 24.767812 Si / 1000 Ang^3
#
#
#
# Elastic Constant Matrix: (Units=GPa)
#
#
# Indices 1 2 3 4 5 6 
#
# 1 91.1819 19.2608 14.4400 0.0000 0.0000 0.0000
# 2 19.2608 56.3421 7.9620 0.0000 0.0000 0.0000
# 3 14.4400 7.9620 162.0913 0.0000 0.0000 0.0000
# 4 0.0000 0.0000 0.0000 29.4944 0.0000 0.0000
# 5 0.0000 0.0000 0.0000 0.0000 39.8794 0.0000
# 6 0.0000 0.0000 0.0000 0.0000 0.0000 24.0603
#
#
#
# Elastic Compliance Matrix: (Units=1/GPa)
#
#
# Indices 1 2 3 4 5 6 
#
# 1 0.011941 -0.003959 -0.000869 0.000000 0.000000 0.000000
# 2 -0.003959 0.019186 -0.000590 0.000000 0.000000 0.000000
# 3 -0.000869 -0.000590 0.006276 0.000000 0.000000 0.000000
# 4 0.000000 0.000000 0.000000 0.033905 0.000000 0.000000
# 5 0.000000 0.000000 0.000000 0.000000 0.025076 0.000000
# 6 0.000000 0.000000 0.000000 0.000000 0.000000 0.041562
#
#
# Mechanical properties :
#
#
# Convention : Reuss Voigt Hill
#
# Bulk Modulus (GPa) = 37.64225 43.66011 40.65118
# Shear Modulus (GPa) = 31.71847 36.55031 34.13439
#
# Velocity S-wave (km/s) = 3.58248 3.84568 3.71641
# Velocity P-wave (km/s) = 5.68711 6.11433 5.90458
#
# Compressibility (1/GPa) = 0.02656589
#
# Stress axis : x y z
#
# Youngs Moduli (GPa) = 83.74449 52.12258 159.34302
#
# Poissons Ratio (x) = 0.20637 0.13852
# Poissons Ratio (y) = 0.33157 0.09396
# Poissons Ratio (z) = 0.07280 0.03074
#
# Static dielectric constant tensor:
#      x y z
#    x 4.315600 0.000000 0.000000 
#    y 0.000000 4.166460 0.000000 
#    z 0.000000 0.000000 4.678050 
# 
# 
# High freq. dielectric constant tensor:
#      x y z
#    x 1.981180 0.000000 0.000000 
#    y 0.000000 1.971250 0.000000 
#    z 0.000000 0.000000 2.004560 
# 
# From -- ./inp_files/2126.got.cif
#   From: 2010.03.12/outbox.cif.g09.slc.cpg/sg56_2_cif.got.tgz:2126.got - 2010.04.16 15:33:40.
