data_PCOD8228783
_publ_section_title
;
Structure prediction by ZEFSAII (Michael W. Deem and Ramdas Pophale) SiO2 
 PCOD8228783
Probable space group: P C C N
;
_chemical_formula_sum "Si O2"
_cell_formula_units_Z 64
_cell_length_a 12.905570
_cell_length_b 13.268113
_cell_length_c 17.668292
_cell_angle_alpha 90.000000
_cell_angle_beta 90.000000
_cell_angle_gamma 90.000000
_cell_volume 3025.386889
_symmetry_space_group_name_H-M "P C C N"
_symmetry_group_IT_number 56
_symmetry_cell_setting 'orthorhombic'
loop_
_space_group_symop_operation_xyz
x,y,z
1/2-x,1/2-y,z
1/2+x,-y,1/2-z
-x,1/2+y,1/2-z
-x,-y,-z
1/2+x,1/2+y,-z
1/2-x,y,1/2+z
x,1/2-y,1/2+z
loop_
_atom_site_type_symbol
_atom_site_label
_atom_site_fract_x
_atom_site_fract_y
_atom_site_fract_z
Si Si1 0.814229 0.647493 0.697595
Si Si2 0.845226 0.591542 0.322790
Si Si3 0.235996 0.508338 0.418279
Si Si4 0.035889 0.257094 0.109957
Si Si5 0.165412 0.666691 0.815753
Si Si6 0.045120 0.887918 0.178002
Si Si7 0.943896 0.394799 0.495398
Si Si8 0.787891 0.862869 0.459825
O O1 0.750000 0.750000 0.678523
O O2 0.747818 0.589810 0.761825
O O3 0.831108 0.577310 0.623728
O O4 0.937866 0.655039 0.716252
O O5 0.935833 0.508582 0.312096
O O6 0.795613 0.581449 0.406175
O O7 0.903006 0.700109 0.321466
O O8 0.300789 0.561201 0.352274
O O9 0.167814 0.590336 0.464130
O O10 0.309104 0.441257 0.472622
O O11 0.929904 0.300761 0.135297
O O12 0.015525 0.183605 0.039334
O O13 0.104465 0.351523 0.084019
O O14 0.250000 0.750000 0.826324
O O15 0.138216 0.659153 0.727299
O O16 0.064000 0.855466 0.091117
O O17 0.000000 0.500000 0.500000
O O18 0.750000 0.750000 0.484194
#
# Coordination Sequence:
#
# PCOD8228783 Si02
#       8
#     8   8   8   8   8   8   8   8
#     4  12  25  41  67 104 133 172 227 285 336 403
#     4  11  21  42  68  98 134 177 222 273 338 407
#     4  12  23  41  68  96 137 174 224 283 337 406
#     4  11  23  43  71  96 135 181 220 283 347 402
#     4  12  27  48  64  93 139 185 226 274 345 416
#     4  12  25  43  70  98 135 179 227 280 340 408
#     4  12  21  42  71  99 127 176 230 273 339 409
#     4  10  21  39  68 104 134 165 222 286 337 399
#
# _framework density 21.154319000000001
#
# number of rings (size 3 to 8) (size 9 to 14) (size 15 to 20)
#    0.000    0.500    6.250    3.750    1.750    0.500 
#    2.250    0.000    0.000    0.000    0.000    0.000 
#    0.000    0.000    0.000    0.000    0.000    0.000 
#
# Total GULP energy -793104.824713 kJ/mol
# GULP energy per Si atom -12392.262886 kJ/mol
# Density = 2.110617 g / cm^3
# Si number density = 21.154319 Si / 1000 Ang^3
#
#
#
# Elastic Constant Matrix: (Units=GPa)
#
#
# Indices 1 2 3 4 5 6 
#
# 1 111.5594 33.8100 34.1624 0.0000 0.0000 0.0000
# 2 33.8100 69.7707 30.8396 0.0000 0.0000 0.0000
# 3 34.1624 30.8396 85.9117 0.0000 0.0000 0.0000
# 4 0.0000 0.0000 0.0000 35.9762 0.0000 0.0000
# 5 0.0000 0.0000 0.0000 0.0000 36.7094 0.0000
# 6 0.0000 0.0000 0.0000 0.0000 0.0000 34.2305
#
#
#
# Elastic Compliance Matrix: (Units=1/GPa)
#
#
# Indices 1 2 3 4 5 6 
#
# 1 0.011103 -0.004076 -0.002952 0.000000 0.000000 0.000000
# 2 -0.004076 0.018532 -0.005032 0.000000 0.000000 0.000000
# 3 -0.002952 -0.005032 0.014620 0.000000 0.000000 0.000000
# 4 0.000000 0.000000 0.000000 0.027796 0.000000 0.000000
# 5 0.000000 0.000000 0.000000 0.000000 0.027241 0.000000
# 6 0.000000 0.000000 0.000000 0.000000 0.000000 0.029214
#
#
# Mechanical properties :
#
#
# Convention : Reuss Voigt Hill
#
# Bulk Modulus (GPa) = 49.66210 51.65176 50.65693
# Shear Modulus (GPa) = 31.38023 32.61189 31.99606
#
# Velocity S-wave (km/s) = 3.85567 3.93060 3.89332
# Velocity P-wave (km/s) = 6.58397 6.71336 6.64898
#
# Compressibility (1/GPa) = 0.02013608
#
# Stress axis : x y z
#
# Youngs Moduli (GPa) = 90.06577 53.96161 68.39969
#
# Poissons Ratio (x) = 0.21992 0.20192
# Poissons Ratio (y) = 0.36707 0.34417
# Poissons Ratio (z) = 0.26588 0.27152
#
# Static dielectric constant tensor:
#      x y z
#    x 3.865730 0.000000 0.000000 
#    y 0.000000 3.786000 0.000000 
#    z 0.000000 0.000000 4.260860 
# 
# 
# High freq. dielectric constant tensor:
#      x y z
#    x 1.829240 0.000000 0.000000 
#    y 0.000000 1.815540 0.000000 
#    z 0.000000 0.000000 1.840170 
# 
# From -- ./inp_files/15821.got.cif
#   From: 2010.03.12/outbox.cif.g09.slc.cpg/sg56_8_cif.got.tgz:15821.got - 2010.04.16 15:33:40.
