data_PCOD8228474
_publ_section_title
;
Structure prediction by ZEFSAII (Michael W. Deem and Ramdas Pophale) SiO2 
 PCOD8228474
Probable space group: P C C N
;
_chemical_formula_sum "Si O2"
_cell_formula_units_Z 52
_cell_length_a 14.579457
_cell_length_b 9.725223
_cell_length_c 17.875968
_cell_angle_alpha 90.000000
_cell_angle_beta 90.000000
_cell_angle_gamma 90.000000
_cell_volume 2534.606162
_symmetry_space_group_name_H-M "P C C N"
_symmetry_group_IT_number 56
_symmetry_cell_setting 'orthorhombic'
loop_
_space_group_symop_operation_xyz
x,y,z
1/2-x,1/2-y,z
1/2+x,-y,1/2-z
-x,1/2+y,1/2-z
-x,-y,-z
1/2+x,1/2+y,-z
1/2-x,y,1/2+z
x,1/2-y,1/2+z
loop_
_atom_site_type_symbol
_atom_site_label
_atom_site_fract_x
_atom_site_fract_y
_atom_site_fract_z
Si Si1 0.094533 0.303467 0.712015
Si Si2 0.389690 0.826487 0.303959
Si Si3 0.693038 0.969771 0.506532
Si Si4 0.250000 0.250000 0.599906
Si Si5 0.750000 0.250000 0.577106
Si Si6 0.098395 0.929714 0.125111
Si Si7 0.750000 0.250000 0.819261
Si Si8 0.902664 0.863095 0.147025
O O1 0.159217 0.234664 0.650189
O O2 0.098304 0.467300 0.697096
O O3 0.129838 0.255738 0.794677
O O4 0.988786 0.253524 0.704661
O O5 0.341111 0.746288 0.371905
O O6 0.329385 0.819063 0.229772
O O7 0.401354 0.987000 0.316985
O O8 0.758807 0.883852 0.452152
O O9 0.663734 0.870525 0.575374
O O10 0.746374 0.109036 0.529870
O O11 0.601050 0.999491 0.457039
O O12 0.196427 0.854203 0.127518
O O13 0.008961 0.832558 0.125543
#
# Coordination Sequence:
#
# PCOD8228474 Si02
#       8
#     8   8   8   4   4   8   4   8
#     4  10  21  40  58  88 124 161 199 255 309 359
#     4   9  20  36  60  89 120 153 202 259 298 358
#     4  10  21  40  59  89 122 164 202 247 310 366
#     4  10  24  40  58  86 128 162 206 254 306 370
#     4   9  19  40  64  84 120 160 206 256 306 362
#     4  10  21  36  61  88 122 159 199 252 301 367
#     4  11  19  36  60  94 118 150 208 248 298 362
#     4  10  20  38  62  86 119 161 201 244 309 364
#
# _framework density 20.516007999999999
#
# number of rings (size 3 to 8) (size 9 to 14) (size 15 to 20)
#    0.000    2.154    1.538    0.923    4.308    1.846 
#    5.538    0.769    0.000    0.000    0.000    0.000 
#    0.000    0.000    0.000    0.000    0.000    0.000 
#
# Total GULP energy -644255.140054 kJ/mol
# GULP energy per Si atom -12389.521924 kJ/mol
# Density = 2.046931 g / cm^3
# Si number density = 20.516008 Si / 1000 Ang^3
#
#
#
# Elastic Constant Matrix: (Units=GPa)
#
#
# Indices 1 2 3 4 5 6 
#
# 1 108.7999 19.5349 22.2328 0.0000 0.0000 0.0000
# 2 19.5349 46.3538 22.6138 0.0000 0.0000 0.0000
# 3 22.2328 22.6138 91.1327 0.0000 0.0000 0.0000
# 4 0.0000 0.0000 0.0000 38.8111 0.0000 0.0000
# 5 0.0000 0.0000 0.0000 0.0000 21.6813 0.0000
# 6 0.0000 0.0000 0.0000 0.0000 0.0000 31.5732
#
#
#
# Elastic Compliance Matrix: (Units=1/GPa)
#
#
# Indices 1 2 3 4 5 6 
#
# 1 0.010147 -0.003491 -0.001609 0.000000 0.000000 0.000000
# 2 -0.003491 0.025746 -0.005537 0.000000 0.000000 0.000000
# 3 -0.001609 -0.005537 0.012739 0.000000 0.000000 0.000000
# 4 0.000000 0.000000 0.000000 0.025766 0.000000 0.000000
# 5 0.000000 0.000000 0.000000 0.000000 0.046123 0.000000
# 6 0.000000 0.000000 0.000000 0.000000 0.000000 0.031672
#
#
# Mechanical properties :
#
#
# Convention : Reuss Voigt Hill
#
# Bulk Modulus (GPa) = 36.55279 41.67216 39.11248
# Shear Modulus (GPa) = 27.38429 30.54012 28.96221
#
# Velocity S-wave (km/s) = 3.65742 3.86242 3.76132
# Velocity P-wave (km/s) = 5.97420 6.34407 6.16191
#
# Compressibility (1/GPa) = 0.02735769
#
# Stress axis : x y z
#
# Youngs Moduli (GPa) = 98.55289 38.84152 78.49610
#
# Poissons Ratio (x) = 0.13560 0.12631
# Poissons Ratio (y) = 0.34406 0.43462
# Poissons Ratio (z) = 0.15858 0.21506
#
# Static dielectric constant tensor:
#      x y z
#    x 3.805390 0.000000 0.000000 
#    y 0.000000 3.549270 0.000000 
#    z 0.000000 0.000000 3.907090 
# 
# 
# High freq. dielectric constant tensor:
#      x y z
#    x 1.802890 0.000000 0.000000 
#    y 0.000000 1.779760 0.000000 
#    z 0.000000 0.000000 1.811150 
# 
# From -- ./inp_files/16298.got.cif
#   From: 2010.03.12/outbox.cif.g09.slc.cpg/sg56_9_cif.got.tgz:16298.got - 2010.04.16 15:33:40.
