data_PCOD8228592
_publ_section_title
;
Structure prediction by ZEFSAII (Michael W. Deem and Ramdas Pophale) SiO2 
 PCOD8228592
Probable space group: P C C N
;
_chemical_formula_sum "Si O2"
_cell_formula_units_Z 64
_cell_length_a 14.140472
_cell_length_b 9.078204
_cell_length_c 22.632831
_cell_angle_alpha 90.000000
_cell_angle_beta 90.000000
_cell_angle_gamma 90.000000
_cell_volume 2905.378540
_symmetry_space_group_name_H-M "P C C N"
_symmetry_group_IT_number 56
_symmetry_cell_setting 'orthorhombic'
loop_
_space_group_symop_operation_xyz
x,y,z
1/2-x,1/2-y,z
1/2+x,-y,1/2-z
-x,1/2+y,1/2-z
-x,-y,-z
1/2+x,1/2+y,-z
1/2-x,y,1/2+z
x,1/2-y,1/2+z
loop_
_atom_site_type_symbol
_atom_site_label
_atom_site_fract_x
_atom_site_fract_y
_atom_site_fract_z
Si Si1 0.475020 0.774588 0.332082
Si Si2 0.790927 0.023597 0.805286
Si Si3 0.547805 0.301057 0.947571
Si Si4 0.346695 0.826352 0.434730
Si Si5 0.662080 0.662548 0.041030
Si Si6 0.605803 0.181812 0.832089
Si Si7 0.624011 0.612681 0.911880
Si Si8 0.955534 0.526592 0.234971
O O1 0.377601 0.775978 0.368988
O O2 0.557531 0.764181 0.381422
O O3 0.489483 0.927946 0.295796
O O4 0.478111 0.638627 0.286782
O O5 0.681311 0.069073 0.801747
O O6 0.864711 0.159373 0.808371
O O7 0.794777 0.927818 0.864731
O O8 0.841373 0.944983 0.747885
O O9 0.437160 0.262602 0.941225
O O10 0.607343 0.192954 0.903714
O O11 0.560183 0.471790 0.929887
O O12 0.578898 0.276063 0.014987
O O13 0.250000 0.750000 0.451962
O O14 0.331333 0.999430 0.434140
O O15 0.750000 0.750000 0.069386
O O16 0.673840 0.671965 0.970143
O O17 0.499109 0.137587 0.813936
#
# Coordination Sequence:
#
# PCOD8228592 Si02
#       8
#     8   8   8   8   8   8   8   8
#     4  11  22  42  64  94 131 178 222 280 342 398
#     4   9  20  38  64  94 123 172 225 266 341 394
#     4  10  20  41  68  95 134 179 224 271 346 416
#     4  11  24  42  67  99 137 185 223 272 346 429
#     4  11  22  39  66  97 136 177 217 275 340 404
#     4  10  21  38  67  95 127 174 223 284 327 407
#     4   9  18  38  64  87 128 176 215 266 327 402
#     4  11  23  40  67  95 130 173 230 282 340 399
#
# _framework density 22.028110999999999
#
# number of rings (size 3 to 8) (size 9 to 14) (size 15 to 20)
#    0.000    1.750    3.750    0.750    5.250    3.000 
#    0.000    3.125    0.000    0.000    0.000    0.000 
#    0.000    0.000    0.000    0.000    0.000    0.000 
#
# Total GULP energy -792835.525780 kJ/mol
# GULP energy per Si atom -12388.055090 kJ/mol
# Density = 2.197797 g / cm^3
# Si number density = 22.028111 Si / 1000 Ang^3
#
#
#
# Elastic Constant Matrix: (Units=GPa)
#
#
# Indices 1 2 3 4 5 6 
#
# 1 116.0685 36.6452 25.5769 0.0000 0.0000 0.0000
# 2 36.6452 48.3996 31.9574 0.0000 0.0000 0.0000
# 3 25.5769 31.9574 96.8406 0.0000 0.0000 0.0000
# 4 0.0000 0.0000 0.0000 26.3146 0.0000 0.0000
# 5 0.0000 0.0000 0.0000 0.0000 23.8986 0.0000
# 6 0.0000 0.0000 0.0000 0.0000 0.0000 32.8606
#
#
#
# Elastic Compliance Matrix: (Units=1/GPa)
#
#
# Indices 1 2 3 4 5 6 
#
# 1 0.011325 -0.008439 -0.000206 0.000000 0.000000 0.000000
# 2 -0.008439 0.032705 -0.008564 0.000000 0.000000 0.000000
# 3 -0.000206 -0.008564 0.013207 0.000000 0.000000 0.000000
# 4 0.000000 0.000000 0.000000 0.038002 0.000000 0.000000
# 5 0.000000 0.000000 0.000000 0.000000 0.041843 0.000000
# 6 0.000000 0.000000 0.000000 0.000000 0.000000 0.030432
#
#
# Mechanical properties :
#
#
# Convention : Reuss Voigt Hill
#
# Bulk Modulus (GPa) = 43.82230 49.96309 46.89270
# Shear Modulus (GPa) = 23.86198 27.75671 25.80935
#
# Velocity S-wave (km/s) = 3.29485 3.55358 3.42666
# Velocity P-wave (km/s) = 5.86615 6.29031 6.08193
#
# Compressibility (1/GPa) = 0.02281943
#
# Stress axis : x y z
#
# Youngs Moduli (GPa) = 88.29784 30.57623 75.71802
#
# Poissons Ratio (x) = 0.25802 0.01563
# Poissons Ratio (y) = 0.74510 0.64845
# Poissons Ratio (z) = 0.01823 0.26185
#
# Static dielectric constant tensor:
#      x y z
#    x 3.871470 0.000000 0.000000 
#    y 0.000000 3.712830 0.000000 
#    z 0.000000 0.000000 4.111730 
# 
# 
# High freq. dielectric constant tensor:
#      x y z
#    x 1.858810 0.000000 0.000000 
#    y 0.000000 1.837610 0.000000 
#    z 0.000000 0.000000 1.870440 
# 
# From -- ./inp_files/21156.got.cif
#   From: 2010.03.12/outbox.cif.g09.slc.cpg/sg56_11_cif.got.tgz:21156.got - 2010.04.16 15:33:40.
