data_PCOD8228559
_publ_section_title
;
Structure prediction by ZEFSAII (Michael W. Deem and Ramdas Pophale) SiO2 
 PCOD8228559
Probable space group: P C C N
;
_chemical_formula_sum "Si O2"
_cell_formula_units_Z 56
_cell_length_a 10.448885
_cell_length_b 10.788128
_cell_length_c 23.602262
_cell_angle_alpha 90.000000
_cell_angle_beta 90.000000
_cell_angle_gamma 90.000000
_cell_volume 2660.539230
_symmetry_space_group_name_H-M "P C C N"
_symmetry_group_IT_number 56
_symmetry_cell_setting 'orthorhombic'
loop_
_space_group_symop_operation_xyz
x,y,z
1/2-x,1/2-y,z
1/2+x,-y,1/2-z
-x,1/2+y,1/2-z
-x,-y,-z
1/2+x,1/2+y,-z
1/2-x,y,1/2+z
x,1/2-y,1/2+z
loop_
_atom_site_type_symbol
_atom_site_label
_atom_site_fract_x
_atom_site_fract_y
_atom_site_fract_z
Si Si1 0.471519 0.579357 0.728095
Si Si2 0.896666 0.625219 0.849635
Si Si3 0.905090 0.899540 0.846874
Si Si4 0.926516 0.455389 0.054213
Si Si5 0.750000 0.250000 0.807381
Si Si6 0.250000 0.750000 0.497004
Si Si7 0.908860 0.136804 0.905574
Si Si8 0.123491 0.321377 0.876522
O O1 0.436226 0.440510 0.708890
O O2 0.542664 0.554800 0.786695
O O3 0.345300 0.668081 0.731782
O O4 0.569013 0.638060 0.683646
O O5 0.959362 0.761350 0.853721
O O6 0.745649 0.616785 0.852258
O O7 0.955918 0.555599 0.902651
O O8 0.953218 0.992987 0.896986
O O9 0.840236 0.564934 0.081420
O O10 0.841855 0.332726 0.043012
O O11 0.000000 0.500000 0.000000
O O12 0.824316 0.156262 0.848948
O O13 0.328129 0.845519 0.536919
O O14 0.025918 0.231261 0.909375
O O15 0.250000 0.250000 0.860840
#
# Coordination Sequence:
#
# PCOD8228559 Si02
#       8
#     8   8   8   8   4   4   8   8
#     4  10  22  38  67  92 132 181 219 263 337 393
#     4  10  24  42  57  98 136 168 217 282 322 395
#     4  11  23  38  65  95 136 173 219 264 335 396
#     4  11  22  46  68  94 131 178 220 282 343 392
#     4   9  18  38  61  88 124 169 224 250 313 394
#     4  11  22  42  79  92 124 179 228 272 355 400
#     4  10  20  40  65  95 124 169 222 269 315 411
#     4  10  23  41  63  98 136 169 226 276 322 397
#
# _framework density 21.048365
#
# number of rings (size 3 to 8) (size 9 to 14) (size 15 to 20)
#    0.000    1.714    2.857    0.857    6.000    1.143 
#    5.143    3.571    0.000    0.000    0.000    0.000 
#    0.000    0.000    0.000    0.000    0.000    0.000 
#
# Total GULP energy -694131.620485 kJ/mol
# GULP energy per Si atom -12395.207509 kJ/mol
# Density = 2.100046 g / cm^3
# Si number density = 21.048365 Si / 1000 Ang^3
#
#
#
# Elastic Constant Matrix: (Units=GPa)
#
#
# Indices 1 2 3 4 5 6 
#
# 1 78.7321 28.2258 27.5371 0.0000 0.0000 0.0000
# 2 28.2258 140.8029 34.8438 0.0000 0.0000 0.0000
# 3 27.5371 34.8438 74.2145 0.0000 0.0000 0.0000
# 4 0.0000 0.0000 0.0000 29.1135 0.0000 0.0000
# 5 0.0000 0.0000 0.0000 0.0000 30.2643 0.0000
# 6 0.0000 0.0000 0.0000 0.0000 0.0000 27.6279
#
#
#
# Elastic Compliance Matrix: (Units=1/GPa)
#
#
# Indices 1 2 3 4 5 6 
#
# 1 0.015007 -0.001845 -0.004702 0.000000 0.000000 0.000000
# 2 -0.001845 0.008263 -0.003195 0.000000 0.000000 0.000000
# 3 -0.004702 -0.003195 0.016719 0.000000 0.000000 0.000000
# 4 0.000000 0.000000 0.000000 0.034348 0.000000 0.000000
# 5 0.000000 0.000000 0.000000 0.000000 0.033042 0.000000
# 6 0.000000 0.000000 0.000000 0.000000 0.000000 0.036195
#
#
# Mechanical properties :
#
#
# Convention : Reuss Voigt Hill
#
# Bulk Modulus (GPa) = 48.76775 52.77363 50.77069
# Shear Modulus (GPa) = 29.43019 30.94400 30.18709
#
# Velocity S-wave (km/s) = 3.74333 3.83840 3.79116
# Velocity P-wave (km/s) = 6.47326 6.69114 6.58310
#
# Compressibility (1/GPa) = 0.02050536
#
# Stress axis : x y z
#
# Youngs Moduli (GPa) = 66.63421 121.02832 59.81156
#
# Poissons Ratio (x) = 0.22327 0.28125
# Poissons Ratio (y) = 0.12292 0.19108
# Poissons Ratio (z) = 0.31333 0.38666
#
# Static dielectric constant tensor:
#      x y z
#    x 3.824660 0.000000 0.000000 
#    y 0.000000 4.382050 0.000000 
#    z 0.000000 0.000000 3.540410 
# 
# 
# High freq. dielectric constant tensor:
#      x y z
#    x 1.817100 0.000000 0.000000 
#    y 0.000000 1.844290 0.000000 
#    z 0.000000 0.000000 1.806980 
# 
# From -- ./inp_files/18774.got.cif
#   From: 2010.03.12/outbox.cif.g09.slc.cpg/sg56_10_cif.got.tgz:18774.got - 2010.04.16 15:33:40.
