data_PCOD8228560
_publ_section_title
;
Structure prediction by ZEFSAII (Michael W. Deem and Ramdas Pophale) SiO2 
 PCOD8228560
Probable space group: P C C N
;
_chemical_formula_sum "Si O2"
_cell_formula_units_Z 60
_cell_length_a 14.642240
_cell_length_b 22.956271
_cell_length_c 8.943844
_cell_angle_alpha 90.000000
_cell_angle_beta 90.000000
_cell_angle_gamma 90.000000
_cell_volume 3006.305280
_symmetry_space_group_name_H-M "P C C N"
_symmetry_group_IT_number 56
_symmetry_cell_setting 'orthorhombic'
loop_
_space_group_symop_operation_xyz
x,y,z
1/2-x,1/2-y,z
1/2+x,-y,1/2-z
-x,1/2+y,1/2-z
-x,-y,-z
1/2+x,1/2+y,-z
1/2-x,y,1/2+z
x,1/2-y,1/2+z
loop_
_atom_site_type_symbol
_atom_site_label
_atom_site_fract_x
_atom_site_fract_y
_atom_site_fract_z
Si Si1 0.071193 0.578242 0.435131
Si Si2 0.250000 0.750000 0.286944
Si Si3 0.948355 0.648443 0.213986
Si Si4 0.050722 0.284080 0.348063
Si Si5 0.356747 0.686327 0.037201
Si Si6 0.604797 0.630902 0.398241
Si Si7 0.190048 0.145456 0.037905
Si Si8 0.399907 0.049162 0.364521
O O1 0.151965 0.616679 0.510089
O O2 0.116733 0.519897 0.369381
O O3 0.030316 0.617819 0.302194
O O4 0.997416 0.564007 0.562612
O O5 0.298930 0.702232 0.183218
O O6 0.174508 0.720286 0.389705
O O7 0.959534 0.717053 0.190579
O O8 0.852975 0.638666 0.298134
O O9 0.946776 0.617748 0.052452
O O10 0.050944 0.319530 0.193163
O O11 0.140884 0.302326 0.444180
O O12 0.964179 0.301555 0.447106
O O13 0.703889 0.657852 0.437785
O O14 0.604964 0.570367 0.307122
O O15 0.178808 0.083720 0.953088
#
# Coordination Sequence:
#
# PCOD8228560 Si02
#       8
#     8   4   8   8   8   8   8   8
#     4  10  20  40  66  82 120 159 218 246 317 377
#     4  10  26  38  72  90 122 148 206 276 316 394
#     4  11  21  32  58  94 118 164 208 258 295 374
#     4  11  22  37  62  89 130 173 195 250 319 383
#     4  11  21  45  61  92 118 159 201 259 330 373
#     4  11  22  35  59  93 130 167 213 255 303 363
#     4  10  21  39  56  89 130 172 207 247 307 369
#     4   9  20  40  61  84 115 178 203 258 302 360
#
# _framework density 19.958053
#
# number of rings (size 3 to 8) (size 9 to 14) (size 15 to 20)
#    0.000    1.600    4.000    3.200    1.867    3.733 
#    2.400    0.000    0.000    0.000    0.000    0.000 
#    0.000    0.000    0.000    0.000    0.000    0.000 
#
# Total GULP energy -743897.546800 kJ/mol
# GULP energy per Si atom -12398.292447 kJ/mol
# Density = 1.991263 g / cm^3
# Si number density = 19.958053 Si / 1000 Ang^3
#
#
#
# Elastic Constant Matrix: (Units=GPa)
#
#
# Indices 1 2 3 4 5 6 
#
# 1 56.6179 34.6137 23.5456 0.0000 0.0000 0.0000
# 2 34.6137 157.8624 52.0265 0.0000 0.0000 0.0000
# 3 23.5456 52.0265 134.8267 0.0000 0.0000 0.0000
# 4 0.0000 0.0000 0.0000 24.2407 0.0000 0.0000
# 5 0.0000 0.0000 0.0000 0.0000 21.9641 0.0000
# 6 0.0000 0.0000 0.0000 0.0000 0.0000 23.4653
#
#
#
# Elastic Compliance Matrix: (Units=1/GPa)
#
#
# Indices 1 2 3 4 5 6 
#
# 1 0.020931 -0.003878 -0.002159 0.000000 0.000000 0.000000
# 2 -0.003878 0.007976 -0.002401 0.000000 0.000000 0.000000
# 3 -0.002159 -0.002401 0.008720 0.000000 0.000000 0.000000
# 4 0.000000 0.000000 0.000000 0.041253 0.000000 0.000000
# 5 0.000000 0.000000 0.000000 0.000000 0.045529 0.000000
# 6 0.000000 0.000000 0.000000 0.000000 0.000000 0.042616
#
#
# Mechanical properties :
#
#
# Convention : Reuss Voigt Hill
#
# Bulk Modulus (GPa) = 48.18702 63.29765 55.74234
# Shear Modulus (GPa) = 26.20310 29.87545 28.03927
#
# Velocity S-wave (km/s) = 3.62734 3.87319 3.75228
# Velocity P-wave (km/s) = 6.46065 7.19627 6.83836
#
# Compressibility (1/GPa) = 0.02075247
#
# Stress axis : x y z
#
# Youngs Moduli (GPa) = 47.77639 125.37512 114.67540
#
# Poissons Ratio (x) = 0.48619 0.24757
# Poissons Ratio (y) = 0.18527 0.27528
# Poissons Ratio (z) = 0.10314 0.30097
#
# Static dielectric constant tensor:
#      x y z
#    x 3.404760 0.000000 0.000000 
#    y 0.000000 3.770860 0.000000 
#    z 0.000000 0.000000 3.939260 
# 
# 
# High freq. dielectric constant tensor:
#      x y z
#    x 1.754940 0.000000 0.000000 
#    y 0.000000 1.771500 0.000000 
#    z 0.000000 0.000000 1.796420 
# 
# From -- ./inp_files/3675.got.cif
#   From: 2010.03.12/outbox.cif.g09.slc.cpg/sg56_2_cif.got.tgz:3675.got - 2010.04.16 15:33:40.
