data_PCOD8228212
_publ_section_title
;
Structure prediction by ZEFSAII (Michael W. Deem and Ramdas Pophale) SiO2 
 PCOD8228212
Probable space group: P C C N
;
_chemical_formula_sum "Si O2"
_cell_formula_units_Z 40
_cell_length_a 10.612614
_cell_length_b 9.914437
_cell_length_c 16.807438
_cell_angle_alpha 90.000000
_cell_angle_beta 90.000000
_cell_angle_gamma 90.000000
_cell_volume 1768.446573
_symmetry_space_group_name_H-M "P C C N"
_symmetry_group_IT_number 56
_symmetry_cell_setting 'orthorhombic'
loop_
_space_group_symop_operation_xyz
x,y,z
1/2-x,1/2-y,z
1/2+x,-y,1/2-z
-x,1/2+y,1/2-z
-x,-y,-z
1/2+x,1/2+y,-z
1/2-x,y,1/2+z
x,1/2-y,1/2+z
loop_
_atom_site_type_symbol
_atom_site_label
_atom_site_fract_x
_atom_site_fract_y
_atom_site_fract_z
Si Si1 0.897647 0.427237 0.385344
Si Si2 0.382212 0.495533 0.778742
Si Si3 0.750000 0.750000 0.144030
Si Si4 0.023395 0.295667 0.969955
Si Si5 0.750000 0.250000 0.269057
Si Si6 0.871293 0.534947 0.901958
O O1 0.859497 0.305513 0.326420
O O2 0.781567 0.525168 0.406266
O O3 0.000636 0.514177 0.337810
O O4 0.959634 0.353991 0.463492
O O5 0.294082 0.370931 0.800322
O O6 0.303710 0.633347 0.787196
O O7 0.424150 0.472736 0.687419
O O8 0.862968 0.692271 0.091811
O O9 0.918945 0.407910 0.952303
O O10 0.080819 0.325510 0.057799
#
# Coordination Sequence:
#
# PCOD8228212 Si02
#       6
#     8   8   4   8   4   8
#     4  10  19  38  66  95 133 172 218 285 331 393
#     4  10  22  38  67  98 132 175 224 279 337 400
#     4  10  24  40  66  92 136 174 226 284 336 392
#     4  10  20  40  62  92 130 177 215 272 336 397
#     4  10  20  38  64  96 134 166 222 270 340 394
#     4  10  21  37  68  91 131 177 222 265 342 405
#
# _framework density 22.618721000000001
#
# number of rings (size 3 to 8) (size 9 to 14) (size 15 to 20)
#    0.000    2.000    4.000    0.000    5.600    0.800 
#    0.000    6.000    0.000    0.000    0.000    0.000 
#    0.000    0.000    0.000    0.000    0.000    0.000 
#
# Total GULP energy -495953.964345 kJ/mol
# GULP energy per Si atom -12398.849109 kJ/mol
# Density = 2.256724 g / cm^3
# Si number density = 22.618721 Si / 1000 Ang^3
#
#
#
# Elastic Constant Matrix: (Units=GPa)
#
#
# Indices 1 2 3 4 5 6 
#
# 1 125.7161 46.9231 43.1621 0.0000 0.0000 0.0000
# 2 46.9231 97.5908 51.8309 0.0000 0.0000 0.0000
# 3 43.1621 51.8309 94.5388 0.0000 0.0000 0.0000
# 4 0.0000 0.0000 0.0000 31.2993 0.0000 0.0000
# 5 0.0000 0.0000 0.0000 0.0000 24.0423 0.0000
# 6 0.0000 0.0000 0.0000 0.0000 0.0000 30.3563
#
#
#
# Elastic Compliance Matrix: (Units=1/GPa)
#
#
# Indices 1 2 3 4 5 6 
#
# 1 0.010184 -0.003424 -0.002772 0.000000 0.000000 0.000000
# 2 -0.003424 0.015608 -0.006993 0.000000 0.000000 0.000000
# 3 -0.002772 -0.006993 0.015678 0.000000 0.000000 0.000000
# 4 0.000000 0.000000 0.000000 0.031950 0.000000 0.000000
# 5 0.000000 0.000000 0.000000 0.000000 0.041593 0.000000
# 6 0.000000 0.000000 0.000000 0.000000 0.000000 0.032942
#
#
# Mechanical properties :
#
#
# Convention : Reuss Voigt Hill
#
# Bulk Modulus (GPa) = 66.27247 66.85311 66.56279
# Shear Modulus (GPa) = 27.87618 28.86823 28.37221
#
# Velocity S-wave (km/s) = 3.51442 3.57641 3.54555
# Velocity P-wave (km/s) = 6.76991 6.83191 6.80098
#
# Compressibility (1/GPa) = 0.01508922
#
# Stress axis : x y z
#
# Youngs Moduli (GPa) = 98.18938 64.07116 63.78560
#
# Poissons Ratio (x) = 0.21941 0.17683
# Poissons Ratio (y) = 0.33624 0.44608
# Poissons Ratio (z) = 0.27221 0.44808
#
# Static dielectric constant tensor:
#      x y z
#    x 4.190860 0.000000 0.000000 
#    y 0.000000 4.007330 0.000000 
#    z 0.000000 0.000000 3.981050 
# 
# 
# High freq. dielectric constant tensor:
#      x y z
#    x 1.903540 0.000000 0.000000 
#    y 0.000000 1.887100 0.000000 
#    z 0.000000 0.000000 1.874180 
# 
# From -- ./inp_files/11446.got.cif
#   From: 2010.03.12/outbox.cif.g09.slc.cpg/sg56_6_cif.got.tgz:11446.got - 2010.04.16 15:33:40.
