data_PCOD8228230
_publ_section_title
;
Structure prediction by ZEFSAII (Michael W. Deem and Ramdas Pophale) SiO2 
 PCOD8228230
Probable space group: P C C N
;
_chemical_formula_sum "Si O2"
_cell_formula_units_Z 36
_cell_length_a 7.616173
_cell_length_b 16.663126
_cell_length_c 13.223489
_cell_angle_alpha 90.000000
_cell_angle_beta 90.000000
_cell_angle_gamma 90.000000
_cell_volume 1678.183076
_symmetry_space_group_name_H-M "P C C N"
_symmetry_group_IT_number 56
_symmetry_cell_setting 'orthorhombic'
loop_
_space_group_symop_operation_xyz
x,y,z
1/2-x,1/2-y,z
1/2+x,-y,1/2-z
-x,1/2+y,1/2-z
-x,-y,-z
1/2+x,1/2+y,-z
1/2-x,y,1/2+z
x,1/2-y,1/2+z
loop_
_atom_site_type_symbol
_atom_site_label
_atom_site_fract_x
_atom_site_fract_y
_atom_site_fract_z
Si Si1 0.949180 0.103996 0.412545
Si Si2 0.250000 0.750000 0.017831
Si Si3 0.209776 0.338591 0.304614
Si Si4 0.900552 0.684575 0.478413
Si Si5 0.155154 0.069827 0.612441
O O1 0.822311 0.180364 0.408800
O O2 0.111394 0.116460 0.337200
O O3 0.012885 0.095406 0.528763
O O4 0.839883 0.026124 0.377744
O O5 0.406965 0.716002 0.945673
O O6 0.250000 0.250000 0.259719
O O7 0.084064 0.330741 0.401453
O O8 0.108557 0.391045 0.220675
O O9 0.750000 0.750000 0.456784
O O10 0.848875 0.603227 0.419295
#
# Coordination Sequence:
#
# PCOD8228230 Si02
#       5
#     8   4   8   8   8
#     4  10  23  40  63  96 127 168 211 265 319 383
#     4  12  20  40  64  90 130 164 216 254 318 384
#     4  10  19  39  65  88 126 174 200 261 326 363
#     4  10  20  40  64  90 129 167 198 272 317 359
#     4  10  21  41  66  89 131 168 211 261 324 377
#
# _framework density 21.451772999999999
#
# number of rings (size 3 to 8) (size 9 to 14) (size 15 to 20)
#    0.000    1.778    6.667    0.667    0.000    2.667 
#    0.000    8.889    0.000    0.000    0.000    0.000 
#    0.000    0.000    0.000    0.000    0.000    0.000 
#
# Total GULP energy -446282.443098 kJ/mol
# GULP energy per Si atom -12396.734530 kJ/mol
# Density = 2.140295 g / cm^3
# Si number density = 21.451773 Si / 1000 Ang^3
#
#
#
# Elastic Constant Matrix: (Units=GPa)
#
#
# Indices 1 2 3 4 5 6 
#
# 1 122.7546 48.8579 12.0306 0.0000 0.0000 0.0000
# 2 48.8579 167.6155 33.6130 0.0000 0.0000 0.0000
# 3 12.0306 33.6130 74.2056 0.0000 0.0000 0.0000
# 4 0.0000 0.0000 0.0000 6.2745 0.0000 0.0000
# 5 0.0000 0.0000 0.0000 0.0000 7.1970 0.0000
# 6 0.0000 0.0000 0.0000 0.0000 0.0000 44.5737
#
#
#
# Elastic Compliance Matrix: (Units=1/GPa)
#
#
# Indices 1 2 3 4 5 6 
#
# 1 0.009222 -0.002627 -0.000305 0.000000 0.000000 0.000000
# 2 -0.002627 0.007310 -0.002886 0.000000 0.000000 0.000000
# 3 -0.000305 -0.002886 0.014833 0.000000 0.000000 0.000000
# 4 0.000000 0.000000 0.000000 0.159374 0.000000 0.000000
# 5 0.000000 0.000000 0.000000 0.000000 0.138946 0.000000
# 6 0.000000 0.000000 0.000000 0.000000 0.000000 0.022435
#
#
# Mechanical properties :
#
#
# Convention : Reuss Voigt Hill
#
# Bulk Modulus (GPa) = 50.68511 61.50872 56.09691
# Shear Modulus (GPa) = 13.50143 29.61400 21.55771
#
# Velocity S-wave (km/s) = 2.51148 3.71953 3.17352
# Velocity P-wave (km/s) = 5.66470 6.86890 6.29566
#
# Compressibility (1/GPa) = 0.01972966
#
# Stress axis : x y z
#
# Youngs Moduli (GPa) = 108.43921 136.79188 67.41902
#
# Poissons Ratio (x) = 0.35933 0.02058
# Poissons Ratio (y) = 0.28485 0.19454
# Poissons Ratio (z) = 0.03310 0.39471
#
# Static dielectric constant tensor:
#      x y z
#    x 3.695830 0.000000 0.000000 
#    y 0.000000 4.271770 0.000000 
#    z 0.000000 0.000000 3.644150 
# 
# 
# High freq. dielectric constant tensor:
#      x y z
#    x 1.817700 0.000000 0.000000 
#    y 0.000000 1.854850 0.000000 
#    z 0.000000 0.000000 1.821030 
# 
# From -- ./inp_files/10473.got.cif
#   From: 2010.03.12/outbox.cif.g09.slc.cpg/sg56_6_cif.got.tgz:10473.got - 2010.04.16 15:33:40.
