data_PCOD8228025
_publ_section_title
;
Structure prediction by ZEFSAII (Michael W. Deem and Ramdas Pophale) SiO2 
 PCOD8228025
Probable space group: P C C N
;
_chemical_formula_sum "Si O2"
_cell_formula_units_Z 44
_cell_length_a 9.735799
_cell_length_b 7.662339
_cell_length_c 34.925450
_cell_angle_alpha 90.000000
_cell_angle_beta 90.000000
_cell_angle_gamma 90.000000
_cell_volume 2605.403378
_symmetry_space_group_name_H-M "P C C N"
_symmetry_group_IT_number 56
_symmetry_cell_setting 'orthorhombic'
loop_
_space_group_symop_operation_xyz
x,y,z
1/2-x,1/2-y,z
1/2+x,-y,1/2-z
-x,1/2+y,1/2-z
-x,-y,-z
1/2+x,1/2+y,-z
1/2-x,y,1/2+z
x,1/2-y,1/2+z
loop_
_atom_site_type_symbol
_atom_site_label
_atom_site_fract_x
_atom_site_fract_y
_atom_site_fract_z
Si Si1 0.750000 0.932554 0.718812
Si Si2 0.027768 0.250000 0.821381
Si Si3 0.250000 0.750000 0.724399
Si Si4 0.408658 0.950004 0.464080
Si Si5 0.408658 0.950004 0.964080
Si Si6 0.409916 0.250000 0.405984
O O1 0.750000 0.750000 0.743236
O O2 0.613438 0.924427 0.691616
O O3 0.886561 0.924426 0.691616
O O4 0.750001 0.088153 0.747577
O O5 0.880415 0.250001 0.802330
O O6 0.004353 0.250000 0.866830
O O7 0.250000 0.980317 0.475446
O O8 0.435240 0.750000 0.451646
O O9 0.500000 0.000000 0.500000
O O10 0.450421 0.076169 0.429283
O O11 0.450421 0.076169 0.929283
O O12 0.500000 0.000000 0.000000
O O13 0.250000 0.250000 0.395360
#
# Coordination Sequence:
#
# PCOD8228025 Si02
#       6
#     8   8   4   8   8   8
#     4   8  20  36  54  80 106 136 183 207 260 338
#     4   9  20  37  54  83 110 138 178 218 274 307
#     4  12  18  36  60  82 106 144 168 228 268 310
#     4  10  20  34  56  81 102 143 185 216 263 318
#     4  10  20  34  56  81 102 143 185 216 263 318
#     4  10  18  38  53  72 118 142 174 227 257 315
#
# _framework density 16.887979000000001
#
# number of rings (size 3 to 8) (size 9 to 14) (size 15 to 20)
#    1.091    1.091    3.636    1.091    0.000    0.000 
#    6.545    0.000    0.000    0.000    0.000    0.000 
#    0.000    0.000    0.000    0.000    0.000    0.000 
#
# Total GULP energy -545171.411819 kJ/mol
# GULP energy per Si atom -12390.259360 kJ/mol
# Density = 1.684954 g / cm^3
# Si number density = 16.887979 Si / 1000 Ang^3
#
#
#
# Elastic Constant Matrix: (Units=GPa)
#
#
# Indices 1 2 3 4 5 6 
#
# 1 100.0683 40.9753 69.7155 0.0000 0.0000 0.0000
# 2 40.9753 139.3000 80.0039 0.0000 0.0000 0.0000
# 3 69.7155 80.0039 158.0426 0.0000 0.0000 0.0000
# 4 0.0000 0.0000 0.0000 26.7078 0.0000 0.0000
# 5 0.0000 0.0000 0.0000 0.0000 3.8877 0.0000
# 6 0.0000 0.0000 0.0000 0.0000 0.0000 16.0734
#
#
#
# Elastic Compliance Matrix: (Units=1/GPa)
#
#
# Indices 1 2 3 4 5 6 
#
# 1 0.014495 -0.000834 -0.005972 0.000000 0.000000 0.000000
# 2 -0.000834 0.010169 -0.004780 0.000000 0.000000 0.000000
# 3 -0.005972 -0.004780 0.011381 0.000000 0.000000 0.000000
# 4 0.000000 0.000000 0.000000 0.037442 0.000000 0.000000
# 5 0.000000 0.000000 0.000000 0.000000 0.257221 0.000000
# 6 0.000000 0.000000 0.000000 0.000000 0.000000 0.062215
#
#
# Mechanical properties :
#
#
# Convention : Reuss Voigt Hill
#
# Bulk Modulus (GPa) = 77.67476 86.53335 82.10406
# Shear Modulus (GPa) = 11.89379 23.11487 17.50433
#
# Velocity S-wave (km/s) = 2.65670 3.70363 3.22296
# Velocity P-wave (km/s) = 7.45015 8.34506 7.91027
#
# Compressibility (1/GPa) = 0.01287419
#
# Stress axis : x y z
#
# Youngs Moduli (GPa) = 68.98856 98.33459 87.86207
#
# Poissons Ratio (x) = 0.08200 0.52471
# Poissons Ratio (y) = 0.05753 0.41998
# Poissons Ratio (z) = 0.41199 0.47004
#
# Static dielectric constant tensor:
#      x y z
#    x 3.139270 0.000000 0.000000 
#    y 0.000000 3.336910 0.000000 
#    z 0.000000 0.000000 3.005540 
# 
# 
# High freq. dielectric constant tensor:
#      x y z
#    x 1.645130 0.000000 0.000000 
#    y 0.000000 1.647480 0.000000 
#    z 0.000000 0.000000 1.640490 
# 
# From -- ./inp_files/23161.got.cif
#   From: 2010.03.12/outbox.cif.g09.slc.cpg/sg56_12_cif.got.tgz:23161.got - 2010.04.16 15:33:40.
