data_PCOD8228154
_publ_section_title
;
Structure prediction by ZEFSAII (Michael W. Deem and Ramdas Pophale) SiO2 
 PCOD8228154
Probable space group: P C C N
;
_chemical_formula_sum "Si O2"
_cell_formula_units_Z 56
_cell_length_a 9.076966
_cell_length_b 19.787368
_cell_length_c 17.074706
_cell_angle_alpha 90.000000
_cell_angle_beta 90.000000
_cell_angle_gamma 90.000000
_cell_volume 3066.775421
_symmetry_space_group_name_H-M "P C C N"
_symmetry_group_IT_number 56
_symmetry_cell_setting 'orthorhombic'
loop_
_space_group_symop_operation_xyz
x,y,z
1/2-x,1/2-y,z
1/2+x,-y,1/2-z
-x,1/2+y,1/2-z
-x,-y,-z
1/2+x,1/2+y,-z
1/2-x,y,1/2+z
x,1/2-y,1/2+z
loop_
_atom_site_type_symbol
_atom_site_label
_atom_site_fract_x
_atom_site_fract_y
_atom_site_fract_z
Si Si1 0.770311 0.916206 0.092637
Si Si2 0.062776 0.965045 0.837530
Si Si3 0.140736 0.694652 0.076924
Si Si4 0.609850 0.712936 0.025464
Si Si5 0.445721 0.932806 0.156534
Si Si6 0.206861 0.495236 0.564158
Si Si7 0.145368 0.875935 0.968652
O O1 0.828095 0.838768 0.091691
O O2 0.610675 0.923920 0.129074
O O3 0.876141 0.960182 0.147506
O O4 0.763247 0.941184 0.003238
O O5 0.063618 0.951561 0.746466
O O6 0.162580 0.907995 0.881935
O O7 0.897485 0.961102 0.871089
O O8 0.250000 0.750000 0.112223
O O9 0.137401 0.637762 0.143170
O O10 0.979863 0.725638 0.064508
O O11 0.209055 0.665627 0.994569
O O12 0.750000 0.750000 0.983065
O O13 0.499291 0.672144 0.968470
O O14 0.363602 0.989074 0.104251
O O15 0.123571 0.561377 0.528962
#
# Coordination Sequence:
#
# PCOD8228154 Si02
#       7
#     8   8   8   8   8   8   8
#     4  11  20  36  58  85 108 147 191 228 281 330
#     4  11  20  36  58  83 115 145 177 239 294 331
#     4   9  20  35  55  80 107 149 195 220 264 336
#     4  11  18  33  60  81 104 145 199 228 263 328
#     4  11  22  34  55  88 116 141 181 238 288 330
#     4  10  19  36  58  80 110 143 187 232 272 337
#     4   9  18  36  57  78 105 143 189 230 269 328
#
# _framework density 18.260221999999999
#
# number of rings (size 3 to 8) (size 9 to 14) (size 15 to 20)
#    0.000    1.714    4.286    2.143    0.000    0.000 
#    0.000    2.143    3.143    0.000    0.000    0.000 
#    0.000    0.000    0.000    0.000    0.000    0.000 
#
# Total GULP energy -694105.396861 kJ/mol
# GULP energy per Si atom -12394.739230 kJ/mol
# Density = 1.821866 g / cm^3
# Si number density = 18.260222 Si / 1000 Ang^3
#
#
#
# Elastic Constant Matrix: (Units=GPa)
#
#
# Indices 1 2 3 4 5 6 
#
# 1 99.3772 37.0252 41.4102 0.0000 0.0000 0.0000
# 2 37.0252 84.1064 34.7919 0.0000 0.0000 0.0000
# 3 41.4102 34.7919 86.8104 0.0000 0.0000 0.0000
# 4 0.0000 0.0000 0.0000 17.1430 0.0000 0.0000
# 5 0.0000 0.0000 0.0000 0.0000 27.1519 0.0000
# 6 0.0000 0.0000 0.0000 0.0000 0.0000 31.9757
#
#
#
# Elastic Compliance Matrix: (Units=1/GPa)
#
#
# Indices 1 2 3 4 5 6 
#
# 1 0.013573 -0.003952 -0.004891 0.000000 0.000000 0.000000
# 2 -0.003952 0.015403 -0.004288 0.000000 0.000000 0.000000
# 3 -0.004891 -0.004288 0.015571 0.000000 0.000000 0.000000
# 4 0.000000 0.000000 0.000000 0.058333 0.000000 0.000000
# 5 0.000000 0.000000 0.000000 0.000000 0.036830 0.000000
# 6 0.000000 0.000000 0.000000 0.000000 0.000000 0.031274
#
#
# Mechanical properties :
#
#
# Convention : Reuss Voigt Hill
#
# Bulk Modulus (GPa) = 54.68805 55.19429 54.94117
# Shear Modulus (GPa) = 24.58930 25.72524 25.15727
#
# Velocity S-wave (km/s) = 3.67359 3.75749 3.71578
# Velocity P-wave (km/s) = 6.92878 7.00836 6.96868
#
# Compressibility (1/GPa) = 0.01828553
#
# Stress axis : x y z
#
# Youngs Moduli (GPa) = 73.67562 64.92119 64.22216
#
# Poissons Ratio (x) = 0.25657 0.31409
# Poissons Ratio (y) = 0.29116 0.27540
# Poissons Ratio (z) = 0.36033 0.27839
#
# Static dielectric constant tensor:
#      x y z
#    x 3.598380 0.000000 0.000000 
#    y 0.000000 3.645040 0.000000 
#    z 0.000000 0.000000 3.027800 
# 
# 
# High freq. dielectric constant tensor:
#      x y z
#    x 1.723670 0.000000 0.000000 
#    y 0.000000 1.719370 0.000000 
#    z 0.000000 0.000000 1.660970 
# 
# From -- ./inp_files/13070.got.cif
#   From: 2010.03.12/outbox.cif.g09.slc.cpg/sg56_7_cif.got.tgz:13070.got - 2010.04.16 15:33:40.
