data_PCOD8228414
_publ_section_title
;
Structure prediction by ZEFSAII (Michael W. Deem and Ramdas Pophale) SiO2 
 PCOD8228414
Probable space group: P C C N
;
_chemical_formula_sum "Si O2"
_cell_formula_units_Z 36
_cell_length_a 12.523995
_cell_length_b 14.661970
_cell_length_c 8.889509
_cell_angle_alpha 90.000000
_cell_angle_beta 90.000000
_cell_angle_gamma 90.000000
_cell_volume 1632.348882
_symmetry_space_group_name_H-M "P C C N"
_symmetry_group_IT_number 56
_symmetry_cell_setting 'orthorhombic'
loop_
_space_group_symop_operation_xyz
x,y,z
1/2-x,1/2-y,z
1/2+x,-y,1/2-z
-x,1/2+y,1/2-z
-x,-y,-z
1/2+x,1/2+y,-z
1/2-x,y,1/2+z
x,1/2-y,1/2+z
loop_
_atom_site_type_symbol
_atom_site_label
_atom_site_fract_x
_atom_site_fract_y
_atom_site_fract_z
Si Si1 0.807660 0.117982 0.019487
Si Si2 0.250000 0.250000 0.102732
Si Si3 0.358985 0.546593 0.282415
Si Si4 0.116035 0.157052 0.356771
Si Si5 0.907268 0.300632 0.011814
O O1 0.863885 0.052246 0.898013
O O2 0.889838 0.197096 0.072801
O O3 0.704096 0.164795 0.937664
O O4 0.764609 0.058548 0.160350
O O5 0.161012 0.201001 0.204192
O O6 0.305173 0.174144 0.997510
O O7 0.403164 0.450150 0.336254
O O8 0.432462 0.628977 0.350111
O O9 0.001298 0.201178 0.390040
#
# Coordination Sequence:
#
# PCOD8228414 Si02
#       5
#     8   4   8   8   8
#     4   9  21  33  59  94 121 147 190 249 298 359
#     4  10  26  40  60  80 116 160 208 246 288 350
#     4  10  20  37  59  89 121 151 197 241 297 356
#     4  11  22  43  61  83 116 165 203 245 294 359
#     4   9  22  34  64  86 122 154 191 242 311 355
#
# _framework density 22.054109
#
# number of rings (size 3 to 8) (size 9 to 14) (size 15 to 20)
#    1.333    0.889    0.000    2.000    9.333    0.000 
#    0.000    0.000    0.000    6.667    0.000    0.000 
#    0.000    0.000    0.000    0.000    0.000    0.000 
#
# Total GULP energy -446047.189490 kJ/mol
# GULP energy per Si atom -12390.199708 kJ/mol
# Density = 2.200391 g / cm^3
# Si number density = 22.054109 Si / 1000 Ang^3
#
#
#
# Elastic Constant Matrix: (Units=GPa)
#
#
# Indices 1 2 3 4 5 6 
#
# 1 38.7327 4.6609 -17.0906 0.0000 0.0000 0.0000
# 2 4.6609 80.6233 7.7757 0.0000 0.0000 0.0000
# 3 -17.0906 7.7757 61.1833 0.0000 0.0000 0.0000
# 4 0.0000 0.0000 0.0000 26.5379 0.0000 0.0000
# 5 0.0000 0.0000 0.0000 0.0000 16.6000 0.0000
# 6 0.0000 0.0000 0.0000 0.0000 0.0000 30.0287
#
#
#
# Elastic Compliance Matrix: (Units=1/GPa)
#
#
# Indices 1 2 3 4 5 6 
#
# 1 0.029965 -0.002571 0.008697 0.000000 0.000000 0.000000
# 2 -0.002571 0.012778 -0.002342 0.000000 0.000000 0.000000
# 3 0.008697 -0.002342 0.019071 0.000000 0.000000 0.000000
# 4 0.000000 0.000000 0.000000 0.037682 0.000000 0.000000
# 5 0.000000 0.000000 0.000000 0.000000 0.060241 0.000000
# 6 0.000000 0.000000 0.000000 0.000000 0.000000 0.033301
#
#
# Mechanical properties :
#
#
# Convention : Reuss Voigt Hill
#
# Bulk Modulus (GPa) = 14.41303 19.02571 16.71937
# Shear Modulus (GPa) = 23.96953 26.97953 25.47453
#
# Velocity S-wave (km/s) = 3.30032 3.50141 3.40235
# Velocity P-wave (km/s) = 4.59046 4.99921 4.79919
#
# Compressibility (1/GPa) = 0.06938165
#
# Stress axis : x y z
#
# Youngs Moduli (GPa) = 33.37241 78.26017 52.43467
#
# Poissons Ratio (x) = 0.20121 -0.45602
# Poissons Ratio (y) = 0.08580 0.12281
# Poissons Ratio (z) = -0.29024 0.18330
#
# Static dielectric constant tensor:
#      x y z
#    x 3.642110 0.000000 0.000000 
#    y 0.000000 3.735450 0.000000 
#    z 0.000000 0.000000 3.613900 
# 
# 
# High freq. dielectric constant tensor:
#      x y z
#    x 1.841120 0.000000 0.000000 
#    y 0.000000 1.861560 0.000000 
#    z 0.000000 0.000000 1.854120 
# 
# From -- ./inp_files/3165.got.cif
#   From: 2010.03.12/outbox.cif.g09.slc.cpg/sg56_2_cif.got.tgz:3165.got - 2010.04.16 15:33:40.
