data_PCOD8228597
_publ_section_title
;
Structure prediction by ZEFSAII (Michael W. Deem and Ramdas Pophale) SiO2 
 PCOD8228597
Probable space group: P C C N
;
_chemical_formula_sum "Si O2"
_cell_formula_units_Z 44
_cell_length_a 11.854098
_cell_length_b 13.644879
_cell_length_c 13.839638
_cell_angle_alpha 90.000000
_cell_angle_beta 90.000000
_cell_angle_gamma 90.000000
_cell_volume 2238.530070
_symmetry_space_group_name_H-M "P C C N"
_symmetry_group_IT_number 56
_symmetry_cell_setting 'orthorhombic'
loop_
_space_group_symop_operation_xyz
x,y,z
1/2-x,1/2-y,z
1/2+x,-y,1/2-z
-x,1/2+y,1/2-z
-x,-y,-z
1/2+x,1/2+y,-z
1/2-x,y,1/2+z
x,1/2-y,1/2+z
loop_
_atom_site_type_symbol
_atom_site_label
_atom_site_fract_x
_atom_site_fract_y
_atom_site_fract_z
Si Si1 0.250000 0.250000 0.866817
Si Si2 0.621934 0.226991 0.483722
Si Si3 0.974716 0.098064 0.605775
Si Si4 0.463491 0.141828 0.314031
Si Si5 0.830097 0.564345 0.024839
Si Si6 0.895724 0.473077 0.562769
O O1 0.150376 0.205433 0.801508
O O2 0.189260 0.327909 0.935060
O O3 0.750000 0.250000 0.450359
O O4 0.569110 0.324835 0.526786
O O5 0.548468 0.187379 0.393401
O O6 0.619268 0.144622 0.569662
O O7 0.970846 0.141471 0.713092
O O8 0.102123 0.069505 0.575928
O O9 0.897818 0.001066 0.603307
O O10 0.418245 0.030809 0.336863
O O11 0.711094 0.514110 0.004063
O O12 0.000000 0.500000 0.500000
#
# Coordination Sequence:
#
# PCOD8228597 Si02
#       6
#     4   8   8   8   8   8
#     4  10  20  42  64  90 128 162 212 256 304 384
#     4  11  21  42  64  92 127 169 206 262 322 373
#     4  11  23  40  64  93 125 166 210 262 320 377
#     4  10  23  41  61  96 124 166 213 257 314 377
#     4  10  21  41  63  86 127 165 206 260 315 373
#     4   9  20  41  61  85 125 163 206 257 311 376
#
# _framework density 19.655754999999999
#
# number of rings (size 3 to 8) (size 9 to 14) (size 15 to 20)
#    0.000    1.818    3.636    0.000    0.000    2.909 
#   13.091    0.000    0.000    0.000    0.000    0.000 
#    0.000    0.000    0.000    0.000    0.000    0.000 
#
# Total GULP energy -545320.685291 kJ/mol
# GULP energy per Si atom -12393.651938 kJ/mol
# Density = 1.961102 g / cm^3
# Si number density = 19.655755 Si / 1000 Ang^3
#
#
#
# Elastic Constant Matrix: (Units=GPa)
#
#
# Indices 1 2 3 4 5 6 
#
# 1 138.8632 39.7973 44.2696 0.0000 0.0000 0.0000
# 2 39.7973 116.7801 38.2892 0.0000 0.0000 0.0000
# 3 44.2696 38.2892 96.1931 0.0000 0.0000 0.0000
# 4 0.0000 0.0000 0.0000 22.3729 0.0000 0.0000
# 5 0.0000 0.0000 0.0000 0.0000 10.6495 0.0000
# 6 0.0000 0.0000 0.0000 0.0000 0.0000 32.1918
#
#
#
# Elastic Compliance Matrix: (Units=1/GPa)
#
#
# Indices 1 2 3 4 5 6 
#
# 1 0.008799 -0.001922 -0.003285 0.000000 0.000000 0.000000
# 2 -0.001922 0.010268 -0.003203 0.000000 0.000000 0.000000
# 3 -0.003285 -0.003203 0.013182 0.000000 0.000000 0.000000
# 4 0.000000 0.000000 0.000000 0.044697 0.000000 0.000000
# 5 0.000000 0.000000 0.000000 0.000000 0.093901 0.000000
# 6 0.000000 0.000000 0.000000 0.000000 0.000000 0.031064
#
#
# Mechanical properties :
#
#
# Convention : Reuss Voigt Hill
#
# Bulk Modulus (GPa) = 64.80311 66.28319 65.54315
# Shear Modulus (GPa) = 22.33409 28.34154 25.33782
#
# Velocity S-wave (km/s) = 3.37451 3.80135 3.59427
# Velocity P-wave (km/s) = 6.94433 7.28438 7.11639
#
# Compressibility (1/GPa) = 0.01543136
#
# Stress axis : x y z
#
# Youngs Moduli (GPa) = 113.64645 97.38891 75.85977
#
# Poissons Ratio (x) = 0.18716 0.24917
# Poissons Ratio (y) = 0.21840 0.24296
# Poissons Ratio (z) = 0.37328 0.31191
#
# Static dielectric constant tensor:
#      x y z
#    x 3.897020 0.000000 0.000000 
#    y 0.000000 4.356910 0.000000 
#    z 0.000000 0.000000 3.140050 
# 
# 
# High freq. dielectric constant tensor:
#      x y z
#    x 1.791340 0.000000 0.000000 
#    y 0.000000 1.786130 0.000000 
#    z 0.000000 0.000000 1.717790 
# 
# From -- ./inp_files/11530.got.cif
#   From: 2010.03.12/outbox.cif.g09.slc.cpg/sg56_6_cif.got.tgz:11530.got - 2010.04.16 15:33:40.
