data_PCOD8228070
_publ_section_title
;
Structure prediction by ZEFSAII (Michael W. Deem and Ramdas Pophale) SiO2 
 PCOD8228070
Probable space group: P C C N
;
_chemical_formula_sum "Si O2"
_cell_formula_units_Z 40
_cell_length_a 5.003591
_cell_length_b 13.162258
_cell_length_c 30.384758
_cell_angle_alpha 90.000000
_cell_angle_beta 90.000000
_cell_angle_gamma 90.000000
_cell_volume 2001.096276
_symmetry_space_group_name_H-M "P C C N"
_symmetry_group_IT_number 56
_symmetry_cell_setting 'orthorhombic'
loop_
_space_group_symop_operation_xyz
x,y,z
1/2-x,1/2-y,z
1/2+x,-y,1/2-z
-x,1/2+y,1/2-z
-x,-y,-z
1/2+x,1/2+y,-z
1/2-x,y,1/2+z
x,1/2-y,1/2+z
loop_
_atom_site_type_symbol
_atom_site_label
_atom_site_fract_x
_atom_site_fract_y
_atom_site_fract_z
Si Si1 0.192949 0.638636 0.671506
Si Si2 0.782643 0.048209 0.053335
Si Si3 0.201432 0.559440 0.259633
Si Si4 0.693597 0.508816 0.650457
Si Si5 0.722470 0.866807 0.991842
O O1 0.250000 0.750000 0.651668
O O2 0.215558 0.647259 0.725122
O O3 0.399712 0.556684 0.652283
O O4 0.901284 0.601471 0.656907
O O5 0.572161 0.116460 0.027009
O O6 0.070660 0.098511 0.045732
O O7 0.727570 0.049736 0.104960
O O8 0.773425 0.932283 0.035913
O O9 0.386433 0.462407 0.245870
O O10 0.265814 0.577514 0.311361
O O11 0.750000 0.750000 0.005300
#
# Coordination Sequence:
#
# PCOD8228070 Si02
#       5
#     8   8   8   8   8
#     4  10  19  31  49  76 106 135 173 218 261 306
#     4  10  21  37  58  82 107 141 180 219 269 322
#     4   8  16  30  48  67  96 134 161 195 251 304
#     4  10  19  34  53  74 103 138 174 214 261 313
#     4  10  21  38  57  79 110 142 175 220 272 323
#
# _framework density 19.989042999999999
#
# number of rings (size 3 to 8) (size 9 to 14) (size 15 to 20)
#    0.000    2.400    0.000    2.400    0.000    1.600 
#    0.000    2.000    0.000    0.000    0.000    0.000 
#    0.000    0.000    0.000    0.000    0.000    0.000 
#
# Total GULP energy -495800.370368 kJ/mol
# GULP energy per Si atom -12395.009259 kJ/mol
# Density = 1.994355 g / cm^3
# Si number density = 19.989043 Si / 1000 Ang^3
#
#
#
# Elastic Constant Matrix: (Units=GPa)
#
#
# Indices 1 2 3 4 5 6 
#
# 1 73.5832 7.8192 3.0370 0.0000 0.0000 0.0000
# 2 7.8192 69.8126 1.9371 0.0000 0.0000 0.0000
# 3 3.0370 1.9371 97.7965 0.0000 0.0000 0.0000
# 4 0.0000 0.0000 0.0000 11.1548 0.0000 0.0000
# 5 0.0000 0.0000 0.0000 0.0000 21.8015 0.0000
# 6 0.0000 0.0000 0.0000 0.0000 0.0000 16.9526
#
#
#
# Elastic Compliance Matrix: (Units=1/GPa)
#
#
# Indices 1 2 3 4 5 6 
#
# 1 0.013769 -0.001531 -0.000397 0.000000 0.000000 0.000000
# 2 -0.001531 0.014502 -0.000240 0.000000 0.000000 0.000000
# 3 -0.000397 -0.000240 0.010242 0.000000 0.000000 0.000000
# 4 0.000000 0.000000 0.000000 0.089647 0.000000 0.000000
# 5 0.000000 0.000000 0.000000 0.000000 0.045868 0.000000
# 6 0.000000 0.000000 0.000000 0.000000 0.000000 0.058988
#
#
# Mechanical properties :
#
#
# Convention : Reuss Voigt Hill
#
# Bulk Modulus (GPa) = 29.25901 29.64211 29.45056
# Shear Modulus (GPa) = 20.10082 25.20840 22.65461
#
# Velocity S-wave (km/s) = 3.17455 3.55506 3.37018
# Velocity P-wave (km/s) = 5.30154 5.63140 5.46896
#
# Compressibility (1/GPa) = 0.03417750
#
# Stress axis : x y z
#
# Youngs Moduli (GPa) = 72.62611 68.95507 97.63336
#
# Poissons Ratio (x) = 0.10558 0.03879
# Poissons Ratio (y) = 0.11120 0.02340
# Poissons Ratio (z) = 0.02885 0.01653
#
# Static dielectric constant tensor:
#      x y z
#    x 3.788860 0.000000 0.000000 
#    y 0.000000 3.212170 0.000000 
#    z 0.000000 0.000000 3.625680 
# 
# 
# High freq. dielectric constant tensor:
#      x y z
#    x 1.802870 0.000000 0.000000 
#    y 0.000000 1.734710 0.000000 
#    z 0.000000 0.000000 1.775920 
# 
# From -- ./inp_files/21500.got.cif
#   From: 2010.03.12/outbox.cif.g09.slc.cpg/sg56_11_cif.got.tgz:21500.got - 2010.04.16 15:33:40.
