data_PCOD8228079
_publ_section_title
;
Structure prediction by ZEFSAII (Michael W. Deem and Ramdas Pophale) SiO2 
 PCOD8228079
Probable space group: P C C N
;
_chemical_formula_sum "Si O2"
_cell_formula_units_Z 56
_cell_length_a 6.252438
_cell_length_b 20.260241
_cell_length_c 23.937618
_cell_angle_alpha 90.000000
_cell_angle_beta 90.000000
_cell_angle_gamma 90.000000
_cell_volume 3032.319321
_symmetry_space_group_name_H-M "P C C N"
_symmetry_group_IT_number 56
_symmetry_cell_setting 'orthorhombic'
loop_
_space_group_symop_operation_xyz
x,y,z
1/2-x,1/2-y,z
1/2+x,-y,1/2-z
-x,1/2+y,1/2-z
-x,-y,-z
1/2+x,1/2+y,-z
1/2-x,y,1/2+z
x,1/2-y,1/2+z
loop_
_atom_site_type_symbol
_atom_site_label
_atom_site_fract_x
_atom_site_fract_y
_atom_site_fract_z
Si Si1 0.250000 0.750000 0.553022
Si Si2 0.250000 0.750000 0.335580
Si Si3 0.557452 0.853734 0.798637
Si Si4 0.158470 0.090796 0.291071
Si Si5 0.176333 0.948309 0.799592
Si Si6 0.870493 0.816613 0.605950
Si Si7 0.871726 0.684363 0.496677
Si Si8 0.936421 0.858278 0.879806
O O1 0.387796 0.702452 0.592304
O O2 0.389503 0.797261 0.514155
O O3 0.401626 0.708895 0.294054
O O4 0.394671 0.798249 0.373214
O O5 0.704402 0.856794 0.744195
O O6 0.414889 0.919532 0.803450
O O7 0.706947 0.843959 0.852465
O O8 0.111166 0.125394 0.349409
O O9 0.940203 0.073501 0.258016
O O10 0.303956 0.026763 0.301945
O O11 0.035118 0.924489 0.852546
O O12 0.750000 0.750000 0.626769
O O13 0.754125 0.845244 0.550198
O O14 0.750000 0.750000 0.475190
O O15 0.889154 0.632214 0.445778
#
# Coordination Sequence:
#
# PCOD8228079 Si02
#       8
#     4   4   8   8   8   8   8   8
#     4   8  17  36  53  82 108 146 184 206 290 338
#     4  10  19  32  53  88 112 148 170 234 290 326
#     4  10  21  35  54  82 113 142 187 229 282 330
#     4  11  21  40  57  78 111 149 195 233 270 344
#     4  10  22  36  58  79 105 156 192 227 283 322
#     4   9  21  35  56  84 112 144 179 229 276 327
#     4   9  17  33  56  81 113 148 177 223 278 333
#     4  10  20  34  57  85 116 141 186 229 274 338
#
# _framework density 18.467713
#
# number of rings (size 3 to 8) (size 9 to 14) (size 15 to 20)
#    0.000    2.571    1.429    1.714    0.000    9.143 
#    0.000    4.286    0.000    1.714    0.000    0.000 
#    0.000    0.000    0.000    0.000    0.000    0.000 
#
# Total GULP energy -694219.196503 kJ/mol
# GULP energy per Si atom -12396.771366 kJ/mol
# Density = 1.842568 g / cm^3
# Si number density = 18.467713 Si / 1000 Ang^3
#
#
#
# Elastic Constant Matrix: (Units=GPa)
#
#
# Indices 1 2 3 4 5 6 
#
# 1 126.0596 39.0061 56.7601 0.0000 0.0000 0.0000
# 2 39.0061 75.6162 60.3496 0.0000 0.0000 0.0000
# 3 56.7601 60.3496 151.3966 0.0000 0.0000 0.0000
# 4 0.0000 0.0000 0.0000 24.3423 0.0000 0.0000
# 5 0.0000 0.0000 0.0000 0.0000 14.9518 0.0000
# 6 0.0000 0.0000 0.0000 0.0000 0.0000 26.4380
#
#
#
# Elastic Compliance Matrix: (Units=1/GPa)
#
#
# Indices 1 2 3 4 5 6 
#
# 1 0.010043 -0.003191 -0.002493 0.000000 0.000000 0.000000
# 2 -0.003191 0.020409 -0.006939 0.000000 0.000000 0.000000
# 3 -0.002493 -0.006939 0.010306 0.000000 0.000000 0.000000
# 4 0.000000 0.000000 0.000000 0.041081 0.000000 0.000000
# 5 0.000000 0.000000 0.000000 0.000000 0.066882 0.000000
# 6 0.000000 0.000000 0.000000 0.000000 0.000000 0.037824
#
#
# Mechanical properties :
#
#
# Convention : Reuss Voigt Hill
#
# Bulk Modulus (GPa) = 64.46870 73.92267 69.19568
# Shear Modulus (GPa) = 23.04570 26.27685 24.66128
#
# Velocity S-wave (km/s) = 3.53638 3.77617 3.65824
# Velocity P-wave (km/s) = 7.18744 7.68944 7.44268
#
# Compressibility (1/GPa) = 0.01551140
#
# Stress axis : x y z
#
# Youngs Moduli (GPa) = 99.57562 48.99891 97.03097
#
# Poissons Ratio (x) = 0.15633 0.24192
# Poissons Ratio (y) = 0.31770 0.67331
# Poissons Ratio (z) = 0.24827 0.34001
#
# Static dielectric constant tensor:
#      x y z
#    x 3.600520 0.000000 0.000000 
#    y 0.000000 3.160230 0.000000 
#    z 0.000000 0.000000 3.240030 
# 
# 
# High freq. dielectric constant tensor:
#      x y z
#    x 1.737900 0.000000 0.000000 
#    y 0.000000 1.686590 0.000000 
#    z 0.000000 0.000000 1.704970 
# 
# From -- ./inp_files/20140.got.cif
#   From: 2010.03.12/outbox.cif.g09.slc.cpg/sg56_11_cif.got.tgz:20140.got - 2010.04.16 15:33:40.
