data_PCOD8228822
_publ_section_title
;
Structure prediction by ZEFSAII (Michael W. Deem and Ramdas Pophale) SiO2 
 PCOD8228822
Probable space group: P C C N
;
_chemical_formula_sum "Si O2"
_cell_formula_units_Z 48
_cell_length_a 21.463520
_cell_length_b 8.833714
_cell_length_c 12.032265
_cell_angle_alpha 90.000000
_cell_angle_beta 90.000000
_cell_angle_gamma 90.000000
_cell_volume 2281.348693
_symmetry_space_group_name_H-M "P C C N"
_symmetry_group_IT_number 56
_symmetry_cell_setting 'orthorhombic'
loop_
_space_group_symop_operation_xyz
x,y,z
1/2-x,1/2-y,z
1/2+x,-y,1/2-z
-x,1/2+y,1/2-z
-x,-y,-z
1/2+x,1/2+y,-z
1/2-x,y,1/2+z
x,1/2-y,1/2+z
loop_
_atom_site_type_symbol
_atom_site_label
_atom_site_fract_x
_atom_site_fract_y
_atom_site_fract_z
Si Si1 0.873299 0.920380 0.680788
Si Si2 0.816375 0.919654 0.446996
Si Si3 0.978733 0.393083 0.098294
Si Si4 0.178005 0.437627 0.585852
Si Si5 0.593809 0.599994 0.259607
Si Si6 0.937183 0.071910 0.048397
O O1 0.843047 0.971808 0.564884
O O2 0.831408 0.972311 0.784006
O O3 0.880395 0.738830 0.686076
O O4 0.938473 0.009472 0.685884
O O5 0.822485 0.739443 0.439503
O O6 0.747514 0.992184 0.443429
O O7 0.855282 0.979475 0.340552
O O8 0.941914 0.252953 0.044285
O O9 0.038765 0.331918 0.164127
O O10 0.000000 0.500000 0.000000
O O11 0.124759 0.522849 0.517138
O O12 0.569479 0.471954 0.177185
O O13 0.000000 0.000000 0.000000
#
# Coordination Sequence:
#
# PCOD8228822 Si02
#       6
#     8   8   8   8   8   8
#     4  11  22  42  64  95 130 169 221 273 335 399
#     4  10  21  40  67  98 129 173 221 272 329 400
#     4  12  24  41  67  96 136 174 217 281 341 394
#     4  10  23  38  68  99 128 171 219 277 326 396
#     4  11  22  41  68  97 129 174 223 277 333 397
#     4  12  24  42  67  99 133 168 228 279 333 399
#
# _framework density 21.040187
#
# number of rings (size 3 to 8) (size 9 to 14) (size 15 to 20)
#    0.000    1.000    3.333    5.000    2.333    2.667 
#    0.000    0.833    0.000    0.000    0.000    0.000 
#    0.000    0.000    0.000    0.000    0.000    0.000 
#
# Total GULP energy -595199.971942 kJ/mol
# GULP energy per Si atom -12399.999415 kJ/mol
# Density = 2.099230 g / cm^3
# Si number density = 21.040187 Si / 1000 Ang^3
#
#
#
# Elastic Constant Matrix: (Units=GPa)
#
#
# Indices 1 2 3 4 5 6 
#
# 1 160.7028 35.4130 67.1996 0.0000 0.0000 0.0000
# 2 35.4130 79.5360 41.2412 0.0000 0.0000 0.0000
# 3 67.1996 41.2412 133.9904 0.0000 0.0000 0.0000
# 4 0.0000 0.0000 0.0000 25.7463 0.0000 0.0000
# 5 0.0000 0.0000 0.0000 0.0000 43.1717 0.0000
# 6 0.0000 0.0000 0.0000 0.0000 0.0000 28.5037
#
#
#
# Elastic Compliance Matrix: (Units=1/GPa)
#
#
# Indices 1 2 3 4 5 6 
#
# 1 0.008081 -0.001781 -0.003505 0.000000 0.000000 0.000000
# 2 -0.001781 0.015353 -0.003832 0.000000 0.000000 0.000000
# 3 -0.003505 -0.003832 0.010400 0.000000 0.000000 0.000000
# 4 0.000000 0.000000 0.000000 0.038841 0.000000 0.000000
# 5 0.000000 0.000000 0.000000 0.000000 0.023163 0.000000
# 6 0.000000 0.000000 0.000000 0.000000 0.000000 0.035083
#
#
# Mechanical properties :
#
#
# Convention : Reuss Voigt Hill
#
# Bulk Modulus (GPa) = 64.10818 73.54852 68.82835
# Shear Modulus (GPa) = 32.39269 34.84269 33.61769
#
# Velocity S-wave (km/s) = 3.92798 4.07382 4.00157
# Velocity P-wave (km/s) = 7.14896 7.56043 7.35757
#
# Compressibility (1/GPa) = 0.01559863
#
# Stress axis : x y z
#
# Youngs Moduli (GPa) = 123.75469 65.13398 96.14986
#
# Poissons Ratio (x) = 0.11598 0.33696
# Poissons Ratio (y) = 0.22036 0.36849
# Poissons Ratio (z) = 0.43370 0.24962
#
# Static dielectric constant tensor:
#      x y z
#    x 5.023390 0.000000 0.000000 
#    y 0.000000 3.313850 0.000000 
#    z 0.000000 0.000000 3.924080 
# 
# 
# High freq. dielectric constant tensor:
#      x y z
#    x 1.834920 0.000000 0.000000 
#    y 0.000000 1.792170 0.000000 
#    z 0.000000 0.000000 1.841930 
# 
# From -- ./inp_files/8873.got.cif
#   From: 2010.03.12/outbox.cif.g09.slc.cpg/sg56_5_cif.got.tgz:8873.got - 2010.04.16 15:33:40.
