data_PCOD8228668
_publ_section_title
;
Structure prediction by ZEFSAII (Michael W. Deem and Ramdas Pophale) SiO2 
 PCOD8228668
Probable space group: P C C N
;
_chemical_formula_sum "Si O2"
_cell_formula_units_Z 56
_cell_length_a 12.470602
_cell_length_b 11.246070
_cell_length_c 20.367659
_cell_angle_alpha 90.000000
_cell_angle_beta 90.000000
_cell_angle_gamma 90.000000
_cell_volume 2856.467694
_symmetry_space_group_name_H-M "P C C N"
_symmetry_group_IT_number 56
_symmetry_cell_setting 'orthorhombic'
loop_
_space_group_symop_operation_xyz
x,y,z
1/2-x,1/2-y,z
1/2+x,-y,1/2-z
-x,1/2+y,1/2-z
-x,-y,-z
1/2+x,1/2+y,-z
1/2-x,y,1/2+z
x,1/2-y,1/2+z
loop_
_atom_site_type_symbol
_atom_site_label
_atom_site_fract_x
_atom_site_fract_y
_atom_site_fract_z
Si Si1 0.928077 0.453164 0.059222
Si Si2 0.982933 0.820520 0.123978
Si Si3 0.187959 0.514030 0.409057
Si Si4 0.369207 0.716117 0.001260
Si Si5 0.464402 0.430962 0.314793
Si Si6 0.636554 0.388212 0.766306
Si Si7 0.642558 0.364236 0.226643
O O1 0.810516 0.516881 0.069412
O O2 0.908129 0.312847 0.052271
O O3 0.997081 0.486669 0.123361
O O4 0.000000 0.500000 0.000000
O O5 0.064365 0.898672 0.168201
O O6 0.942801 0.704406 0.163636
O O7 0.047968 0.779400 0.060567
O O8 0.877792 0.893171 0.102843
O O9 0.130630 0.586962 0.467577
O O10 0.183549 0.595451 0.344272
O O11 0.250000 0.750000 0.026427
O O12 0.364210 0.492294 0.278433
O O13 0.553211 0.447494 0.258250
O O14 0.762177 0.371629 0.781104
O O15 0.600181 0.272070 0.723615
#
# Coordination Sequence:
#
# PCOD8228668 Si02
#       7
#     8   8   8   8   8   8   8
#     4  11  22  40  62  89 120 164 211 259 307 373
#     4  11  23  38  61  92 123 162 198 263 316 369
#     4  11  22  39  61  88 123 162 209 249 317 377
#     4  10  23  39  63  87 116 162 216 257 302 368
#     4  11  21  38  60  90 122 154 205 253 312 368
#     4  10  21  37  60  88 122 154 208 252 306 372
#     4  10  21  36  62  89 115 165 201 257 308 365
#
# _framework density 19.604631000000001
#
# number of rings (size 3 to 8) (size 9 to 14) (size 15 to 20)
#    0.000    1.429    4.286    1.286    8.000    0.571 
#    0.000    0.000    0.000    0.000    0.000    0.000 
#    0.000    0.000    0.000    0.000    0.000    0.000 
#
# Total GULP energy -693836.826451 kJ/mol
# GULP energy per Si atom -12389.943329 kJ/mol
# Density = 1.956001 g / cm^3
# Si number density = 19.604631 Si / 1000 Ang^3
#
#
#
# Elastic Constant Matrix: (Units=GPa)
#
#
# Indices 1 2 3 4 5 6 
#
# 1 85.3557 43.3417 35.4493 0.0000 0.0000 0.0000
# 2 43.3417 89.7233 34.2756 0.0000 0.0000 0.0000
# 3 35.4493 34.2756 66.7126 0.0000 0.0000 0.0000
# 4 0.0000 0.0000 0.0000 34.6213 0.0000 0.0000
# 5 0.0000 0.0000 0.0000 0.0000 33.3463 0.0000
# 6 0.0000 0.0000 0.0000 0.0000 0.0000 29.6903
#
#
#
# Elastic Compliance Matrix: (Units=1/GPa)
#
#
# Indices 1 2 3 4 5 6 
#
# 1 0.017312 -0.006033 -0.006100 0.000000 0.000000 0.000000
# 2 -0.006033 0.015969 -0.004999 0.000000 0.000000 0.000000
# 3 -0.006100 -0.004999 0.020799 0.000000 0.000000 0.000000
# 4 0.000000 0.000000 0.000000 0.028884 0.000000 0.000000
# 5 0.000000 0.000000 0.000000 0.000000 0.029988 0.000000
# 6 0.000000 0.000000 0.000000 0.000000 0.000000 0.033681
#
#
# Mechanical properties :
#
#
# Convention : Reuss Voigt Hill
#
# Bulk Modulus (GPa) = 50.45974 51.99164 51.22569
# Shear Modulus (GPa) = 26.66621 28.11324 27.38972
#
# Velocity S-wave (km/s) = 3.69209 3.79094 3.74184
# Velocity P-wave (km/s) = 6.63098 6.76308 6.69736
#
# Compressibility (1/GPa) = 0.01981778
#
# Stress axis : x y z
#
# Youngs Moduli (GPa) = 57.76256 62.62052 48.07829
#
# Poissons Ratio (x) = 0.37777 0.29327
# Poissons Ratio (y) = 0.34846 0.24035
# Poissons Ratio (z) = 0.35234 0.31305
#
# Static dielectric constant tensor:
#      x y z
#    x 3.577450 0.000000 0.000000 
#    y 0.000000 3.625090 0.000000 
#    z 0.000000 0.000000 3.591550 
# 
# 
# High freq. dielectric constant tensor:
#      x y z
#    x 1.757640 0.000000 0.000000 
#    y 0.000000 1.761190 0.000000 
#    z 0.000000 0.000000 1.764330 
# 
# From -- ./inp_files/18751.got.cif
#   From: 2010.03.12/outbox.cif.g09.slc.cpg/sg56_10_cif.got.tgz:18751.got - 2010.04.16 15:33:40.
