data_PCOD8228431
_publ_section_title
;
Structure prediction by ZEFSAII (Michael W. Deem and Ramdas Pophale) SiO2 
 PCOD8228431
Probable space group: P C C N
;
_chemical_formula_sum "Si O2"
_cell_formula_units_Z 60
_cell_length_a 19.713827
_cell_length_b 10.828856
_cell_length_c 13.078565
_cell_angle_alpha 90.000000
_cell_angle_beta 90.000000
_cell_angle_gamma 90.000000
_cell_volume 2791.988434
_symmetry_space_group_name_H-M "P C C N"
_symmetry_group_IT_number 56
_symmetry_cell_setting 'orthorhombic'
loop_
_space_group_symop_operation_xyz
x,y,z
1/2-x,1/2-y,z
1/2+x,-y,1/2-z
-x,1/2+y,1/2-z
-x,-y,-z
1/2+x,1/2+y,-z
1/2-x,y,1/2+z
x,1/2-y,1/2+z
loop_
_atom_site_type_symbol
_atom_site_label
_atom_site_fract_x
_atom_site_fract_y
_atom_site_fract_z
Si Si1 0.925055 0.044563 0.882594
Si Si2 0.666625 0.423563 0.373572
Si Si3 0.328665 0.110126 0.298797
Si Si4 0.931394 0.058068 0.103137
Si Si5 0.954955 0.195829 0.296142
Si Si6 0.387891 0.372098 0.284435
Si Si7 0.750000 0.250000 0.736049
Si Si8 0.707642 0.474971 0.598681
O O1 0.946409 0.159757 0.814146
O O2 0.875658 0.953279 0.819296
O O3 0.895538 0.088965 0.993200
O O4 0.989211 0.961145 0.911044
O O5 0.681195 0.549559 0.312536
O O6 0.585876 0.389781 0.378941
O O7 0.693793 0.306456 0.310228
O O8 0.704981 0.436130 0.480605
O O9 0.337028 0.255717 0.279664
O O10 0.398113 0.064608 0.350537
O O11 0.267709 0.072315 0.375198
O O12 0.922646 0.170264 0.183323
O O13 0.033870 0.160268 0.302383
O O14 0.363600 0.457791 0.377848
O O15 0.715752 0.352673 0.665523
#
# Coordination Sequence:
#
# PCOD8228431 Si02
#       8
#     8   8   8   8   8   8   4   8
#     4  10  20  37  63  91 120 169 215 259 329 390
#     4  10  23  41  65  98 122 172 213 269 331 384
#     4  10  22  43  62  90 136 165 214 274 317 388
#     4   9  20  38  60  90 120 169 213 261 330 381
#     4  10  21  39  63  92 134 162 216 282 320 385
#     4  11  23  40  62  93 131 172 214 268 329 383
#     4  10  22  44  68  94 128 160 218 278 320 392
#     4  11  24  41  65  94 127 171 217 267 332 392
#
# _framework density 21.490061000000001
#
# number of rings (size 3 to 8) (size 9 to 14) (size 15 to 20)
#    0.000    1.867    1.333    1.600    0.000    9.067 
#    2.400    2.667    0.000    0.000    0.000    0.000 
#    0.000    0.000    0.000    0.000    0.000    0.000 
#
# Total GULP energy -743621.482793 kJ/mol
# GULP energy per Si atom -12393.691380 kJ/mol
# Density = 2.144115 g / cm^3
# Si number density = 21.490061 Si / 1000 Ang^3
#
#
#
# Elastic Constant Matrix: (Units=GPa)
#
#
# Indices 1 2 3 4 5 6 
#
# 1 79.6780 42.3287 47.0239 0.0000 0.0000 0.0000
# 2 42.3287 130.9581 66.5818 0.0000 0.0000 0.0000
# 3 47.0239 66.5818 147.8481 0.0000 0.0000 0.0000
# 4 0.0000 0.0000 0.0000 19.9213 0.0000 0.0000
# 5 0.0000 0.0000 0.0000 0.0000 25.9365 0.0000
# 6 0.0000 0.0000 0.0000 0.0000 0.0000 30.2245
#
#
#
# Elastic Compliance Matrix: (Units=1/GPa)
#
#
# Indices 1 2 3 4 5 6 
#
# 1 0.016586 -0.003474 -0.003711 0.000000 0.000000 0.000000
# 2 -0.003474 0.010631 -0.003683 0.000000 0.000000 0.000000
# 3 -0.003711 -0.003683 0.009602 0.000000 0.000000 0.000000
# 4 0.000000 0.000000 0.000000 0.050197 0.000000 0.000000
# 5 0.000000 0.000000 0.000000 0.000000 0.038556 0.000000
# 6 0.000000 0.000000 0.000000 0.000000 0.000000 0.033086
#
#
# Mechanical properties :
#
#
# Convention : Reuss Voigt Hill
#
# Bulk Modulus (GPa) = 66.29364 74.48367 70.38866
# Shear Modulus (GPa) = 26.96543 28.71979 27.84261
#
# Velocity S-wave (km/s) = 3.54614 3.65968 3.60335
# Velocity P-wave (km/s) = 6.90524 7.25207 7.08078
#
# Compressibility (1/GPa) = 0.01508440
#
# Stress axis : x y z
#
# Youngs Moduli (GPa) = 60.29083 94.06090 104.14128
#
# Poissons Ratio (x) = 0.32681 0.38643
# Poissons Ratio (y) = 0.20948 0.38352
# Poissons Ratio (z) = 0.22372 0.34639
#
# Static dielectric constant tensor:
#      x y z
#    x 3.949200 0.000000 0.000000 
#    y 0.000000 3.817540 0.000000 
#    z 0.000000 0.000000 4.083580 
# 
# 
# High freq. dielectric constant tensor:
#      x y z
#    x 1.847120 0.000000 0.000000 
#    y 0.000000 1.842360 0.000000 
#    z 0.000000 0.000000 1.837700 
# 
# From -- ./inp_files/8694.got.cif
#   From: 2010.03.12/outbox.cif.g09.slc.cpg/sg56_5_cif.got.tgz:8694.got - 2010.04.16 15:33:40.
