data_PCOD8228049
_publ_section_title
;
Structure prediction by ZEFSAII (Michael W. Deem and Ramdas Pophale) SiO2 
 PCOD8228049
Probable space group: P C C N
;
_chemical_formula_sum "Si O2"
_cell_formula_units_Z 60
_cell_length_a 23.262433
_cell_length_b 8.043901
_cell_length_c 16.707590
_cell_angle_alpha 90.000000
_cell_angle_beta 90.000000
_cell_angle_gamma 90.000000
_cell_volume 3126.336071
_symmetry_space_group_name_H-M "P C C N"
_symmetry_group_IT_number 56
_symmetry_cell_setting 'orthorhombic'
loop_
_space_group_symop_operation_xyz
x,y,z
1/2-x,1/2-y,z
1/2+x,-y,1/2-z
-x,1/2+y,1/2-z
-x,-y,-z
1/2+x,1/2+y,-z
1/2-x,y,1/2+z
x,1/2-y,1/2+z
loop_
_atom_site_type_symbol
_atom_site_label
_atom_site_fract_x
_atom_site_fract_y
_atom_site_fract_z
Si Si1 0.464374 0.830531 0.161351
Si Si2 0.380400 0.394899 0.184343
Si Si3 0.058415 0.560605 0.538762
Si Si4 0.366037 0.468808 0.725950
Si Si5 0.750000 0.250000 0.648415
Si Si6 0.449298 0.892854 0.802232
Si Si7 0.758537 0.936080 0.760179
Si Si8 0.870849 0.142347 0.109911
O O1 0.459119 0.736181 0.077661
O O2 0.484826 0.713647 0.235583
O O3 0.399609 0.886024 0.181269
O O4 0.507030 0.985363 0.151996
O O5 0.416577 0.436121 0.105351
O O6 0.395013 0.205905 0.205764
O O7 0.399644 0.505526 0.258589
O O8 0.311640 0.427621 0.177152
O O9 0.108732 0.567497 0.473670
O O10 0.000000 0.500000 0.500000
O O11 0.300696 0.476580 0.693149
O O12 0.368055 0.500191 0.821808
O O13 0.732195 0.414117 0.698191
O O14 0.693279 0.214447 0.595697
O O15 0.418563 0.779660 0.867966
O O16 0.750000 0.750000 0.719966
#
# Coordination Sequence:
#
# PCOD8228049 Si02
#       8
#     8   8   8   8   4   8   8   8
#     4  10  22  37  58  88 113 158 202 255 297 362
#     4  10  20  39  62  87 115 163 199 258 302 354
#     4  11  27  41  53  87 132 163 198 254 319 368
#     4   9  20  37  68  87 114 151 211 252 296 366
#     4  10  18  40  66  92 126 156 202 260 304 370
#     4  10  20  34  63  85 109 151 216 241 293 357
#     4   9  18  35  64  97 116 146 212 263 299 358
#     4  10  22  40  60  93 121 159 198 249 316 371
#
# _framework density 19.191794999999999
#
# number of rings (size 3 to 8) (size 9 to 14) (size 15 to 20)
#    0.000    2.133    1.333    0.800   13.067    0.533 
#    2.400    0.000    0.000    4.000    0.000    0.000 
#    0.000    0.000    0.000    0.000    0.000    0.000 
#
# Total GULP energy -743653.481555 kJ/mol
# GULP energy per Si atom -12394.224693 kJ/mol
# Density = 1.914811 g / cm^3
# Si number density = 19.191795 Si / 1000 Ang^3
#
#
#
# Elastic Constant Matrix: (Units=GPa)
#
#
# Indices 1 2 3 4 5 6 
#
# 1 126.5414 46.5089 47.9264 0.0000 0.0000 0.0000
# 2 46.5089 100.8994 33.6452 0.0000 0.0000 0.0000
# 3 47.9264 33.6452 73.7284 0.0000 0.0000 0.0000
# 4 0.0000 0.0000 0.0000 23.3282 0.0000 0.0000
# 5 0.0000 0.0000 0.0000 0.0000 30.0865 0.0000
# 6 0.0000 0.0000 0.0000 0.0000 0.0000 36.3485
#
#
#
# Elastic Compliance Matrix: (Units=1/GPa)
#
#
# Indices 1 2 3 4 5 6 
#
# 1 0.011326 -0.003262 -0.005874 0.000000 0.000000 0.000000
# 2 -0.003262 0.012629 -0.003643 0.000000 0.000000 0.000000
# 3 -0.005874 -0.003643 0.019044 0.000000 0.000000 0.000000
# 4 0.000000 0.000000 0.000000 0.042867 0.000000 0.000000
# 5 0.000000 0.000000 0.000000 0.000000 0.033238 0.000000
# 6 0.000000 0.000000 0.000000 0.000000 0.000000 0.027511
#
#
# Mechanical properties :
#
#
# Convention : Reuss Voigt Hill
#
# Bulk Modulus (GPa) = 57.33318 61.92559 59.62939
# Shear Modulus (GPa) = 28.09211 29.49188 28.79200
#
# Velocity S-wave (km/s) = 3.83006 3.92432 3.87747
# Velocity P-wave (km/s) = 7.03547 7.27121 7.15431
#
# Compressibility (1/GPa) = 0.01744191
#
# Stress axis : x y z
#
# Youngs Moduli (GPa) = 88.29135 79.18180 52.51045
#
# Poissons Ratio (x) = 0.25830 0.30844
# Poissons Ratio (y) = 0.28801 0.19128
# Poissons Ratio (z) = 0.51861 0.28844
#
# Static dielectric constant tensor:
#      x y z
#    x 3.717170 0.000000 0.000000 
#    y 0.000000 3.843840 0.000000 
#    z 0.000000 0.000000 3.101700 
# 
# 
# High freq. dielectric constant tensor:
#      x y z
#    x 1.770240 0.000000 0.000000 
#    y 0.000000 1.761610 0.000000 
#    z 0.000000 0.000000 1.697040 
# 
# From -- ./inp_files/13253.got.cif
#   From: 2010.03.12/outbox.cif.g09.slc.cpg/sg56_7_cif.got.tgz:13253.got - 2010.04.16 15:33:40.
