data_PCOD8228017
_publ_section_title
;
Structure prediction by ZEFSAII (Michael W. Deem and Ramdas Pophale) SiO2 
 PCOD8228017
Probable space group: P C C N
;
_chemical_formula_sum "Si O2"
_cell_formula_units_Z 64
_cell_length_a 8.988062
_cell_length_b 14.147702
_cell_length_c 23.766287
_cell_angle_alpha 90.000000
_cell_angle_beta 90.000000
_cell_angle_gamma 90.000000
_cell_volume 3022.131102
_symmetry_space_group_name_H-M "P C C N"
_symmetry_group_IT_number 56
_symmetry_cell_setting 'orthorhombic'
loop_
_space_group_symop_operation_xyz
x,y,z
1/2-x,1/2-y,z
1/2+x,-y,1/2-z
-x,1/2+y,1/2-z
-x,-y,-z
1/2+x,1/2+y,-z
1/2-x,y,1/2+z
x,1/2-y,1/2+z
loop_
_atom_site_type_symbol
_atom_site_label
_atom_site_fract_x
_atom_site_fract_y
_atom_site_fract_z
Si Si1 0.672036 0.117879 0.112423
Si Si2 0.151823 0.658827 0.573554
Si Si3 0.404612 0.698834 0.197902
Si Si4 0.174039 0.983996 0.501902
Si Si5 0.516992 0.202509 0.622462
Si Si6 0.071544 0.397437 0.511169
Si Si7 0.526417 0.632300 0.759484
Si Si8 0.797019 0.459037 0.226761
O O1 0.812897 0.176643 0.132638
O O2 0.524442 0.184775 0.108295
O O3 0.654103 0.039472 0.160932
O O4 0.717145 0.075999 0.052522
O O5 0.250000 0.750000 0.566047
O O6 0.080809 0.652269 0.635827
O O7 0.260258 0.570296 0.557230
O O8 0.010890 0.672088 0.532023
O O9 0.250000 0.750000 0.203422
O O10 0.522336 0.782000 0.213422
O O11 0.409304 0.613663 0.242299
O O12 0.252650 0.087357 0.498925
O O13 0.000000 0.000000 0.500000
O O14 0.439632 0.142208 0.573849
O O15 0.434512 0.180504 0.680729
O O16 0.000000 0.500000 0.500000
O O17 0.374601 0.569096 0.760984
O O18 0.667328 0.565366 0.746646
#
# Coordination Sequence:
#
# PCOD8228017 Si02
#       8
#     8   8   8   8   8   8   8   8
#     4  10  19  36  61  85 120 160 208 255 309 377
#     4  10  20  37  63  86 122 166 206 252 316 393
#     4   9  19  37  60  92 122 160 212 252 307 394
#     4  11  24  38  58  92 127 154 208 272 329 374
#     4  10  18  36  65  86 117 158 221 253 297 390
#     4  10  20  35  59  94 113 160 214 253 313 390
#     4  10  21  38  63  93 122 167 212 266 315 383
#     4  10  21  36  61  89 119 164 210 260 319 367
#
# _framework density 21.177109000000002
#
# number of rings (size 3 to 8) (size 9 to 14) (size 15 to 20)
#    0.000    2.000    3.750    0.750    3.500    3.000 
#    0.000    3.125    0.000    4.500    0.000    0.000 
#    0.000    0.000    0.000    0.000    0.000    0.000 
#
# Total GULP energy -792897.892356 kJ/mol
# GULP energy per Si atom -12389.029568 kJ/mol
# Density = 2.112891 g / cm^3
# Si number density = 21.177109 Si / 1000 Ang^3
#
#
#
# Elastic Constant Matrix: (Units=GPa)
#
#
# Indices 1 2 3 4 5 6 
#
# 1 66.5998 2.4474 17.3632 0.0000 0.0000 0.0000
# 2 2.4474 31.5179 33.7224 0.0000 0.0000 0.0000
# 3 17.3632 33.7224 146.3887 0.0000 0.0000 0.0000
# 4 0.0000 0.0000 0.0000 33.7839 0.0000 0.0000
# 5 0.0000 0.0000 0.0000 0.0000 10.0388 0.0000
# 6 0.0000 0.0000 0.0000 0.0000 0.0000 30.4944
#
#
#
# Elastic Compliance Matrix: (Units=1/GPa)
#
#
# Indices 1 2 3 4 5 6 
#
# 1 0.015519 0.001014 -0.002074 0.000000 0.000000 0.000000
# 2 0.001014 0.042172 -0.009835 0.000000 0.000000 0.000000
# 3 -0.002074 -0.009835 0.009343 0.000000 0.000000 0.000000
# 4 0.000000 0.000000 0.000000 0.029600 0.000000 0.000000
# 5 0.000000 0.000000 0.000000 0.000000 0.099613 0.000000
# 6 0.000000 0.000000 0.000000 0.000000 0.000000 0.032793
#
#
# Mechanical properties :
#
#
# Convention : Reuss Voigt Hill
#
# Bulk Modulus (GPa) = 22.10264 39.06361 30.58313
# Shear Modulus (GPa) = 18.80327 27.59499 23.19913
#
# Velocity S-wave (km/s) = 2.98301 3.61371 3.31340
# Velocity P-wave (km/s) = 4.72484 5.99150 5.39547
#
# Compressibility (1/GPa) = 0.04524345
#
# Stress axis : x y z
#
# Youngs Moduli (GPa) = 64.43884 23.71216 107.03390
#
# Poissons Ratio (x) = -0.02405 0.22202
# Poissons Ratio (y) = -0.06537 1.05271
# Poissons Ratio (z) = 0.13367 0.23322
#
# Static dielectric constant tensor:
#      x y z
#    x 3.713900 0.000000 0.000000 
#    y 0.000000 3.990710 0.000000 
#    z 0.000000 0.000000 4.194520 
# 
# 
# High freq. dielectric constant tensor:
#      x y z
#    x 1.799670 0.000000 0.000000 
#    y 0.000000 1.822500 0.000000 
#    z 0.000000 0.000000 1.837020 
# 
# From -- ./inp_files/20679.got.cif
#   From: 2010.03.12/outbox.cif.g09.slc.cpg/sg56_11_cif.got.tgz:20679.got - 2010.04.16 15:33:40.
