data_PCOD8228101
_publ_section_title
;
Structure prediction by ZEFSAII (Michael W. Deem and Ramdas Pophale) SiO2 
 PCOD8228101
Probable space group: P C C N
;
_chemical_formula_sum "Si O2"
_cell_formula_units_Z 40
_cell_length_a 4.941424
_cell_length_b 17.531557
_cell_length_c 22.760152
_cell_angle_alpha 90.000000
_cell_angle_beta 90.000000
_cell_angle_gamma 90.000000
_cell_volume 1971.731462
_symmetry_space_group_name_H-M "P C C N"
_symmetry_group_IT_number 56
_symmetry_cell_setting 'orthorhombic'
loop_
_space_group_symop_operation_xyz
x,y,z
1/2-x,1/2-y,z
1/2+x,-y,1/2-z
-x,1/2+y,1/2-z
-x,-y,-z
1/2+x,1/2+y,-z
1/2-x,y,1/2+z
x,1/2-y,1/2+z
loop_
_atom_site_type_symbol
_atom_site_label
_atom_site_fract_x
_atom_site_fract_y
_atom_site_fract_z
Si Si1 0.765178 0.931419 0.446550
Si Si2 0.497679 0.701546 0.874114
Si Si3 0.867331 0.926100 0.196467
Si Si4 0.872508 0.400044 0.731790
Si Si5 0.256847 0.029876 0.426222
O O1 0.640180 0.853967 0.421267
O O2 0.828867 0.921646 0.516122
O O3 0.556324 0.998966 0.435906
O O4 0.043258 0.959959 0.415006
O O5 0.750000 0.750000 0.849618
O O6 0.343855 0.659980 0.820587
O O7 0.250000 0.750000 0.903823
O O8 0.659691 0.884539 0.239050
O O9 0.782037 0.911939 0.128802
O O10 0.153548 0.891020 0.216070
O O11 0.857406 0.017060 0.203094
#
# Coordination Sequence:
#
# PCOD8228101 Si02
#       5
#     8   8   8   8   8
#     4  10  21  35  56  87 115 149 194 231 304 344
#     4  12  24  38  58  79 122 162 195 235 274 366
#     4  10  19  33  58  82 116 140 178 257 292 338
#     4  10  21  33  53  85 111 147 193 227 296 340
#     4  10  19  35  60  86 117 141 182 260 298 342
#
# _framework density 20.286739000000001
#
# number of rings (size 3 to 8) (size 9 to 14) (size 15 to 20)
#    0.000    1.600    2.000    3.600    5.600    0.000 
#    0.000    0.000    0.000    7.200    0.000    0.000 
#    0.000    0.000    0.000    0.000    0.000    0.000 
#
# Total GULP energy -495781.983681 kJ/mol
# GULP energy per Si atom -12394.549592 kJ/mol
# Density = 2.024057 g / cm^3
# Si number density = 20.286739 Si / 1000 Ang^3
#
#
#
# Elastic Constant Matrix: (Units=GPa)
#
#
# Indices 1 2 3 4 5 6 
#
# 1 109.7888 27.2275 27.7942 0.0000 0.0000 0.0000
# 2 27.2275 60.2331 38.5902 0.0000 0.0000 0.0000
# 3 27.7942 38.5902 113.2004 0.0000 0.0000 0.0000
# 4 0.0000 0.0000 0.0000 12.3824 0.0000 0.0000
# 5 0.0000 0.0000 0.0000 0.0000 26.1551 0.0000
# 6 0.0000 0.0000 0.0000 0.0000 0.0000 30.7729
#
#
#
# Elastic Compliance Matrix: (Units=1/GPa)
#
#
# Indices 1 2 3 4 5 6 
#
# 1 0.010387 -0.003917 -0.001215 0.000000 0.000000 0.000000
# 2 -0.003917 0.022719 -0.006783 0.000000 0.000000 0.000000
# 3 -0.001215 -0.006783 0.011445 0.000000 0.000000 0.000000
# 4 0.000000 0.000000 0.000000 0.080760 0.000000 0.000000
# 5 0.000000 0.000000 0.000000 0.000000 0.038233 0.000000
# 6 0.000000 0.000000 0.000000 0.000000 0.000000 0.032496
#
#
# Mechanical properties :
#
#
# Convention : Reuss Voigt Hill
#
# Bulk Modulus (GPa) = 48.26195 52.27179 50.26687
# Shear Modulus (GPa) = 22.04805 26.50275 24.27540
#
# Velocity S-wave (km/s) = 3.30027 3.61835 3.46296
# Velocity P-wave (km/s) = 6.19386 6.57868 6.38917
#
# Compressibility (1/GPa) = 0.02072026
#
# Stress axis : x y z
#
# Youngs Moduli (GPa) = 96.27023 44.01683 87.37739
#
# Poissons Ratio (x) = 0.17241 0.10617
# Poissons Ratio (y) = 0.37709 0.59269
# Poissons Ratio (z) = 0.11698 0.29857
#
# Static dielectric constant tensor:
#      x y z
#    x 3.903390 0.000000 0.000000 
#    y 0.000000 3.303790 0.000000 
#    z 0.000000 0.000000 3.874480 
# 
# 
# High freq. dielectric constant tensor:
#      x y z
#    x 1.819310 0.000000 0.000000 
#    y 0.000000 1.737590 0.000000 
#    z 0.000000 0.000000 1.793080 
# 
# From -- ./inp_files/17429.got.cif
#   From: 2010.03.12/outbox.cif.g09.slc.cpg/sg56_9_cif.got.tgz:17429.got - 2010.04.16 15:33:40.
