data_PCOD8228243
_publ_section_title
;
Structure prediction by ZEFSAII (Michael W. Deem and Ramdas Pophale) SiO2 
 PCOD8228243
Probable space group: P C C N
;
_chemical_formula_sum "Si O2"
_cell_formula_units_Z 64
_cell_length_a 20.932483
_cell_length_b 8.599502
_cell_length_c 16.874104
_cell_angle_alpha 90.000000
_cell_angle_beta 90.000000
_cell_angle_gamma 90.000000
_cell_volume 3037.489396
_symmetry_space_group_name_H-M "P C C N"
_symmetry_group_IT_number 56
_symmetry_cell_setting 'orthorhombic'
loop_
_space_group_symop_operation_xyz
x,y,z
1/2-x,1/2-y,z
1/2+x,-y,1/2-z
-x,1/2+y,1/2-z
-x,-y,-z
1/2+x,1/2+y,-z
1/2-x,y,1/2+z
x,1/2-y,1/2+z
loop_
_atom_site_type_symbol
_atom_site_label
_atom_site_fract_x
_atom_site_fract_y
_atom_site_fract_z
Si Si1 0.721104 0.418467 0.179624
Si Si2 0.351365 0.399840 0.689478
Si Si3 0.322456 0.259729 0.032349
Si Si4 0.450735 0.693309 0.452848
Si Si5 0.108229 0.003044 0.930269
Si Si6 0.963625 0.450019 0.879622
Si Si7 0.429202 0.265007 0.316442
Si Si8 0.844051 0.519127 0.094382
O O1 0.750000 0.250000 0.205508
O O2 0.705889 0.525918 0.257510
O O3 0.656481 0.413302 0.129268
O O4 0.771202 0.497936 0.120323
O O5 0.324825 0.274717 0.626456
O O6 0.389477 0.538476 0.645206
O O7 0.409261 0.316744 0.735631
O O8 0.250000 0.250000 0.003647
O O9 0.354707 0.425005 0.007503
O O10 0.355964 0.121564 0.984192
O O11 0.446895 0.880435 0.453527
O O12 0.470342 0.645663 0.540386
O O13 0.503718 0.620759 0.393094
O O14 0.379779 0.639927 0.426357
O O15 0.071264 0.140434 0.886914
O O16 0.001872 0.349944 0.812864
O O17 0.376211 0.396379 0.331335
#
# Coordination Sequence:
#
# PCOD8228243 Si02
#       8
#     8   8   8   8   8   8   8   8
#     4  11  22  40  65  93 127 167 209 263 319 391
#     4  11  25  41  60  92 134 168 211 257 327 395
#     4  11  22  39  62  95 129 162 203 270 322 380
#     4  10  20  39  69  90 118 161 216 272 314 367
#     4  10  21  38  65  99 118 157 223 263 315 385
#     4  10  22  44  62  86 127 168 208 267 322 371
#     4   9  23  40  62  88 122 168 203 252 319 383
#     4  10  19  40  66  89 119 163 208 254 322 372
#
# _framework density 21.070032000000001
#
# number of rings (size 3 to 8) (size 9 to 14) (size 15 to 20)
#    0.000    1.750    3.750    0.000    3.500    2.500 
#    4.500    0.625    0.000    0.000    0.000    0.000 
#    0.000    0.000    0.000    0.000    0.000    0.000 
#
# Total GULP energy -793055.069509 kJ/mol
# GULP energy per Si atom -12391.485461 kJ/mol
# Density = 2.102208 g / cm^3
# Si number density = 21.070032 Si / 1000 Ang^3
#
#
#
# Elastic Constant Matrix: (Units=GPa)
#
#
# Indices 1 2 3 4 5 6 
#
# 1 53.9902 16.3171 6.1299 0.0000 0.0000 0.0000
# 2 16.3171 96.2556 25.6072 0.0000 0.0000 0.0000
# 3 6.1299 25.6072 82.3819 0.0000 0.0000 0.0000
# 4 0.0000 0.0000 0.0000 22.8798 0.0000 0.0000
# 5 0.0000 0.0000 0.0000 0.0000 22.1131 0.0000
# 6 0.0000 0.0000 0.0000 0.0000 0.0000 31.9235
#
#
#
# Elastic Compliance Matrix: (Units=1/GPa)
#
#
# Indices 1 2 3 4 5 6 
#
# 1 0.019538 -0.003189 -0.000463 0.000000 0.000000 0.000000
# 2 -0.003189 0.011846 -0.003445 0.000000 0.000000 0.000000
# 3 -0.000463 -0.003445 0.013244 0.000000 0.000000 0.000000
# 4 0.000000 0.000000 0.000000 0.043707 0.000000 0.000000
# 5 0.000000 0.000000 0.000000 0.000000 0.045222 0.000000
# 6 0.000000 0.000000 0.000000 0.000000 0.000000 0.031325
#
#
# Mechanical properties :
#
#
# Convention : Reuss Voigt Hill
#
# Bulk Modulus (GPa) = 32.85676 36.52623 34.69150
# Shear Modulus (GPa) = 26.42433 27.68818 27.05625
#
# Velocity S-wave (km/s) = 3.54520 3.62899 3.58734
# Velocity P-wave (km/s) = 5.69085 5.91039 5.80166
#
# Compressibility (1/GPa) = 0.03043514
#
# Stress axis : x y z
#
# Youngs Moduli (GPa) = 51.18180 84.41623 75.50707
#
# Poissons Ratio (x) = 0.26921 0.03493
# Poissons Ratio (y) = 0.16322 0.26011
# Poissons Ratio (z) = 0.02367 0.29080
#
# Static dielectric constant tensor:
#      x y z
#    x 3.690130 0.000000 0.000000 
#    y 0.000000 3.784650 0.000000 
#    z 0.000000 0.000000 3.648120 
# 
# 
# High freq. dielectric constant tensor:
#      x y z
#    x 1.825320 0.000000 0.000000 
#    y 0.000000 1.820330 0.000000 
#    z 0.000000 0.000000 1.812650 
# 
# From -- ./inp_files/16844.got.cif
#   From: 2010.03.12/outbox.cif.g09.slc.cpg/sg56_9_cif.got.tgz:16844.got - 2010.04.16 15:33:40.
