data_PCOD8228427
_publ_section_title
;
Structure prediction by ZEFSAII (Michael W. Deem and Ramdas Pophale) SiO2 
 PCOD8228427
Probable space group: P C C N
;
_chemical_formula_sum "Si O2"
_cell_formula_units_Z 48
_cell_length_a 23.907640
_cell_length_b 10.017668
_cell_length_c 8.457979
_cell_angle_alpha 90.000000
_cell_angle_beta 90.000000
_cell_angle_gamma 90.000000
_cell_volume 2025.675822
_symmetry_space_group_name_H-M "P C C N"
_symmetry_group_IT_number 56
_symmetry_cell_setting 'orthorhombic'
loop_
_space_group_symop_operation_xyz
x,y,z
1/2-x,1/2-y,z
1/2+x,-y,1/2-z
-x,1/2+y,1/2-z
-x,-y,-z
1/2+x,1/2+y,-z
1/2-x,y,1/2+z
x,1/2-y,1/2+z
loop_
_atom_site_type_symbol
_atom_site_label
_atom_site_fract_x
_atom_site_fract_y
_atom_site_fract_z
Si Si1 0.614320 0.314348 0.533628
Si Si2 0.988098 0.099567 0.360893
Si Si3 0.099425 0.439850 0.731206
Si Si4 0.783741 0.617192 0.167507
Si Si5 0.097428 0.523144 0.380592
Si Si6 0.190573 0.500990 0.156442
O O1 0.557572 0.295197 0.426343
O O2 0.603618 0.419079 0.675625
O O3 0.626690 0.169377 0.602259
O O4 0.666829 0.362547 0.424998
O O5 0.961716 0.025218 0.209138
O O6 0.000000 0.000000 0.500000
O O7 0.049060 0.152736 0.303446
O O8 0.157897 0.364585 0.742109
O O9 0.086589 0.456321 0.547399
O O10 0.750000 0.750000 0.201484
O O11 0.747908 0.490658 0.239389
O O12 0.795891 0.602338 0.982798
O O13 0.141952 0.442789 0.271706
#
# Coordination Sequence:
#
# PCOD8228427 Si02
#       6
#     8   8   8   8   8   8
#     4   9  20  39  63  92 130 168 204 259 323 384
#     4   9  19  37  60  91 131 165 201 252 308 375
#     4  10  20  37  62  95 130 168 212 258 313 382
#     4  11  23  43  65  89 128 172 217 268 317 371
#     4  11  20  38  66  95 130 168 208 263 326 383
#     4  10  22  40  62  90 124 165 213 262 313 375
#
# _framework density 23.695796000000001
#
# number of rings (size 3 to 8) (size 9 to 14) (size 15 to 20)
#    0.000    2.000    0.000    5.000    0.000    0.000 
#    0.000   31.667    0.000    0.000    0.000    0.000 
#    0.000    0.000    0.000    0.000    0.000    0.000 
#
# Total GULP energy -594686.219976 kJ/mol
# GULP energy per Si atom -12389.296250 kJ/mol
# Density = 2.364186 g / cm^3
# Si number density = 23.695796 Si / 1000 Ang^3
#
#
#
# Elastic Constant Matrix: (Units=GPa)
#
#
# Indices 1 2 3 4 5 6 
#
# 1 192.3647 29.5809 57.8292 0.0000 0.0000 0.0000
# 2 29.5809 48.8896 19.5959 0.0000 0.0000 0.0000
# 3 57.8292 19.5959 153.4047 0.0000 0.0000 0.0000
# 4 0.0000 0.0000 0.0000 21.7274 0.0000 0.0000
# 5 0.0000 0.0000 0.0000 0.0000 56.7199 0.0000
# 6 0.0000 0.0000 0.0000 0.0000 0.0000 21.0244
#
#
#
# Elastic Compliance Matrix: (Units=1/GPa)
#
#
# Indices 1 2 3 4 5 6 
#
# 1 0.006252 -0.002991 -0.001975 0.000000 0.000000 0.000000
# 2 -0.002991 0.022989 -0.001809 0.000000 0.000000 0.000000
# 3 -0.001975 -0.001809 0.007494 0.000000 0.000000 0.000000
# 4 0.000000 0.000000 0.000000 0.046025 0.000000 0.000000
# 5 0.000000 0.000000 0.000000 0.000000 0.017630 0.000000
# 6 0.000000 0.000000 0.000000 0.000000 0.000000 0.047564
#
#
# Mechanical properties :
#
#
# Convention : Reuss Voigt Hill
#
# Bulk Modulus (GPa) = 43.13062 67.63012 55.38037
# Shear Modulus (GPa) = 29.54502 39.07122 34.30812
#
# Velocity S-wave (km/s) = 3.53490 4.06503 3.80920
# Velocity P-wave (km/s) = 5.90779 7.11587 6.53979
#
# Compressibility (1/GPa) = 0.02318539
#
# Stress axis : x y z
#
# Youngs Moduli (GPa) = 159.94598 43.49859 133.43634
#
# Poissons Ratio (x) = 0.13012 0.26350
# Poissons Ratio (y) = 0.47846 0.24138
# Poissons Ratio (z) = 0.31585 0.07869
#
# Static dielectric constant tensor:
#      x y z
#    x 4.895540 0.000000 0.000000 
#    y 0.000000 2.856540 0.000000 
#    z 0.000000 0.000000 4.622590 
# 
# 
# High freq. dielectric constant tensor:
#      x y z
#    x 1.952060 0.000000 0.000000 
#    y 0.000000 1.876120 0.000000 
#    z 0.000000 0.000000 1.972260 
# 
# From -- ./inp_files/4737.got.cif
#   From: 2010.03.12/outbox.cif.g09.slc.cpg/sg56_3_cif.got.tgz:4737.got - 2010.04.16 15:33:40.
