data_PCOD8228069
_publ_section_title
;
Structure prediction by ZEFSAII (Michael W. Deem and Ramdas Pophale) SiO2 
 PCOD8228069
Probable space group: P C C N
;
_chemical_formula_sum "Si O2"
_cell_formula_units_Z 56
_cell_length_a 27.637245
_cell_length_b 20.301084
_cell_length_c 5.071045
_cell_angle_alpha 90.000000
_cell_angle_beta 90.000000
_cell_angle_gamma 90.000000
_cell_volume 2845.191098
_symmetry_space_group_name_H-M "P C C N"
_symmetry_group_IT_number 56
_symmetry_cell_setting 'orthorhombic'
loop_
_space_group_symop_operation_xyz
x,y,z
1/2-x,1/2-y,z
1/2+x,-y,1/2-z
-x,1/2+y,1/2-z
-x,-y,-z
1/2+x,1/2+y,-z
1/2-x,y,1/2+z
x,1/2-y,1/2+z
loop_
_atom_site_type_symbol
_atom_site_label
_atom_site_fract_x
_atom_site_fract_y
_atom_site_fract_z
Si Si1 0.958809 0.292262 0.972271
Si Si2 0.113217 0.624150 0.772468
Si Si3 0.114740 0.026265 0.315307
Si Si4 0.554601 0.957096 0.701136
Si Si5 0.722417 0.532661 0.748731
Si Si6 0.721722 0.124122 0.279687
Si Si7 0.973894 0.400464 0.606520
O O1 0.967940 0.230936 0.773933
O O2 0.990366 0.351739 0.845441
O O3 0.905151 0.325299 0.998962
O O4 0.115906 0.550912 0.896483
O O5 0.166339 0.647907 0.683623
O O6 0.076558 0.623828 0.522618
O O7 0.081340 0.063748 0.529148
O O8 0.168343 0.057122 0.316759
O O9 0.094564 0.036169 0.024874
O O10 0.514908 0.901877 0.622894
O O11 0.527985 0.027381 0.738272
O O12 0.758499 0.560610 0.525939
O O13 0.722912 0.454334 0.769875
O O14 0.754110 0.152653 0.515965
#
# Coordination Sequence:
#
# PCOD8228069 Si02
#       7
#     8   8   8   8   8   8   8
#     4  12  24  37  54  74  95 128 173 214 256 310
#     4  10  21  35  55  71  99 124 169 214 261 308
#     4  10  19  31  49  76 102 133 166 210 253 297
#     4  10  21  32  53  76 107 130 165 209 262 308
#     4   9  16  27  43  66  99 131 167 201 236 294
#     4   9  19  30  48  72  90 118 158 210 266 308
#     4  10  22  36  54  77 102 133 166 211 262 307
#
# _framework density 19.682334999999998
#
# number of rings (size 3 to 8) (size 9 to 14) (size 15 to 20)
#    0.000    2.000    2.857    0.857    4.000    5.143 
#    0.000    0.000    0.000    2.571    0.000    0.000 
#    0.000    0.000    0.000    0.000    0.000   50.000 
#
# Total GULP energy -693847.906191 kJ/mol
# GULP energy per Si atom -12390.141182 kJ/mol
# Density = 1.963754 g / cm^3
# Si number density = 19.682335 Si / 1000 Ang^3
#
#
#
# Elastic Constant Matrix: (Units=GPa)
#
#
# Indices 1 2 3 4 5 6 
#
# 1 39.9536 -4.6936 -9.4442 0.0000 0.0000 0.0000
# 2 -4.6936 23.0248 -2.3933 0.0000 0.0000 0.0000
# 3 -9.4442 -2.3933 72.2557 0.0000 0.0000 0.0000
# 4 0.0000 0.0000 0.0000 19.1613 0.0000 0.0000
# 5 0.0000 0.0000 0.0000 0.0000 34.0434 0.0000
# 6 0.0000 0.0000 0.0000 0.0000 0.0000 13.1061
#
#
#
# Elastic Compliance Matrix: (Units=1/GPa)
#
#
# Indices 1 2 3 4 5 6 
#
# 1 0.026577 0.005799 0.003666 0.000000 0.000000 0.000000
# 2 0.005799 0.044847 0.002243 0.000000 0.000000 0.000000
# 3 0.003666 0.002243 0.014393 0.000000 0.000000 0.000000
# 4 0.000000 0.000000 0.000000 0.052189 0.000000 0.000000
# 5 0.000000 0.000000 0.000000 0.000000 0.029374 0.000000
# 6 0.000000 0.000000 0.000000 0.000000 0.000000 0.076300
#
#
# Mechanical properties :
#
#
# Convention : Reuss Voigt Hill
#
# Bulk Modulus (GPa) = 9.15480 11.35245 10.25362
# Shear Modulus (GPa) = 19.47992 23.37985 21.42989
#
# Velocity S-wave (km/s) = 3.14939 3.45027 3.30326
# Velocity P-wave (km/s) = 4.22921 4.65326 4.44630
#
# Compressibility (1/GPa) = 0.10923236
#
# Stress axis : x y z
#
# Youngs Moduli (GPa) = 37.62689 22.29816 69.47741
#
# Poissons Ratio (x) = -0.12930 -0.25469
# Poissons Ratio (y) = -0.21819 -0.15586
# Poissons Ratio (z) = -0.13793 -0.05002
#
# Static dielectric constant tensor:
#      x y z
#    x 3.651780 0.000000 0.000000 
#    y 0.000000 3.199370 0.000000 
#    z 0.000000 0.000000 3.703980 
# 
# 
# High freq. dielectric constant tensor:
#      x y z
#    x 1.756500 0.000000 0.000000 
#    y 0.000000 1.694720 0.000000 
#    z 0.000000 0.000000 1.786010 
# 
# From -- ./inp_files/1252.got.cif
#   From: 2010.03.12/outbox.cif.g09.slc.cpg/sg56_1_cif.got.tgz:1252.got - 2010.04.16 15:33:40.
