data_PCOD8228328
_publ_section_title
;
Structure prediction by ZEFSAII (Michael W. Deem and Ramdas Pophale) SiO2 
 PCOD8228328
Probable space group: P C C N
;
_chemical_formula_sum "Si O2"
_cell_formula_units_Z 64
_cell_length_a 20.751066
_cell_length_b 9.006668
_cell_length_c 15.662930
_cell_angle_alpha 90.000000
_cell_angle_beta 90.000000
_cell_angle_gamma 90.000000
_cell_volume 2927.369698
_symmetry_space_group_name_H-M "P C C N"
_symmetry_group_IT_number 56
_symmetry_cell_setting 'orthorhombic'
loop_
_space_group_symop_operation_xyz
x,y,z
1/2-x,1/2-y,z
1/2+x,-y,1/2-z
-x,1/2+y,1/2-z
-x,-y,-z
1/2+x,1/2+y,-z
1/2-x,y,1/2+z
x,1/2-y,1/2+z
loop_
_atom_site_type_symbol
_atom_site_label
_atom_site_fract_x
_atom_site_fract_y
_atom_site_fract_z
Si Si1 0.308078 0.658472 0.466488
Si Si2 0.428452 0.686914 0.029596
Si Si3 0.436260 0.365159 0.777305
Si Si4 0.315127 0.326377 0.270773
Si Si5 0.691730 0.156237 0.227356
Si Si6 0.186785 0.167147 0.474120
Si Si7 0.433456 0.695526 0.716132
Si Si8 0.931099 0.859504 0.020485
O O1 0.250000 0.750000 0.511779
O O2 0.375505 0.746219 0.466213
O O3 0.286939 0.628359 0.369727
O O4 0.314142 0.498995 0.512227
O O5 0.415196 0.762815 0.119882
O O6 0.501088 0.720445 0.997167
O O7 0.421596 0.508999 0.033923
O O8 0.376410 0.270080 0.740612
O O9 0.440283 0.519536 0.727002
O O10 0.500498 0.273467 0.755625
O O11 0.429370 0.396158 0.878420
O O12 0.250000 0.250000 0.237014
O O13 0.317807 0.492857 0.230875
O O14 0.316525 0.332437 0.372539
O O15 0.750000 0.250000 0.272121
O O16 0.625499 0.247220 0.226905
O O17 0.250000 0.250000 0.508218
O O18 0.124250 0.249433 0.510573
#
# Coordination Sequence:
#
# PCOD8228328 Si02
#       8
#     8   8   8   8   8   8   8   8
#     4  10  20  35  57  82 110 145 186 232 278 330
#     4  10  21  36  54  80 112 146 182 228 286 334
#     4  10  20  36  57  81 112 149 188 229 280 339
#     4   9  17  32  55  81 106 137 185 235 272 323
#     4  10  20  35  57  83 109 145 190 232 280 335
#     4   9  17  31  55  81 104 138 185 230 270 321
#     4  11  22  36  56  81 112 147 184 233 283 334
#     4   9  19  37  57  79 111 148 184 225 277 338
#
# _framework density 21.862629999999999
#
# number of rings (size 3 to 8) (size 9 to 14) (size 15 to 20)
#    0.000    2.250    0.000    3.000    0.000    6.000 
#    0.000    5.000    0.000    1.500    0.000    0.000 
#    0.000    0.000    0.000    0.000    0.000    0.000 
#
# Total GULP energy -793543.848068 kJ/mol
# GULP energy per Si atom -12399.122626 kJ/mol
# Density = 2.181287 g / cm^3
# Si number density = 21.862630 Si / 1000 Ang^3
#
#
#
# Elastic Constant Matrix: (Units=GPa)
#
#
# Indices 1 2 3 4 5 6 
#
# 1 204.6746 103.8330 10.3530 0.0000 0.0000 0.0000
# 2 103.8330 189.1386 24.2897 0.0000 0.0000 0.0000
# 3 10.3530 24.2897 25.8688 0.0000 0.0000 0.0000
# 4 0.0000 0.0000 0.0000 21.2772 0.0000 0.0000
# 5 0.0000 0.0000 0.0000 0.0000 13.6922 0.0000
# 6 0.0000 0.0000 0.0000 0.0000 0.0000 50.5736
#
#
#
# Elastic Compliance Matrix: (Units=1/GPa)
#
#
# Indices 1 2 3 4 5 6 
#
# 1 0.006790 -0.003842 0.000890 0.000000 0.000000 0.000000
# 2 -0.003842 0.008186 -0.006149 0.000000 0.000000 0.000000
# 3 0.000890 -0.006149 0.044074 0.000000 0.000000 0.000000
# 4 0.000000 0.000000 0.000000 0.046999 0.000000 0.000000
# 5 0.000000 0.000000 0.000000 0.000000 0.073034 0.000000
# 6 0.000000 0.000000 0.000000 0.000000 0.000000 0.019773
#
#
# Mechanical properties :
#
#
# Convention : Reuss Voigt Hill
#
# Bulk Modulus (GPa) = 24.48078 77.40370 50.94224
# Shear Modulus (GPa) = 21.67578 35.85569 28.76574
#
# Velocity S-wave (km/s) = 3.15215 4.05414 3.63126
# Velocity P-wave (km/s) = 4.94671 7.57603 6.39789
#
# Compressibility (1/GPa) = 0.04084837
#
# Stress axis : x y z
#
# Youngs Moduli (GPa) = 147.28185 122.16364 22.68925
#
# Poissons Ratio (x) = 0.46931 -0.02019
# Poissons Ratio (y) = 0.56581 0.13951
# Poissons Ratio (z) = -0.13106 0.75113
#
# Static dielectric constant tensor:
#      x y z
#    x 4.150150 0.000000 0.000000 
#    y 0.000000 4.126720 0.000000 
#    z 0.000000 0.000000 3.347800 
# 
# 
# High freq. dielectric constant tensor:
#      x y z
#    x 1.877460 0.000000 0.000000 
#    y 0.000000 1.870790 0.000000 
#    z 0.000000 0.000000 1.811630 
# 
# From -- ./inp_files/19369.got.cif
#   From: 2010.03.12/outbox.cif.g09.slc.cpg/sg56_10_cif.got.tgz:19369.got - 2010.04.16 15:33:40.
