data_PCOD8228332
_publ_section_title
;
Structure prediction by ZEFSAII (Michael W. Deem and Ramdas Pophale) SiO2 
 PCOD8228332
Probable space group: P C C N
;
_chemical_formula_sum "Si O2"
_cell_formula_units_Z 36
_cell_length_a 13.628782
_cell_length_b 14.883434
_cell_length_c 8.611331
_cell_angle_alpha 90.000000
_cell_angle_beta 90.000000
_cell_angle_gamma 90.000000
_cell_volume 1746.748881
_symmetry_space_group_name_H-M "P C C N"
_symmetry_group_IT_number 56
_symmetry_cell_setting 'orthorhombic'
loop_
_space_group_symop_operation_xyz
x,y,z
1/2-x,1/2-y,z
1/2+x,-y,1/2-z
-x,1/2+y,1/2-z
-x,-y,-z
1/2+x,1/2+y,-z
1/2-x,y,1/2+z
x,1/2-y,1/2+z
loop_
_atom_site_type_symbol
_atom_site_label
_atom_site_fract_x
_atom_site_fract_y
_atom_site_fract_z
Si Si1 0.008963 0.649096 0.209633
Si Si2 0.053859 0.678318 0.853585
Si Si3 0.369212 0.995582 0.736595
Si Si4 0.250000 0.750000 0.916664
Si Si5 0.679147 0.067580 0.582840
O O1 0.979913 0.745972 0.286616
O O2 0.090219 0.591699 0.302589
O O3 0.909640 0.591066 0.205417
O O4 0.046088 0.667889 0.037209
O O5 0.048023 0.580765 0.773890
O O6 0.159766 0.720758 0.807006
O O7 0.266609 0.978709 0.822331
O O8 0.355368 0.000209 0.550931
O O9 0.216768 0.840938 0.007279
#
# Coordination Sequence:
#
# PCOD8228332 Si02
#       5
#     8   8   8   4   8
#     4  11  22  37  60  87 117 151 189 238 289 341
#     4  10  20  35  57  87 117 147 187 236 292 344
#     4  11  22  37  60  87 117 151 189 238 289 341
#     4   8  16  30  52  82 108 134 172 234 292 330
#     4  10  20  35  57  87 117 147 187 236 292 344
#
# _framework density 20.609715999999999
#
# number of rings (size 3 to 8) (size 9 to 14) (size 15 to 20)
#    0.000    1.778    0.000    6.667    0.000    7.111 
#    0.000    0.000    0.000   10.667    0.000    0.000 
#    0.000    0.000    0.000    0.000    0.000    0.000 
#
# Total GULP energy -446039.810938 kJ/mol
# GULP energy per Si atom -12389.994748 kJ/mol
# Density = 2.056281 g / cm^3
# Si number density = 20.609716 Si / 1000 Ang^3
#
#
#
# Elastic Constant Matrix: (Units=GPa)
#
#
# Indices 1 2 3 4 5 6 
#
# 1 46.3349 20.5566 29.1340 0.0000 0.0000 0.0000
# 2 20.5566 79.6020 30.6410 0.0000 0.0000 0.0000
# 3 29.1340 30.6410 130.0512 0.0000 0.0000 0.0000
# 4 0.0000 0.0000 0.0000 16.8701 0.0000 0.0000
# 5 0.0000 0.0000 0.0000 0.0000 12.8394 0.0000
# 6 0.0000 0.0000 0.0000 0.0000 0.0000 25.5889
#
#
#
# Elastic Compliance Matrix: (Units=1/GPa)
#
#
# Indices 1 2 3 4 5 6 
#
# 1 0.026869 -0.005083 -0.004822 0.000000 0.000000 0.000000
# 2 -0.005083 0.014777 -0.002343 0.000000 0.000000 0.000000
# 3 -0.004822 -0.002343 0.009321 0.000000 0.000000 0.000000
# 4 0.000000 0.000000 0.000000 0.059276 0.000000 0.000000
# 5 0.000000 0.000000 0.000000 0.000000 0.077885 0.000000
# 6 0.000000 0.000000 0.000000 0.000000 0.000000 0.039079
#
#
# Mechanical properties :
#
#
# Convention : Reuss Voigt Hill
#
# Bulk Modulus (GPa) = 37.77491 46.29458 42.03475
# Shear Modulus (GPa) = 19.19191 22.77013 20.98102
#
# Velocity S-wave (km/s) = 3.05488 3.32750 3.19410
# Velocity P-wave (km/s) = 5.55081 6.10526 5.83463
#
# Compressibility (1/GPa) = 0.02647260
#
# Stress axis : x y z
#
# Youngs Moduli (GPa) = 37.21820 67.67318 107.27990
#
# Poissons Ratio (x) = 0.34396 0.51726
# Poissons Ratio (y) = 0.18917 0.25135
# Poissons Ratio (z) = 0.17945 0.15855
#
# Static dielectric constant tensor:
#      x y z
#    x 3.521940 0.000000 0.000000 
#    y 0.000000 4.009290 0.000000 
#    z 0.000000 0.000000 3.502070 
# 
# 
# High freq. dielectric constant tensor:
#      x y z
#    x 1.771810 0.000000 0.000000 
#    y 0.000000 1.804150 0.000000 
#    z 0.000000 0.000000 1.806000 
# 
# From -- ./inp_files/2545.got.cif
#   From: 2010.03.12/outbox.cif.g09.slc.cpg/sg56_2_cif.got.tgz:2545.got - 2010.04.16 15:33:40.
