data_PCOD8228343
_publ_section_title
;
Structure prediction by ZEFSAII (Michael W. Deem and Ramdas Pophale) SiO2 
 PCOD8228343
Probable space group: P C C N
;
_chemical_formula_sum "Si O2"
_cell_formula_units_Z 64
_cell_length_a 15.454852
_cell_length_b 8.630158
_cell_length_c 23.254498
_cell_angle_alpha 90.000000
_cell_angle_beta 90.000000
_cell_angle_gamma 90.000000
_cell_volume 3101.634123
_symmetry_space_group_name_H-M "P C C N"
_symmetry_group_IT_number 56
_symmetry_cell_setting 'orthorhombic'
loop_
_space_group_symop_operation_xyz
x,y,z
1/2-x,1/2-y,z
1/2+x,-y,1/2-z
-x,1/2+y,1/2-z
-x,-y,-z
1/2+x,1/2+y,-z
1/2-x,y,1/2+z
x,1/2-y,1/2+z
loop_
_atom_site_type_symbol
_atom_site_label
_atom_site_fract_x
_atom_site_fract_y
_atom_site_fract_z
Si Si1 0.985182 0.257661 0.052547
Si Si2 0.844593 0.309286 0.455943
Si Si3 0.083063 0.767985 0.167339
Si Si4 0.663401 0.803273 0.608546
Si Si5 0.847418 0.291208 0.213100
Si Si6 0.054129 0.028075 0.359196
Si Si7 0.954509 0.459908 0.652910
Si Si8 0.667584 0.659271 0.979457
O O1 0.976920 0.403559 0.094410
O O2 0.976756 0.100671 0.089191
O O3 0.081464 0.262816 0.026762
O O4 0.913658 0.255206 0.002245
O O5 0.750000 0.250000 0.474590
O O6 0.869516 0.245687 0.393389
O O7 0.844089 0.494156 0.449585
O O8 0.153751 0.781888 0.217860
O O9 0.023923 0.613092 0.175253
O O10 0.032057 0.930953 0.173862
O O11 0.750000 0.750000 0.640023
O O12 0.597293 0.661727 0.602571
O O13 0.685509 0.872661 0.546264
O O14 0.630551 0.936716 0.649609
O O15 0.750000 0.250000 0.190921
O O16 0.877154 0.456047 0.186407
O O17 0.926444 0.177429 0.194938
O O18 0.750000 0.750000 0.952189
#
# Coordination Sequence:
#
# PCOD8228343 Si02
#       8
#     8   8   8   8   8   8   8   8
#     4  11  22  41  64  90 130 168 210 259 321 377
#     4  12  26  40  66  98 134 175 213 259 323 391
#     4  11  23  43  64  88 128 171 215 256 321 388
#     4  10  20  35  58  91 127 157 205 262 315 369
#     4  11  23  41  64  92 124 159 213 276 326 377
#     4  10  24  38  65  96 118 167 217 265 316 380
#     4  10  20  39  65  85 119 167 208 259 318 383
#     4  11  24  40  61  92 133 174 209 255 319 392
#
# _framework density 20.634281999999999
#
# number of rings (size 3 to 8) (size 9 to 14) (size 15 to 20)
#    0.000    1.250    2.500    3.750    5.250    3.000 
#    0.000    0.000    0.000    0.750    0.000    0.000 
#    0.000    0.000    0.000    0.000    0.000    0.000 
#
# Total GULP energy -793343.989986 kJ/mol
# GULP energy per Si atom -12395.999844 kJ/mol
# Density = 2.058732 g / cm^3
# Si number density = 20.634282 Si / 1000 Ang^3
#
#
#
# Elastic Constant Matrix: (Units=GPa)
#
#
# Indices 1 2 3 4 5 6 
#
# 1 108.1118 12.9000 21.9704 0.0000 0.0000 0.0000
# 2 12.9000 78.6388 13.7573 0.0000 0.0000 0.0000
# 3 21.9704 13.7573 87.8109 0.0000 0.0000 0.0000
# 4 0.0000 0.0000 0.0000 3.2576 0.0000 0.0000
# 5 0.0000 0.0000 0.0000 0.0000 28.0960 0.0000
# 6 0.0000 0.0000 0.0000 0.0000 0.0000 17.1885
#
#
#
# Elastic Compliance Matrix: (Units=1/GPa)
#
#
# Indices 1 2 3 4 5 6 
#
# 1 0.009858 -0.001219 -0.002275 0.000000 0.000000 0.000000
# 2 -0.001219 0.013225 -0.001767 0.000000 0.000000 0.000000
# 3 -0.002275 -0.001767 0.012234 0.000000 0.000000 0.000000
# 4 0.000000 0.000000 0.000000 0.306973 0.000000 0.000000
# 5 0.000000 0.000000 0.000000 0.000000 0.035592 0.000000
# 6 0.000000 0.000000 0.000000 0.000000 0.000000 0.058178
#
#
# Mechanical properties :
#
#
# Convention : Reuss Voigt Hill
#
# Bulk Modulus (GPa) = 40.33161 41.31297 40.82229
# Shear Modulus (GPa) = 10.99267 24.77068 17.88168
#
# Velocity S-wave (km/s) = 2.31062 3.46853 2.94700
# Velocity P-wave (km/s) = 5.16788 6.00882 5.60414
#
# Compressibility (1/GPa) = 0.02479445
#
# Stress axis : x y z
#
# Youngs Moduli (GPa) = 101.44522 75.61175 81.73776
#
# Poissons Ratio (x) = 0.09217 0.18599
# Poissons Ratio (y) = 0.12366 0.14443
# Poissons Ratio (z) = 0.23083 0.13361
#
# Static dielectric constant tensor:
#      x y z
#    x 3.841220 0.000000 0.000000 
#    y 0.000000 3.904630 0.000000 
#    z 0.000000 0.000000 3.498930 
# 
# 
# High freq. dielectric constant tensor:
#      x y z
#    x 1.813320 0.000000 0.000000 
#    y 0.000000 1.813950 0.000000 
#    z 0.000000 0.000000 1.792580 
# 
# From -- ./inp_files/21171.got.cif
#   From: 2010.03.12/outbox.cif.g09.slc.cpg/sg56_11_cif.got.tgz:21171.got - 2010.04.16 15:33:40.
