data_PCOD8228642
_publ_section_title
;
Structure prediction by ZEFSAII (Michael W. Deem and Ramdas Pophale) SiO2 
 PCOD8228642
Probable space group: P C C N
;
_chemical_formula_sum "Si O2"
_cell_formula_units_Z 36
_cell_length_a 8.884478
_cell_length_b 15.486060
_cell_length_c 14.158974
_cell_angle_alpha 90.000000
_cell_angle_beta 90.000000
_cell_angle_gamma 90.000000
_cell_volume 1948.070358
_symmetry_space_group_name_H-M "P C C N"
_symmetry_group_IT_number 56
_symmetry_cell_setting 'orthorhombic'
loop_
_space_group_symop_operation_xyz
x,y,z
1/2-x,1/2-y,z
1/2+x,-y,1/2-z
-x,1/2+y,1/2-z
-x,-y,-z
1/2+x,1/2+y,-z
1/2-x,y,1/2+z
x,1/2-y,1/2+z
loop_
_atom_site_type_symbol
_atom_site_label
_atom_site_fract_x
_atom_site_fract_y
_atom_site_fract_z
Si Si1 0.392820 0.080072 0.905906
Si Si2 0.015750 0.888058 0.401233
Si Si3 0.348567 0.327336 0.779564
Si Si4 0.750000 0.250000 0.144325
Si Si5 0.896803 0.210147 0.326231
O O1 0.247650 0.111945 0.848662
O O2 0.549614 0.117641 0.864018
O O3 0.393362 0.977393 0.900472
O O4 0.392583 0.112951 0.014637
O O5 0.142562 0.813301 0.416713
O O6 0.924487 0.881448 0.303863
O O7 0.250000 0.250000 0.734095
O O8 0.475121 0.282157 0.843683
O O9 0.860659 0.195770 0.214449
O O10 0.750000 0.250000 0.379179
#
# Coordination Sequence:
#
# PCOD8228642 Si02
#       5
#     8   8   8   4   8
#     4  10  21  34  57  87 112 150 188 239 283 337
#     4  10  21  35  57  84 117 145 197 232 289 342
#     4   9  19  36  56  82 113 151 185 231 288 333
#     4   8  18  34  54  82 108 156 186 224 282 342
#     4   8  17  34  56  82 108 151 188 215 290 338
#
# _framework density 18.479825000000002
#
# number of rings (size 3 to 8) (size 9 to 14) (size 15 to 20)
#    0.667    2.222    0.000    0.000    4.667    2.667 
#    0.000    0.000    0.000    4.000    0.000    0.000 
#    0.000    0.000    0.000    0.000    0.000    0.000 
#
# Total GULP energy -445998.421143 kJ/mol
# GULP energy per Si atom -12388.845032 kJ/mol
# Density = 1.843776 g / cm^3
# Si number density = 18.479825 Si / 1000 Ang^3
#
#
#
# Elastic Constant Matrix: (Units=GPa)
#
#
# Indices 1 2 3 4 5 6 
#
# 1 107.0281 41.4288 31.4961 0.0000 0.0000 0.0000
# 2 41.4288 89.8702 45.4372 0.0000 0.0000 0.0000
# 3 31.4961 45.4372 75.3227 0.0000 0.0000 0.0000
# 4 0.0000 0.0000 0.0000 25.4250 0.0000 0.0000
# 5 0.0000 0.0000 0.0000 0.0000 23.7231 0.0000
# 6 0.0000 0.0000 0.0000 0.0000 0.0000 20.6390
#
#
#
# Elastic Compliance Matrix: (Units=1/GPa)
#
#
# Indices 1 2 3 4 5 6 
#
# 1 0.011654 -0.004185 -0.002349 0.000000 0.000000 0.000000
# 2 -0.004185 0.017513 -0.008814 0.000000 0.000000 0.000000
# 3 -0.002349 -0.008814 0.019575 0.000000 0.000000 0.000000
# 4 0.000000 0.000000 0.000000 0.039331 0.000000 0.000000
# 5 0.000000 0.000000 0.000000 0.000000 0.042153 0.000000
# 6 0.000000 0.000000 0.000000 0.000000 0.000000 0.048452
#
#
# Mechanical properties :
#
#
# Convention : Reuss Voigt Hill
#
# Bulk Modulus (GPa) = 55.41249 56.54944 55.98096
# Shear Modulus (GPa) = 23.21362 24.21468 23.71415
#
# Velocity S-wave (km/s) = 3.54808 3.62378 3.58613
# Velocity P-wave (km/s) = 6.84366 6.94090 6.89245
#
# Compressibility (1/GPa) = 0.01804647
#
# Stress axis : x y z
#
# Youngs Moduli (GPa) = 85.80385 57.10102 51.08442
#
# Poissons Ratio (x) = 0.23897 0.11998
# Poissons Ratio (y) = 0.35909 0.45028
# Poissons Ratio (z) = 0.20153 0.50331
#
# Static dielectric constant tensor:
#      x y z
#    x 3.479790 0.000000 0.000000 
#    y 0.000000 3.277270 0.000000 
#    z 0.000000 0.000000 3.225220 
# 
# 
# High freq. dielectric constant tensor:
#      x y z
#    x 1.716230 0.000000 0.000000 
#    y 0.000000 1.708430 0.000000 
#    z 0.000000 0.000000 1.702770 
# 
# From -- ./inp_files/10317.got.cif
#   From: 2010.03.12/outbox.cif.g09.slc.cpg/sg56_6_cif.got.tgz:10317.got - 2010.04.16 15:33:40.
