data_PCOD8228416
_publ_section_title
;
Structure prediction by ZEFSAII (Michael W. Deem and Ramdas Pophale) SiO2 
 PCOD8228416
Probable space group: P C C N
;
_chemical_formula_sum "Si O2"
_cell_formula_units_Z 64
_cell_length_a 17.959539
_cell_length_b 11.795737
_cell_length_c 14.529218
_cell_angle_alpha 90.000000
_cell_angle_beta 90.000000
_cell_angle_gamma 90.000000
_cell_volume 3077.956697
_symmetry_space_group_name_H-M "P C C N"
_symmetry_group_IT_number 56
_symmetry_cell_setting 'orthorhombic'
loop_
_space_group_symop_operation_xyz
x,y,z
1/2-x,1/2-y,z
1/2+x,-y,1/2-z
-x,1/2+y,1/2-z
-x,-y,-z
1/2+x,1/2+y,-z
1/2-x,y,1/2+z
x,1/2-y,1/2+z
loop_
_atom_site_type_symbol
_atom_site_label
_atom_site_fract_x
_atom_site_fract_y
_atom_site_fract_z
Si Si1 0.615092 0.903155 0.384689
Si Si2 0.573244 0.703499 0.055078
Si Si3 0.835005 0.126600 0.472408
Si Si4 0.983188 0.114459 0.550102
Si Si5 0.051405 0.959859 0.873499
Si Si6 0.099579 0.463114 0.183266
Si Si7 0.833430 0.749244 0.727438
Si Si8 0.666981 0.117672 0.478363
O O1 0.634083 0.826801 0.475216
O O2 0.525352 0.891867 0.379785
O O3 0.653174 0.855416 0.294031
O O4 0.642957 0.031576 0.397615
O O5 0.535880 0.586391 0.089108
O O6 0.613710 0.764536 0.139591
O O7 0.508985 0.783877 0.016518
O O8 0.893095 0.121156 0.558913
O O9 0.752951 0.092235 0.507385
O O10 0.837134 0.256279 0.436083
O O11 0.860855 0.041086 0.392319
O O12 0.027492 0.108379 0.646400
O O13 0.000000 0.000000 0.500000
O O14 0.075324 0.957677 0.767308
O O15 0.115434 0.897066 0.931727
O O16 0.156496 0.368583 0.218830
O O17 0.750000 0.750000 0.690182
#
# Coordination Sequence:
#
# PCOD8228416 Si02
#       8
#     8   8   8   8   8   8   8   8
#     4  11  21  40  67  88 127 170 213 256 315 379
#     4  10  21  41  61  88 125 165 211 264 311 375
#     4  10  21  39  65  89 129 164 208 258 320 377
#     4  10  20  37  60  87 119 163 205 254 321 372
#     4  10  22  40  65  93 122 167 217 256 307 386
#     4  10  22  42  60  93 128 161 209 268 309 370
#     4  11  24  39  61  97 128 164 217 259 320 376
#     4  10  21  40  63  93 123 173 205 255 321 374
#
# _framework density 20.793016000000001
#
# number of rings (size 3 to 8) (size 9 to 14) (size 15 to 20)
#    0.000    1.750    1.250    3.750    3.500    0.500 
#   13.500    3.750    0.000    0.000    0.000    0.000 
#    0.000    0.000    0.000    0.000    0.000    0.000 
#
# Total GULP energy -793360.375015 kJ/mol
# GULP energy per Si atom -12396.255860 kJ/mol
# Density = 2.074569 g / cm^3
# Si number density = 20.793016 Si / 1000 Ang^3
#
#
#
# Elastic Constant Matrix: (Units=GPa)
#
#
# Indices 1 2 3 4 5 6 
#
# 1 135.9135 35.7309 29.4497 0.0000 0.0000 0.0000
# 2 35.7309 73.4367 21.6539 0.0000 0.0000 0.0000
# 3 29.4497 21.6539 82.3773 0.0000 0.0000 0.0000
# 4 0.0000 0.0000 0.0000 22.4848 0.0000 0.0000
# 5 0.0000 0.0000 0.0000 0.0000 15.5119 0.0000
# 6 0.0000 0.0000 0.0000 0.0000 0.0000 27.2729
#
#
#
# Elastic Compliance Matrix: (Units=1/GPa)
#
#
# Indices 1 2 3 4 5 6 
#
# 1 0.008786 -0.003630 -0.002187 0.000000 0.000000 0.000000
# 2 -0.003630 0.016261 -0.002977 0.000000 0.000000 0.000000
# 3 -0.002187 -0.002977 0.013703 0.000000 0.000000 0.000000
# 4 0.000000 0.000000 0.000000 0.044475 0.000000 0.000000
# 5 0.000000 0.000000 0.000000 0.000000 0.064467 0.000000
# 6 0.000000 0.000000 0.000000 0.000000 0.000000 0.036666
#
#
# Mechanical properties :
#
#
# Convention : Reuss Voigt Hill
#
# Bulk Modulus (GPa) = 47.25113 51.71073 49.48093
# Shear Modulus (GPa) = 23.92353 26.71345 25.31849
#
# Velocity S-wave (km/s) = 3.39566 3.58820 3.49326
# Velocity P-wave (km/s) = 6.17640 6.48770 6.33396
#
# Compressibility (1/GPa) = 0.02116352
#
# Stress axis : x y z
#
# Youngs Moduli (GPa) = 113.82101 61.49662 72.97416
#
# Poissons Ratio (x) = 0.22323 0.15957
# Poissons Ratio (y) = 0.41316 0.21722
# Poissons Ratio (z) = 0.24889 0.18306
#
# Static dielectric constant tensor:
#      x y z
#    x 4.144190 0.000000 0.000000 
#    y 0.000000 3.646510 0.000000 
#    z 0.000000 0.000000 3.320530 
# 
# 
# High freq. dielectric constant tensor:
#      x y z
#    x 1.814320 0.000000 0.000000 
#    y 0.000000 1.826420 0.000000 
#    z 0.000000 0.000000 1.794510 
# 
# From -- ./inp_files/12860.got.cif
#   From: 2010.03.12/outbox.cif.g09.slc.cpg/sg56_7_cif.got.tgz:12860.got - 2010.04.16 15:33:40.
