data_PCOD8228058
_publ_section_title
;
Structure prediction by ZEFSAII (Michael W. Deem and Ramdas Pophale) SiO2 
 PCOD8228058
Probable space group: P C C N
;
_chemical_formula_sum "Si O2"
_cell_formula_units_Z 64
_cell_length_a 20.463612
_cell_length_b 5.273549
_cell_length_c 31.886023
_cell_angle_alpha 90.000000
_cell_angle_beta 90.000000
_cell_angle_gamma 90.000000
_cell_volume 3441.007613
_symmetry_space_group_name_H-M "P C C N"
_symmetry_group_IT_number 56
_symmetry_cell_setting 'orthorhombic'
loop_
_space_group_symop_operation_xyz
x,y,z
1/2-x,1/2-y,z
1/2+x,-y,1/2-z
-x,1/2+y,1/2-z
-x,-y,-z
1/2+x,1/2+y,-z
1/2-x,y,1/2+z
x,1/2-y,1/2+z
loop_
_atom_site_type_symbol
_atom_site_label
_atom_site_fract_x
_atom_site_fract_y
_atom_site_fract_z
Si Si1 0.394221 1.000000 0.078458
Si Si2 0.427669 0.000000 0.719059
Si Si3 0.717867 0.500000 0.363233
Si Si4 0.501038 0.000000 0.805141
Si Si5 0.543244 0.500000 0.603617
Si Si6 0.273614 0.500000 0.228209
Si Si7 0.059573 1.000000 0.941067
Si Si8 0.908550 1.000000 0.966136
O O1 0.469891 1.000000 0.087665
O O2 0.374156 0.248495 0.052001
O O3 0.358054 0.000000 0.123503
O O4 0.374156 0.751504 0.052001
O O5 0.450114 0.000000 0.767032
O O6 0.453912 0.750598 0.695483
O O7 0.349507 0.000000 0.716714
O O8 0.453912 0.249402 0.695483
O O9 0.750000 0.250000 0.383330
O O10 0.727184 0.500000 0.313185
O O11 0.750000 0.750000 0.383330
O O12 0.455550 0.000000 0.846034
O O13 0.578669 0.751483 0.586014
O O14 0.578669 0.248518 0.586014
O O15 0.250000 0.750000 0.253833
O O16 0.250000 0.250000 0.253833
O O17 0.983795 1.000000 0.952697
O O18 0.100865 1.000000 0.983818
#
# Coordination Sequence:
#
# PCOD8228058 Si02
#       8
#     8   8   8   8   8   8   8   8
#     4  10  19  29  44  68  92 133 167 200 244 300
#     4  10  21  36  52  71 105 139 185 205 269 320
#     4  10  21  31  43  66  96 130 166 211 243 283
#     4  10  21  34  52  75 101 144 171 225 254 322
#     4  10  19  28  48  71  97 126 169 212 247 300
#     4  10  21  34  51  73  96 139 170 222 251 302
#     4   9  17  30  44  70  94 126 159 198 244 292
#     4   9  17  30  46  62  97 129 158 197 238 292
#
# _framework density 18.599202999999999
#
# number of rings (size 3 to 8) (size 9 to 14) (size 15 to 20)
#    0.000    2.250    0.000    3.000    7.000    3.000 
#    0.000    0.000    0.000    0.000    0.000    0.000 
#    0.000   20.000    0.000    0.000    0.000    0.000 
#
# Total GULP energy -793313.149638 kJ/mol
# GULP energy per Si atom -12395.517963 kJ/mol
# Density = 1.855687 g / cm^3
# Si number density = 18.599203 Si / 1000 Ang^3
#
#
#
# Elastic Constant Matrix: (Units=GPa)
#
#
# Indices 1 2 3 4 5 6 
#
# 1 27.4844 15.3628 -2.1671 0.0000 0.0000 0.0000
# 2 15.3628 181.4585 32.3510 0.0000 0.0000 0.0000
# 3 -2.1671 32.3510 78.1790 0.0000 0.0000 0.0000
# 4 0.0000 0.0000 0.0000 15.4491 0.0000 0.0000
# 5 0.0000 0.0000 0.0000 0.0000 21.4848 0.0000
# 6 0.0000 0.0000 0.0000 0.0000 0.0000 18.7892
#
#
#
# Elastic Compliance Matrix: (Units=1/GPa)
#
#
# Indices 1 2 3 4 5 6 
#
# 1 0.038683 -0.003742 0.002621 0.000000 0.000000 0.000000
# 2 -0.003742 0.006312 -0.002716 0.000000 0.000000 0.000000
# 3 0.002621 -0.002716 0.013988 0.000000 0.000000 0.000000
# 4 0.000000 0.000000 0.000000 0.064729 0.000000 0.000000
# 5 0.000000 0.000000 0.000000 0.000000 0.046545 0.000000
# 6 0.000000 0.000000 0.000000 0.000000 0.000000 0.053222
#
#
# Mechanical properties :
#
#
# Convention : Reuss Voigt Hill
#
# Bulk Modulus (GPa) = 19.49010 42.02392 30.75701
# Shear Modulus (GPa) = 20.14066 27.24964 23.69515
#
# Velocity S-wave (km/s) = 3.29428 3.83181 3.57317
# Velocity P-wave (km/s) = 4.99714 6.49774 5.79621
#
# Compressibility (1/GPa) = 0.05130810
#
# Stress axis : x y z
#
# Youngs Moduli (GPa) = 25.85132 158.43134 71.49211
#
# Poissons Ratio (x) = 0.59289 -0.18737
# Poissons Ratio (y) = 0.09674 0.19415
# Poissons Ratio (z) = -0.06775 0.43024
#
# Static dielectric constant tensor:
#      x y z
#    x 2.901000 0.000000 0.000000 
#    y 0.000000 5.183530 0.000000 
#    z 0.000000 0.000000 3.289310 
# 
# 
# High freq. dielectric constant tensor:
#      x y z
#    x 1.664270 0.000000 0.000000 
#    y 0.000000 1.759970 0.000000 
#    z 0.000000 0.000000 1.697140 
# 
# From -- ./inp_files/22592.got.cif
#   From: 2010.03.12/outbox.cif.g09.slc.cpg/sg56_12_cif.got.tgz:22592.got - 2010.04.16 15:33:40.
