data_PCOD8228040
_publ_section_title
;
Structure prediction by ZEFSAII (Michael W. Deem and Ramdas Pophale) SiO2 
 PCOD8228040
Probable space group: P C C N
;
_chemical_formula_sum "Si O2"
_cell_formula_units_Z 52
_cell_length_a 8.858072
_cell_length_b 11.528789
_cell_length_c 22.566857
_cell_angle_alpha 90.000000
_cell_angle_beta 90.000000
_cell_angle_gamma 90.000000
_cell_volume 2304.591595
_symmetry_space_group_name_H-M "P C C N"
_symmetry_group_IT_number 56
_symmetry_cell_setting 'orthorhombic'
loop_
_space_group_symop_operation_xyz
x,y,z
1/2-x,1/2-y,z
1/2+x,-y,1/2-z
-x,1/2+y,1/2-z
-x,-y,-z
1/2+x,1/2+y,-z
1/2-x,y,1/2+z
x,1/2-y,1/2+z
loop_
_atom_site_type_symbol
_atom_site_label
_atom_site_fract_x
_atom_site_fract_y
_atom_site_fract_z
Si Si1 0.250000 0.250000 0.509838
Si Si2 0.026892 0.932359 0.697340
Si Si3 0.715644 0.620818 0.247662
Si Si4 0.011126 0.326853 0.930620
Si Si5 0.997954 0.091073 0.052743
Si Si6 0.496580 0.607525 0.137531
Si Si7 0.250000 0.750000 0.194931
Si Si8 0.250000 0.750000 0.492588
O O1 0.343597 0.348877 0.472157
O O2 0.361003 0.177705 0.551669
O O3 0.994533 0.906358 0.628033
O O4 0.119257 0.823567 0.728345
O O5 0.872035 0.946427 0.733618
O O6 0.122304 0.050547 0.702731
O O7 0.750000 0.750000 0.270996
O O8 0.617773 0.627046 0.188597
O O9 0.043138 0.191080 0.916240
O O10 0.854359 0.333828 0.966547
O O11 0.004346 0.025168 0.115990
O O12 0.845749 0.166509 0.049869
O O13 0.000000 0.000000 0.000000
O O14 0.328858 0.649507 0.155824
#
# Coordination Sequence:
#
# PCOD8228040 Si02
#       8
#     4   8   8   8   8   8   4   4
#     4  10  20  38  66 100 134 174 236 274 340 402
#     4  11  24  38  71 101 134 170 229 283 343 404
#     4  12  24  44  71 107 133 178 224 287 344 426
#     4  10  18  38  67  97 128 173 226 276 328 413
#     4  11  23  38  68  97 136 183 225 294 337 407
#     4  11  21  40  71  96 134 175 233 278 344 400
#     4  10  21  42  73 100 124 179 232 284 339 418
#     4  10  21  38  65  98 132 175 232 274 343 408
#
# _framework density 22.563652000000001
#
# number of rings (size 3 to 8) (size 9 to 14) (size 15 to 20)
#    0.000    1.231    6.154    3.692    0.000    0.000 
#    0.000    6.923   10.154    0.000    4.000    0.000 
#    0.000    0.000    0.000    0.000    0.000    0.000 
#
# Total GULP energy -644456.591171 kJ/mol
# GULP energy per Si atom -12393.395984 kJ/mol
# Density = 2.251230 g / cm^3
# Si number density = 22.563652 Si / 1000 Ang^3
#
#
#
# Elastic Constant Matrix: (Units=GPa)
#
#
# Indices 1 2 3 4 5 6 
#
# 1 151.2369 59.7839 35.8943 0.0000 0.0000 0.0000
# 2 59.7839 140.6125 47.9870 0.0000 0.0000 0.0000
# 3 35.8943 47.9870 44.9407 0.0000 0.0000 0.0000
# 4 0.0000 0.0000 0.0000 30.4174 0.0000 0.0000
# 5 0.0000 0.0000 0.0000 0.0000 13.5505 0.0000
# 6 0.0000 0.0000 0.0000 0.0000 0.0000 42.9122
#
#
#
# Elastic Compliance Matrix: (Units=1/GPa)
#
#
# Indices 1 2 3 4 5 6 
#
# 1 0.008517 -0.002045 -0.004619 0.000000 0.000000 0.000000
# 2 -0.002045 0.011680 -0.010839 0.000000 0.000000 0.000000
# 3 -0.004619 -0.010839 0.037514 0.000000 0.000000 0.000000
# 4 0.000000 0.000000 0.000000 0.032876 0.000000 0.000000
# 5 0.000000 0.000000 0.000000 0.000000 0.073798 0.000000
# 6 0.000000 0.000000 0.000000 0.000000 0.000000 0.023303
#
#
# Mechanical properties :
#
#
# Convention : Reuss Voigt Hill
#
# Bulk Modulus (GPa) = 44.04105 69.34672 56.69388
# Shear Modulus (GPa) = 21.71448 30.25103 25.98276
#
# Velocity S-wave (km/s) = 3.10557 3.66553 3.39710
# Velocity P-wave (km/s) = 5.69389 6.97964 6.36929
#
# Compressibility (1/GPa) = 0.02270609
#
# Stress axis : x y z
#
# Youngs Moduli (GPa) = 117.41678 85.61673 26.65673
#
# Poissons Ratio (x) = 0.17506 0.12313
# Poissons Ratio (y) = 0.24008 0.28892
# Poissons Ratio (z) = 0.54235 0.92796
#
# Static dielectric constant tensor:
#      x y z
#    x 4.475250 0.000000 0.000000 
#    y 0.000000 4.123980 0.000000 
#    z 0.000000 0.000000 3.706480 
# 
# 
# High freq. dielectric constant tensor:
#      x y z
#    x 1.921630 0.000000 0.000000 
#    y 0.000000 1.874880 0.000000 
#    z 0.000000 0.000000 1.848010 
# 
# From -- ./inp_files/22061.got.cif
#   From: 2010.03.12/outbox.cif.g09.slc.cpg/sg56_12_cif.got.tgz:22061.got - 2010.04.16 15:33:40.
