data_PCOD8228207
_publ_section_title
;
Structure prediction by ZEFSAII (Michael W. Deem and Ramdas Pophale) SiO2 
 PCOD8228207
Probable space group: P C C N
;
_chemical_formula_sum "Si O2"
_cell_formula_units_Z 64
_cell_length_a 8.546570
_cell_length_b 20.488774
_cell_length_c 17.837612
_cell_angle_alpha 90.000000
_cell_angle_beta 90.000000
_cell_angle_gamma 90.000000
_cell_volume 3123.521783
_symmetry_space_group_name_H-M "P C C N"
_symmetry_group_IT_number 56
_symmetry_cell_setting 'orthorhombic'
loop_
_space_group_symop_operation_xyz
x,y,z
1/2-x,1/2-y,z
1/2+x,-y,1/2-z
-x,1/2+y,1/2-z
-x,-y,-z
1/2+x,1/2+y,-z
1/2-x,y,1/2+z
x,1/2-y,1/2+z
loop_
_atom_site_type_symbol
_atom_site_label
_atom_site_fract_x
_atom_site_fract_y
_atom_site_fract_z
Si Si1 0.443181 0.632475 0.083420
Si Si2 0.427103 0.879197 0.088655
Si Si3 0.566372 0.118835 0.584713
Si Si4 0.452878 0.995573 0.832779
Si Si5 0.917149 0.989723 0.167216
Si Si6 0.064496 0.631007 0.920323
Si Si7 0.935213 0.254439 0.673045
Si Si8 0.433303 0.244290 0.835297
O O1 0.258274 0.627011 0.090107
O O2 0.527960 0.578791 0.134013
O O3 0.484268 0.704382 0.110597
O O4 0.505340 0.624963 0.998380
O O5 0.506675 0.827341 0.143590
O O6 0.465468 0.950603 0.117042
O O7 0.498239 0.871470 0.005303
O O8 0.750609 0.125024 0.578114
O O9 0.508074 0.176449 0.639418
O O10 0.514109 0.049179 0.617857
O O11 0.518058 0.997870 0.749800
O O12 0.503574 0.927278 0.870071
O O13 0.268699 0.007180 0.831371
O O14 0.010507 0.699331 0.885353
O O15 0.750000 0.250000 0.687776
O O16 0.023825 0.240984 0.749883
O O17 0.250000 0.250000 0.846586
#
# Coordination Sequence:
#
# PCOD8228207 Si02
#       8
#     8   8   8   8   8   8   8   8
#     4  11  22  40  63  87 115 155 198 243 296 352
#     4  11  22  40  63  87 115 155 198 243 296 352
#     4   9  20  37  61  88 117 153 198 243 290 346
#     4  11  22  38  59  89 123 158 198 244 292 348
#     4  11  22  38  59  89 123 158 198 244 292 348
#     4   9  20  37  61  88 117 153 198 243 290 346
#     4  10  19  38  64  88 114 154 201 244 290 352
#     4  12  25  40  58  88 122 154 193 244 296 352
#
# _framework density 20.489691000000001
#
# number of rings (size 3 to 8) (size 9 to 14) (size 15 to 20)
#    0.000    1.500    0.000    5.625    0.000    4.000 
#    0.000    8.750    0.000    0.000    0.000    0.000 
#    0.000    0.000    0.000    0.000    0.000    0.000 
#
# Total GULP energy -793904.209602 kJ/mol
# GULP energy per Si atom -12404.753275 kJ/mol
# Density = 2.044306 g / cm^3
# Si number density = 20.489691 Si / 1000 Ang^3
#
#
#
# Elastic Constant Matrix: (Units=GPa)
#
#
# Indices 1 2 3 4 5 6 
#
# 1 72.4629 14.8505 19.3855 0.0000 0.0000 0.0000
# 2 14.8505 86.7927 14.2804 0.0000 0.0000 0.0000
# 3 19.3855 14.2804 129.7226 0.0000 0.0000 0.0000
# 4 0.0000 0.0000 0.0000 47.4717 0.0000 0.0000
# 5 0.0000 0.0000 0.0000 0.0000 15.3280 0.0000
# 6 0.0000 0.0000 0.0000 0.0000 0.0000 28.0291
#
#
#
# Elastic Compliance Matrix: (Units=1/GPa)
#
#
# Indices 1 2 3 4 5 6 
#
# 1 0.014778 -0.002205 -0.001966 0.000000 0.000000 0.000000
# 2 -0.002205 0.012063 -0.000998 0.000000 0.000000 0.000000
# 3 -0.001966 -0.000998 0.008112 0.000000 0.000000 0.000000
# 4 0.000000 0.000000 0.000000 0.021065 0.000000 0.000000
# 5 0.000000 0.000000 0.000000 0.000000 0.065240 0.000000
# 6 0.000000 0.000000 0.000000 0.000000 0.000000 0.035677
#
#
# Mechanical properties :
#
#
# Convention : Reuss Voigt Hill
#
# Bulk Modulus (GPa) = 40.62529 42.89010 41.75769
# Shear Modulus (GPa) = 28.49332 34.19655 31.34494
#
# Velocity S-wave (km/s) = 3.73314 4.08973 3.91550
# Velocity P-wave (km/s) = 6.20097 6.57869 6.39262
#
# Compressibility (1/GPa) = 0.02461521
#
# Stress axis : x y z
#
# Youngs Moduli (GPa) = 67.66848 82.89607 123.26794
#
# Poissons Ratio (x) = 0.18280 0.24230
# Poissons Ratio (y) = 0.14922 0.12308
# Poissons Ratio (z) = 0.13301 0.08277
#
# Static dielectric constant tensor:
#      x y z
#    x 3.490630 0.000000 0.000000 
#    y 0.000000 3.956720 0.000000 
#    z 0.000000 0.000000 3.962190 
# 
# 
# High freq. dielectric constant tensor:
#      x y z
#    x 1.782080 0.000000 0.000000 
#    y 0.000000 1.819550 0.000000 
#    z 0.000000 0.000000 1.820700 
# 
# From -- ./inp_files/15224.got.cif
#   From: 2010.03.12/outbox.cif.g09.slc.cpg/sg56_8_cif.got.tgz:15224.got - 2010.04.16 15:33:40.
