data_PCOD8228735
_publ_section_title
;
Structure prediction by ZEFSAII (Michael W. Deem and Ramdas Pophale) SiO2 
 PCOD8228735
Probable space group: P C C N
;
_chemical_formula_sum "Si O2"
_cell_formula_units_Z 32
_cell_length_a 16.797777
_cell_length_b 4.931876
_cell_length_c 17.626117
_cell_angle_alpha 90.000000
_cell_angle_beta 90.000000
_cell_angle_gamma 90.000000
_cell_volume 1460.227788
_symmetry_space_group_name_H-M "P C C N"
_symmetry_group_IT_number 56
_symmetry_cell_setting 'orthorhombic'
loop_
_space_group_symop_operation_xyz
x,y,z
1/2-x,1/2-y,z
1/2+x,-y,1/2-z
-x,1/2+y,1/2-z
-x,-y,-z
1/2+x,1/2+y,-z
1/2-x,y,1/2+z
x,1/2-y,1/2+z
loop_
_atom_site_type_symbol
_atom_site_label
_atom_site_fract_x
_atom_site_fract_y
_atom_site_fract_z
Si Si1 0.102416 0.241109 0.518134
Si Si2 0.301501 0.015038 0.650449
Si Si3 0.446143 0.897391 0.759904
Si Si4 0.071896 0.751450 0.925357
O O1 0.172505 0.343248 0.571797
O O2 0.092504 0.442809 0.447242
O O3 0.022684 0.208606 0.567602
O O4 0.121218 0.948961 0.480970
O O5 0.250000 0.250000 0.693039
O O6 0.250000 0.750000 0.632676
O O7 0.376833 0.929184 0.699123
O O8 0.508317 0.679410 0.727235
O O9 0.405692 0.799908 0.838081
#
# Coordination Sequence:
#
# PCOD8228735 Si02
#       4
#     8   8   8   8
#     4  10  21  40  63  96 126 165 216 271 325 388
#     4  12  26  44  64  96 139 179 215 273 349 407
#     4  12  24  42  68 100 131 175 226 279 326 394
#     4  10  21  38  68  96 124 159 224 280 310 373
#
# _framework density 21.914390000000001
#
# number of rings (size 3 to 8) (size 9 to 14) (size 15 to 20)
#    0.000    1.000    2.500    4.500    7.000    0.000 
#    0.000    7.500    0.000    0.000    0.000    0.000 
#    0.000    0.000    0.000    0.000    0.000    0.000 
#
# Total GULP energy -396915.004340 kJ/mol
# GULP energy per Si atom -12403.593886 kJ/mol
# Density = 2.186451 g / cm^3
# Si number density = 21.914390 Si / 1000 Ang^3
#
#
#
# Elastic Constant Matrix: (Units=GPa)
#
#
# Indices 1 2 3 4 5 6 
#
# 1 96.3143 38.7416 35.3292 0.0000 0.0000 0.0000
# 2 38.7416 112.1377 14.5117 0.0000 0.0000 0.0000
# 3 35.3292 14.5117 98.2153 0.0000 0.0000 0.0000
# 4 0.0000 0.0000 0.0000 27.3105 0.0000 0.0000
# 5 0.0000 0.0000 0.0000 0.0000 10.0733 0.0000
# 6 0.0000 0.0000 0.0000 0.0000 0.0000 46.7392
#
#
#
# Elastic Compliance Matrix: (Units=1/GPa)
#
#
# Indices 1 2 3 4 5 6 
#
# 1 0.013626 -0.004153 -0.004288 0.000000 0.000000 0.000000
# 2 -0.004153 0.010357 -0.000037 0.000000 0.000000 0.000000
# 3 -0.004288 -0.000037 0.011729 0.000000 0.000000 0.000000
# 4 0.000000 0.000000 0.000000 0.036616 0.000000 0.000000
# 5 0.000000 0.000000 0.000000 0.000000 0.099272 0.000000
# 6 0.000000 0.000000 0.000000 0.000000 0.000000 0.021395
#
#
# Mechanical properties :
#
#
# Convention : Reuss Voigt Hill
#
# Bulk Modulus (GPa) = 53.30945 53.75914 53.53430
# Shear Modulus (GPa) = 23.12645 31.36360 27.24502
#
# Velocity S-wave (km/s) = 3.25208 3.78721 3.52980
# Velocity P-wave (km/s) = 6.20325 6.61125 6.41050
#
# Compressibility (1/GPa) = 0.01875840
#
# Stress axis : x y z
#
# Youngs Moduli (GPa) = 73.39001 96.55315 85.25521
#
# Poissons Ratio (x) = 0.40095 0.36556
# Poissons Ratio (y) = 0.30476 0.00312
# Poissons Ratio (z) = 0.31468 0.00353
#
# Static dielectric constant tensor:
#      x y z
#    x 4.013950 0.000000 0.000000 
#    y 0.000000 4.293360 0.000000 
#    z 0.000000 0.000000 3.833930 
# 
# 
# High freq. dielectric constant tensor:
#      x y z
#    x 1.838790 0.000000 0.000000 
#    y 0.000000 1.888290 0.000000 
#    z 0.000000 0.000000 1.856910 
# 
# From -- ./inp_files/12480.got.cif
#   From: 2010.03.12/outbox.cif.g09.slc.cpg/sg56_7_cif.got.tgz:12480.got - 2010.04.16 15:33:40.
