data_PCOD8228196
_publ_section_title
;
Structure prediction by ZEFSAII (Michael W. Deem and Ramdas Pophale) SiO2 
 PCOD8228196
Probable space group: P C C N
;
_chemical_formula_sum "Si O2"
_cell_formula_units_Z 40
_cell_length_a 8.388538
_cell_length_b 9.543464
_cell_length_c 23.518244
_cell_angle_alpha 90.000000
_cell_angle_beta 90.000000
_cell_angle_gamma 90.000000
_cell_volume 1882.769731
_symmetry_space_group_name_H-M "P C C N"
_symmetry_group_IT_number 56
_symmetry_cell_setting 'orthorhombic'
loop_
_space_group_symop_operation_xyz
x,y,z
1/2-x,1/2-y,z
1/2+x,-y,1/2-z
-x,1/2+y,1/2-z
-x,-y,-z
1/2+x,1/2+y,-z
1/2-x,y,1/2+z
x,1/2-y,1/2+z
loop_
_atom_site_type_symbol
_atom_site_label
_atom_site_fract_x
_atom_site_fract_y
_atom_site_fract_z
Si Si1 0.434210 0.221882 0.007603
Si Si2 0.959322 0.979712 0.585711
Si Si3 0.356842 0.882653 0.415683
Si Si4 0.042690 0.117813 0.195935
Si Si5 0.588179 0.938981 0.796795
O O1 0.250000 0.250000 0.000541
O O2 0.507193 0.161521 0.948440
O O3 0.449423 0.111269 0.058899
O O4 0.541331 0.355591 0.026350
O O5 0.767139 0.990305 0.575828
O O6 0.006565 0.974427 0.651686
O O7 0.250000 0.750000 0.397598
O O8 0.477970 0.920629 0.365923
O O9 0.224255 0.070593 0.195210
O O10 0.017308 0.282585 0.208828
O O11 0.944069 0.027461 0.240686
#
# Coordination Sequence:
#
# PCOD8228196 Si02
#       5
#     8   8   8   8   8
#     4  10  20  37  62  86 122 161 207 254 307 370
#     4  10  21  38  62  89 124 161 208 259 307 376
#     4  10  19  37  66  85 121 166 200 250 318 365
#     4  11  23  40  69  94 126 167 207 258 313 385
#     4  11  23  41  66  97 126 164 211 257 318 372
#
# _framework density 21.245294999999999
#
# number of rings (size 3 to 8) (size 9 to 14) (size 15 to 20)
#    0.000    1.600    4.000    2.400    0.000    0.800 
#    7.200    4.000    4.400    0.000    0.000    0.000 
#    0.000    0.000    0.000    0.000    0.000    0.000 
#
# Total GULP energy -495948.323471 kJ/mol
# GULP energy per Si atom -12398.708087 kJ/mol
# Density = 2.119694 g / cm^3
# Si number density = 21.245295 Si / 1000 Ang^3
#
#
#
# Elastic Constant Matrix: (Units=GPa)
#
#
# Indices 1 2 3 4 5 6 
#
# 1 83.5247 32.2360 37.3846 0.0000 0.0000 0.0000
# 2 32.2360 56.5911 66.4021 0.0000 0.0000 0.0000
# 3 37.3846 66.4021 109.5166 0.0000 0.0000 0.0000
# 4 0.0000 0.0000 0.0000 31.4924 0.0000 0.0000
# 5 0.0000 0.0000 0.0000 0.0000 26.7587 0.0000
# 6 0.0000 0.0000 0.0000 0.0000 0.0000 24.5178
#
#
#
# Elastic Compliance Matrix: (Units=1/GPa)
#
#
# Indices 1 2 3 4 5 6 
#
# 1 0.015348 -0.008993 0.000214 0.000000 0.000000 0.000000
# 2 -0.008993 0.066506 -0.037254 0.000000 0.000000 0.000000
# 3 0.000214 -0.037254 0.031646 0.000000 0.000000 0.000000
# 4 0.000000 0.000000 0.000000 0.031754 0.000000 0.000000
# 5 0.000000 0.000000 0.000000 0.000000 0.037371 0.000000
# 6 0.000000 0.000000 0.000000 0.000000 0.000000 0.040787
#
#
# Mechanical properties :
#
#
# Convention : Reuss Voigt Hill
#
# Bulk Modulus (GPa) = 46.65791 57.96421 52.31106
# Shear Modulus (GPa) = 15.49793 24.12776 19.81284
#
# Velocity S-wave (km/s) = 2.70381 3.37363 3.05712
# Velocity P-wave (km/s) = 5.63531 6.52056 6.09403
#
# Compressibility (1/GPa) = 0.02143259
#
# Stress axis : x y z
#
# Youngs Moduli (GPa) = 65.15592 15.03613 31.59947
#
# Poissons Ratio (x) = 0.13523 -0.00675
# Poissons Ratio (y) = 0.58597 1.17721
# Poissons Ratio (z) = -0.01393 0.56016
#
# Static dielectric constant tensor:
#      x y z
#    x 4.007950 0.000000 0.000000 
#    y 0.000000 3.762020 0.000000 
#    z 0.000000 0.000000 3.826370 
# 
# 
# High freq. dielectric constant tensor:
#      x y z
#    x 1.845590 0.000000 0.000000 
#    y 0.000000 1.810780 0.000000 
#    z 0.000000 0.000000 1.832550 
# 
# From -- ./inp_files/17989.got.cif
#   From: 2010.03.12/outbox.cif.g09.slc.cpg/sg56_9_cif.got.tgz:17989.got - 2010.04.16 15:33:40.
