data_PCOD8228106
_publ_section_title
;
Structure prediction by ZEFSAII (Michael W. Deem and Ramdas Pophale) SiO2 
 PCOD8228106
Probable space group: P C C N
;
_chemical_formula_sum "Si O2"
_cell_formula_units_Z 52
_cell_length_a 29.071583
_cell_length_b 5.217239
_cell_length_c 15.380922
_cell_angle_alpha 90.000000
_cell_angle_beta 90.000000
_cell_angle_gamma 90.000000
_cell_volume 2332.876683
_symmetry_space_group_name_H-M "P C C N"
_symmetry_group_IT_number 56
_symmetry_cell_setting 'orthorhombic'
loop_
_space_group_symop_operation_xyz
x,y,z
1/2-x,1/2-y,z
1/2+x,-y,1/2-z
-x,1/2+y,1/2-z
-x,-y,-z
1/2+x,1/2+y,-z
1/2-x,y,1/2+z
x,1/2-y,1/2+z
loop_
_atom_site_type_symbol
_atom_site_label
_atom_site_fract_x
_atom_site_fract_y
_atom_site_fract_z
Si Si1 0.250000 0.750000 0.354142
Si Si2 0.994653 0.946533 0.693788
Si Si3 0.098028 0.811493 0.324596
Si Si4 0.665935 0.484645 0.082188
Si Si5 0.585809 0.325764 0.364237
Si Si6 0.859235 0.817095 0.904360
Si Si7 0.314067 0.369221 0.271943
O O1 0.207843 0.715880 0.422614
O O2 0.265784 0.515825 0.290073
O O3 0.945187 0.009756 0.649048
O O4 0.012191 0.205641 0.741805
O O5 0.031159 0.868484 0.617257
O O6 0.114522 0.635298 0.405803
O O7 0.085869 0.638988 0.240779
O O8 0.142271 0.970111 0.300093
O O9 0.682400 0.614799 0.171787
O O10 0.665815 0.659639 0.997131
O O11 0.603858 0.046085 0.391471
O O12 0.615706 0.544202 0.409260
O O13 0.819620 0.812633 0.830983
#
# Coordination Sequence:
#
# PCOD8228106 Si02
#       7
#     4   8   8   8   8   8   8
#     4  10  24  42  66  94 120 160 208 270 320 398
#     4  10  19  33  62  95 128 174 224 266 309 370
#     4   9  20  36  64  90 127 173 215 260 317 371
#     4  11  23  42  65  92 130 164 213 262 329 388
#     4  10  20  40  59  97 129 170 223 257 309 375
#     4  11  24  40  68  92 131 172 207 263 317 381
#     4  10  21  43  64  91 123 163 213 259 320 385
#
# _framework density 22.290077
#
# number of rings (size 3 to 8) (size 9 to 14) (size 15 to 20)
#    0.000    1.846    1.538    3.231    6.462    0.615 
#    0.000    4.615    0.000    0.000    0.000    0.000 
#    0.000    0.000    0.000    0.000    0.000    0.000 
#
# Total GULP energy -644269.226064 kJ/mol
# GULP energy per Si atom -12389.792809 kJ/mol
# Density = 2.223934 g / cm^3
# Si number density = 22.290077 Si / 1000 Ang^3
#
#
#
# Elastic Constant Matrix: (Units=GPa)
#
#
# Indices 1 2 3 4 5 6 
#
# 1 92.1170 16.5395 22.9925 0.0000 0.0000 0.0000
# 2 16.5395 79.4215 -5.3335 0.0000 0.0000 0.0000
# 3 22.9925 -5.3335 70.4111 0.0000 0.0000 0.0000
# 4 0.0000 0.0000 0.0000 6.4007 0.0000 0.0000
# 5 0.0000 0.0000 0.0000 0.0000 17.2814 0.0000
# 6 0.0000 0.0000 0.0000 0.0000 0.0000 10.9375
#
#
#
# Elastic Compliance Matrix: (Units=1/GPa)
#
#
# Indices 1 2 3 4 5 6 
#
# 1 0.012441 -0.002878 -0.004281 0.000000 0.000000 0.000000
# 2 -0.002878 0.013321 0.001949 0.000000 0.000000 0.000000
# 3 -0.004281 0.001949 0.015748 0.000000 0.000000 0.000000
# 4 0.000000 0.000000 0.000000 0.156232 0.000000 0.000000
# 5 0.000000 0.000000 0.000000 0.000000 0.057866 0.000000
# 6 0.000000 0.000000 0.000000 0.000000 0.000000 0.091429
#
#
# Mechanical properties :
#
#
# Convention : Reuss Voigt Hill
#
# Bulk Modulus (GPa) = 32.16442 34.48293 33.32368
# Shear Modulus (GPa) = 13.59361 20.77399 17.18380
#
# Velocity S-wave (km/s) = 2.47219 3.05615 2.77955
# Velocity P-wave (km/s) = 4.75502 5.28745 5.02829
#
# Compressibility (1/GPa) = 0.03109026
#
# Stress axis : x y z
#
# Youngs Moduli (GPa) = 80.37940 75.06753 63.50114
#
# Poissons Ratio (x) = 0.21607 0.27182
# Poissons Ratio (y) = 0.23136 -0.12376
# Poissons Ratio (z) = 0.34407 -0.14630
#
# Static dielectric constant tensor:
#      x y z
#    x 5.045570 0.000000 0.000000 
#    y 0.000000 4.301750 0.000000 
#    z 0.000000 0.000000 3.919590 
# 
# 
# High freq. dielectric constant tensor:
#      x y z
#    x 1.893270 0.000000 0.000000 
#    y 0.000000 1.885730 0.000000 
#    z 0.000000 0.000000 1.834710 
# 
# From -- ./inp_files/17086.got.cif
#   From: 2010.03.12/outbox.cif.g09.slc.cpg/sg56_9_cif.got.tgz:17086.got - 2010.04.16 15:33:40.
