data_PCOD8228244
_publ_section_title
;
Structure prediction by ZEFSAII (Michael W. Deem and Ramdas Pophale) SiO2 
 PCOD8228244
Probable space group: P C C N
;
_chemical_formula_sum "Si O2"
_cell_formula_units_Z 64
_cell_length_a 17.365345
_cell_length_b 10.570696
_cell_length_c 14.479347
_cell_angle_alpha 90.000000
_cell_angle_beta 90.000000
_cell_angle_gamma 90.000000
_cell_volume 2657.883710
_symmetry_space_group_name_H-M "P C C N"
_symmetry_group_IT_number 56
_symmetry_cell_setting 'orthorhombic'
loop_
_space_group_symop_operation_xyz
x,y,z
1/2-x,1/2-y,z
1/2+x,-y,1/2-z
-x,1/2+y,1/2-z
-x,-y,-z
1/2+x,1/2+y,-z
1/2-x,y,1/2+z
x,1/2-y,1/2+z
loop_
_atom_site_type_symbol
_atom_site_label
_atom_site_fract_x
_atom_site_fract_y
_atom_site_fract_z
Si Si1 0.666387 0.297867 0.211940
Si Si2 0.175892 0.820039 0.096357
Si Si3 0.257792 0.082370 0.586897
Si Si4 0.936185 0.240232 0.548300
Si Si5 0.390956 0.460261 0.492388
Si Si6 0.595265 0.763679 0.388035
Si Si7 0.367058 0.324590 0.315303
Si Si8 0.291984 0.079381 0.281238
O O1 0.750000 0.250000 0.182678
O O2 0.646179 0.259195 0.316230
O O3 0.603648 0.232745 0.147909
O O4 0.664261 0.449106 0.202128
O O5 0.250000 0.750000 0.052713
O O6 0.197725 0.960748 0.127685
O O7 0.110268 0.831178 0.020062
O O8 0.204368 0.040148 0.499732
O O9 0.324016 0.187388 0.563891
O O10 0.203270 0.128272 0.673194
O O11 0.017995 0.311640 0.559761
O O12 0.932495 0.096395 0.507172
O O13 0.415683 0.386019 0.585754
O O14 0.416733 0.380429 0.400448
O O15 0.586197 0.804616 0.280755
O O16 0.333606 0.186485 0.342628
O O17 0.298814 0.427253 0.302732
#
# Coordination Sequence:
#
# PCOD8228244 Si02
#       8
#     8   8   8   8   8   8   8   8
#     4  11  22  40  71 104 132 184 240 301 355 417
#     4  11  22  42  72 104 139 182 240 302 357 419
#     4  11  22  44  74 101 140 181 239 304 351 422
#     4  12  27  44  69 106 144 188 237 290 367 453
#     4  12  24  45  76 100 132 193 250 290 351 445
#     4  11  27  46  63 103 149 186 225 298 375 424
#     4  10  24  39  68 103 132 176 236 298 347 416
#     4  10  19  40  66  98 137 167 232 295 351 407
#
# _framework density 24.07931
#
# number of rings (size 3 to 8) (size 9 to 14) (size 15 to 20)
#    0.000    1.000    5.000    1.875    7.000    1.500 
#    2.250    0.000    0.000    0.000    0.000    0.000 
#    0.000    0.000    0.000    0.000    0.000    0.000 
#
# Total GULP energy -793038.658102 kJ/mol
# GULP energy per Si atom -12391.229033 kJ/mol
# Density = 2.402450 g / cm^3
# Si number density = 24.079310 Si / 1000 Ang^3
#
#
#
# Elastic Constant Matrix: (Units=GPa)
#
#
# Indices 1 2 3 4 5 6 
#
# 1 64.1038 -23.2131 13.2656 0.0000 0.0000 0.0000
# 2 -23.2131 83.8808 10.6221 0.0000 0.0000 0.0000
# 3 13.2656 10.6221 86.7481 0.0000 0.0000 0.0000
# 4 0.0000 0.0000 0.0000 38.5137 0.0000 0.0000
# 5 0.0000 0.0000 0.0000 0.0000 15.0383 0.0000
# 6 0.0000 0.0000 0.0000 0.0000 0.0000 29.7501
#
#
#
# Elastic Compliance Matrix: (Units=1/GPa)
#
#
# Indices 1 2 3 4 5 6 
#
# 1 0.018313 0.005508 -0.003475 0.000000 0.000000 0.000000
# 2 0.005508 0.013766 -0.002528 0.000000 0.000000 0.000000
# 3 -0.003475 -0.002528 0.012369 0.000000 0.000000 0.000000
# 4 0.000000 0.000000 0.000000 0.025965 0.000000 0.000000
# 5 0.000000 0.000000 0.000000 0.000000 0.066497 0.000000
# 6 0.000000 0.000000 0.000000 0.000000 0.000000 0.033613
#
#
# Mechanical properties :
#
#
# Convention : Reuss Voigt Hill
#
# Bulk Modulus (GPa) = 23.01046 26.23129 24.62088
# Shear Modulus (GPa) = 26.88191 32.26430 29.57310
#
# Velocity S-wave (km/s) = 3.34487 3.66446 3.50830
# Velocity P-wave (km/s) = 4.94918 5.36859 5.16314
#
# Compressibility (1/GPa) = 0.04345849
#
# Stress axis : x y z
#
# Youngs Moduli (GPa) = 54.60487 72.64217 80.85014
#
# Poissons Ratio (x) = -0.40012 0.28095
# Poissons Ratio (y) = -0.30077 0.20438
# Poissons Ratio (z) = 0.18975 0.18363
#
# Static dielectric constant tensor:
#      x y z
#    x 4.390080 0.000000 0.000000 
#    y 0.000000 4.264120 0.000000 
#    z 0.000000 0.000000 4.241830 
# 
# 
# High freq. dielectric constant tensor:
#      x y z
#    x 1.932920 0.000000 0.000000 
#    y 0.000000 1.958080 0.000000 
#    z 0.000000 0.000000 1.950740 
# 
# From -- ./inp_files/12874.got.cif
#   From: 2010.03.12/outbox.cif.g09.slc.cpg/sg56_7_cif.got.tgz:12874.got - 2010.04.16 15:33:40.
