data_PCOD8228456
_publ_section_title
;
Structure prediction by ZEFSAII (Michael W. Deem and Ramdas Pophale) SiO2 
 PCOD8228456
Probable space group: P C C N
;
_chemical_formula_sum "Si O2"
_cell_formula_units_Z 56
_cell_length_a 9.259537
_cell_length_b 18.674265
_cell_length_c 16.129125
_cell_angle_alpha 90.000000
_cell_angle_beta 90.000000
_cell_angle_gamma 90.000000
_cell_volume 2788.968419
_symmetry_space_group_name_H-M "P C C N"
_symmetry_group_IT_number 56
_symmetry_cell_setting 'orthorhombic'
loop_
_space_group_symop_operation_xyz
x,y,z
1/2-x,1/2-y,z
1/2+x,-y,1/2-z
-x,1/2+y,1/2-z
-x,-y,-z
1/2+x,1/2+y,-z
1/2-x,y,1/2+z
x,1/2-y,1/2+z
loop_
_atom_site_type_symbol
_atom_site_label
_atom_site_fract_x
_atom_site_fract_y
_atom_site_fract_z
Si Si1 0.520968 0.099754 0.607032
Si Si2 0.078783 0.250897 0.539859
Si Si3 0.785785 0.378814 0.762764
Si Si4 0.228057 0.474476 0.138017
Si Si5 0.708663 0.054922 0.019352
Si Si6 0.865608 0.305484 0.920999
Si Si7 0.476373 0.876667 0.846863
O O1 0.466197 0.168016 0.556233
O O2 0.611947 0.126842 0.684391
O O3 0.392971 0.050555 0.640954
O O4 0.624167 0.053111 0.547429
O O5 0.250000 0.250000 0.542032
O O6 0.004947 0.198141 0.606876
O O7 0.023222 0.224039 0.449110
O O8 0.789842 0.456181 0.805324
O O9 0.848810 0.316881 0.822594
O O10 0.620842 0.361299 0.734436
O O11 0.183346 0.486356 0.040537
O O12 0.129336 0.411885 0.177193
O O13 0.675647 0.121091 0.961974
O O14 0.604414 0.061248 0.098774
O O15 0.750000 0.250000 0.955939
#
# Coordination Sequence:
#
# PCOD8228456 Si02
#       7
#     8   8   8   8   8   8   8
#     4  11  21  38  61  87 123 155 201 241 296 362
#     4  11  22  40  61  89 115 157 200 253 304 346
#     4  10  24  37  59  87 118 162 192 246 300 360
#     4  11  20  38  58  88 122 153 199 241 298 351
#     4   9  20  35  60  87 111 158 200 243 283 346
#     4  10  20  38  60  83 117 149 202 243 292 351
#     4  10  21  37  60  86 119 155 198 246 297 358
#
# _framework density 20.079108999999999
#
# number of rings (size 3 to 8) (size 9 to 14) (size 15 to 20)
#    0.000    1.714    2.857    1.714    2.000    0.000 
#    0.000    2.143    0.000    0.000    0.000    0.000 
#    0.000    0.000    0.000    0.000    0.000    0.000 
#
# Total GULP energy -694151.102575 kJ/mol
# GULP energy per Si atom -12395.555403 kJ/mol
# Density = 2.003341 g / cm^3
# Si number density = 20.079109 Si / 1000 Ang^3
#
#
#
# Elastic Constant Matrix: (Units=GPa)
#
#
# Indices 1 2 3 4 5 6 
#
# 1 84.0188 8.7307 25.3039 0.0000 0.0000 0.0000
# 2 8.7307 48.8385 8.8483 0.0000 0.0000 0.0000
# 3 25.3039 8.8483 83.3571 0.0000 0.0000 0.0000
# 4 0.0000 0.0000 0.0000 66.1743 0.0000 0.0000
# 5 0.0000 0.0000 0.0000 0.0000 26.7278 0.0000
# 6 0.0000 0.0000 0.0000 0.0000 0.0000 29.2555
#
#
#
# Elastic Compliance Matrix: (Units=1/GPa)
#
#
# Indices 1 2 3 4 5 6 
#
# 1 0.013232 -0.001670 -0.003839 0.000000 0.000000 0.000000
# 2 -0.001670 0.021088 -0.001732 0.000000 0.000000 0.000000
# 3 -0.003839 -0.001732 0.013346 0.000000 0.000000 0.000000
# 4 0.000000 0.000000 0.000000 0.015112 0.000000 0.000000
# 5 0.000000 0.000000 0.000000 0.000000 0.037414 0.000000
# 6 0.000000 0.000000 0.000000 0.000000 0.000000 0.034182
#
#
# Mechanical properties :
#
#
# Convention : Reuss Voigt Hill
#
# Bulk Modulus (GPa) = 30.13495 33.55333 31.84414
# Shear Modulus (GPa) = 31.26639 35.98695 33.62667
#
# Velocity S-wave (km/s) = 3.95037 4.23810 4.09676
# Velocity P-wave (km/s) = 5.98731 6.37930 6.18641
#
# Compressibility (1/GPa) = 0.03318406
#
# Stress axis : x y z
#
# Youngs Moduli (GPa) = 75.57468 47.42059 74.92945
#
# Poissons Ratio (x) = 0.07918 0.28769
# Poissons Ratio (y) = 0.12620 0.12975
# Poissons Ratio (z) = 0.29016 0.08211
#
# Static dielectric constant tensor:
#      x y z
#    x 3.748430 0.000000 0.000000 
#    y 0.000000 3.539410 0.000000 
#    z 0.000000 0.000000 3.854610 
# 
# 
# High freq. dielectric constant tensor:
#      x y z
#    x 1.789910 0.000000 0.000000 
#    y 0.000000 1.780710 0.000000 
#    z 0.000000 0.000000 1.774730 
# 
# From -- ./inp_files/15170.got.cif
#   From: 2010.03.12/outbox.cif.g09.slc.cpg/sg56_8_cif.got.tgz:15170.got - 2010.04.16 15:33:40.
