data_PCOD8228098
_publ_section_title
;
Structure prediction by ZEFSAII (Michael W. Deem and Ramdas Pophale) SiO2 
 PCOD8228098
Probable space group: P C C N
;
_chemical_formula_sum "Si O2"
_cell_formula_units_Z 48
_cell_length_a 16.546595
_cell_length_b 8.298872
_cell_length_c 16.582925
_cell_angle_alpha 90.000000
_cell_angle_beta 90.000000
_cell_angle_gamma 90.000000
_cell_volume 2277.135321
_symmetry_space_group_name_H-M "P C C N"
_symmetry_group_IT_number 56
_symmetry_cell_setting 'orthorhombic'
loop_
_space_group_symop_operation_xyz
x,y,z
1/2-x,1/2-y,z
1/2+x,-y,1/2-z
-x,1/2+y,1/2-z
-x,-y,-z
1/2+x,1/2+y,-z
1/2-x,y,1/2+z
x,1/2-y,1/2+z
loop_
_atom_site_type_symbol
_atom_site_label
_atom_site_fract_x
_atom_site_fract_y
_atom_site_fract_z
Si Si1 0.705630 0.007797 0.586781
Si Si2 0.070609 0.306652 0.334546
Si Si3 0.630318 0.356021 0.612193
Si Si4 0.993637 0.247744 0.996648
Si Si5 0.382247 0.467004 0.062244
Si Si6 0.428133 0.000318 0.730561
O O1 0.670679 0.182810 0.606495
O O2 0.801557 0.004270 0.604451
O O3 0.658174 0.875867 0.640496
O O4 0.699153 0.961406 0.491422
O O5 0.076762 0.182195 0.261827
O O6 0.029307 0.206348 0.408628
O O7 0.015724 0.458407 0.307257
O O8 0.561070 0.383074 0.542579
O O9 0.592967 0.370802 0.701320
O O10 0.934920 0.096921 0.985745
O O11 0.067309 0.200163 0.056508
O O12 0.364492 0.510553 0.155501
#
# Coordination Sequence:
#
# PCOD8228098 Si02
#       6
#     8   8   8   8   8   8
#     4   9  19  37  55  74 109 151 184 221 281 345
#     4  10  20  34  55  80 110 145 184 231 278 331
#     4  10  19  33  55  81 108 140 184 232 281 335
#     4   8  15  31  53  75 103 139 180 219 271 338
#     4   8  15  31  53  74 101 143 182 217 270 337
#     4  11  20  32  55  82 107 137 186 236 277 321
#
# _framework density 21.079115000000002
#
# number of rings (size 3 to 8) (size 9 to 14) (size 15 to 20)
#    0.000    2.667    0.000    5.000    0.000    1.333 
#    0.000   11.667    0.000    4.000    0.000    0.000 
#    0.000    0.000    0.000    0.000    0.000    0.000 
#
# Total GULP energy -594708.882690 kJ/mol
# GULP energy per Si atom -12389.768389 kJ/mol
# Density = 2.103114 g / cm^3
# Si number density = 21.079115 Si / 1000 Ang^3
#
#
#
# Elastic Constant Matrix: (Units=GPa)
#
#
# Indices 1 2 3 4 5 6 
#
# 1 85.1942 18.8777 55.6641 0.0000 0.0000 0.0000
# 2 18.8777 59.4852 28.7130 0.0000 0.0000 0.0000
# 3 55.6641 28.7130 155.7476 0.0000 0.0000 0.0000
# 4 0.0000 0.0000 0.0000 30.2368 0.0000 0.0000
# 5 0.0000 0.0000 0.0000 0.0000 17.5921 0.0000
# 6 0.0000 0.0000 0.0000 0.0000 0.0000 17.2147
#
#
#
# Elastic Compliance Matrix: (Units=1/GPa)
#
#
# Indices 1 2 3 4 5 6 
#
# 1 0.015642 -0.002487 -0.005132 0.000000 0.000000 0.000000
# 2 -0.002487 0.018848 -0.002586 0.000000 0.000000 0.000000
# 3 -0.005132 -0.002586 0.008732 0.000000 0.000000 0.000000
# 4 0.000000 0.000000 0.000000 0.033072 0.000000 0.000000
# 5 0.000000 0.000000 0.000000 0.000000 0.056844 0.000000
# 6 0.000000 0.000000 0.000000 0.000000 0.000000 0.058090
#
#
# Mechanical properties :
#
#
# Convention : Reuss Voigt Hill
#
# Bulk Modulus (GPa) = 43.83606 56.32628 50.08117
# Shear Modulus (GPa) = 22.80589 26.15353 24.47971
#
# Velocity S-wave (km/s) = 3.29282 3.52622 3.41152
# Velocity P-wave (km/s) = 5.94121 6.58471 6.27122
#
# Compressibility (1/GPa) = 0.02281227
#
# Stress axis : x y z
#
# Youngs Moduli (GPa) = 63.93008 53.05502 114.52696
#
# Poissons Ratio (x) = 0.13194 0.58775
# Poissons Ratio (y) = 0.15899 0.29617
# Poissons Ratio (z) = 0.32809 0.13720
#
# Static dielectric constant tensor:
#      x y z
#    x 4.006340 0.000000 0.000000 
#    y 0.000000 3.482600 0.000000 
#    z 0.000000 0.000000 3.902360 
# 
# 
# High freq. dielectric constant tensor:
#      x y z
#    x 1.804350 0.000000 0.000000 
#    y 0.000000 1.808700 0.000000 
#    z 0.000000 0.000000 1.830670 
# 
# From -- ./inp_files/12699.got.cif
#   From: 2010.03.12/outbox.cif.g09.slc.cpg/sg56_7_cif.got.tgz:12699.got - 2010.04.16 15:33:40.
