data_PCOD8228245
_publ_section_title
;
Structure prediction by ZEFSAII (Michael W. Deem and Ramdas Pophale) SiO2 
 PCOD8228245
Probable space group: P C C N
;
_chemical_formula_sum "Si O2"
_cell_formula_units_Z 56
_cell_length_a 13.001478
_cell_length_b 9.771363
_cell_length_c 20.786127
_cell_angle_alpha 90.000000
_cell_angle_beta 90.000000
_cell_angle_gamma 90.000000
_cell_volume 2640.714494
_symmetry_space_group_name_H-M "P C C N"
_symmetry_group_IT_number 56
_symmetry_cell_setting 'orthorhombic'
loop_
_space_group_symop_operation_xyz
x,y,z
1/2-x,1/2-y,z
1/2+x,-y,1/2-z
-x,1/2+y,1/2-z
-x,-y,-z
1/2+x,1/2+y,-z
1/2-x,y,1/2+z
x,1/2-y,1/2+z
loop_
_atom_site_type_symbol
_atom_site_label
_atom_site_fract_x
_atom_site_fract_y
_atom_site_fract_z
Si Si1 0.212507 0.029590 0.940820
Si Si2 0.828982 0.365958 0.681250
Si Si3 0.535429 0.696645 0.120910
Si Si4 0.949960 0.976997 0.568182
Si Si5 0.583684 0.520713 0.945079
Si Si6 0.027477 0.234154 0.641738
Si Si7 0.345046 0.152055 0.258020
O O1 0.188343 0.901367 0.894183
O O2 0.331313 0.065296 0.936332
O O3 0.139365 0.154432 0.917995
O O4 0.191034 0.998374 0.016833
O O5 0.750000 0.250000 0.704269
O O6 0.811232 0.495799 0.727929
O O7 0.947226 0.317357 0.686267
O O8 0.439274 0.594244 0.108583
O O9 0.559761 0.692961 0.196443
O O10 0.496274 0.846903 0.101513
O O11 0.963422 0.111745 0.610269
O O12 0.000000 0.000000 0.500000
O O13 0.578631 0.670500 0.912913
O O14 0.500000 0.500000 0.000000
O O15 0.119267 0.172276 0.684689
O O16 0.250000 0.250000 0.273600
#
# Coordination Sequence:
#
# PCOD8228245 Si02
#       7
#     8   8   8   8   8   8   8
#     4  10  20  39  68  91 126 173 222 270 341 398
#     4  11  22  43  71 100 128 179 231 279 329 404
#     4  10  21  40  63  95 126 171 225 270 332 396
#     4  12  25  37  61  98 135 170 217 279 332 407
#     4  10  19  40  68  95 127 169 219 278 338 396
#     4  12  25  41  69 100 132 173 228 275 336 398
#     4  11  26  44  67  96 135 180 227 275 338 401
#
# _framework density 21.206381
#
# number of rings (size 3 to 8) (size 9 to 14) (size 15 to 20)
#    0.000    1.143    5.714    3.857    2.000    1.143 
#    0.000    0.000    0.000    0.000    0.000    0.000 
#    0.000    0.000    0.000    0.000    0.000    0.000 
#
# Total GULP energy -694307.030692 kJ/mol
# GULP energy per Si atom -12398.339834 kJ/mol
# Density = 2.115811 g / cm^3
# Si number density = 21.206381 Si / 1000 Ang^3
#
#
#
# Elastic Constant Matrix: (Units=GPa)
#
#
# Indices 1 2 3 4 5 6 
#
# 1 46.3200 34.1480 30.5966 0.0000 0.0000 0.0000
# 2 34.1480 158.3590 48.0524 0.0000 0.0000 0.0000
# 3 30.5966 48.0524 103.8569 0.0000 0.0000 0.0000
# 4 0.0000 0.0000 0.0000 29.8266 0.0000 0.0000
# 5 0.0000 0.0000 0.0000 0.0000 33.4830 0.0000
# 6 0.0000 0.0000 0.0000 0.0000 0.0000 24.5406
#
#
#
# Elastic Compliance Matrix: (Units=1/GPa)
#
#
# Indices 1 2 3 4 5 6 
#
# 1 0.029095 -0.004273 -0.006594 0.000000 0.000000 0.000000
# 2 -0.004273 0.007974 -0.002430 0.000000 0.000000 0.000000
# 3 -0.006594 -0.002430 0.012696 0.000000 0.000000 0.000000
# 4 0.000000 0.000000 0.000000 0.033527 0.000000 0.000000
# 5 0.000000 0.000000 0.000000 0.000000 0.029866 0.000000
# 6 0.000000 0.000000 0.000000 0.000000 0.000000 0.040749
#
#
# Mechanical properties :
#
#
# Convention : Reuss Voigt Hill
#
# Bulk Modulus (GPa) = 43.16137 59.34778 51.25458
# Shear Modulus (GPa) = 26.56397 30.61931 28.59164
#
# Velocity S-wave (km/s) = 3.54311 3.80395 3.67584
# Velocity P-wave (km/s) = 6.09388 6.88041 6.49905
#
# Compressibility (1/GPa) = 0.02316886
#
# Stress axis : x y z
#
# Youngs Moduli (GPa) = 34.37020 125.41305 78.76556
#
# Poissons Ratio (x) = 0.53588 0.51942
# Poissons Ratio (y) = 0.14686 0.19143
# Poissons Ratio (z) = 0.22665 0.30481
#
# Static dielectric constant tensor:
#      x y z
#    x 3.818620 0.000000 0.000000 
#    y 0.000000 3.981880 0.000000 
#    z 0.000000 0.000000 4.043610 
# 
# 
# High freq. dielectric constant tensor:
#      x y z
#    x 1.810070 0.000000 0.000000 
#    y 0.000000 1.842360 0.000000 
#    z 0.000000 0.000000 1.820360 
# 
# From -- ./inp_files/19115.got.cif
#   From: 2010.03.12/outbox.cif.g09.slc.cpg/sg56_10_cif.got.tgz:19115.got - 2010.04.16 15:33:40.
