data_PCOD8228723
_publ_section_title
;
Structure prediction by ZEFSAII (Michael W. Deem and Ramdas Pophale) SiO2 
 PCOD8228723
Probable space group: P C C N
;
_chemical_formula_sum "Si O2"
_cell_formula_units_Z 44
_cell_length_a 5.167502
_cell_length_b 18.243995
_cell_length_c 22.340607
_cell_angle_alpha 90.000000
_cell_angle_beta 90.000000
_cell_angle_gamma 90.000000
_cell_volume 2106.180399
_symmetry_space_group_name_H-M "P C C N"
_symmetry_group_IT_number 56
_symmetry_cell_setting 'orthorhombic'
loop_
_space_group_symop_operation_xyz
x,y,z
1/2-x,1/2-y,z
1/2+x,-y,1/2-z
-x,1/2+y,1/2-z
-x,-y,-z
1/2+x,1/2+y,-z
1/2-x,y,1/2+z
x,1/2-y,1/2+z
loop_
_atom_site_type_symbol
_atom_site_label
_atom_site_fract_x
_atom_site_fract_y
_atom_site_fract_z
Si Si1 0.583762 0.882444 0.648719
Si Si2 0.750000 0.250000 0.862707
Si Si3 0.027527 0.456543 0.623141
Si Si4 0.482322 0.934882 0.953675
Si Si5 0.138922 0.452542 0.748307
Si Si6 0.115859 0.320968 0.955566
O O1 0.419344 0.811461 0.673143
O O2 0.813793 0.894438 0.697664
O O3 0.675897 0.870526 0.579996
O O4 0.425292 0.958403 0.642489
O O5 0.572039 0.200122 0.902828
O O6 0.245862 0.428515 0.579333
O O7 0.046723 0.412579 0.686416
O O8 0.749734 0.443557 0.592924
O O9 0.456115 0.861031 0.992364
O O10 0.500000 0.000000 0.000000
O O11 0.412523 0.491771 0.732534
O O12 0.250000 0.250000 0.985167
#
# Coordination Sequence:
#
# PCOD8228723 Si02
#       6
#     8   4   8   8   8   8
#     4  10  21  38  62  94 128 159 216 266 325 371
#     4  10  22  38  62  90 124 170 214 262 320 380
#     4  11  23  38  62  97 127 162 206 262 329 378
#     4  12  23  37  63  93 130 162 208 264 317 391
#     4  10  22  38  63  92 130 164 203 269 324 383
#     4  10  23  38  60  92 126 167 212 263 321 380
#
# _framework density 20.890896999999999
#
# number of rings (size 3 to 8) (size 9 to 14) (size 15 to 20)
#    0.000    1.455    1.818    3.818   10.182    0.000 
#    0.000    0.000    0.000    4.364    0.000    0.000 
#    0.000    0.000    0.000    0.000    0.000    0.000 
#
# Total GULP energy -545120.898174 kJ/mol
# GULP energy per Si atom -12389.111322 kJ/mol
# Density = 2.084335 g / cm^3
# Si number density = 20.890897 Si / 1000 Ang^3
#
#
#
# Elastic Constant Matrix: (Units=GPa)
#
#
# Indices 1 2 3 4 5 6 
#
# 1 99.4497 27.8416 25.2515 0.0000 0.0000 0.0000
# 2 27.8416 92.8759 42.5785 0.0000 0.0000 0.0000
# 3 25.2515 42.5785 104.0036 0.0000 0.0000 0.0000
# 4 0.0000 0.0000 0.0000 22.0518 0.0000 0.0000
# 5 0.0000 0.0000 0.0000 0.0000 57.6594 0.0000
# 6 0.0000 0.0000 0.0000 0.0000 0.0000 28.0577
#
#
#
# Elastic Compliance Matrix: (Units=1/GPa)
#
#
# Indices 1 2 3 4 5 6 
#
# 1 0.011204 -0.002599 -0.001656 0.000000 0.000000 0.000000
# 2 -0.002599 0.013858 -0.005042 0.000000 0.000000 0.000000
# 3 -0.001656 -0.005042 0.012081 0.000000 0.000000 0.000000
# 4 0.000000 0.000000 0.000000 0.045348 0.000000 0.000000
# 5 0.000000 0.000000 0.000000 0.000000 0.017343 0.000000
# 6 0.000000 0.000000 0.000000 0.000000 0.000000 0.035641
#
#
# Mechanical properties :
#
#
# Convention : Reuss Voigt Hill
#
# Bulk Modulus (GPa) = 53.91520 54.18583 54.05052
# Shear Modulus (GPa) = 31.20082 34.93096 33.06589
#
# Velocity S-wave (km/s) = 3.86879 4.09353 3.98274
# Velocity P-wave (km/s) = 6.76910 6.95244 6.86138
#
# Compressibility (1/GPa) = 0.01854764
#
# Stress axis : x y z
#
# Youngs Moduli (GPa) = 89.25773 72.16134 82.77203
#
# Poissons Ratio (x) = 0.18757 0.13707
# Poissons Ratio (y) = 0.23201 0.41735
# Poissons Ratio (z) = 0.14781 0.36385
#
# Static dielectric constant tensor:
#      x y z
#    x 3.770250 0.000000 0.000000 
#    y 0.000000 3.898970 0.000000 
#    z 0.000000 0.000000 4.105350 
# 
# 
# High freq. dielectric constant tensor:
#      x y z
#    x 1.833030 0.000000 0.000000 
#    y 0.000000 1.789640 0.000000 
#    z 0.000000 0.000000 1.814200 
# 
# From -- ./inp_files/20030.got.cif
#   From: 2010.03.12/outbox.cif.g09.slc.cpg/sg56_11_cif.got.tgz:20030.got - 2010.04.16 15:33:40.
