data_PCOD8228014
_publ_section_title
;
Structure prediction by ZEFSAII (Michael W. Deem and Ramdas Pophale) SiO2 
 PCOD8228014
Probable space group: P C C N
;
_chemical_formula_sum "Si O2"
_cell_formula_units_Z 56
_cell_length_a 13.944633
_cell_length_b 8.567638
_cell_length_c 20.735851
_cell_angle_alpha 90.000000
_cell_angle_beta 90.000000
_cell_angle_gamma 90.000000
_cell_volume 2477.365360
_symmetry_space_group_name_H-M "P C C N"
_symmetry_group_IT_number 56
_symmetry_cell_setting 'orthorhombic'
loop_
_space_group_symop_operation_xyz
x,y,z
1/2-x,1/2-y,z
1/2+x,-y,1/2-z
-x,1/2+y,1/2-z
-x,-y,-z
1/2+x,1/2+y,-z
1/2-x,y,1/2+z
x,1/2-y,1/2+z
loop_
_atom_site_type_symbol
_atom_site_label
_atom_site_fract_x
_atom_site_fract_y
_atom_site_fract_z
Si Si1 0.615491 0.030593 0.793094
Si Si2 0.543934 0.694724 0.778584
Si Si3 0.250000 0.250000 0.372628
Si Si4 0.200454 0.982085 0.276950
Si Si5 0.624310 0.052673 0.940253
Si Si6 0.405448 0.701176 0.377762
Si Si7 0.925895 0.867658 0.554208
Si Si8 0.250000 0.750000 0.975041
O O1 0.530430 0.152908 0.779161
O O2 0.643712 0.008757 0.867334
O O3 0.584768 0.865206 0.762528
O O4 0.712229 0.092687 0.761518
O O5 0.630989 0.572093 0.773451
O O6 0.495513 0.696024 0.850897
O O7 0.246920 0.095301 0.330575
O O8 0.151903 0.250637 0.415709
O O9 0.148491 0.838129 0.311006
O O10 0.538023 0.184902 0.942826
O O11 0.719539 0.110994 0.977516
O O12 0.596604 0.894825 0.978832
O O13 0.432478 0.535192 0.408722
O O14 0.338707 0.798754 0.427634
#
# Coordination Sequence:
#
# PCOD8228014 Si02
#       8
#     8   8   4   8   8   8   8   4
#     4  12  24  40  65  97 136 170 218 279 342 415
#     4  12  22  42  66 100 133 177 220 275 351 405
#     4  10  18  36  64  92 126 170 224 264 330 424
#     4  11  22  38  64  97 136 172 217 281 342 401
#     4  10  21  40  59  89 126 173 219 277 330 395
#     4  10  20  40  64  93 124 174 221 275 324 411
#     4   9  19  38  63  84 121 171 224 265 332 389
#     4  10  22  40  66  92 128 174 234 274 340 390
#
# _framework density 22.604659000000002
#
# number of rings (size 3 to 8) (size 9 to 14) (size 15 to 20)
#    0.000    1.429    4.286    1.714    0.000    1.143 
#    2.571    0.000    0.000    8.571    0.000    0.000 
#    0.000    0.000    0.000    0.000    0.000    0.000 
#
# Total GULP energy -693765.485562 kJ/mol
# GULP energy per Si atom -12388.669385 kJ/mol
# Density = 2.255321 g / cm^3
# Si number density = 22.604659 Si / 1000 Ang^3
#
#
#
# Elastic Constant Matrix: (Units=GPa)
#
#
# Indices 1 2 3 4 5 6 
#
# 1 114.6301 30.9285 35.9761 0.0000 0.0000 0.0000
# 2 30.9285 35.2371 20.4244 0.0000 0.0000 0.0000
# 3 35.9761 20.4244 108.8079 0.0000 0.0000 0.0000
# 4 0.0000 0.0000 0.0000 15.5961 0.0000 0.0000
# 5 0.0000 0.0000 0.0000 0.0000 52.6402 0.0000
# 6 0.0000 0.0000 0.0000 0.0000 0.0000 29.3496
#
#
#
# Elastic Compliance Matrix: (Units=1/GPa)
#
#
# Indices 1 2 3 4 5 6 
#
# 1 0.011887 -0.009151 -0.002213 0.000000 0.000000 0.000000
# 2 -0.009151 0.038889 -0.004274 0.000000 0.000000 0.000000
# 3 -0.002213 -0.004274 0.010724 0.000000 0.000000 0.000000
# 4 0.000000 0.000000 0.000000 0.064119 0.000000 0.000000
# 5 0.000000 0.000000 0.000000 0.000000 0.018997 0.000000
# 6 0.000000 0.000000 0.000000 0.000000 0.000000 0.034072
#
#
# Mechanical properties :
#
#
# Convention : Reuss Voigt Hill
#
# Bulk Modulus (GPa) = 33.08568 48.14813 40.61691
# Shear Modulus (GPa) = 22.72327 30.94026 26.83176
#
# Velocity S-wave (km/s) = 3.17400 3.70368 3.44903
# Velocity P-wave (km/s) = 5.30102 6.29572 5.81966
#
# Compressibility (1/GPa) = 0.03022455
#
# Stress axis : x y z
#
# Youngs Moduli (GPa) = 84.12381 25.71433 93.24559
#
# Poissons Ratio (x) = 0.23532 0.20631
# Poissons Ratio (y) = 0.76984 0.39854
# Poissons Ratio (z) = 0.18613 0.10991
#
# Static dielectric constant tensor:
#      x y z
#    x 4.643150 0.000000 0.000000 
#    y 0.000000 3.598610 0.000000 
#    z 0.000000 0.000000 4.290080 
# 
# 
# High freq. dielectric constant tensor:
#      x y z
#    x 1.909880 0.000000 0.000000 
#    y 0.000000 1.836400 0.000000 
#    z 0.000000 0.000000 1.897820 
# 
# From -- ./inp_files/19145.got.cif
#   From: 2010.03.12/outbox.cif.g09.slc.cpg/sg56_10_cif.got.tgz:19145.got - 2010.04.16 15:33:40.
