data_PCOD8228068
_publ_section_title
;
Structure prediction by ZEFSAII (Michael W. Deem and Ramdas Pophale) SiO2 
 PCOD8228068
Probable space group: P C C N
;
_chemical_formula_sum "Si O2"
_cell_formula_units_Z 48
_cell_length_a 15.533479
_cell_length_b 9.159904
_cell_length_c 18.462880
_cell_angle_alpha 90.000000
_cell_angle_beta 90.000000
_cell_angle_gamma 90.000000
_cell_volume 2626.994138
_symmetry_space_group_name_H-M "P C C N"
_symmetry_group_IT_number 56
_symmetry_cell_setting 'orthorhombic'
loop_
_space_group_symop_operation_xyz
x,y,z
1/2-x,1/2-y,z
1/2+x,-y,1/2-z
-x,1/2+y,1/2-z
-x,-y,-z
1/2+x,1/2+y,-z
1/2-x,y,1/2+z
x,1/2-y,1/2+z
loop_
_atom_site_type_symbol
_atom_site_label
_atom_site_fract_x
_atom_site_fract_y
_atom_site_fract_z
Si Si1 0.750000 0.078245 0.942944
Si Si2 0.250000 0.422584 0.709433
Si Si3 0.082353 0.922164 0.968364
Si Si4 0.155047 0.589034 0.820706
Si Si5 0.344953 0.910967 0.320706
Si Si6 0.082353 0.922163 0.468363
O O1 0.750000 0.250000 0.925578
O O2 0.749998 0.988386 0.869456
O O3 0.834244 0.029491 0.986740
O O4 0.665757 0.029491 0.986743
O O5 0.250000 0.250000 0.705914
O O6 0.163613 0.478779 0.752186
O O7 0.336388 0.478777 0.752187
O O8 0.092624 0.970363 0.883972
O O9 0.069170 0.750000 0.972855
O O10 0.000000 0.000000 0.000000
O O11 0.124505 0.750001 0.793543
O O12 0.250000 0.605338 0.856909
O O13 0.092623 0.529637 0.883971
O O14 0.000000 0.000000 0.500000
#
# Coordination Sequence:
#
# PCOD8228068 Si02
#       6
#     8   8   8   8   8   8
#     4  10  19  36  56  76 108 146 175 206 262 330
#     4  10  19  30  52  82 106 134 177 226 264 296
#     4  10  20  35  57  82 106 137 178 218 261 315
#     4   8  15  33  55  72  99 140 175 203 256 323
#     4   8  15  33  55  72  99 140 175 203 256 323
#     4  10  20  35  57  82 106 137 178 218 261 315
#
# _framework density 18.271833000000001
#
# number of rings (size 3 to 8) (size 9 to 14) (size 15 to 20)
#    1.000    1.667    1.667    1.000    0.000    2.667 
#    0.000    3.333    0.000    0.000    0.000    0.000 
#    0.000    0.000    0.000    0.000    0.000    0.000 
#
# Total GULP energy -594649.855462 kJ/mol
# GULP energy per Si atom -12388.538655 kJ/mol
# Density = 1.823025 g / cm^3
# Si number density = 18.271833 Si / 1000 Ang^3
#
#
#
# Elastic Constant Matrix: (Units=GPa)
#
#
# Indices 1 2 3 4 5 6 
#
# 1 87.0153 34.5732 36.8973 0.0000 0.0000 0.0000
# 2 34.5732 79.1697 61.4621 0.0000 0.0000 0.0000
# 3 36.8973 61.4621 112.4643 0.0000 0.0000 0.0000
# 4 0.0000 0.0000 0.0000 25.7517 0.0000 0.0000
# 5 0.0000 0.0000 0.0000 0.0000 11.2246 0.0000
# 6 0.0000 0.0000 0.0000 0.0000 0.0000 27.9692
#
#
#
# Elastic Compliance Matrix: (Units=1/GPa)
#
#
# Indices 1 2 3 4 5 6 
#
# 1 0.014214 -0.004493 -0.002208 0.000000 0.000000 0.000000
# 2 -0.004493 0.023360 -0.011292 0.000000 0.000000 0.000000
# 3 -0.002208 -0.011292 0.015787 0.000000 0.000000 0.000000
# 4 0.000000 0.000000 0.000000 0.038832 0.000000 0.000000
# 5 0.000000 0.000000 0.000000 0.000000 0.089090 0.000000
# 6 0.000000 0.000000 0.000000 0.000000 0.000000 0.035754
#
#
# Mechanical properties :
#
#
# Convention : Reuss Voigt Hill
#
# Bulk Modulus (GPa) = 57.55501 60.50161 59.02831
# Shear Modulus (GPa) = 19.31896 22.70357 21.01126
#
# Velocity S-wave (km/s) = 3.25516 3.52880 3.39474
# Velocity P-wave (km/s) = 6.75986 7.05599 6.90952
#
# Compressibility (1/GPa) = 0.01737468
#
# Stress axis : x y z
#
# Youngs Moduli (GPa) = 70.35527 42.80898 63.34277
#
# Poissons Ratio (x) = 0.19235 0.13984
# Poissons Ratio (y) = 0.31612 0.71527
# Poissons Ratio (z) = 0.15532 0.48340
#
# Static dielectric constant tensor:
#      x y z
#    x 3.153110 0.000000 0.000000 
#    y 0.000000 3.186600 0.000000 
#    z 0.000000 0.000000 3.315890 
# 
# 
# High freq. dielectric constant tensor:
#      x y z
#    x 1.677950 0.000000 0.000000 
#    y 0.000000 1.695160 0.000000 
#    z 0.000000 0.000000 1.713200 
# 
# From -- ./inp_files/18981.got.cif
#   From: 2010.03.12/outbox.cif.g09.slc.cpg/sg56_10_cif.got.tgz:18981.got - 2010.04.16 15:33:40.
