data_PCOD8228465
_publ_section_title
;
Structure prediction by ZEFSAII (Michael W. Deem and Ramdas Pophale) SiO2 
 PCOD8228465
Probable space group: P C C N
;
_chemical_formula_sum "Si O2"
_cell_formula_units_Z 24
_cell_length_a 5.175905
_cell_length_b 13.005150
_cell_length_c 18.038192
_cell_angle_alpha 90.000000
_cell_angle_beta 90.000000
_cell_angle_gamma 90.000000
_cell_volume 1214.212411
_symmetry_space_group_name_H-M "P C C N"
_symmetry_group_IT_number 56
_symmetry_cell_setting 'orthorhombic'
loop_
_space_group_symop_operation_xyz
x,y,z
1/2-x,1/2-y,z
1/2+x,-y,1/2-z
-x,1/2+y,1/2-z
-x,-y,-z
1/2+x,1/2+y,-z
1/2-x,y,1/2+z
x,1/2-y,1/2+z
loop_
_atom_site_type_symbol
_atom_site_label
_atom_site_fract_x
_atom_site_fract_y
_atom_site_fract_z
Si Si1 0.955949 0.986555 0.086176
Si Si2 0.337317 0.136269 0.693736
Si Si3 0.054471 0.942296 0.662588
O O1 0.978897 0.097840 0.126549
O O2 0.819210 0.088494 0.880247
O O3 0.675455 0.939790 0.102346
O O4 0.000000 0.000000 0.000000
O O5 0.250000 0.250000 0.674205
O O6 0.492285 0.136658 0.771432
O O7 0.092439 0.057005 0.699144
#
# Coordination Sequence:
#
# PCOD8228465 Si02
#       3
#     8   8   8
#     4  10  20  38  61  82 123 159 193 252 312 352
#     4  10  21  38  65  88 121 162 210 242 312 361
#     4  10  20  39  59  87 116 159 199 257 290 360
#
# _framework density 19.765900999999999
#
# number of rings (size 3 to 8) (size 9 to 14) (size 15 to 20)
#    2.000    0.000    3.333    1.000    0.000    1.333 
#    0.000    1.667    7.333    0.000    0.000    0.000 
#    0.000    0.000    0.000    0.000    0.000    0.000 
#
# Total GULP energy -297344.205499 kJ/mol
# GULP energy per Si atom -12389.341896 kJ/mol
# Density = 1.972091 g / cm^3
# Si number density = 19.765901 Si / 1000 Ang^3
#
#
#
# Elastic Constant Matrix: (Units=GPa)
#
#
# Indices 1 2 3 4 5 6 
#
# 1 114.9524 -6.1234 22.8873 0.0000 0.0000 0.0000
# 2 -6.1234 32.8873 -6.2719 0.0000 0.0000 0.0000
# 3 22.8873 -6.2719 132.7736 0.0000 0.0000 0.0000
# 4 0.0000 0.0000 0.0000 12.4989 0.0000 0.0000
# 5 0.0000 0.0000 0.0000 0.0000 37.1128 0.0000
# 6 0.0000 0.0000 0.0000 0.0000 0.0000 14.7659
#
#
#
# Elastic Compliance Matrix: (Units=1/GPa)
#
#
# Indices 1 2 3 4 5 6 
#
# 1 0.009072 0.001404 -0.001498 0.000000 0.000000 0.000000
# 2 0.001404 0.030900 0.001218 0.000000 0.000000 0.000000
# 3 -0.001498 0.001218 0.007847 0.000000 0.000000 0.000000
# 4 0.000000 0.000000 0.000000 0.080007 0.000000 0.000000
# 5 0.000000 0.000000 0.000000 0.000000 0.026945 0.000000
# 6 0.000000 0.000000 0.000000 0.000000 0.000000 0.067723
#
#
# Mechanical properties :
#
#
# Convention : Reuss Voigt Hill
#
# Bulk Modulus (GPa) = 19.97306 33.51082 26.74194
# Shear Modulus (GPa) = 21.10268 30.88362 25.99315
#
# Velocity S-wave (km/s) = 3.27101 3.95710 3.63030
# Velocity P-wave (km/s) = 4.93890 6.15376 5.57950
#
# Compressibility (1/GPa) = 0.05006743
#
# Stress axis : x y z
#
# Youngs Moduli (GPa) = 110.22701 32.36196 127.43260
#
# Poissons Ratio (x) = -0.04542 0.19084
# Poissons Ratio (y) = -0.15471 -0.15518
# Poissons Ratio (z) = 0.16507 -0.03941
#
# Static dielectric constant tensor:
#      x y z
#    x 3.754620 0.000000 0.000000 
#    y 0.000000 2.988150 0.000000 
#    z 0.000000 0.000000 3.392280 
# 
# 
# High freq. dielectric constant tensor:
#      x y z
#    x 1.781490 0.000000 0.000000 
#    y 0.000000 1.710910 0.000000 
#    z 0.000000 0.000000 1.771430 
# 
# From -- ./inp_files/13596.got.cif
#   From: 2010.03.12/outbox.cif.g09.slc.cpg/sg56_7_cif.got.tgz:13596.got - 2010.04.16 15:33:40.
