data_PCOD8228907
_publ_section_title
;
Structure prediction by ZEFSAII (Michael W. Deem and Ramdas Pophale) SiO2 
 PCOD8228907
Probable space group: P C C N
;
_chemical_formula_sum "Si O2"
_cell_formula_units_Z 56
_cell_length_a 20.079064
_cell_length_b 6.414517
_cell_length_c 19.552734
_cell_angle_alpha 90.000000
_cell_angle_beta 90.000000
_cell_angle_gamma 90.000000
_cell_volume 2518.343206
_symmetry_space_group_name_H-M "P C C N"
_symmetry_group_IT_number 56
_symmetry_cell_setting 'orthorhombic'
loop_
_space_group_symop_operation_xyz
x,y,z
1/2-x,1/2-y,z
1/2+x,-y,1/2-z
-x,1/2+y,1/2-z
-x,-y,-z
1/2+x,1/2+y,-z
1/2-x,y,1/2+z
x,1/2-y,1/2+z
loop_
_atom_site_type_symbol
_atom_site_label
_atom_site_fract_x
_atom_site_fract_y
_atom_site_fract_z
Si Si1 0.515966 0.864841 0.170206
Si Si2 0.583954 0.053361 0.288126
Si Si3 0.605410 0.855518 0.988034
Si Si4 0.534144 0.298236 0.562351
Si Si5 0.826634 0.803796 0.347314
Si Si6 0.619553 0.580198 0.106750
Si Si7 0.180341 0.637383 0.272427
O O1 0.524829 0.929609 0.249583
O O2 0.452313 0.714103 0.160515
O O3 0.585542 0.758821 0.151386
O O4 0.503098 0.065667 0.123944
O O5 0.632255 0.904829 0.330841
O O6 0.625121 0.182090 0.231007
O O7 0.531452 0.751554 0.982996
O O8 0.646107 0.892084 0.918831
O O9 0.646554 0.695752 0.038003
O O10 0.593135 0.082832 0.021526
O O11 0.563077 0.086060 0.589938
O O12 0.750000 0.750000 0.356626
O O13 0.834438 0.973978 0.287992
O O14 0.677690 0.476899 0.153350
O O15 0.250000 0.750000 0.262483
#
# Coordination Sequence:
#
# PCOD8228907 Si02
#       7
#     8   8   8   8   8   8   8
#     4  11  23  36  67 106 133 175 221 289 354 411
#     4  12  24  40  68 103 141 174 230 289 348 414
#     4  10  24  41  67  99 135 179 223 279 348 416
#     4  10  21  43  67  98 142 173 222 283 350 418
#     4  12  26  48  67  98 142 186 235 284 349 424
#     4  11  22  43  67 100 134 177 227 281 345 407
#     4  12  25  45  69  98 134 189 236 284 339 406
#
# _framework density 22.236841999999999
#
# number of rings (size 3 to 8) (size 9 to 14) (size 15 to 20)
#    0.000    0.857    4.286    3.000    2.000    3.429 
#    2.571    0.000    0.000    0.000    0.000    0.000 
#    0.000    0.000    0.000    0.000    0.000    0.000 
#
# Total GULP energy -694392.991963 kJ/mol
# GULP energy per Si atom -12399.874856 kJ/mol
# Density = 2.218623 g / cm^3
# Si number density = 22.236842 Si / 1000 Ang^3
#
#
#
# Elastic Constant Matrix: (Units=GPa)
#
#
# Indices 1 2 3 4 5 6 
#
# 1 67.3356 24.4943 24.5910 0.0000 0.0000 0.0000
# 2 24.4943 80.4167 37.4093 0.0000 0.0000 0.0000
# 3 24.5910 37.4093 115.4552 0.0000 0.0000 0.0000
# 4 0.0000 0.0000 0.0000 28.7863 0.0000 0.0000
# 5 0.0000 0.0000 0.0000 0.0000 29.8747 0.0000
# 6 0.0000 0.0000 0.0000 0.0000 0.0000 39.7851
#
#
#
# Elastic Compliance Matrix: (Units=1/GPa)
#
#
# Indices 1 2 3 4 5 6 
#
# 1 0.017212 -0.004165 -0.002316 0.000000 0.000000 0.000000
# 2 -0.004165 0.015650 -0.004184 0.000000 0.000000 0.000000
# 3 -0.002316 -0.004184 0.010510 0.000000 0.000000 0.000000
# 4 0.000000 0.000000 0.000000 0.034739 0.000000 0.000000
# 5 0.000000 0.000000 0.000000 0.000000 0.033473 0.000000
# 6 0.000000 0.000000 0.000000 0.000000 0.000000 0.025135
#
#
# Mechanical properties :
#
#
# Convention : Reuss Voigt Hill
#
# Bulk Modulus (GPa) = 45.36802 48.46630 46.91716
# Shear Modulus (GPa) = 30.23024 31.47009 30.85016
#
# Velocity S-wave (km/s) = 3.69109 3.76603 3.72875
# Velocity P-wave (km/s) = 6.21386 6.38384 6.29942
#
# Compressibility (1/GPa) = 0.02204196
#
# Stress axis : x y z
#
# Youngs Moduli (GPa) = 58.09878 63.89726 95.14415
#
# Poissons Ratio (x) = 0.26613 0.22040
# Poissons Ratio (y) = 0.24198 0.39806
# Poissons Ratio (z) = 0.13459 0.26733
#
# Static dielectric constant tensor:
#      x y z
#    x 3.732370 0.000000 0.000000 
#    y 0.000000 4.169740 0.000000 
#    z 0.000000 0.000000 4.116480 
# 
# 
# High freq. dielectric constant tensor:
#      x y z
#    x 1.850500 0.000000 0.000000 
#    y 0.000000 1.889880 0.000000 
#    z 0.000000 0.000000 1.880860 
# 
# From -- ./inp_files/19590.got.cif
#   From: 2010.03.12/outbox.cif.g09.slc.cpg/sg56_10_cif.got.tgz:19590.got - 2010.04.16 15:33:40.
