data_PCOD8228768
_publ_section_title
;
Structure prediction by ZEFSAII (Michael W. Deem and Ramdas Pophale) SiO2 
 PCOD8228768
Probable space group: P C C N
;
_chemical_formula_sum "Si O2"
_cell_formula_units_Z 64
_cell_length_a 14.077818
_cell_length_b 21.721374
_cell_length_c 9.922943
_cell_angle_alpha 90.000000
_cell_angle_beta 90.000000
_cell_angle_gamma 90.000000
_cell_volume 3034.332273
_symmetry_space_group_name_H-M "P C C N"
_symmetry_group_IT_number 56
_symmetry_cell_setting 'orthorhombic'
loop_
_space_group_symop_operation_xyz
x,y,z
1/2-x,1/2-y,z
1/2+x,-y,1/2-z
-x,1/2+y,1/2-z
-x,-y,-z
1/2+x,1/2+y,-z
1/2-x,y,1/2+z
x,1/2-y,1/2+z
loop_
_atom_site_type_symbol
_atom_site_label
_atom_site_fract_x
_atom_site_fract_y
_atom_site_fract_z
Si Si1 0.292004 0.181327 0.521658
Si Si2 0.498898 0.820535 0.076777
Si Si3 0.802994 0.313230 0.578993
Si Si4 0.201663 0.628430 0.147015
Si Si5 0.409179 0.446942 0.375257
Si Si6 0.107049 0.503288 0.160682
Si Si7 0.514709 0.779073 0.367708
Si Si8 0.225513 0.398036 0.258479
O O1 0.250000 0.250000 0.512638
O O2 0.399011 0.179858 0.577827
O O3 0.290607 0.151166 0.375275
O O4 0.229185 0.139357 0.619538
O O5 0.390559 0.840691 0.080555
O O6 0.567949 0.878242 0.076353
O O7 0.521613 0.775749 0.204733
O O8 0.520836 0.787952 0.934916
O O9 0.750000 0.250000 0.539512
O O10 0.783686 0.364245 0.464220
O O11 0.762061 0.335727 0.721353
O O12 0.916401 0.309648 0.586668
O O13 0.181272 0.558289 0.187324
O O14 0.500070 0.476348 0.297784
O O15 0.385223 0.489619 0.501895
O O16 0.318961 0.440960 0.277227
O O17 0.136443 0.444715 0.250196
#
# Coordination Sequence:
#
# PCOD8228768 Si02
#       8
#     8   8   8   8   8   8   8   8
#     4  12  27  44  67  99 132 176 218 279 335 400
#     4  10  21  39  63  93 131 167 214 266 322 391
#     4  11  22  41  63  96 134 173 213 270 329 390
#     4  10  23  39  64  94 131 169 221 265 320 392
#     4  10  21  45  67  92 130 172 220 269 323 396
#     4  10  24  43  70  95 128 179 219 267 333 388
#     4  11  24  38  63  95 133 168 213 268 331 385
#     4  12  24  46  69  98 133 173 225 276 336 396
#
# _framework density 21.091954999999999
#
# number of rings (size 3 to 8) (size 9 to 14) (size 15 to 20)
#    0.000    1.250    3.750    1.500    5.250    0.000 
#    2.250    0.625    0.000    0.000    0.000    0.000 
#    0.000    0.000    0.000    0.000    0.000    0.000 
#
# Total GULP energy -793712.463034 kJ/mol
# GULP energy per Si atom -12401.757235 kJ/mol
# Density = 2.104395 g / cm^3
# Si number density = 21.091955 Si / 1000 Ang^3
#
#
#
# Elastic Constant Matrix: (Units=GPa)
#
#
# Indices 1 2 3 4 5 6 
#
# 1 76.1597 31.4281 15.5124 0.0000 0.0000 0.0000
# 2 31.4281 98.2420 27.2281 0.0000 0.0000 0.0000
# 3 15.5124 27.2281 55.2455 0.0000 0.0000 0.0000
# 4 0.0000 0.0000 0.0000 32.4500 0.0000 0.0000
# 5 0.0000 0.0000 0.0000 0.0000 25.5956 0.0000
# 6 0.0000 0.0000 0.0000 0.0000 0.0000 31.0982
#
#
#
# Elastic Compliance Matrix: (Units=1/GPa)
#
#
# Indices 1 2 3 4 5 6 
#
# 1 0.015353 -0.004305 -0.002189 0.000000 0.000000 0.000000
# 2 -0.004305 0.012996 -0.005197 0.000000 0.000000 0.000000
# 3 -0.002189 -0.005197 0.021277 0.000000 0.000000 0.000000
# 4 0.000000 0.000000 0.000000 0.030817 0.000000 0.000000
# 5 0.000000 0.000000 0.000000 0.000000 0.039069 0.000000
# 6 0.000000 0.000000 0.000000 0.000000 0.000000 0.032156
#
#
# Mechanical properties :
#
#
# Convention : Reuss Voigt Hill
#
# Bulk Modulus (GPa) = 38.10284 41.99825 40.05055
# Shear Modulus (GPa) = 27.20393 28.19400 27.69897
#
# Velocity S-wave (km/s) = 3.59524 3.66008 3.62781
# Velocity P-wave (km/s) = 5.94464 6.14954 6.04795
#
# Compressibility (1/GPa) = 0.02624476
#
# Stress axis : x y z
#
# Youngs Moduli (GPa) = 65.13575 76.94530 46.99931
#
# Poissons Ratio (x) = 0.33122 0.10290
# Poissons Ratio (y) = 0.28038 0.24424
# Poissons Ratio (z) = 0.14260 0.39985
#
# Static dielectric constant tensor:
#      x y z
#    x 4.042620 0.000000 0.000000 
#    y 0.000000 3.827120 0.000000 
#    z 0.000000 0.000000 3.742100 
# 
# 
# High freq. dielectric constant tensor:
#      x y z
#    x 1.834630 0.000000 0.000000 
#    y 0.000000 1.824280 0.000000 
#    z 0.000000 0.000000 1.818640 
# 
# From -- ./inp_files/3701.got.cif
#   From: 2010.03.12/outbox.cif.g09.slc.cpg/sg56_2_cif.got.tgz:3701.got - 2010.04.16 15:33:40.
