data_PCOD8228295
_publ_section_title
;
Structure prediction by ZEFSAII (Michael W. Deem and Ramdas Pophale) SiO2 
 PCOD8228295
Probable space group: P C C N
;
_chemical_formula_sum "Si O2"
_cell_formula_units_Z 44
_cell_length_a 20.806445
_cell_length_b 10.978525
_cell_length_c 9.259897
_cell_angle_alpha 90.000000
_cell_angle_beta 90.000000
_cell_angle_gamma 90.000000
_cell_volume 2115.183422
_symmetry_space_group_name_H-M "P C C N"
_symmetry_group_IT_number 56
_symmetry_cell_setting 'orthorhombic'
loop_
_space_group_symop_operation_xyz
x,y,z
1/2-x,1/2-y,z
1/2+x,-y,1/2-z
-x,1/2+y,1/2-z
-x,-y,-z
1/2+x,1/2+y,-z
1/2-x,y,1/2+z
x,1/2-y,1/2+z
loop_
_atom_site_type_symbol
_atom_site_label
_atom_site_fract_x
_atom_site_fract_y
_atom_site_fract_z
Si Si1 0.079187 0.271539 0.106307
Si Si2 0.599738 0.590376 0.663898
Si Si3 0.331680 0.844215 0.907027
Si Si4 0.016542 0.462397 0.278638
Si Si5 0.947681 0.167117 0.020178
Si Si6 0.750000 0.250000 0.851760
O O1 0.115777 0.157724 0.183059
O O2 0.075473 0.393415 0.202352
O O3 0.004507 0.244353 0.087069
O O4 0.111070 0.303146 0.953826
O O5 0.645060 0.480095 0.622325
O O6 0.525175 0.545662 0.668390
O O7 0.383891 0.747397 0.965458
O O8 0.304535 0.804691 0.751640
O O9 0.279558 0.850851 0.037247
O O10 0.964838 0.370138 0.354743
O O11 0.057208 0.540361 0.393534
#
# Coordination Sequence:
#
# PCOD8228295 Si02
#       6
#     8   8   8   8   8   4
#     4  11  21  36  54  98 130 161 197 227 289 415
#     4  11  23  36  61  85 133 165 199 236 310 359
#     4  11  23  43  65  90 113 166 200 273 307 342
#     4  10  20  34  53  94 133 166 190 231 283 409
#     4  10  21  34  59  91 133 158 194 239 309 361
#     4  10  26  44  64  92 114 140 238 268 300 350
#
# _framework density 20.801978999999999
#
# number of rings (size 3 to 8) (size 9 to 14) (size 15 to 20)
#    0.000    1.455    3.636    1.636    2.545    0.000 
#    0.000    0.000    0.000    3.273    0.000    0.000 
#    0.000    0.000    0.000    0.000    0.000    0.000 
#
# Total GULP energy -545204.117487 kJ/mol
# GULP energy per Si atom -12391.002670 kJ/mol
# Density = 2.075463 g / cm^3
# Si number density = 20.801979 Si / 1000 Ang^3
#
#
#
# Elastic Constant Matrix: (Units=GPa)
#
#
# Indices 1 2 3 4 5 6 
#
# 1 49.1748 24.1303 29.1377 0.0000 0.0000 0.0000
# 2 24.1303 91.5506 44.2228 0.0000 0.0000 0.0000
# 3 29.1377 44.2228 123.9799 0.0000 0.0000 0.0000
# 4 0.0000 0.0000 0.0000 38.8254 0.0000 0.0000
# 5 0.0000 0.0000 0.0000 0.0000 22.1607 0.0000
# 6 0.0000 0.0000 0.0000 0.0000 0.0000 16.4300
#
#
#
# Elastic Compliance Matrix: (Units=1/GPa)
#
#
# Indices 1 2 3 4 5 6 
#
# 1 0.025103 -0.004551 -0.004276 0.000000 0.000000 0.000000
# 2 -0.004551 0.014022 -0.003932 0.000000 0.000000 0.000000
# 3 -0.004276 -0.003932 0.010473 0.000000 0.000000 0.000000
# 4 0.000000 0.000000 0.000000 0.025756 0.000000 0.000000
# 5 0.000000 0.000000 0.000000 0.000000 0.045125 0.000000
# 6 0.000000 0.000000 0.000000 0.000000 0.000000 0.060864
#
#
# Mechanical properties :
#
#
# Convention : Reuss Voigt Hill
#
# Bulk Modulus (GPa) = 41.52900 51.07632 46.30266
# Shear Modulus (GPa) = 23.26798 26.63085 24.94942
#
# Velocity S-wave (km/s) = 3.34810 3.58188 3.46696
# Velocity P-wave (km/s) = 5.91216 6.45859 6.19141
#
# Compressibility (1/GPa) = 0.02407956
#
# Stress axis : x y z
#
# Youngs Moduli (GPa) = 39.83655 71.31830 95.48039
#
# Poissons Ratio (x) = 0.32455 0.40831
# Poissons Ratio (y) = 0.18128 0.37542
# Poissons Ratio (z) = 0.17036 0.28042
#
# Static dielectric constant tensor:
#      x y z
#    x 3.312370 0.000000 0.000000 
#    y 0.000000 3.920610 0.000000 
#    z 0.000000 0.000000 4.100710 
# 
# 
# High freq. dielectric constant tensor:
#      x y z
#    x 1.751250 0.000000 0.000000 
#    y 0.000000 1.821370 0.000000 
#    z 0.000000 0.000000 1.839190 
# 
# From -- ./inp_files/4724.got.cif
#   From: 2010.03.12/outbox.cif.g09.slc.cpg/sg56_3_cif.got.tgz:4724.got - 2010.04.16 15:33:40.
