data_PCOD8228155
_publ_section_title
;
Structure prediction by ZEFSAII (Michael W. Deem and Ramdas Pophale) SiO2 
 PCOD8228155
Probable space group: P C C N
;
_chemical_formula_sum "Si O2"
_cell_formula_units_Z 40
_cell_length_a 5.198648
_cell_length_b 15.953501
_cell_length_c 23.745918
_cell_angle_alpha 90.000000
_cell_angle_beta 90.000000
_cell_angle_gamma 90.000000
_cell_volume 1969.406559
_symmetry_space_group_name_H-M "P C C N"
_symmetry_group_IT_number 56
_symmetry_cell_setting 'orthorhombic'
loop_
_space_group_symop_operation_xyz
x,y,z
1/2-x,1/2-y,z
1/2+x,-y,1/2-z
-x,1/2+y,1/2-z
-x,-y,-z
1/2+x,1/2+y,-z
1/2-x,y,1/2+z
x,1/2-y,1/2+z
loop_
_atom_site_type_symbol
_atom_site_label
_atom_site_fract_x
_atom_site_fract_y
_atom_site_fract_z
Si Si1 0.149809 0.103590 0.543487
Si Si2 0.003857 0.196082 0.206018
Si Si3 0.148021 0.598693 0.398166
Si Si4 0.072395 0.060005 0.423560
Si Si5 0.006216 0.195831 0.332992
O O1 0.423328 0.138110 0.563320
O O2 0.134078 0.120615 0.476551
O O3 0.912176 0.143871 0.579736
O O4 0.153581 0.002774 0.555584
O O5 0.250000 0.250000 0.185035
O O6 0.750000 0.250000 0.205551
O O7 0.938558 0.117716 0.165740
O O8 0.054960 0.163308 0.269307
O O9 0.183639 0.497839 0.404463
O O10 0.975529 0.114462 0.371516
O O11 0.750000 0.250000 0.338199
O O12 0.250000 0.250000 0.353437
#
# Coordination Sequence:
#
# PCOD8228155 Si02
#       5
#     8   8   8   8   8
#     4   9  20  34  61  81 114 140 181 234 289 316
#     4  10  21  40  56  78 117 151 184 234 286 334
#     4  10  19  36  58  84 106 150 184 229 281 331
#     4   9  21  37  60  81 116 144 190 230 279 341
#     4  10  23  39  57  80 114 155 185 231 286 332
#
# _framework density 20.310686
#
# number of rings (size 3 to 8) (size 9 to 14) (size 15 to 20)
#    1.200    1.200    0.000    1.800    2.800    0.000 
#    3.600    6.000    0.000    0.000    0.000    0.000 
#    0.000    0.000    0.000    0.000    0.000    0.000 
#
# Total GULP energy -495544.915798 kJ/mol
# GULP energy per Si atom -12388.622895 kJ/mol
# Density = 2.026446 g / cm^3
# Si number density = 20.310686 Si / 1000 Ang^3
#
#
#
# Elastic Constant Matrix: (Units=GPa)
#
#
# Indices 1 2 3 4 5 6 
#
# 1 134.3529 21.9305 33.0359 0.0000 0.0000 0.0000
# 2 21.9305 28.2023 43.2223 0.0000 0.0000 0.0000
# 3 33.0359 43.2223 136.6365 0.0000 0.0000 0.0000
# 4 0.0000 0.0000 0.0000 24.0343 0.0000 0.0000
# 5 0.0000 0.0000 0.0000 0.0000 21.7985 0.0000
# 6 0.0000 0.0000 0.0000 0.0000 0.0000 21.7476
#
#
#
# Elastic Compliance Matrix: (Units=1/GPa)
#
#
# Indices 1 2 3 4 5 6 
#
# 1 0.008526 -0.006736 0.000070 0.000000 0.000000 0.000000
# 2 -0.006736 0.074146 -0.021826 0.000000 0.000000 0.000000
# 3 0.000070 -0.021826 0.014206 0.000000 0.000000 0.000000
# 4 0.000000 0.000000 0.000000 0.041607 0.000000 0.000000
# 5 0.000000 0.000000 0.000000 0.000000 0.045875 0.000000
# 6 0.000000 0.000000 0.000000 0.000000 0.000000 0.045982
#
#
# Mechanical properties :
#
#
# Convention : Reuss Voigt Hill
#
# Bulk Modulus (GPa) = 25.06731 55.06324 40.06527
# Shear Modulus (GPa) = 16.63204 26.91629 21.77416
#
# Velocity S-wave (km/s) = 2.86471 3.64432 3.27778
# Velocity P-wave (km/s) = 4.82813 6.69906 5.83902
#
# Compressibility (1/GPa) = 0.03989260
#
# Stress axis : x y z
#
# Youngs Moduli (GPa) = 117.29485 13.48687 70.39229
#
# Poissons Ratio (x) = 0.09085 -0.00490
# Poissons Ratio (y) = 0.79011 1.53638
# Poissons Ratio (z) = -0.00816 0.29436
#
# Static dielectric constant tensor:
#      x y z
#    x 3.705200 0.000000 0.000000 
#    y 0.000000 3.163530 0.000000 
#    z 0.000000 0.000000 3.914650 
# 
# 
# High freq. dielectric constant tensor:
#      x y z
#    x 1.803410 0.000000 0.000000 
#    y 0.000000 1.743520 0.000000 
#    z 0.000000 0.000000 1.802080 
# 
# From -- ./inp_files/17446.got.cif
#   From: 2010.03.12/outbox.cif.g09.slc.cpg/sg56_9_cif.got.tgz:17446.got - 2010.04.16 15:33:40.
