data_PCOD8228361
_publ_section_title
;
Structure prediction by ZEFSAII (Michael W. Deem and Ramdas Pophale) SiO2 
 PCOD8228361
Probable space group: P C C N
;
_chemical_formula_sum "Si O2"
_cell_formula_units_Z 56
_cell_length_a 8.955931
_cell_length_b 21.052831
_cell_length_c 15.127079
_cell_angle_alpha 90.000000
_cell_angle_beta 90.000000
_cell_angle_gamma 90.000000
_cell_volume 2852.175980
_symmetry_space_group_name_H-M "P C C N"
_symmetry_group_IT_number 56
_symmetry_cell_setting 'orthorhombic'
loop_
_space_group_symop_operation_xyz
x,y,z
1/2-x,1/2-y,z
1/2+x,-y,1/2-z
-x,1/2+y,1/2-z
-x,-y,-z
1/2+x,1/2+y,-z
1/2-x,y,1/2+z
x,1/2-y,1/2+z
loop_
_atom_site_type_symbol
_atom_site_label
_atom_site_fract_x
_atom_site_fract_y
_atom_site_fract_z
Si Si1 0.534581 0.139716 0.214755
Si Si2 0.350764 0.438992 0.841980
Si Si3 0.763802 0.680821 0.878706
Si Si4 0.923985 0.262153 0.370173
Si Si5 0.972361 0.867984 0.000666
Si Si6 0.652429 0.087355 0.661383
Si Si7 0.413809 0.354130 0.289240
O O1 0.450163 0.079539 0.257284
O O2 0.436632 0.161544 0.130579
O O3 0.550393 0.197689 0.282086
O O4 0.694828 0.122525 0.179613
O O5 0.317797 0.512884 0.839030
O O6 0.193929 0.400996 0.844483
O O7 0.450433 0.422855 0.927376
O O8 0.750000 0.750000 0.921018
O O9 0.680930 0.633742 0.945323
O O10 0.686065 0.682685 0.782265
O O11 0.750000 0.250000 0.386491
O O12 0.988957 0.300362 0.454187
O O13 0.011440 0.195507 0.357664
O O14 0.103506 0.888547 0.934868
O O15 0.538421 0.104451 0.739425
#
# Coordination Sequence:
#
# PCOD8228361 Si02
#       7
#     8   8   8   8   8   8   8
#     4  10  21  37  66  90 116 161 203 257 296 358
#     4  10  22  40  62  89 123 163 209 248 296 366
#     4  10  20  36  57  89 119 153 194 246 305 367
#     4  11  21  40  61  93 123 150 204 257 313 356
#     4  10  25  37  59  88 125 168 189 256 313 361
#     4  11  21  42  61  90 122 164 206 248 305 360
#     4  10  21  37  65  88 116 159 205 254 297 358
#
# _framework density 19.634132000000001
#
# number of rings (size 3 to 8) (size 9 to 14) (size 15 to 20)
#    0.000    1.714    2.857    1.286    2.000    1.143 
#    0.000    0.714    0.000    0.000    0.000    0.000 
#    0.000    0.000    0.000    0.000    0.000    0.000 
#
# Total GULP energy -694489.787501 kJ/mol
# GULP energy per Si atom -12401.603348 kJ/mol
# Density = 1.958944 g / cm^3
# Si number density = 19.634132 Si / 1000 Ang^3
#
#
#
# Elastic Constant Matrix: (Units=GPa)
#
#
# Indices 1 2 3 4 5 6 
#
# 1 135.6995 37.0082 42.6461 0.0000 0.0000 0.0000
# 2 37.0082 109.2078 35.4590 0.0000 0.0000 0.0000
# 3 42.6461 35.4590 71.3263 0.0000 0.0000 0.0000
# 4 0.0000 0.0000 0.0000 7.3193 0.0000 0.0000
# 5 0.0000 0.0000 0.0000 0.0000 25.0155 0.0000
# 6 0.0000 0.0000 0.0000 0.0000 0.0000 0.1654
#
#
#
# Elastic Compliance Matrix: (Units=1/GPa)
#
#
# Indices 1 2 3 4 5 6 
#
# 1 0.009305 -0.001606 -0.004765 0.000000 0.000000 0.000000
# 2 -0.001606 0.011197 -0.004606 0.000000 0.000000 0.000000
# 3 -0.004765 -0.004606 0.019159 0.000000 0.000000 0.000000
# 4 0.000000 0.000000 0.000000 0.136625 0.000000 0.000000
# 5 0.000000 0.000000 0.000000 0.000000 0.039975 0.000000
# 6 0.000000 0.000000 0.000000 0.000000 0.000000 6.044580
#
#
# Mechanical properties :
#
#
# Convention : Reuss Voigt Hill
#
# Bulk Modulus (GPa) = 56.47704 60.71778 58.59741
# Shear Modulus (GPa) = 0.79508 19.90807 10.35157
#
# Velocity S-wave (km/s) = 0.63704 3.18772 2.29863
# Velocity P-wave (km/s) = 5.41925 6.67386 6.07901
#
# Compressibility (1/GPa) = 0.01770631
#
# Stress axis : x y z
#
# Youngs Moduli (GPa) = 107.47294 89.31245 52.19529
#
# Poissons Ratio (x) = 0.14344 0.24870
# Poissons Ratio (y) = 0.17261 0.24041
# Poissons Ratio (z) = 0.51209 0.41137
#
# Static dielectric constant tensor:
#      x y z
#    x 3.716960 0.000000 0.000000 
#    y 0.000000 3.548160 0.000000 
#    z 0.000000 0.000000 3.497220 
# 
# 
# High freq. dielectric constant tensor:
#      x y z
#    x 1.776290 0.000000 0.000000 
#    y 0.000000 1.761970 0.000000 
#    z 0.000000 0.000000 1.756120 
# 
# From -- ./inp_files/10859.got.cif
#   From: 2010.03.12/outbox.cif.g09.slc.cpg/sg56_6_cif.got.tgz:10859.got - 2010.04.16 15:33:40.
