data_PCOD8228064
_publ_section_title
;
Structure prediction by ZEFSAII (Michael W. Deem and Ramdas Pophale) SiO2 
 PCOD8228064
Probable space group: P C C N
;
_chemical_formula_sum "Si O2"
_cell_formula_units_Z 52
_cell_length_a 14.943685
_cell_length_b 7.756642
_cell_length_c 22.490276
_cell_angle_alpha 90.000000
_cell_angle_beta 90.000000
_cell_angle_gamma 90.000000
_cell_volume 2606.911195
_symmetry_space_group_name_H-M "P C C N"
_symmetry_group_IT_number 56
_symmetry_cell_setting 'orthorhombic'
loop_
_space_group_symop_operation_xyz
x,y,z
1/2-x,1/2-y,z
1/2+x,-y,1/2-z
-x,1/2+y,1/2-z
-x,-y,-z
1/2+x,1/2+y,-z
1/2-x,y,1/2+z
x,1/2-y,1/2+z
loop_
_atom_site_type_symbol
_atom_site_label
_atom_site_fract_x
_atom_site_fract_y
_atom_site_fract_z
Si Si1 0.011013 0.790519 0.352837
Si Si2 0.250000 0.250000 0.806449
Si Si3 0.164040 0.402628 0.195445
Si Si4 0.688089 0.416448 0.863940
Si Si5 0.928466 0.248131 0.274691
Si Si6 0.428197 0.168035 0.861080
Si Si7 0.012420 0.529602 0.568878
O O1 0.074755 0.763759 0.295768
O O2 0.907200 0.768574 0.332154
O O3 0.029688 0.638700 0.399184
O O4 0.035500 0.978168 0.379723
O O5 0.302270 0.377883 0.762564
O O6 0.321492 0.158373 0.850372
O O7 0.248755 0.418306 0.150252
O O8 0.112163 0.579060 0.197476
O O9 0.750000 0.250000 0.878235
O O10 0.629196 0.401356 0.803357
O O11 0.618701 0.447329 0.917832
O O12 0.029948 0.245004 0.299594
O O13 0.456296 0.300185 0.913212
O O14 0.000000 0.500000 0.500000
#
# Coordination Sequence:
#
# PCOD8228064 Si02
#       7
#     8   4   8   8   8   8   8
#     4  11  21  37  62  92 124 163 197 245 313 373
#     4  12  18  32  54  90 132 150 190 250 316 374
#     4  10  19  29  57  93 122 158 188 246 308 368
#     4   9  19  37  61  92 122 155 208 260 305 362
#     4   9  18  34  56  89 127 155 186 239 314 378
#     4  10  23  37  58  89 122 158 198 250 303 374
#     4  11  25  45  63  81 119 171 217 252 304 362
#
# _framework density 19.946978999999999
#
# number of rings (size 3 to 8) (size 9 to 14) (size 15 to 20)
#    0.000    1.846    1.538    3.692    6.462    0.615 
#    0.000    5.385    0.000    0.000    0.000    0.000 
#    0.000    0.000    0.000    0.000    0.000    0.000 
#
# Total GULP energy -644417.845044 kJ/mol
# GULP energy per Si atom -12392.650866 kJ/mol
# Density = 1.990158 g / cm^3
# Si number density = 19.946979 Si / 1000 Ang^3
#
#
#
# Elastic Constant Matrix: (Units=GPa)
#
#
# Indices 1 2 3 4 5 6 
#
# 1 114.6925 21.1953 37.7036 0.0000 0.0000 0.0000
# 2 21.1953 86.0030 46.0857 0.0000 0.0000 0.0000
# 3 37.7036 46.0857 129.6439 0.0000 0.0000 0.0000
# 4 0.0000 0.0000 0.0000 24.4617 0.0000 0.0000
# 5 0.0000 0.0000 0.0000 0.0000 15.0151 0.0000
# 6 0.0000 0.0000 0.0000 0.0000 0.0000 19.8493
#
#
#
# Elastic Compliance Matrix: (Units=1/GPa)
#
#
# Indices 1 2 3 4 5 6 
#
# 1 0.009722 -0.001088 -0.002441 0.000000 0.000000 0.000000
# 2 -0.001088 0.014485 -0.004833 0.000000 0.000000 0.000000
# 3 -0.002441 -0.004833 0.010141 0.000000 0.000000 0.000000
# 4 0.000000 0.000000 0.000000 0.040880 0.000000 0.000000
# 5 0.000000 0.000000 0.000000 0.000000 0.066600 0.000000
# 6 0.000000 0.000000 0.000000 0.000000 0.000000 0.050380
#
#
# Mechanical properties :
#
#
# Convention : Reuss Voigt Hill
#
# Bulk Modulus (GPa) = 56.73542 60.03428 58.38485
# Shear Modulus (GPa) = 23.27670 26.88887 25.08279
#
# Velocity S-wave (km/s) = 3.41974 3.67552 3.54993
# Velocity P-wave (km/s) = 6.64061 6.94081 6.79237
#
# Compressibility (1/GPa) = 0.01762568
#
# Stress axis : x y z
#
# Youngs Moduli (GPa) = 102.85519 69.03507 98.60778
#
# Poissons Ratio (x) = 0.07512 0.24067
# Poissons Ratio (y) = 0.11193 0.47655
# Poissons Ratio (z) = 0.25104 0.33363
#
# Static dielectric constant tensor:
#      x y z
#    x 4.136770 0.000000 0.000000 
#    y 0.000000 3.310190 0.000000 
#    z 0.000000 0.000000 3.075450 
# 
# 
# High freq. dielectric constant tensor:
#      x y z
#    x 1.792340 0.000000 0.000000 
#    y 0.000000 1.791690 0.000000 
#    z 0.000000 0.000000 1.722550 
# 
# From -- ./inp_files/19062.got.cif
#   From: 2010.03.12/outbox.cif.g09.slc.cpg/sg56_10_cif.got.tgz:19062.got - 2010.04.16 15:33:40.
