data_PCOD8228607
_publ_section_title
;
Structure prediction by ZEFSAII (Michael W. Deem and Ramdas Pophale) SiO2 
 PCOD8228607
Probable space group: P C C N
;
_chemical_formula_sum "Si O2"
_cell_formula_units_Z 56
_cell_length_a 11.089636
_cell_length_b 13.795669
_cell_length_c 14.432365
_cell_angle_alpha 90.000000
_cell_angle_beta 90.000000
_cell_angle_gamma 90.000000
_cell_volume 2207.992333
_symmetry_space_group_name_H-M "P C C N"
_symmetry_group_IT_number 56
_symmetry_cell_setting 'orthorhombic'
loop_
_space_group_symop_operation_xyz
x,y,z
1/2-x,1/2-y,z
1/2+x,-y,1/2-z
-x,1/2+y,1/2-z
-x,-y,-z
1/2+x,1/2+y,-z
1/2-x,y,1/2+z
x,1/2-y,1/2+z
loop_
_atom_site_type_symbol
_atom_site_label
_atom_site_fract_x
_atom_site_fract_y
_atom_site_fract_z
Si Si1 0.622037 0.294804 0.641320
Si Si2 0.116008 0.001924 0.699917
Si Si3 0.259872 0.529531 0.873599
Si Si4 0.529393 0.367866 0.023834
Si Si5 0.793711 0.860129 0.882875
Si Si6 0.504889 0.670409 0.177543
Si Si7 0.393497 0.132058 0.822133
O O1 0.750000 0.250000 0.624728
O O2 0.638655 0.406100 0.607729
O O3 0.532956 0.237598 0.573116
O O4 0.584213 0.281584 0.747833
O O5 0.180876 0.063492 0.617421
O O6 0.067193 0.079828 0.774643
O O7 0.210015 0.943504 0.765154
O O8 0.016558 0.929034 0.660097
O O9 0.376596 0.553587 0.935577
O O10 0.215155 0.417673 0.881930
O O11 0.389499 0.398335 0.039951
O O12 0.562374 0.363495 0.915434
O O13 0.750000 0.750000 0.900022
O O14 0.862478 0.869243 0.785753
O O15 0.596399 0.756451 0.146066
#
# Coordination Sequence:
#
# PCOD8228607 Si02
#       7
#     8   8   8   8   8   8   8
#     4  10  20  42  70  94 140 191 233 294 357 430
#     4  11  22  42  75 103 136 190 242 291 355 444
#     4  10  22  40  68  99 144 177 235 301 356 420
#     4  11  24  44  68 110 143 186 240 306 358 430
#     4  11  21  43  70  97 146 185 233 294 352 421
#     4  12  24  44  74 103 143 190 245 295 370 423
#     4  11  21  43  73 104 135 197 243 288 359 440
#
# _framework density 25.362407000000001
#
# number of rings (size 3 to 8) (size 9 to 14) (size 15 to 20)
#    0.000    1.143    5.714    0.857    0.000    2.286 
#    5.143    2.143    3.143    0.000    0.000    0.000 
#    0.000    0.000    0.000    0.000    0.000    0.000 
#
# Total GULP energy -693975.475287 kJ/mol
# GULP energy per Si atom -12392.419202 kJ/mol
# Density = 2.530468 g / cm^3
# Si number density = 25.362407 Si / 1000 Ang^3
#
#
#
# Elastic Constant Matrix: (Units=GPa)
#
#
# Indices 1 2 3 4 5 6 
#
# 1 67.6701 16.0007 21.6696 0.0000 0.0000 0.0000
# 2 16.0007 104.0904 16.5991 0.0000 0.0000 0.0000
# 3 21.6696 16.5991 86.3293 0.0000 0.0000 0.0000
# 4 0.0000 0.0000 0.0000 23.2237 0.0000 0.0000
# 5 0.0000 0.0000 0.0000 0.0000 -6.1610 0.0000
# 6 0.0000 0.0000 0.0000 0.0000 0.0000 31.4682
#
#
#
# Elastic Compliance Matrix: (Units=1/GPa)
#
#
# Indices 1 2 3 4 5 6 
#
# 1 0.016436 -0.001928 -0.003755 0.000000 0.000000 0.000000
# 2 -0.001928 0.010137 -0.001465 0.000000 0.000000 0.000000
# 3 -0.003755 -0.001465 0.012808 0.000000 0.000000 0.000000
# 4 0.000000 0.000000 0.000000 0.043059 0.000000 0.000000
# 5 0.000000 0.000000 0.000000 0.000000 -0.162312 0.000000
# 6 0.000000 0.000000 0.000000 0.000000 0.000000 0.031778
#
#
# Mechanical properties :
#
#
# Convention : Reuss Voigt Hill
#
# Bulk Modulus (GPa) = 39.86459 40.73650 40.30054
# Shear Modulus (GPa) = -196.56784 23.29422 -86.63681
#
# Velocity S-wave (km/s) = -8.81316 3.03389 -5.85096
# Velocity P-wave (km/s) = 9.37072 5.32628 5.45166
#
# Compressibility (1/GPa) = 0.02508492
#
# Stress axis : x y z
#
# Youngs Moduli (GPa) = 60.84281 98.64835 78.07740
#
# Poissons Ratio (x) = 0.19017 0.29317
# Poissons Ratio (y) = 0.11729 0.11440
# Poissons Ratio (z) = 0.22846 0.14454
#
# Static dielectric constant tensor:
#      x y z
#    x 5.043700 0.000000 0.000000 
#    y 0.000000 6.923700 0.000000 
#    z 0.000000 0.000000 4.188100 
# 
# 
# High freq. dielectric constant tensor:
#      x y z
#    x 2.015530 0.000000 0.000000 
#    y 0.000000 2.031970 0.000000 
#    z 0.000000 0.000000 1.975230 
# 
# From -- ./inp_files/11692.got.cif
#   From: 2010.03.12/outbox.cif.g09.slc.cpg/sg56_6_cif.got.tgz:11692.got - 2010.04.16 15:33:40.
