data_PCOD8228532
_publ_section_title
;
Structure prediction by ZEFSAII (Michael W. Deem and Ramdas Pophale) SiO2 
 PCOD8228532
Probable space group: P C C N
;
_chemical_formula_sum "Si O2"
_cell_formula_units_Z 48
_cell_length_a 9.354666
_cell_length_b 16.970390
_cell_length_c 13.668188
_cell_angle_alpha 90.000000
_cell_angle_beta 90.000000
_cell_angle_gamma 90.000000
_cell_volume 2169.856697
_symmetry_space_group_name_H-M "P C C N"
_symmetry_group_IT_number 56
_symmetry_cell_setting 'orthorhombic'
loop_
_space_group_symop_operation_xyz
x,y,z
1/2-x,1/2-y,z
1/2+x,-y,1/2-z
-x,1/2+y,1/2-z
-x,-y,-z
1/2+x,1/2+y,-z
1/2-x,y,1/2+z
x,1/2-y,1/2+z
loop_
_atom_site_type_symbol
_atom_site_label
_atom_site_fract_x
_atom_site_fract_y
_atom_site_fract_z
Si Si1 0.645437 0.081943 0.072537
Si Si2 0.496799 0.667831 0.598827
Si Si3 0.738829 0.919105 0.518672
Si Si4 0.511675 0.650994 0.143620
Si Si5 0.359054 0.073418 0.177287
Si Si6 0.224374 0.595535 0.230800
O O1 0.502345 0.044686 0.120717
O O2 0.741553 0.121469 0.157841
O O3 0.730001 0.012369 0.018552
O O4 0.604170 0.148682 0.994204
O O5 0.651207 0.627998 0.588194
O O6 0.517871 0.760229 0.607754
O O7 0.422224 0.636575 0.697875
O O8 0.580055 0.902214 0.557550
O O9 0.752138 0.891216 0.405176
O O10 0.602612 0.640329 0.243746
O O11 0.349970 0.622523 0.157675
O O12 0.288898 0.999079 0.231622
#
# Coordination Sequence:
#
# PCOD8228532 Si02
#       6
#     8   8   8   8   8   8
#     4  10  20  39  72  93 124 183 232 267 339 405
#     4  11  22  44  64  94 139 179 214 287 346 394
#     4  11  20  41  70  94 127 180 232 272 332 406
#     4  11  25  39  63 103 137 168 227 284 337 396
#     4  10  20  40  67  96 125 176 226 270 327 409
#     4  11  21  40  70  96 133 173 227 276 335 406
#
# _framework density 22.121275000000001
#
# number of rings (size 3 to 8) (size 9 to 14) (size 15 to 20)
#    0.000    1.333    5.000    2.000    0.000    0.667 
#    0.000   20.000    0.000    0.000    0.000    0.000 
#    0.000    0.000    0.000    0.000    0.000    0.000 
#
# Total GULP energy -595328.160078 kJ/mol
# GULP energy per Si atom -12402.670002 kJ/mol
# Density = 2.207093 g / cm^3
# Si number density = 22.121275 Si / 1000 Ang^3
#
#
#
# Elastic Constant Matrix: (Units=GPa)
#
#
# Indices 1 2 3 4 5 6 
#
# 1 28.7843 15.5552 11.3115 0.0000 0.0000 0.0000
# 2 15.5552 102.0185 28.0297 0.0000 0.0000 0.0000
# 3 11.3115 28.0297 87.8331 0.0000 0.0000 0.0000
# 4 0.0000 0.0000 0.0000 33.5488 0.0000 0.0000
# 5 0.0000 0.0000 0.0000 0.0000 39.6239 0.0000
# 6 0.0000 0.0000 0.0000 0.0000 0.0000 25.0508
#
#
#
# Elastic Compliance Matrix: (Units=1/GPa)
#
#
# Indices 1 2 3 4 5 6 
#
# 1 0.038768 -0.004976 -0.003405 0.000000 0.000000 0.000000
# 2 -0.004976 0.011383 -0.002992 0.000000 0.000000 0.000000
# 3 -0.003405 -0.002992 0.012778 0.000000 0.000000 0.000000
# 4 0.000000 0.000000 0.000000 0.029807 0.000000 0.000000
# 5 0.000000 0.000000 0.000000 0.000000 0.025237 0.000000
# 6 0.000000 0.000000 0.000000 0.000000 0.000000 0.039919
#
#
# Mechanical properties :
#
#
# Convention : Reuss Voigt Hill
#
# Bulk Modulus (GPa) = 24.88500 36.49208 30.68854
# Shear Modulus (GPa) = 25.76890 30.56066 28.16478
#
# Velocity S-wave (km/s) = 3.41675 3.72089 3.57206
# Velocity P-wave (km/s) = 5.18067 5.91542 5.56020
#
# Compressibility (1/GPa) = 0.04018485
#
# Stress axis : x y z
#
# Youngs Moduli (GPa) = 25.79440 87.85195 78.25675
#
# Poissons Ratio (x) = 0.43712 0.26645
# Poissons Ratio (y) = 0.12834 0.23412
# Poissons Ratio (z) = 0.08783 0.26283
#
# Static dielectric constant tensor:
#      x y z
#    x 4.032020 0.000000 0.000000 
#    y 0.000000 3.571210 0.000000 
#    z 0.000000 0.000000 4.185160 
# 
# 
# High freq. dielectric constant tensor:
#      x y z
#    x 1.867220 0.000000 0.000000 
#    y 0.000000 1.843380 0.000000 
#    z 0.000000 0.000000 1.881640 
# 
# From -- ./inp_files/10644.got.cif
#   From: 2010.03.12/outbox.cif.g09.slc.cpg/sg56_6_cif.got.tgz:10644.got - 2010.04.16 15:33:40.
