data_PCOD8228694
_publ_section_title
;
Structure prediction by ZEFSAII (Michael W. Deem and Ramdas Pophale) SiO2 
 PCOD8228694
Probable space group: P C C N
;
_chemical_formula_sum "Si O2"
_cell_formula_units_Z 48
_cell_length_a 6.979980
_cell_length_b 16.545140
_cell_length_c 20.314353
_cell_angle_alpha 90.000000
_cell_angle_beta 90.000000
_cell_angle_gamma 90.000000
_cell_volume 2345.997902
_symmetry_space_group_name_H-M "P C C N"
_symmetry_group_IT_number 56
_symmetry_cell_setting 'orthorhombic'
loop_
_space_group_symop_operation_xyz
x,y,z
1/2-x,1/2-y,z
1/2+x,-y,1/2-z
-x,1/2+y,1/2-z
-x,-y,-z
1/2+x,1/2+y,-z
1/2-x,y,1/2+z
x,1/2-y,1/2+z
loop_
_atom_site_type_symbol
_atom_site_label
_atom_site_fract_x
_atom_site_fract_y
_atom_site_fract_z
Si Si1 0.695330 0.495338 0.663495
Si Si2 0.750000 0.750000 0.729785
Si Si3 0.553289 0.627602 0.029256
Si Si4 0.250000 0.750000 0.044461
Si Si5 0.934705 0.971644 0.903391
Si Si6 0.918883 0.840919 0.613812
Si Si7 0.841921 0.914103 0.288629
O O1 0.567235 0.562879 0.626328
O O2 0.559390 0.425517 0.689298
O O3 0.814474 0.538363 0.720993
O O4 0.845025 0.451254 0.615107
O O5 0.905573 0.791973 0.682387
O O6 0.669843 0.818233 0.778531
O O7 0.401579 0.695435 0.004058
O O8 0.437909 0.566942 0.078114
O O9 0.728043 0.671644 0.067954
O O10 0.633859 0.580838 0.965850
O O11 0.380065 0.812367 0.085292
O O12 0.800764 0.949971 0.842701
#
# Coordination Sequence:
#
# PCOD8228694 Si02
#       7
#     8   4   8   4   8   8   8
#     4  10  21  37  64  88 118 160 210 242 303 369
#     4  10  22  40  54  88 130 154 196 260 318 352
#     4  10  22  40  63  87 124 157 206 259 305 363
#     4  12  20  36  64  92 112 160 200 252 310 364
#     4  10  22  42  61  89 121 163 205 252 305 370
#     4  10  21  39  60  90 118 155 204 257 303 366
#     4  11  21  39  60  89 122 163 198 253 305 367
#
# _framework density 20.460377000000001
#
# number of rings (size 3 to 8) (size 9 to 14) (size 15 to 20)
#    0.000    1.667    3.333    1.000    0.000    2.667 
#    6.000    5.000    0.000    0.000    0.000    0.000 
#    0.000    0.000    0.000    0.000    0.000    0.000 
#
# Total GULP energy -594886.138435 kJ/mol
# GULP energy per Si atom -12393.461217 kJ/mol
# Density = 2.041381 g / cm^3
# Si number density = 20.460377 Si / 1000 Ang^3
#
#
#
# Elastic Constant Matrix: (Units=GPa)
#
#
# Indices 1 2 3 4 5 6 
#
# 1 81.9604 37.4930 16.2377 0.0000 0.0000 0.0000
# 2 37.4930 85.6659 28.6837 0.0000 0.0000 0.0000
# 3 16.2377 28.6837 63.9901 0.0000 0.0000 0.0000
# 4 0.0000 0.0000 0.0000 27.8869 0.0000 0.0000
# 5 0.0000 0.0000 0.0000 0.0000 18.9630 0.0000
# 6 0.0000 0.0000 0.0000 0.0000 0.0000 35.5169
#
#
#
# Elastic Compliance Matrix: (Units=1/GPa)
#
#
# Indices 1 2 3 4 5 6 
#
# 1 0.015314 -0.006355 -0.001037 0.000000 0.000000 0.000000
# 2 -0.006355 0.016372 -0.005726 0.000000 0.000000 0.000000
# 3 -0.001037 -0.005726 0.018457 0.000000 0.000000 0.000000
# 4 0.000000 0.000000 0.000000 0.035859 0.000000 0.000000
# 5 0.000000 0.000000 0.000000 0.000000 0.052734 0.000000
# 6 0.000000 0.000000 0.000000 0.000000 0.000000 0.028156
#
#
# Mechanical properties :
#
#
# Convention : Reuss Voigt Hill
#
# Bulk Modulus (GPa) = 41.83015 44.04945 42.93980
# Shear Modulus (GPa) = 24.86358 26.42016 25.64187
#
# Velocity S-wave (km/s) = 3.48976 3.59734 3.54396
# Velocity P-wave (km/s) = 6.06026 6.23140 6.14643
#
# Compressibility (1/GPa) = 0.02390620
#
# Stress axis : x y z
#
# Youngs Moduli (GPa) = 65.30142 61.08033 54.17884
#
# Poissons Ratio (x) = 0.38816 0.05620
# Poissons Ratio (y) = 0.41499 0.31024
# Poissons Ratio (z) = 0.06773 0.34975
#
# Static dielectric constant tensor:
#      x y z
#    x 3.556950 0.000000 0.000000 
#    y 0.000000 3.769460 0.000000 
#    z 0.000000 0.000000 3.617760 
# 
# 
# High freq. dielectric constant tensor:
#      x y z
#    x 1.793170 0.000000 0.000000 
#    y 0.000000 1.805430 0.000000 
#    z 0.000000 0.000000 1.785530 
# 
# From -- ./inp_files/20090.got.cif
#   From: 2010.03.12/outbox.cif.g09.slc.cpg/sg56_11_cif.got.tgz:20090.got - 2010.04.16 15:33:40.
