data_PCOD8228404
_publ_section_title
;
Structure prediction by ZEFSAII (Michael W. Deem and Ramdas Pophale) SiO2 
 PCOD8228404
Probable space group: P C C N
;
_chemical_formula_sum "Si O2"
_cell_formula_units_Z 64
_cell_length_a 8.482393
_cell_length_b 12.522868
_cell_length_c 28.148739
_cell_angle_alpha 90.000000
_cell_angle_beta 90.000000
_cell_angle_gamma 90.000000
_cell_volume 2990.068495
_symmetry_space_group_name_H-M "P C C N"
_symmetry_group_IT_number 56
_symmetry_cell_setting 'orthorhombic'
loop_
_space_group_symop_operation_xyz
x,y,z
1/2-x,1/2-y,z
1/2+x,-y,1/2-z
-x,1/2+y,1/2-z
-x,-y,-z
1/2+x,1/2+y,-z
1/2-x,y,1/2+z
x,1/2-y,1/2+z
loop_
_atom_site_type_symbol
_atom_site_label
_atom_site_fract_x
_atom_site_fract_y
_atom_site_fract_z
Si Si1 0.003226 0.498311 0.405257
Si Si2 0.427750 0.202571 0.816903
Si Si3 0.248529 0.130304 0.452824
Si Si4 0.755368 0.367510 0.653412
Si Si5 0.094132 0.574835 0.253186
Si Si6 0.106037 0.585642 0.690612
Si Si7 0.019504 0.486199 0.886596
Si Si8 0.737749 0.870256 0.937905
O O1 0.074102 0.409809 0.441031
O O2 0.141333 0.558150 0.379029
O O3 0.890810 0.450833 0.364160
O O4 0.912357 0.582530 0.437320
O O5 0.250000 0.250000 0.825086
O O6 0.438982 0.134699 0.767868
O O7 0.562582 0.290594 0.810536
O O8 0.493398 0.126915 0.859070
O O9 0.250000 0.250000 0.431003
O O10 0.129737 0.044597 0.430610
O O11 0.191410 0.136081 0.507142
O O12 0.750000 0.250000 0.630678
O O13 0.819362 0.354796 0.706779
O O14 0.586858 0.426632 0.651113
O O15 0.221657 0.556622 0.211187
O O16 0.033016 0.467057 0.277731
O O17 0.868016 0.546070 0.908239
O O18 0.750000 0.750000 0.915965
#
# Coordination Sequence:
#
# PCOD8228404 Si02
#       8
#     8   8   8   8   8   8   8   8
#     4  10  21  37  59  85 118 158 202 253 311 367
#     4  12  23  39  63  90 124 164 208 259 311 369
#     4  10  21  40  63  87 120 159 202 255 320 384
#     4  10  20  37  57  80 117 161 201 244 300 365
#     4  11  23  38  59  87 121 162 207 252 303 365
#     4  11  22  39  59  87 124 164 209 259 311 372
#     4  11  22  39  63  89 120 163 206 250 314 380
#     4  11  23  39  61  91 122 155 203 262 316 378
#
# _framework density 21.404192999999999
#
# number of rings (size 3 to 8) (size 9 to 14) (size 15 to 20)
#    0.000    1.250    0.000    8.250    0.000    0.000 
#    0.000    9.375    0.000    7.500    0.000    0.000 
#    0.000    0.000    0.000    0.000    0.000    0.000 
#
# Total GULP energy -792947.444850 kJ/mol
# GULP energy per Si atom -12389.803826 kJ/mol
# Density = 2.135548 g / cm^3
# Si number density = 21.404193 Si / 1000 Ang^3
#
#
#
# Elastic Constant Matrix: (Units=GPa)
#
#
# Indices 1 2 3 4 5 6 
#
# 1 85.3249 39.6778 31.8473 0.0000 0.0000 0.0000
# 2 39.6778 138.6540 38.8268 0.0000 0.0000 0.0000
# 3 31.8473 38.8268 81.6251 0.0000 0.0000 0.0000
# 4 0.0000 0.0000 0.0000 36.8921 0.0000 0.0000
# 5 0.0000 0.0000 0.0000 0.0000 35.5600 0.0000
# 6 0.0000 0.0000 0.0000 0.0000 0.0000 17.7934
#
#
#
# Elastic Compliance Matrix: (Units=1/GPa)
#
#
# Indices 1 2 3 4 5 6 
#
# 1 0.014729 -0.003006 -0.004317 0.000000 0.000000 0.000000
# 2 -0.003006 0.008934 -0.003077 0.000000 0.000000 0.000000
# 3 -0.004317 -0.003077 0.015399 0.000000 0.000000 0.000000
# 4 0.000000 0.000000 0.000000 0.027106 0.000000 0.000000
# 5 0.000000 0.000000 0.000000 0.000000 0.028121 0.000000
# 6 0.000000 0.000000 0.000000 0.000000 0.000000 0.056201
#
#
# Mechanical properties :
#
#
# Convention : Reuss Voigt Hill
#
# Bulk Modulus (GPa) = 54.75682 58.47865 56.61774
# Shear Modulus (GPa) = 28.18852 31.06590 29.62721
#
# Velocity S-wave (km/s) = 3.63293 3.81385 3.72449
# Velocity P-wave (km/s) = 6.57537 6.83918 6.70857
#
# Compressibility (1/GPa) = 0.01826256
#
# Stress axis : x y z
#
# Youngs Moduli (GPa) = 67.89300 111.93173 64.93937
#
# Poissons Ratio (x) = 0.33648 0.28033
# Poissons Ratio (y) = 0.20409 0.19981
# Poissons Ratio (z) = 0.29308 0.34439
#
# Static dielectric constant tensor:
#      x y z
#    x 3.821120 0.000000 0.000000 
#    y 0.000000 3.191580 0.000000 
#    z 0.000000 0.000000 4.003990 
# 
# 
# High freq. dielectric constant tensor:
#      x y z
#    x 1.833490 0.000000 0.000000 
#    y 0.000000 1.851270 0.000000 
#    z 0.000000 0.000000 1.840280 
# 
# From -- ./inp_files/23408.got.cif
#   From: 2010.03.12/outbox.cif.g09.slc.cpg/sg56_12_cif.got.tgz:23408.got - 2010.04.16 15:33:40.
