data_PCOD8228056
_publ_section_title
;
Structure prediction by ZEFSAII (Michael W. Deem and Ramdas Pophale) SiO2 
 PCOD8228056
Probable space group: P C C N
;
_chemical_formula_sum "Si O2"
_cell_formula_units_Z 48
_cell_length_a 12.698098
_cell_length_b 8.633215
_cell_length_c 21.724884
_cell_angle_alpha 90.000000
_cell_angle_beta 90.000000
_cell_angle_gamma 90.000000
_cell_volume 2381.599318
_symmetry_space_group_name_H-M "P C C N"
_symmetry_group_IT_number 56
_symmetry_cell_setting 'orthorhombic'
loop_
_space_group_symop_operation_xyz
x,y,z
1/2-x,1/2-y,z
1/2+x,-y,1/2-z
-x,1/2+y,1/2-z
-x,-y,-z
1/2+x,1/2+y,-z
1/2-x,y,1/2+z
x,1/2-y,1/2+z
loop_
_atom_site_type_symbol
_atom_site_label
_atom_site_fract_x
_atom_site_fract_y
_atom_site_fract_z
Si Si1 0.852195 0.017200 0.840576
Si Si2 0.436396 0.406264 0.793708
Si Si3 0.250000 0.250000 0.586786
Si Si4 0.985282 0.946660 0.673726
Si Si5 0.226295 0.572459 0.796503
Si Si6 0.902796 0.496767 0.954163
Si Si7 0.750000 0.250000 0.430407
O O1 0.799587 0.051283 0.775092
O O2 0.827709 0.153700 0.887365
O O3 0.977807 0.002405 0.834138
O O4 0.813996 0.857200 0.867494
O O5 0.447079 0.456584 0.722790
O O6 0.459614 0.224364 0.800703
O O7 0.321375 0.458699 0.816518
O O8 0.335739 0.343047 0.545284
O O9 0.056012 0.950945 0.613217
O O10 0.873211 0.027614 0.661316
O O11 0.250000 0.750000 0.810794
O O12 0.821287 0.360862 0.973551
O O13 0.000000 0.500000 0.000000
#
# Coordination Sequence:
#
# PCOD8228056 Si02
#       7
#     8   8   4   8   8   8   4
#     4  10  20  35  63  89 128 161 214 248 309 383
#     4  11  21  37  60  98 131 167 209 254 330 384
#     4  10  24  38  70  92 114 172 218 260 308 376
#     4  11  24  38  65  93 133 172 204 267 317 386
#     4  11  23  35  56  97 137 169 202 257 328 382
#     4  11  25  48  66  93 126 167 226 266 312 381
#     4  10  18  44  68  88 114 174 204 260 306 374
#
# _framework density 20.154522
#
# number of rings (size 3 to 8) (size 9 to 14) (size 15 to 20)
#    0.000    1.333    2.500    4.500   11.667    0.000 
#    4.500    3.333    0.000    0.000    0.000    0.000 
#    0.000    0.000    0.000    0.000    0.000    0.000 
#
# Total GULP energy -595118.192390 kJ/mol
# GULP energy per Si atom -12398.295675 kJ/mol
# Density = 2.010865 g / cm^3
# Si number density = 20.154522 Si / 1000 Ang^3
#
#
#
# Elastic Constant Matrix: (Units=GPa)
#
#
# Indices 1 2 3 4 5 6 
#
# 1 127.6995 43.4099 19.7796 0.0000 0.0000 0.0000
# 2 43.4099 137.0109 27.9261 0.0000 0.0000 0.0000
# 3 19.7796 27.9261 43.5462 0.0000 0.0000 0.0000
# 4 0.0000 0.0000 0.0000 9.6161 0.0000 0.0000
# 5 0.0000 0.0000 0.0000 0.0000 36.7193 0.0000
# 6 0.0000 0.0000 0.0000 0.0000 0.0000 34.3788
#
#
#
# Elastic Compliance Matrix: (Units=1/GPa)
#
#
# Indices 1 2 3 4 5 6 
#
# 1 0.009026 -0.002329 -0.002607 0.000000 0.000000 0.000000
# 2 -0.002329 0.008997 -0.004712 0.000000 0.000000 0.000000
# 3 -0.002607 -0.004712 0.027170 0.000000 0.000000 0.000000
# 4 0.000000 0.000000 0.000000 0.103992 0.000000 0.000000
# 5 0.000000 0.000000 0.000000 0.000000 0.027234 0.000000
# 6 0.000000 0.000000 0.000000 0.000000 0.000000 0.029088
#
#
# Mechanical properties :
#
#
# Convention : Reuss Voigt Hill
#
# Bulk Modulus (GPa) = 38.61203 54.49864 46.55534
# Shear Modulus (GPa) = 21.41934 30.61891 26.01912
#
# Velocity S-wave (km/s) = 3.26353 3.90193 3.59692
# Velocity P-wave (km/s) = 5.77931 6.88471 6.35608
#
# Compressibility (1/GPa) = 0.02589867
#
# Stress axis : x y z
#
# Youngs Moduli (GPa) = 110.78888 111.14979 36.80544
#
# Poissons Ratio (x) = 0.25881 0.09594
# Poissons Ratio (y) = 0.25797 0.17343
# Poissons Ratio (z) = 0.28878 0.52374
#
# Static dielectric constant tensor:
#      x y z
#    x 4.030660 0.000000 0.000000 
#    y 0.000000 3.581550 0.000000 
#    z 0.000000 0.000000 3.187620 
# 
# 
# High freq. dielectric constant tensor:
#      x y z
#    x 1.812670 0.000000 0.000000 
#    y 0.000000 1.805550 0.000000 
#    z 0.000000 0.000000 1.734930 
# 
# From -- ./inp_files/20925.got.cif
#   From: 2010.03.12/outbox.cif.g09.slc.cpg/sg56_11_cif.got.tgz:20925.got - 2010.04.16 15:33:40.
