data_PCOD8228128
_publ_section_title
;
Structure prediction by ZEFSAII (Michael W. Deem and Ramdas Pophale) SiO2 
 PCOD8228128
Probable space group: P C C N
;
_chemical_formula_sum "Si O2"
_cell_formula_units_Z 48
_cell_length_a 11.842305
_cell_length_b 14.029868
_cell_length_c 14.453958
_cell_angle_alpha 90.000000
_cell_angle_beta 90.000000
_cell_angle_gamma 90.000000
_cell_volume 2401.466958
_symmetry_space_group_name_H-M "P C C N"
_symmetry_group_IT_number 56
_symmetry_cell_setting 'orthorhombic'
loop_
_space_group_symop_operation_xyz
x,y,z
1/2-x,1/2-y,z
1/2+x,-y,1/2-z
-x,1/2+y,1/2-z
-x,-y,-z
1/2+x,1/2+y,-z
1/2-x,y,1/2+z
x,1/2-y,1/2+z
loop_
_atom_site_type_symbol
_atom_site_label
_atom_site_fract_x
_atom_site_fract_y
_atom_site_fract_z
Si Si1 0.266500 0.646522 0.843783
Si Si2 0.962837 0.394798 0.235405
Si Si3 0.017421 0.432200 0.892800
Si Si4 0.427664 0.481470 0.091787
Si Si5 0.991923 0.680462 0.281432
Si Si6 0.804513 0.475817 0.990610
O O1 0.250000 0.750000 0.889493
O O2 0.170472 0.622596 0.770051
O O3 0.379320 0.644992 0.783980
O O4 0.266520 0.574213 0.928467
O O5 0.003122 0.464154 0.153825
O O6 0.981046 0.442756 0.335450
O O7 0.027480 0.294325 0.218568
O O8 0.120483 0.437580 0.966373
O O9 0.055877 0.355357 0.816950
O O10 0.897537 0.406154 0.941806
O O11 0.435117 0.372867 0.130974
O O12 0.500000 0.500000 0.000000
O O13 0.292694 0.491295 0.079405
#
# Coordination Sequence:
#
# PCOD8228128 Si02
#       6
#     8   8   8   8   8   8
#     4   9  17  31  56  85 113 139 185 245 292 332
#     4   9  20  36  56  83 112 150 190 230 287 341
#     4   9  20  36  58  78 114 154 186 235 285 339
#     4  11  21  36  60  85 113 149 186 241 280 337
#     4  10  19  37  57  83 115 149 185 232 291 345
#     4  10  19  35  54  85 110 145 191 234 283 332
#
# _framework density 19.987783
#
# number of rings (size 3 to 8) (size 9 to 14) (size 15 to 20)
#    0.000    2.333    1.667    1.000    0.000    1.333 
#    6.000    0.833    0.000    0.000    0.000    0.000 
#    0.000    0.000    0.000    0.000    0.000    0.000 
#
# Total GULP energy -594774.933419 kJ/mol
# GULP energy per Si atom -12391.144446 kJ/mol
# Density = 1.994229 g / cm^3
# Si number density = 19.987783 Si / 1000 Ang^3
#
#
#
# Elastic Constant Matrix: (Units=GPa)
#
#
# Indices 1 2 3 4 5 6 
#
# 1 59.5673 6.5135 9.1724 0.0000 0.0000 0.0000
# 2 6.5135 99.2495 23.8801 0.0000 0.0000 0.0000
# 3 9.1724 23.8801 86.1089 0.0000 0.0000 0.0000
# 4 0.0000 0.0000 0.0000 15.1350 0.0000 0.0000
# 5 0.0000 0.0000 0.0000 0.0000 28.8330 0.0000
# 6 0.0000 0.0000 0.0000 0.0000 0.0000 21.0749
#
#
#
# Elastic Compliance Matrix: (Units=1/GPa)
#
#
# Indices 1 2 3 4 5 6 
#
# 1 0.017117 -0.000734 -0.001620 0.000000 0.000000 0.000000
# 2 -0.000734 0.010827 -0.002925 0.000000 0.000000 0.000000
# 3 -0.001620 -0.002925 0.012597 0.000000 0.000000 0.000000
# 4 0.000000 0.000000 0.000000 0.066072 0.000000 0.000000
# 5 0.000000 0.000000 0.000000 0.000000 0.034682 0.000000
# 6 0.000000 0.000000 0.000000 0.000000 0.000000 0.047450
#
#
# Mechanical properties :
#
#
# Convention : Reuss Voigt Hill
#
# Bulk Modulus (GPa) = 33.34950 36.00641 34.67795
# Shear Modulus (GPa) = 23.88944 26.69921 25.29432
#
# Velocity S-wave (km/s) = 3.46092 3.65879 3.56123
# Velocity P-wave (km/s) = 5.71767 5.99186 5.85637
#
# Compressibility (1/GPa) = 0.02998546
#
# Stress axis : x y z
#
# Youngs Moduli (GPa) = 58.42014 92.35801 79.38522
#
# Poissons Ratio (x) = 0.06776 0.12860
# Poissons Ratio (y) = 0.04286 0.23217
# Poissons Ratio (z) = 0.09463 0.27011
#
# Static dielectric constant tensor:
#      x y z
#    x 3.642400 0.000000 0.000000 
#    y 0.000000 3.582190 0.000000 
#    z 0.000000 0.000000 3.602800 
# 
# 
# High freq. dielectric constant tensor:
#      x y z
#    x 1.771480 0.000000 0.000000 
#    y 0.000000 1.756030 0.000000 
#    z 0.000000 0.000000 1.788650 
# 
# From -- ./inp_files/11605.got.cif
#   From: 2010.03.12/outbox.cif.g09.slc.cpg/sg56_6_cif.got.tgz:11605.got - 2010.04.16 15:33:40.
