data_PCOD8228317
_publ_section_title
;
Structure prediction by ZEFSAII (Michael W. Deem and Ramdas Pophale) SiO2 
 PCOD8228317
Probable space group: P C C N
;
_chemical_formula_sum "Si O2"
_cell_formula_units_Z 64
_cell_length_a 10.001298
_cell_length_b 19.272447
_cell_length_c 17.583165
_cell_angle_alpha 90.000000
_cell_angle_beta 90.000000
_cell_angle_gamma 90.000000
_cell_volume 3389.146010
_symmetry_space_group_name_H-M "P C C N"
_symmetry_group_IT_number 56
_symmetry_cell_setting 'orthorhombic'
loop_
_space_group_symop_operation_xyz
x,y,z
1/2-x,1/2-y,z
1/2+x,-y,1/2-z
-x,1/2+y,1/2-z
-x,-y,-z
1/2+x,1/2+y,-z
1/2-x,y,1/2+z
x,1/2-y,1/2+z
loop_
_atom_site_type_symbol
_atom_site_label
_atom_site_fract_x
_atom_site_fract_y
_atom_site_fract_z
Si Si1 0.189166 0.052167 0.117459
Si Si2 0.467691 0.597822 0.580188
Si Si3 0.508202 0.863426 0.699806
Si Si4 0.244539 0.324485 0.712525
Si Si5 0.175339 0.994846 0.474514
Si Si6 0.723698 0.069453 0.783450
Si Si7 0.610854 0.774908 0.134297
Si Si8 0.592878 0.491357 0.136601
O O1 0.180994 0.129811 0.147228
O O2 0.228240 0.005611 0.189911
O O3 0.291352 0.042736 0.047836
O O4 0.039608 0.034230 0.094576
O O5 0.382377 0.579233 0.504519
O O6 0.576070 0.535214 0.582898
O O7 0.375943 0.601832 0.654796
O O8 0.537666 0.673088 0.575654
O O9 0.604748 0.851982 0.771836
O O10 0.355140 0.880612 0.725540
O O11 0.515040 0.791721 0.650690
O O12 0.574530 0.927484 0.654628
O O13 0.250000 0.250000 0.673322
O O14 0.153454 0.317581 0.789131
O O15 0.304620 0.976719 0.429269
O O16 0.639408 0.057048 0.706915
O O17 0.750000 0.750000 0.095850
#
# Coordination Sequence:
#
# PCOD8228317 Si02
#       8
#     8   8   8   8   8   8   8   8
#     4  10  20  35  52  83 111 149 186 236 289 341
#     4  10  21  37  54  82 111 150 189 235 287 347
#     4   9  19  32  53  89 114 144 187 244 285 338
#     4   9  17  33  56  80 110 145 189 239 281 333
#     4  10  22  35  55  80 117 149 186 238 295 338
#     4  10  21  31  58  86 110 144 189 236 291 326
#     4   9  18  34  58  81 111 147 193 240 286 335
#     4  11  20  33  57  83 118 145 188 244 282 346
#
# _framework density 18.883814000000001
#
# number of rings (size 3 to 8) (size 9 to 14) (size 15 to 20)
#    0.000    2.500    1.250    2.625    3.500    1.500 
#    0.000    1.875    0.000    1.500    0.000    7.000 
#    0.000    0.000    0.000    0.000    0.000    0.000 
#
# Total GULP energy -792908.437345 kJ/mol
# GULP energy per Si atom -12389.194334 kJ/mol
# Density = 1.884083 g / cm^3
# Si number density = 18.883814 Si / 1000 Ang^3
#
#
#
# Elastic Constant Matrix: (Units=GPa)
#
#
# Indices 1 2 3 4 5 6 
#
# 1 102.7763 46.6813 28.7410 0.0000 0.0000 0.0000
# 2 46.6813 104.7309 33.3836 0.0000 0.0000 0.0000
# 3 28.7410 33.3836 43.3805 0.0000 0.0000 0.0000
# 4 0.0000 0.0000 0.0000 17.0250 0.0000 0.0000
# 5 0.0000 0.0000 0.0000 0.0000 28.2972 0.0000
# 6 0.0000 0.0000 0.0000 0.0000 0.0000 35.5152
#
#
#
# Elastic Compliance Matrix: (Units=1/GPa)
#
#
# Indices 1 2 3 4 5 6 
#
# 1 0.013140 -0.004084 -0.005563 0.000000 0.000000 0.000000
# 2 -0.004084 0.013921 -0.008007 0.000000 0.000000 0.000000
# 3 -0.005563 -0.008007 0.032900 0.000000 0.000000 0.000000
# 4 0.000000 0.000000 0.000000 0.058737 0.000000 0.000000
# 5 0.000000 0.000000 0.000000 0.000000 0.035339 0.000000
# 6 0.000000 0.000000 0.000000 0.000000 0.000000 0.028157
#
#
# Mechanical properties :
#
#
# Convention : Reuss Voigt Hill
#
# Bulk Modulus (GPa) = 40.56395 52.05551 46.30973
# Shear Modulus (GPa) = 22.15129 25.63961 23.89545
#
# Velocity S-wave (km/s) = 3.42867 3.68877 3.56110
# Velocity P-wave (km/s) = 6.09933 6.76526 6.44091
#
# Compressibility (1/GPa) = 0.02465243
#
# Stress axis : x y z
#
# Youngs Moduli (GPa) = 76.10074 71.83474 30.39535
#
# Poissons Ratio (x) = 0.29335 0.16910
# Poissons Ratio (y) = 0.31077 0.24338
# Poissons Ratio (z) = 0.42338 0.57520
#
# Static dielectric constant tensor:
#      x y z
#    x 3.768440 0.000000 0.000000 
#    y 0.000000 3.498550 0.000000 
#    z 0.000000 0.000000 3.181440 
# 
# 
# High freq. dielectric constant tensor:
#      x y z
#    x 1.749020 0.000000 0.000000 
#    y 0.000000 1.724400 0.000000 
#    z 0.000000 0.000000 1.701830 
# 
# From -- ./inp_files/15219.got.cif
#   From: 2010.03.12/outbox.cif.g09.slc.cpg/sg56_8_cif.got.tgz:15219.got - 2010.04.16 15:33:40.
