data_PCOD8228418
_publ_section_title
;
Structure prediction by ZEFSAII (Michael W. Deem and Ramdas Pophale) SiO2 
 PCOD8228418
Probable space group: P C C N
;
_chemical_formula_sum "Si O2"
_cell_formula_units_Z 40
_cell_length_a 7.034589
_cell_length_b 16.016937
_cell_length_c 15.055541
_cell_angle_alpha 90.000000
_cell_angle_beta 90.000000
_cell_angle_gamma 90.000000
_cell_volume 1696.346480
_symmetry_space_group_name_H-M "P C C N"
_symmetry_group_IT_number 56
_symmetry_cell_setting 'orthorhombic'
loop_
_space_group_symop_operation_xyz
x,y,z
1/2-x,1/2-y,z
1/2+x,-y,1/2-z
-x,1/2+y,1/2-z
-x,-y,-z
1/2+x,1/2+y,-z
1/2-x,y,1/2+z
x,1/2-y,1/2+z
loop_
_atom_site_type_symbol
_atom_site_label
_atom_site_fract_x
_atom_site_fract_y
_atom_site_fract_z
Si Si1 0.967718 0.368557 0.099797
Si Si2 0.090339 0.187063 0.422035
Si Si3 0.153025 0.438415 0.665642
Si Si4 0.713965 0.979540 0.643809
Si Si5 0.969871 0.727879 0.267163
O O1 0.182203 0.406418 0.100394
O O2 0.921838 0.301379 0.178963
O O3 0.819827 0.442152 0.102395
O O4 0.945142 0.325151 0.003620
O O5 0.250000 0.250000 0.455952
O O6 0.203582 0.103248 0.398309
O O7 0.970814 0.222204 0.336947
O O8 0.261235 0.476302 0.750243
O O9 0.006837 0.362577 0.688127
O O10 0.013417 0.509254 0.624195
O O11 0.750000 0.750000 0.268366
#
# Coordination Sequence:
#
# PCOD8228418 Si02
#       5
#     8   8   8   8   8
#     4  11  21  40  67  88 127 171 207 267 319 369
#     4  10  21  38  62  94 125 168 215 259 320 387
#     4  10  20  37  60  90 124 167 208 251 320 373
#     4  11  22  37  64  94 126 165 218 258 314 384
#     4   8  18  36  61  87 119 165 207 251 316 380
#
# _framework density 23.580088
#
# number of rings (size 3 to 8) (size 9 to 14) (size 15 to 20)
#    0.000    2.000    2.000    3.600    0.000    1.600 
#    0.000    0.000    0.000    8.400    0.000    0.000 
#    0.000    0.000    0.000    0.000    0.000    0.000 
#
# Total GULP energy -495851.126430 kJ/mol
# GULP energy per Si atom -12396.278161 kJ/mol
# Density = 2.352642 g / cm^3
# Si number density = 23.580088 Si / 1000 Ang^3
#
#
#
# Elastic Constant Matrix: (Units=GPa)
#
#
# Indices 1 2 3 4 5 6 
#
# 1 49.2162 19.2643 9.6457 0.0000 0.0000 0.0000
# 2 19.2643 91.0804 37.4279 0.0000 0.0000 0.0000
# 3 9.6457 37.4279 128.6327 0.0000 0.0000 0.0000
# 4 0.0000 0.0000 0.0000 28.0834 0.0000 0.0000
# 5 0.0000 0.0000 0.0000 0.0000 13.2389 0.0000
# 6 0.0000 0.0000 0.0000 0.0000 0.0000 29.6786
#
#
#
# Elastic Compliance Matrix: (Units=1/GPa)
#
#
# Indices 1 2 3 4 5 6 
#
# 1 0.022165 -0.004549 -0.000338 0.000000 0.000000 0.000000
# 2 -0.004549 0.013404 -0.003559 0.000000 0.000000 0.000000
# 3 -0.000338 -0.003559 0.008835 0.000000 0.000000 0.000000
# 4 0.000000 0.000000 0.000000 0.035608 0.000000 0.000000
# 5 0.000000 0.000000 0.000000 0.000000 0.075535 0.000000
# 6 0.000000 0.000000 0.000000 0.000000 0.000000 0.033694
#
#
# Mechanical properties :
#
#
# Convention : Reuss Voigt Hill
#
# Bulk Modulus (GPa) = 36.34867 44.62279 40.48573
# Shear Modulus (GPa) = 23.22279 27.70628 25.46453
#
# Velocity S-wave (km/s) = 3.14163 3.43153 3.28977
# Velocity P-wave (km/s) = 5.34867 5.88774 5.62467
#
# Compressibility (1/GPa) = 0.02751132
#
# Stress axis : x y z
#
# Youngs Moduli (GPa) = 45.11521 74.60467 113.18620
#
# Poissons Ratio (x) = 0.33938 0.03831
# Poissons Ratio (y) = 0.20523 0.40283
# Poissons Ratio (z) = 0.01527 0.26552
#
# Static dielectric constant tensor:
#      x y z
#    x 3.843940 0.000000 0.000000 
#    y 0.000000 4.965340 0.000000 
#    z 0.000000 0.000000 4.407810 
# 
# 
# High freq. dielectric constant tensor:
#      x y z
#    x 1.904510 0.000000 0.000000 
#    y 0.000000 1.947640 0.000000 
#    z 0.000000 0.000000 1.925140 
# 
# From -- ./inp_files/10389.got.cif
#   From: 2010.03.12/outbox.cif.g09.slc.cpg/sg56_6_cif.got.tgz:10389.got - 2010.04.16 15:33:40.
