data_PCOD8228061
_publ_section_title
;
Structure prediction by ZEFSAII (Michael W. Deem and Ramdas Pophale) SiO2 
 PCOD8228061
Probable space group: P C C N
;
_chemical_formula_sum "Si O2"
_cell_formula_units_Z 56
_cell_length_a 25.700553
_cell_length_b 24.268457
_cell_length_c 4.963904
_cell_angle_alpha 90.000000
_cell_angle_beta 90.000000
_cell_angle_gamma 90.000000
_cell_volume 3096.050291
_symmetry_space_group_name_H-M "P C C N"
_symmetry_group_IT_number 56
_symmetry_cell_setting 'orthorhombic'
loop_
_space_group_symop_operation_xyz
x,y,z
1/2-x,1/2-y,z
1/2+x,-y,1/2-z
-x,1/2+y,1/2-z
-x,-y,-z
1/2+x,1/2+y,-z
1/2-x,y,1/2+z
x,1/2-y,1/2+z
loop_
_atom_site_type_symbol
_atom_site_label
_atom_site_fract_x
_atom_site_fract_y
_atom_site_fract_z
Si Si1 0.715537 0.876144 0.354863
Si Si2 0.130026 0.286128 0.617812
Si Si3 0.484508 0.902066 0.906785
Si Si4 0.283848 0.502765 0.174747
Si Si5 0.038864 0.360743 0.559179
Si Si6 0.606388 0.473632 0.675484
Si Si7 0.928191 0.964444 0.181740
O O1 0.762549 0.864155 0.150566
O O2 0.667539 0.835967 0.301585
O O3 0.697064 0.939254 0.315496
O O4 0.140046 0.235368 0.817529
O O5 0.069721 0.305750 0.639310
O O6 0.497065 0.853567 0.687119
O O7 0.423421 0.918252 0.927563
O O8 0.513610 0.958617 0.807195
O O9 0.505956 0.883870 0.193575
O O10 0.237252 0.516417 0.379094
O O11 0.334227 0.539892 0.241547
O O12 0.083690 0.403934 0.449198
O O13 0.608959 0.518450 0.431447
O O14 0.575411 0.491870 0.942623
#
# Coordination Sequence:
#
# PCOD8228061 Si02
#       7
#     8   8   8   8   8   8   8
#     4  10  22  38  53  67  90 121 165 217 264 298
#     4  12  25  38  55  72  90 121 167 214 270 314
#     4  10  20  31  49  74 100 124 154 194 246 289
#     4  10  22  37  49  70  98 133 168 203 246 291
#     4  10  21  35  47  70 100 120 151 197 257 304
#     4  12  19  30  51  74  98 129 165 192 233 284
#     4  10  19  29  48  73 100 121 156 197 241 291
#
# _framework density 18.087561999999998
#
# number of rings (size 3 to 8) (size 9 to 14) (size 15 to 20)
#    0.857    0.571    1.429    5.143    0.000    4.000 
#    0.000    0.000    0.000    0.000    0.000    0.000 
#    0.000    0.000    0.000    0.000    0.000   50.000 
#
# Total GULP energy -693803.282647 kJ/mol
# GULP energy per Si atom -12389.344333 kJ/mol
# Density = 1.804639 g / cm^3
# Si number density = 18.087562 Si / 1000 Ang^3
#
#
#
# Elastic Constant Matrix: (Units=GPa)
#
#
# Indices 1 2 3 4 5 6 
#
# 1 67.6531 22.1967 7.8570 0.0000 0.0000 0.0000
# 2 22.1967 17.7732 8.8775 0.0000 0.0000 0.0000
# 3 7.8570 8.8775 96.3478 0.0000 0.0000 0.0000
# 4 0.0000 0.0000 0.0000 16.3021 0.0000 0.0000
# 5 0.0000 0.0000 0.0000 0.0000 17.4998 0.0000
# 6 0.0000 0.0000 0.0000 0.0000 0.0000 26.9742
#
#
#
# Elastic Compliance Matrix: (Units=1/GPa)
#
#
# Indices 1 2 3 4 5 6 
#
# 1 0.025114 -0.031805 0.000883 0.000000 0.000000 0.000000
# 2 -0.031805 0.099259 -0.006552 0.000000 0.000000 0.000000
# 3 0.000883 -0.006552 0.010911 0.000000 0.000000 0.000000
# 4 0.000000 0.000000 0.000000 0.061342 0.000000 0.000000
# 5 0.000000 0.000000 0.000000 0.000000 0.057143 0.000000
# 6 0.000000 0.000000 0.000000 0.000000 0.000000 0.037072
#
#
# Mechanical properties :
#
#
# Convention : Reuss Voigt Hill
#
# Bulk Modulus (GPa) = 16.57449 28.84849 22.71149
# Shear Modulus (GPa) = 12.95665 21.67810 17.31737
#
# Velocity S-wave (km/s) = 2.67934 3.46570 3.09758
# Velocity P-wave (km/s) = 4.33072 5.65675 5.03756
#
# Compressibility (1/GPa) = 0.06033370
#
# Stress axis : x y z
#
# Youngs Moduli (GPa) = 39.81842 10.07468 91.65231
#
# Poissons Ratio (x) = 0.32043 -0.08089
# Poissons Ratio (y) = 1.26644 0.60051
# Poissons Ratio (z) = -0.03514 0.06601
#
# Static dielectric constant tensor:
#      x y z
#    x 3.081010 0.000000 0.000000 
#    y 0.000000 2.815630 0.000000 
#    z 0.000000 0.000000 3.581610 
# 
# 
# High freq. dielectric constant tensor:
#      x y z
#    x 1.681560 0.000000 0.000000 
#    y 0.000000 1.627370 0.000000 
#    z 0.000000 0.000000 1.732900 
# 
# From -- ./inp_files/1140.got.cif
#   From: 2010.03.12/outbox.cif.g09.slc.cpg/sg56_1_cif.got.tgz:1140.got - 2010.04.16 15:33:40.
