data_PCOD8228993
_publ_section_title
;
Structure prediction by ZEFSAII (Michael W. Deem and Ramdas Pophale) SiO2 
 PCOD8228993
Probable space group: P C C N
;
_chemical_formula_sum "Si O2"
_cell_formula_units_Z 36
_cell_length_a 5.403224
_cell_length_b 12.156033
_cell_length_c 25.238344
_cell_angle_alpha 90.000000
_cell_angle_beta 90.000000
_cell_angle_gamma 90.000000
_cell_volume 1657.699087
_symmetry_space_group_name_H-M "P C C N"
_symmetry_group_IT_number 56
_symmetry_cell_setting 'orthorhombic'
loop_
_space_group_symop_operation_xyz
x,y,z
1/2-x,1/2-y,z
1/2+x,-y,1/2-z
-x,1/2+y,1/2-z
-x,-y,-z
1/2+x,1/2+y,-z
1/2-x,y,1/2+z
x,1/2-y,1/2+z
loop_
_atom_site_type_symbol
_atom_site_label
_atom_site_fract_x
_atom_site_fract_y
_atom_site_fract_z
Si Si1 0.762101 0.506344 0.068574
Si Si2 0.756788 0.379179 0.463052
Si Si3 0.435956 0.559968 0.825679
Si Si4 0.363407 0.637738 0.227973
Si Si5 0.750000 0.750000 0.299659
O O1 0.514458 0.579009 0.061693
O O2 0.758242 0.450193 0.126523
O O3 0.016183 0.574554 0.067308
O O4 0.763537 0.411580 0.024585
O O5 0.750000 0.250000 0.458074
O O6 0.585341 0.444706 0.820817
O O7 0.322076 0.577932 0.767921
O O8 0.594610 0.669826 0.838228
O O9 0.250000 0.750000 0.203517
O O10 0.603159 0.667870 0.261650
#
# Coordination Sequence:
#
# PCOD8228993 Si02
#       5
#     8   8   8   8   4
#     4  10  24  41  70  98 129 171 225 270 339 389
#     4  10  22  46  65  97 132 171 216 284 333 404
#     4  11  22  41  65  95 131 172 221 273 321 410
#     4  10  22  39  62  90 132 171 215 267 325 387
#     4  10  22  40  60  92 126 176 214 270 326 378
#
# _framework density 21.716849
#
# number of rings (size 3 to 8) (size 9 to 14) (size 15 to 20)
#    0.000    1.778    2.222    0.667    3.111    3.556 
#   12.000    0.000    0.000    0.000    0.000    0.000 
#    0.000    0.000    0.000    0.000    0.000    0.000 
#
# Total GULP energy -446297.563162 kJ/mol
# GULP energy per Si atom -12397.154532 kJ/mol
# Density = 2.166742 g / cm^3
# Si number density = 21.716849 Si / 1000 Ang^3
#
#
#
# Elastic Constant Matrix: (Units=GPa)
#
#
# Indices 1 2 3 4 5 6 
#
# 1 122.1128 42.6465 19.1392 0.0000 0.0000 0.0000
# 2 42.6465 126.6276 44.2623 0.0000 0.0000 0.0000
# 3 19.1392 44.2623 76.6210 0.0000 0.0000 0.0000
# 4 0.0000 0.0000 0.0000 8.1520 0.0000 0.0000
# 5 0.0000 0.0000 0.0000 0.0000 23.9157 0.0000
# 6 0.0000 0.0000 0.0000 0.0000 0.0000 24.1123
#
#
#
# Elastic Compliance Matrix: (Units=1/GPa)
#
#
# Indices 1 2 3 4 5 6 
#
# 1 0.009306 -0.002909 -0.000644 0.000000 0.000000 0.000000
# 2 -0.002909 0.010805 -0.005515 0.000000 0.000000 0.000000
# 3 -0.000644 -0.005515 0.016398 0.000000 0.000000 0.000000
# 4 0.000000 0.000000 0.000000 0.122670 0.000000 0.000000
# 5 0.000000 0.000000 0.000000 0.000000 0.041813 0.000000
# 6 0.000000 0.000000 0.000000 0.000000 0.000000 0.041473
#
#
# Mechanical properties :
#
#
# Convention : Reuss Voigt Hill
#
# Bulk Modulus (GPa) = 54.42897 59.71747 57.07322
# Shear Modulus (GPa) = 18.74590 25.85689 22.30140
#
# Velocity S-wave (km/s) = 2.94121 3.45430 3.20803
# Velocity P-wave (km/s) = 6.05406 6.59299 6.32927
#
# Compressibility (1/GPa) = 0.01837257
#
# Stress axis : x y z
#
# Youngs Moduli (GPa) = 107.45711 92.55294 60.98306
#
# Poissons Ratio (x) = 0.26924 0.03928
# Poissons Ratio (y) = 0.31259 0.33632
# Poissons Ratio (z) = 0.06921 0.51042
#
# Static dielectric constant tensor:
#      x y z
#    x 4.414600 0.000000 0.000000 
#    y 0.000000 4.872960 0.000000 
#    z 0.000000 0.000000 3.565890 
# 
# 
# High freq. dielectric constant tensor:
#      x y z
#    x 1.863650 0.000000 0.000000 
#    y 0.000000 1.866850 0.000000 
#    z 0.000000 0.000000 1.832300 
# 
# From -- ./inp_files/19902.got.cif
#   From: 2010.03.12/outbox.cif.g09.slc.cpg/sg56_10_cif.got.tgz:19902.got - 2010.04.16 15:33:40.
