data_PCOD8228586
_publ_section_title
;
Structure prediction by ZEFSAII (Michael W. Deem and Ramdas Pophale) SiO2 
 PCOD8228586
Probable space group: P C C N
;
_chemical_formula_sum "Si O2"
_cell_formula_units_Z 48
_cell_length_a 22.171370
_cell_length_b 5.398420
_cell_length_c 17.112738
_cell_angle_alpha 90.000000
_cell_angle_beta 90.000000
_cell_angle_gamma 90.000000
_cell_volume 2048.229896
_symmetry_space_group_name_H-M "P C C N"
_symmetry_group_IT_number 56
_symmetry_cell_setting 'orthorhombic'
loop_
_space_group_symop_operation_xyz
x,y,z
1/2-x,1/2-y,z
1/2+x,-y,1/2-z
-x,1/2+y,1/2-z
-x,-y,-z
1/2+x,1/2+y,-z
1/2-x,y,1/2+z
x,1/2-y,1/2+z
loop_
_atom_site_type_symbol
_atom_site_label
_atom_site_fract_x
_atom_site_fract_y
_atom_site_fract_z
Si Si1 0.311639 0.169780 0.156866
Si Si2 0.690724 0.391146 0.186824
Si Si3 0.911101 0.537561 0.954497
Si Si4 0.399861 0.291908 0.890283
Si Si5 0.528141 0.453129 0.899376
Si Si6 0.897386 0.013674 0.757192
O O1 0.250000 0.250000 0.112926
O O2 0.351654 0.000055 0.099386
O O3 0.349407 0.410979 0.180372
O O4 0.289374 0.031045 0.234935
O O5 0.750000 0.250000 0.154460
O O6 0.664911 0.569595 0.118375
O O7 0.632594 0.229817 0.207731
O O8 0.949299 0.285198 0.949431
O O9 0.947283 0.781796 0.927098
O O10 0.890879 0.579916 0.044194
O O11 0.456115 0.469352 0.912190
O O12 0.418647 0.186875 0.805672
O O13 0.545236 0.400864 0.808518
#
# Coordination Sequence:
#
# PCOD8228586 Si02
#       6
#     8   8   8   8   8   8
#     4  10  20  41  64  94 127 184 237 281 342 429
#     4  11  22  42  69  95 135 180 237 291 352 411
#     4  11  25  46  67 102 140 190 229 292 356 432
#     4  11  27  40  68 106 142 180 234 300 366 418
#     4  11  25  45  71  99 143 187 237 283 359 438
#     4  10  23  39  68  95 133 176 235 290 342 418
#
# _framework density 23.434871999999999
#
# number of rings (size 3 to 8) (size 9 to 14) (size 15 to 20)
#    0.000    1.333    3.333    1.000    7.000    0.000 
#    3.000    0.000    0.000    0.000    0.000    0.000 
#    0.000    0.000    0.000    0.000    0.000    0.000 
#
# Total GULP energy -595008.709905 kJ/mol
# GULP energy per Si atom -12396.014790 kJ/mol
# Density = 2.338153 g / cm^3
# Si number density = 23.434872 Si / 1000 Ang^3
#
#
#
# Elastic Constant Matrix: (Units=GPa)
#
#
# Indices 1 2 3 4 5 6 
#
# 1 116.5940 20.1748 41.2235 0.0000 0.0000 0.0000
# 2 20.1748 82.1309 12.1628 0.0000 0.0000 0.0000
# 3 41.2235 12.1628 93.5392 0.0000 0.0000 0.0000
# 4 0.0000 0.0000 0.0000 11.8341 0.0000 0.0000
# 5 0.0000 0.0000 0.0000 0.0000 14.9134 0.0000
# 6 0.0000 0.0000 0.0000 0.0000 0.0000 28.3606
#
#
#
# Elastic Compliance Matrix: (Units=1/GPa)
#
#
# Indices 1 2 3 4 5 6 
#
# 1 0.010449 -0.001922 -0.004355 0.000000 0.000000 0.000000
# 2 -0.001922 0.012768 -0.000813 0.000000 0.000000 0.000000
# 3 -0.004355 -0.000813 0.012716 0.000000 0.000000 0.000000
# 4 0.000000 0.000000 0.000000 0.084502 0.000000 0.000000
# 5 0.000000 0.000000 0.000000 0.000000 0.067054 0.000000
# 6 0.000000 0.000000 0.000000 0.000000 0.000000 0.035260
#
#
# Mechanical properties :
#
#
# Convention : Reuss Voigt Hill
#
# Bulk Modulus (GPa) = 45.97129 48.82071 47.39600
# Shear Modulus (GPa) = 20.47669 25.60182 23.03926
#
# Velocity S-wave (km/s) = 2.95917 3.30883 3.13887
# Velocity P-wave (km/s) = 5.59775 5.95614 5.77972
#
# Compressibility (1/GPa) = 0.02175271
#
# Stress axis : x y z
#
# Youngs Moduli (GPa) = 95.70180 78.31964 78.64234
#
# Poissons Ratio (x) = 0.15051 0.34250
# Poissons Ratio (y) = 0.18392 0.06396
# Poissons Ratio (z) = 0.41679 0.06370
#
# Static dielectric constant tensor:
#      x y z
#    x 4.165980 0.000000 0.000000 
#    y 0.000000 4.201290 0.000000 
#    z 0.000000 0.000000 4.428810 
# 
# 
# High freq. dielectric constant tensor:
#      x y z
#    x 1.926060 0.000000 0.000000 
#    y 0.000000 1.922350 0.000000 
#    z 0.000000 0.000000 1.920510 
# 
# From -- ./inp_files/16933.got.cif
#   From: 2010.03.12/outbox.cif.g09.slc.cpg/sg56_9_cif.got.tgz:16933.got - 2010.04.16 15:33:40.
