data_PCOD8228291
_publ_section_title
;
Structure prediction by ZEFSAII (Michael W. Deem and Ramdas Pophale) SiO2 
 PCOD8228291
Probable space group: P C C N
;
_chemical_formula_sum "Si O2"
_cell_formula_units_Z 64
_cell_length_a 28.837912
_cell_length_b 14.282106
_cell_length_c 9.455814
_cell_angle_alpha 90.000000
_cell_angle_beta 90.000000
_cell_angle_gamma 90.000000
_cell_volume 3894.529386
_symmetry_space_group_name_H-M "P C C N"
_symmetry_group_IT_number 56
_symmetry_cell_setting 'orthorhombic'
loop_
_space_group_symop_operation_xyz
x,y,z
1/2-x,1/2-y,z
1/2+x,-y,1/2-z
-x,1/2+y,1/2-z
-x,-y,-z
1/2+x,1/2+y,-z
1/2-x,y,1/2+z
x,1/2-y,1/2+z
loop_
_atom_site_type_symbol
_atom_site_label
_atom_site_fract_x
_atom_site_fract_y
_atom_site_fract_z
Si Si1 0.002323 0.744123 0.342608
Si Si2 0.609997 0.577148 0.210631
Si Si3 0.059228 0.248138 0.907431
Si Si4 0.204672 0.345838 0.953764
Si Si5 0.205843 0.151906 0.791903
Si Si6 0.026604 0.536904 0.366747
Si Si7 0.391753 0.430517 0.460451
Si Si8 0.529971 0.051397 0.116772
O O1 0.031529 0.648913 0.356214
O O2 0.029853 0.835721 0.396598
O O3 0.954454 0.732019 0.429678
O O4 0.988535 0.760107 0.180121
O O5 0.596771 0.674156 0.139597
O O6 0.665679 0.573084 0.189461
O O7 0.580578 0.495047 0.136656
O O8 0.596779 0.576792 0.374461
O O9 0.081630 0.348224 0.880141
O O10 0.192961 0.248088 0.874610
O O11 0.248892 0.389623 0.871337
O O12 0.163162 0.420792 0.932247
O O13 0.213667 0.329156 0.122740
O O14 0.000000 0.500000 0.500000
O O15 0.994228 0.485678 0.255348
O O16 0.415177 0.524590 0.397308
O O17 0.500000 0.000000 0.000000
#
# Coordination Sequence:
#
# PCOD8228291 Si02
#       8
#     8   8   8   8   8   8   8   8
#     4  12  22  32  52  70 106 142 174 216 243 297
#     4  11  21  34  50  75 105 137 177 207 258 308
#     4  12  18  32  49  72 100 138 172 204 250 295
#     4  10  20  34  51  76 101 132 173 214 264 312
#     4  10  20  34  52  74 103 132 172 218 260 317
#     4  12  22  34  48  78 108 134 179 218 255 300
#     4  11  21  33  53  74  99 143 178 205 251 316
#     4  12  20  36  52  72 102 142 180 207 249 310
#
# _framework density 16.433308
#
# number of rings (size 3 to 8) (size 9 to 14) (size 15 to 20)
#    0.000    0.750    8.750    1.500    0.000    0.000 
#    6.750    0.000    0.000    0.000    0.000    0.875 
#    0.000    4.000    0.000    0.000    0.000    0.000 
#
# Total GULP energy -792891.698345 kJ/mol
# GULP energy per Si atom -12388.932787 kJ/mol
# Density = 1.639590 g / cm^3
# Si number density = 16.433308 Si / 1000 Ang^3
#
#
#
# Elastic Constant Matrix: (Units=GPa)
#
#
# Indices 1 2 3 4 5 6 
#
# 1 119.1252 44.8349 38.9170 0.0000 0.0000 0.0000
# 2 44.8349 93.0211 23.3720 0.0000 0.0000 0.0000
# 3 38.9170 23.3720 90.0901 0.0000 0.0000 0.0000
# 4 0.0000 0.0000 0.0000 17.2366 0.0000 0.0000
# 5 0.0000 0.0000 0.0000 0.0000 24.6765 0.0000
# 6 0.0000 0.0000 0.0000 0.0000 0.0000 30.6137
#
#
#
# Elastic Compliance Matrix: (Units=1/GPa)
#
#
# Indices 1 2 3 4 5 6 
#
# 1 0.011308 -0.004517 -0.003713 0.000000 0.000000 0.000000
# 2 -0.004517 0.013304 -0.001500 0.000000 0.000000 0.000000
# 3 -0.003713 -0.001500 0.013093 0.000000 0.000000 0.000000
# 4 0.000000 0.000000 0.000000 0.058016 0.000000 0.000000
# 5 0.000000 0.000000 0.000000 0.000000 0.040524 0.000000
# 6 0.000000 0.000000 0.000000 0.000000 0.000000 0.032665
#
#
# Mechanical properties :
#
#
# Convention : Reuss Voigt Hill
#
# Bulk Modulus (GPa) = 54.81055 57.38713 56.09884
# Shear Modulus (GPa) = 25.71322 27.51286 26.61304
#
# Velocity S-wave (km/s) = 3.95992 4.09615 4.02861
# Velocity P-wave (km/s) = 7.37114 7.57419 7.47335
#
# Compressibility (1/GPa) = 0.01824466
#
# Stress axis : x y z
#
# Youngs Moduli (GPa) = 88.43619 75.16294 76.37664
#
# Poissons Ratio (x) = 0.33953 0.28357
# Poissons Ratio (y) = 0.39949 0.11458
# Poissons Ratio (z) = 0.32834 0.11276
#
# Static dielectric constant tensor:
#      x y z
#    x 3.204390 0.000000 0.000000 
#    y 0.000000 3.121510 0.000000 
#    z 0.000000 0.000000 3.234960 
# 
# 
# High freq. dielectric constant tensor:
#      x y z
#    x 1.617490 0.000000 0.000000 
#    y 0.000000 1.601270 0.000000 
#    z 0.000000 0.000000 1.653000 
# 
# From -- ./inp_files/5239.got.cif
#   From: 2010.03.12/outbox.cif.g09.slc.cpg/sg56_3_cif.got.tgz:5239.got - 2010.04.16 15:33:40.
