data_PCOD8228689
_publ_section_title
;
Structure prediction by ZEFSAII (Michael W. Deem and Ramdas Pophale) SiO2 
 PCOD8228689
Probable space group: P C C N
;
_chemical_formula_sum "Si O2"
_cell_formula_units_Z 52
_cell_length_a 9.056906
_cell_length_b 14.601149
_cell_length_c 20.210926
_cell_angle_alpha 90.000000
_cell_angle_beta 90.000000
_cell_angle_gamma 90.000000
_cell_volume 2672.717794
_symmetry_space_group_name_H-M "P C C N"
_symmetry_group_IT_number 56
_symmetry_cell_setting 'orthorhombic'
loop_
_space_group_symop_operation_xyz
x,y,z
1/2-x,1/2-y,z
1/2+x,-y,1/2-z
-x,1/2+y,1/2-z
-x,-y,-z
1/2+x,1/2+y,-z
1/2-x,y,1/2+z
x,1/2-y,1/2+z
loop_
_atom_site_type_symbol
_atom_site_label
_atom_site_fract_x
_atom_site_fract_y
_atom_site_fract_z
Si Si1 0.675966 0.947951 0.939583
Si Si2 0.463660 0.286774 0.183880
Si Si3 0.750000 0.250000 0.118566
Si Si4 0.750000 0.750000 0.708950
Si Si5 0.133120 0.485428 0.689560
Si Si6 0.333379 0.559777 0.430298
Si Si7 0.250000 0.250000 0.570037
Si Si8 0.816511 0.552658 0.683945
O O1 0.776382 0.982055 0.878896
O O2 0.507161 0.946785 0.913964
O O3 0.723017 0.846510 0.968530
O O4 0.699340 0.021049 0.997126
O O5 0.629744 0.260094 0.175252
O O6 0.390465 0.230483 0.243487
O O7 0.452386 0.392065 0.201809
O O8 0.393290 0.261807 0.114046
O O9 0.777004 0.335691 0.070278
O O10 0.749033 0.654956 0.668534
O O11 0.248208 0.495678 0.750315
O O12 0.996987 0.558189 0.687887
O O13 0.234469 0.506011 0.378160
#
# Coordination Sequence:
#
# PCOD8228689 Si02
#       8
#     8   8   4   4   8   8   4   8
#     4  10  22  41  60  87 121 165 196 250 301 363
#     4   9  18  33  57  84 112 154 200 239 283 357
#     4  12  20  36  58  90 114 158 206 252 286 360
#     4   9  22  37  56  86 128 158 192 246 318 358
#     4  10  21  37  61  88 119 154 202 245 300 354
#     4  11  24  39  61  88 125 156 205 250 306 354
#     4   9  16  35  60  80 110 158 198 232 292 354
#     4  11  22  38  60  93 120 160 200 256 298 368
#
# _framework density 19.455853000000001
#
# number of rings (size 3 to 8) (size 9 to 14) (size 15 to 20)
#    0.000    1.846    3.077    1.846    2.154    1.231 
#    0.000    3.077    0.000    0.923    0.000    0.000 
#    0.000    0.000    0.000    0.000    0.000    0.000 
#
# Total GULP energy -644251.273185 kJ/mol
# GULP energy per Si atom -12389.447561 kJ/mol
# Density = 1.941157 g / cm^3
# Si number density = 19.455853 Si / 1000 Ang^3
#
#
#
# Elastic Constant Matrix: (Units=GPa)
#
#
# Indices 1 2 3 4 5 6 
#
# 1 128.0460 33.7010 40.8953 0.0000 0.0000 0.0000
# 2 33.7010 99.8320 40.9685 0.0000 0.0000 0.0000
# 3 40.8953 40.9685 72.7194 0.0000 0.0000 0.0000
# 4 0.0000 0.0000 0.0000 19.2643 0.0000 0.0000
# 5 0.0000 0.0000 0.0000 0.0000 31.3121 0.0000
# 6 0.0000 0.0000 0.0000 0.0000 0.0000 29.6008
#
#
#
# Elastic Compliance Matrix: (Units=1/GPa)
#
#
# Indices 1 2 3 4 5 6 
#
# 1 0.009656 -0.001341 -0.004674 0.000000 0.000000 0.000000
# 2 -0.001341 0.013215 -0.006691 0.000000 0.000000 0.000000
# 3 -0.004674 -0.006691 0.020150 0.000000 0.000000 0.000000
# 4 0.000000 0.000000 0.000000 0.051909 0.000000 0.000000
# 5 0.000000 0.000000 0.000000 0.000000 0.031937 0.000000
# 6 0.000000 0.000000 0.000000 0.000000 0.000000 0.033783
#
#
# Mechanical properties :
#
#
# Convention : Reuss Voigt Hill
#
# Bulk Modulus (GPa) = 56.79389 59.08076 57.93732
# Shear Modulus (GPa) = 26.05087 28.37096 27.21091
#
# Velocity S-wave (km/s) = 3.66317 3.82281 3.74384
# Velocity P-wave (km/s) = 6.86631 7.06524 6.96649
#
# Compressibility (1/GPa) = 0.01760753
#
# Stress axis : x y z
#
# Youngs Moduli (GPa) = 103.56671 75.66917 49.62828
#
# Poissons Ratio (x) = 0.10149 0.23198
# Poissons Ratio (y) = 0.13891 0.33206
# Poissons Ratio (z) = 0.48411 0.50630
#
# Static dielectric constant tensor:
#      x y z
#    x 3.772570 0.000000 0.000000 
#    y 0.000000 3.799090 0.000000 
#    z 0.000000 0.000000 3.308130 
# 
# 
# High freq. dielectric constant tensor:
#      x y z
#    x 1.771550 0.000000 0.000000 
#    y 0.000000 1.761850 0.000000 
#    z 0.000000 0.000000 1.727920 
# 
# From -- ./inp_files/18176.got.cif
#   From: 2010.03.12/outbox.cif.g09.slc.cpg/sg56_10_cif.got.tgz:18176.got - 2010.04.16 15:33:40.
