data_PCOD8228526
_publ_section_title
;
Structure prediction by ZEFSAII (Michael W. Deem and Ramdas Pophale) SiO2 
 PCOD8228526
Probable space group: P C C N
;
_chemical_formula_sum "Si O2"
_cell_formula_units_Z 36
_cell_length_a 12.740321
_cell_length_b 5.353967
_cell_length_c 20.157517
_cell_angle_alpha 90.000000
_cell_angle_beta 90.000000
_cell_angle_gamma 90.000000
_cell_volume 1374.969597
_symmetry_space_group_name_H-M "P C C N"
_symmetry_group_IT_number 56
_symmetry_cell_setting 'orthorhombic'
loop_
_space_group_symop_operation_xyz
x,y,z
1/2-x,1/2-y,z
1/2+x,-y,1/2-z
-x,1/2+y,1/2-z
-x,-y,-z
1/2+x,1/2+y,-z
1/2-x,y,1/2+z
x,1/2-y,1/2+z
loop_
_atom_site_type_symbol
_atom_site_label
_atom_site_fract_x
_atom_site_fract_y
_atom_site_fract_z
Si Si1 0.250000 0.250000 0.621458
Si Si2 0.099470 0.904523 0.800091
Si Si3 0.125608 0.032841 0.505005
Si Si4 0.901192 0.466963 0.548004
Si Si5 0.367567 0.406867 0.242249
O O1 0.328838 0.425443 0.578948
O O2 0.179417 0.430033 0.668023
O O3 0.163782 0.647300 0.786971
O O4 0.993627 0.895435 0.757385
O O5 0.066582 0.933792 0.876281
O O6 0.170316 0.140394 0.774862
O O7 0.168927 0.771798 0.474987
O O8 0.163694 0.275750 0.462315
O O9 0.000000 0.000000 0.500000
O O10 0.000000 0.500000 0.500000
#
# Coordination Sequence:
#
# PCOD8228526 Si02
#       5
#     4   8   8   8   8
#     4  12  26  46  70 104 138 184 250 296 366 442
#     4  10  21  42  65  94 132 178 228 275 354 419
#     4  10  23  40  66  99 136 180 229 297 362 429
#     4  10  20  39  66  96 134 178 222 284 355 425
#     4  10  23  39  66  95 130 178 226 288 337 424
#
# _framework density 26.182396000000001
#
# number of rings (size 3 to 8) (size 9 to 14) (size 15 to 20)
#    0.000    1.778    0.000    4.000    0.000   14.222 
#    0.000    6.667    0.000    0.000    0.000    0.000 
#    0.000    0.000    0.000    0.000    0.000    0.000 
#
# Total GULP energy -446115.670655 kJ/mol
# GULP energy per Si atom -12392.101963 kJ/mol
# Density = 2.612280 g / cm^3
# Si number density = 26.182396 Si / 1000 Ang^3
#
#
#
# Elastic Constant Matrix: (Units=GPa)
#
#
# Indices 1 2 3 4 5 6 
#
# 1 79.0343 37.5800 23.0805 0.0000 0.0000 0.0000
# 2 37.5800 297.9379 93.5970 0.0000 0.0000 0.0000
# 3 23.0805 93.5970 168.8218 0.0000 0.0000 0.0000
# 4 0.0000 0.0000 0.0000 43.3715 0.0000 0.0000
# 5 0.0000 0.0000 0.0000 0.0000 53.3799 0.0000
# 6 0.0000 0.0000 0.0000 0.0000 0.0000 -2.7511
#
#
#
# Elastic Compliance Matrix: (Units=1/GPa)
#
#
# Indices 1 2 3 4 5 6 
#
# 1 0.013627 -0.001373 -0.001102 0.000000 0.000000 0.000000
# 2 -0.001373 0.004203 -0.002142 0.000000 0.000000 0.000000
# 3 -0.001102 -0.002142 0.007262 0.000000 0.000000 0.000000
# 4 0.000000 0.000000 0.000000 0.023057 0.000000 0.000000
# 5 0.000000 0.000000 0.000000 0.000000 0.018734 0.000000
# 6 0.000000 0.000000 0.000000 0.000000 0.000000 -0.363486
#
#
# Mechanical properties :
#
#
# Convention : Reuss Voigt Hill
#
# Bulk Modulus (GPa) = 63.06114 94.92324 78.99219
# Shear Modulus (GPa) = -17.72517 44.90249 13.58866
#
# Velocity S-wave (km/s) = -2.60472 4.14573 2.28063
# Velocity P-wave (km/s) = 3.88478 7.69737 6.09676
#
# Compressibility (1/GPa) = 0.01585763
#
# Stress axis : x y z
#
# Youngs Moduli (GPa) = 73.38240 237.95149 137.70731
#
# Poissons Ratio (x) = 0.32662 0.15176
# Poissons Ratio (y) = 0.10073 0.29501
# Poissons Ratio (z) = 0.08087 0.50976
#
# Static dielectric constant tensor:
#      x y z
#    x 4.686150 0.000000 0.000000 
#    y 0.000000 5.212950 0.000000 
#    z 0.000000 0.000000 4.287500 
# 
# 
# High freq. dielectric constant tensor:
#      x y z
#    x 2.082120 0.000000 0.000000 
#    y 0.000000 2.075190 0.000000 
#    z 0.000000 0.000000 2.019250 
# 
# From -- ./inp_files/18929.got.cif
#   From: 2010.03.12/outbox.cif.g09.slc.cpg/sg56_10_cif.got.tgz:18929.got - 2010.04.16 15:33:40.
