data_PCOD8228086
_publ_section_title
;
Structure prediction by ZEFSAII (Michael W. Deem and Ramdas Pophale) SiO2 
 PCOD8228086
Probable space group: P C C N
;
_chemical_formula_sum "Si O2"
_cell_formula_units_Z 56
_cell_length_a 21.139195
_cell_length_b 5.558191
_cell_length_c 24.301918
_cell_angle_alpha 90.000000
_cell_angle_beta 90.000000
_cell_angle_gamma 90.000000
_cell_volume 2855.370463
_symmetry_space_group_name_H-M "P C C N"
_symmetry_group_IT_number 56
_symmetry_cell_setting 'orthorhombic'
loop_
_space_group_symop_operation_xyz
x,y,z
1/2-x,1/2-y,z
1/2+x,-y,1/2-z
-x,1/2+y,1/2-z
-x,-y,-z
1/2+x,1/2+y,-z
1/2-x,y,1/2+z
x,1/2-y,1/2+z
loop_
_atom_site_type_symbol
_atom_site_label
_atom_site_fract_x
_atom_site_fract_y
_atom_site_fract_z
Si Si1 0.528878 0.580329 0.683332
Si Si2 0.217141 0.998873 0.697486
Si Si3 0.219031 0.499018 0.067206
Si Si4 0.088530 0.634220 0.035988
Si Si5 0.945610 0.036222 0.872808
Si Si6 0.587912 0.797743 0.781643
Si Si7 0.530970 0.163656 0.075751
O O1 0.586404 0.658204 0.723212
O O2 0.484473 0.385335 0.713216
O O3 0.561821 0.473485 0.628130
O O4 0.477823 0.782684 0.669173
O O5 0.250000 0.250000 0.717907
O O6 0.144182 0.005429 0.719274
O O7 0.250000 0.750000 0.720067
O O8 0.216774 0.988718 0.632436
O O9 0.250000 0.750000 0.044751
O O10 0.149655 0.469319 0.041052
O O11 0.250000 0.250000 0.046681
O O12 0.026417 0.495411 0.053911
O O13 0.098733 0.852117 0.079500
O O14 0.081465 0.716500 0.972390
O O15 0.899642 0.867850 0.835871
O O16 0.003974 0.915257 0.904275
#
# Coordination Sequence:
#
# PCOD8228086 Si02
#       7
#     8   8   8   8   8   8   8
#     4  10  20  34  54  86 113 151 191 248 303 356
#     4  10  23  37  56  84 120 159 197 244 300 364
#     4  10  22  37  56  84 117 152 196 241 295 355
#     4  10  20  35  57  83 117 150 189 240 298 359
#     4  10  19  32  56  86 115 151 187 243 300 369
#     4  11  21  34  57  84 119 154 202 249 304 366
#     4   9  20  35  54  86 115 148 190 238 301 358
#
# _framework density 19.612164
#
# number of rings (size 3 to 8) (size 9 to 14) (size 15 to 20)
#    0.000    2.000    1.429    3.000   10.000    0.000 
#    0.000    0.000    0.000    0.857    0.000    0.000 
#    0.000    0.000    0.000    0.000    0.000    0.000 
#
# Total GULP energy -693948.831235 kJ/mol
# GULP energy per Si atom -12391.943415 kJ/mol
# Density = 1.956753 g / cm^3
# Si number density = 19.612164 Si / 1000 Ang^3
#
#
#
# Elastic Constant Matrix: (Units=GPa)
#
#
# Indices 1 2 3 4 5 6 
#
# 1 61.1304 35.0219 44.5272 0.0000 0.0000 0.0000
# 2 35.0219 97.9405 42.8025 0.0000 0.0000 0.0000
# 3 44.5272 42.8025 109.0998 0.0000 0.0000 0.0000
# 4 0.0000 0.0000 0.0000 19.6223 0.0000 0.0000
# 5 0.0000 0.0000 0.0000 0.0000 34.1913 0.0000
# 6 0.0000 0.0000 0.0000 0.0000 0.0000 24.1982
#
#
#
# Elastic Compliance Matrix: (Units=1/GPa)
#
#
# Indices 1 2 3 4 5 6 
#
# 1 0.025536 -0.005524 -0.008255 0.000000 0.000000 0.000000
# 2 -0.005524 0.013518 -0.003049 0.000000 0.000000 0.000000
# 3 -0.008255 -0.003049 0.013731 0.000000 0.000000 0.000000
# 4 0.000000 0.000000 0.000000 0.050962 0.000000 0.000000
# 5 0.000000 0.000000 0.000000 0.000000 0.029247 0.000000
# 6 0.000000 0.000000 0.000000 0.000000 0.000000 0.041325
#
#
# Mechanical properties :
#
#
# Convention : Reuss Voigt Hill
#
# Bulk Modulus (GPa) = 52.27437 56.98598 54.63017
# Shear Modulus (GPa) = 23.32612 25.32363 24.32487
#
# Velocity S-wave (km/s) = 3.45247 3.59725 3.52560
# Velocity P-wave (km/s) = 6.52722 6.80979 6.67000
#
# Compressibility (1/GPa) = 0.01912983
#
# Stress axis : x y z
#
# Youngs Moduli (GPa) = 39.16058 73.97583 72.82645
#
# Poissons Ratio (x) = 0.40861 0.60118
# Poissons Ratio (y) = 0.21631 0.22205
# Poissons Ratio (z) = 0.32327 0.22556
#
# Static dielectric constant tensor:
#      x y z
#    x 3.277110 0.000000 0.000000 
#    y 0.000000 3.936580 0.000000 
#    z 0.000000 0.000000 3.716530 
# 
# 
# High freq. dielectric constant tensor:
#      x y z
#    x 1.729120 0.000000 0.000000 
#    y 0.000000 1.775360 0.000000 
#    z 0.000000 0.000000 1.745440 
# 
# From -- ./inp_files/20133.got.cif
#   From: 2010.03.12/outbox.cif.g09.slc.cpg/sg56_11_cif.got.tgz:20133.got - 2010.04.16 15:33:40.
