data_PCOD8228338
_publ_section_title
;
Structure prediction by ZEFSAII (Michael W. Deem and Ramdas Pophale) SiO2 
 PCOD8228338
Probable space group: P C C N
;
_chemical_formula_sum "Si O2"
_cell_formula_units_Z 48
_cell_length_a 7.929011
_cell_length_b 15.103218
_cell_length_c 18.527599
_cell_angle_alpha 90.000000
_cell_angle_beta 90.000000
_cell_angle_gamma 90.000000
_cell_volume 2218.746340
_symmetry_space_group_name_H-M "P C C N"
_symmetry_group_IT_number 56
_symmetry_cell_setting 'orthorhombic'
loop_
_space_group_symop_operation_xyz
x,y,z
1/2-x,1/2-y,z
1/2+x,-y,1/2-z
-x,1/2+y,1/2-z
-x,-y,-z
1/2+x,1/2+y,-z
1/2-x,y,1/2+z
x,1/2-y,1/2+z
loop_
_atom_site_type_symbol
_atom_site_label
_atom_site_fract_x
_atom_site_fract_y
_atom_site_fract_z
Si Si1 0.146030 0.661635 0.167061
Si Si2 0.441038 0.552518 0.227649
Si Si3 0.244759 0.994659 0.860097
Si Si4 0.052391 0.090980 0.464301
Si Si5 0.440147 0.264522 0.721317
Si Si6 0.617396 0.314869 0.580660
O O1 0.250000 0.750000 0.152672
O O2 0.260144 0.582122 0.197458
O O3 0.084156 0.625957 0.091451
O O4 0.999526 0.687418 0.224106
O O5 0.553827 0.496823 0.170731
O O6 0.392272 0.494583 0.298550
O O7 0.553245 0.638124 0.244326
O O8 0.275430 0.901477 0.898431
O O9 0.273132 0.074023 0.919712
O O10 0.045501 0.162764 0.529540
O O11 0.000000 0.000000 0.500000
O O12 0.250000 0.250000 0.697737
O O13 0.556564 0.262077 0.650936
O O14 0.750000 0.250000 0.540452
#
# Coordination Sequence:
#
# PCOD8228338 Si02
#       6
#     8   8   8   8   8   8
#     4  10  20  37  61  87 115 153 197 244 294 351
#     4  10  20  35  60  90 117 150 199 252 296 350
#     4  10  20  35  58  84 115 152 195 246 299 352
#     4  10  21  38  57  82 120 159 194 241 300 358
#     4  10  20  36  61  90 118 152 199 250 298 354
#     4  10  21  39  57  81 118 160 199 245 301 357
#
# _framework density 21.633838999999998
#
# number of rings (size 3 to 8) (size 9 to 14) (size 15 to 20)
#    0.000    2.000    0.000    5.000    0.000    1.333 
#    0.000    9.167    0.000    0.000    0.000    0.000 
#    0.000    0.000    0.000    0.000    0.000    0.000 
#
# Total GULP energy -594747.624941 kJ/mol
# GULP energy per Si atom -12390.575520 kJ/mol
# Density = 2.158460 g / cm^3
# Si number density = 21.633839 Si / 1000 Ang^3
#
#
#
# Elastic Constant Matrix: (Units=GPa)
#
#
# Indices 1 2 3 4 5 6 
#
# 1 84.3714 32.1620 22.5266 0.0000 0.0000 0.0000
# 2 32.1620 60.1015 45.7289 0.0000 0.0000 0.0000
# 3 22.5266 45.7289 106.5785 0.0000 0.0000 0.0000
# 4 0.0000 0.0000 0.0000 29.3039 0.0000 0.0000
# 5 0.0000 0.0000 0.0000 0.0000 15.9009 0.0000
# 6 0.0000 0.0000 0.0000 0.0000 0.0000 18.6944
#
#
#
# Elastic Compliance Matrix: (Units=1/GPa)
#
#
# Indices 1 2 3 4 5 6 
#
# 1 0.014901 -0.008281 0.000404 0.000000 0.000000 0.000000
# 2 -0.008281 0.029305 -0.010823 0.000000 0.000000 0.000000
# 3 0.000404 -0.010823 0.013941 0.000000 0.000000 0.000000
# 4 0.000000 0.000000 0.000000 0.034125 0.000000 0.000000
# 5 0.000000 0.000000 0.000000 0.000000 0.062889 0.000000
# 6 0.000000 0.000000 0.000000 0.000000 0.000000 0.053492
#
#
# Mechanical properties :
#
#
# Convention : Reuss Voigt Hill
#
# Bulk Modulus (GPa) = 48.20254 50.20960 49.20607
# Shear Modulus (GPa) = 19.76503 22.82210 21.29356
#
# Velocity S-wave (km/s) = 3.02589 3.25149 3.14071
# Velocity P-wave (km/s) = 5.87686 6.11191 5.99553
#
# Compressibility (1/GPa) = 0.02074579
#
# Stress axis : x y z
#
# Youngs Moduli (GPa) = 67.10796 34.12367 71.72880
#
# Poissons Ratio (x) = 0.28259 -0.02895
# Poissons Ratio (y) = 0.55574 0.77635
# Poissons Ratio (z) = -0.02708 0.36934
#
# Static dielectric constant tensor:
#      x y z
#    x 3.631920 0.000000 0.000000 
#    y 0.000000 3.960420 0.000000 
#    z 0.000000 0.000000 4.176480 
# 
# 
# High freq. dielectric constant tensor:
#      x y z
#    x 1.827670 0.000000 0.000000 
#    y 0.000000 1.854990 0.000000 
#    z 0.000000 0.000000 1.850910 
# 
# From -- ./inp_files/14792.got.cif
#   From: 2010.03.12/outbox.cif.g09.slc.cpg/sg56_8_cif.got.tgz:14792.got - 2010.04.16 15:33:40.
