data_PCOD8228585
_publ_section_title
;
Structure prediction by ZEFSAII (Michael W. Deem and Ramdas Pophale) SiO2 
 PCOD8228585
Probable space group: P C C N
;
_chemical_formula_sum "Si O2"
_cell_formula_units_Z 64
_cell_length_a 13.997928
_cell_length_b 12.447719
_cell_length_c 17.125856
_cell_angle_alpha 90.000000
_cell_angle_beta 90.000000
_cell_angle_gamma 90.000000
_cell_volume 2984.048099
_symmetry_space_group_name_H-M "P C C N"
_symmetry_group_IT_number 56
_symmetry_cell_setting 'orthorhombic'
loop_
_space_group_symop_operation_xyz
x,y,z
1/2-x,1/2-y,z
1/2+x,-y,1/2-z
-x,1/2+y,1/2-z
-x,-y,-z
1/2+x,1/2+y,-z
1/2-x,y,1/2+z
x,1/2-y,1/2+z
loop_
_atom_site_type_symbol
_atom_site_label
_atom_site_fract_x
_atom_site_fract_y
_atom_site_fract_z
Si Si1 0.259466 0.633825 0.121271
Si Si2 0.281224 0.999823 0.265577
Si Si3 0.426381 0.068696 0.750778
Si Si4 0.096189 0.620594 0.014382
Si Si5 0.455202 0.851747 0.546581
Si Si6 0.481835 0.059315 0.118198
Si Si7 0.350531 0.211642 0.206814
Si Si8 0.436086 0.966369 0.386619
O O1 0.250000 0.750000 0.162543
O O2 0.203617 0.552762 0.179666
O O3 0.206443 0.639588 0.036773
O O4 0.369143 0.606542 0.102961
O O5 0.166771 0.998353 0.273215
O O6 0.324504 0.119054 0.267983
O O7 0.338434 0.944924 0.337111
O O8 0.401750 0.195001 0.757206
O O9 0.469164 0.054001 0.664826
O O10 0.504469 0.023914 0.810716
O O11 0.034583 0.722102 0.048741
O O12 0.070820 0.506196 0.051488
O O13 0.079024 0.607466 0.921166
O O14 0.433542 0.882782 0.457176
O O15 0.550682 0.912193 0.578001
O O16 0.420692 0.164057 0.141580
O O17 0.250000 0.250000 0.167333
#
# Coordination Sequence:
#
# PCOD8228585 Si02
#       8
#     8   8   8   8   8   8   8   8
#     4  10  20  41  64  93 130 173 211 278 333 401
#     4  11  22  42  62  97 127 173 224 276 328 402
#     4  11  23  39  66  94 129 169 221 277 336 396
#     4  10  22  39  63  91 132 167 221 268 336 396
#     4  10  23  40  64  94 130 176 219 271 341 402
#     4  11  22  40  65  94 128 176 218 278 334 401
#     4  10  22  40  65  92 132 171 219 273 337 400
#     4  11  22  41  66  93 133 173 223 275 333 412
#
# _framework density 21.447375999999998
#
# number of rings (size 3 to 8) (size 9 to 14) (size 15 to 20)
#    0.000    1.500    3.750    0.750    3.500    0.000 
#    4.500    0.000    0.000    0.000    0.000    0.000 
#    0.000    0.000    0.000    0.000    0.000    0.000 
#
# Total GULP energy -792840.991821 kJ/mol
# GULP energy per Si atom -12388.140497 kJ/mol
# Density = 2.139856 g / cm^3
# Si number density = 21.447376 Si / 1000 Ang^3
#
#
#
# Elastic Constant Matrix: (Units=GPa)
#
#
# Indices 1 2 3 4 5 6 
#
# 1 80.9496 25.0249 36.5177 0.0000 0.0000 0.0000
# 2 25.0249 93.3466 28.0590 0.0000 0.0000 0.0000
# 3 36.5177 28.0590 99.8853 0.0000 0.0000 0.0000
# 4 0.0000 0.0000 0.0000 25.1261 0.0000 0.0000
# 5 0.0000 0.0000 0.0000 0.0000 38.7174 0.0000
# 6 0.0000 0.0000 0.0000 0.0000 0.0000 32.1648
#
#
#
# Elastic Compliance Matrix: (Units=1/GPa)
#
#
# Indices 1 2 3 4 5 6 
#
# 1 0.015373 -0.002656 -0.004874 0.000000 0.000000 0.000000
# 2 -0.002656 0.012160 -0.002445 0.000000 0.000000 0.000000
# 3 -0.004874 -0.002445 0.012480 0.000000 0.000000 0.000000
# 4 0.000000 0.000000 0.000000 0.039799 0.000000 0.000000
# 5 0.000000 0.000000 0.000000 0.000000 0.025828 0.000000
# 6 0.000000 0.000000 0.000000 0.000000 0.000000 0.031090
#
#
# Mechanical properties :
#
#
# Convention : Reuss Voigt Hill
#
# Bulk Modulus (GPa) = 49.84318 50.37605 50.10962
# Shear Modulus (GPa) = 30.60561 31.50699 31.05630
#
# Velocity S-wave (km/s) = 3.78168 3.83696 3.80942
# Velocity P-wave (km/s) = 6.50833 6.57030 6.53939
#
# Compressibility (1/GPa) = 0.02006292
#
# Stress axis : x y z
#
# Youngs Moduli (GPa) = 65.04754 82.23877 80.12667
#
# Poissons Ratio (x) = 0.21844 0.39056
# Poissons Ratio (y) = 0.17278 0.19589
# Poissons Ratio (z) = 0.31706 0.20105
#
# Static dielectric constant tensor:
#      x y z
#    x 3.883040 0.000000 0.000000 
#    y 0.000000 3.976960 0.000000 
#    z 0.000000 0.000000 3.723150 
# 
# 
# High freq. dielectric constant tensor:
#      x y z
#    x 1.836360 0.000000 0.000000 
#    y 0.000000 1.847160 0.000000 
#    z 0.000000 0.000000 1.824230 
# 
# From -- ./inp_files/16342.got.cif
#   From: 2010.03.12/outbox.cif.g09.slc.cpg/sg56_9_cif.got.tgz:16342.got - 2010.04.16 15:33:40.
