data_PCOD8228515
_publ_section_title
;
Structure prediction by ZEFSAII (Michael W. Deem and Ramdas Pophale) SiO2 
 PCOD8228515
Probable space group: P C C N
;
_chemical_formula_sum "Si O2"
_cell_formula_units_Z 48
_cell_length_a 13.277072
_cell_length_b 13.299005
_cell_length_c 14.438785
_cell_angle_alpha 90.000000
_cell_angle_beta 90.000000
_cell_angle_gamma 90.000000
_cell_volume 2549.482935
_symmetry_space_group_name_H-M "P C C N"
_symmetry_group_IT_number 56
_symmetry_cell_setting 'orthorhombic'
loop_
_space_group_symop_operation_xyz
x,y,z
1/2-x,1/2-y,z
1/2+x,-y,1/2-z
-x,1/2+y,1/2-z
-x,-y,-z
1/2+x,1/2+y,-z
1/2-x,y,1/2+z
x,1/2-y,1/2+z
loop_
_atom_site_type_symbol
_atom_site_label
_atom_site_fract_x
_atom_site_fract_y
_atom_site_fract_z
Si Si1 0.996363 0.849265 0.059349
Si Si2 0.235502 0.908489 0.768693
Si Si3 0.253031 0.414708 0.626947
Si Si4 0.844539 0.477268 0.540023
Si Si5 0.415234 0.734915 0.241207
Si Si6 0.911003 0.747314 0.385665
O O1 0.018097 0.786269 0.151132
O O2 0.100175 0.887562 0.014486
O O3 0.925921 0.944972 0.081939
O O4 0.938512 0.773582 0.991876
O O5 0.217586 0.929727 0.876482
O O6 0.151317 0.834493 0.726540
O O7 0.345692 0.860696 0.761746
O O8 0.233426 0.010669 0.711900
O O9 0.233182 0.470938 0.530300
O O10 0.160817 0.341181 0.652116
O O11 0.356706 0.354340 0.617355
O O12 0.487994 0.752779 0.327018
#
# Coordination Sequence:
#
# PCOD8228515 Si02
#       6
#     8   8   8   8   8   8
#     4  10  20  39  63  83 117 163 200 242 299 352
#     4  11  23  38  59  91 124 161 197 244 298 359
#     4  10  22  40  62  90 120 154 203 254 296 352
#     4  10  20  39  63  83 117 163 200 242 299 352
#     4  11  23  38  59  91 124 161 197 244 298 359
#     4  10  22  40  62  90 120 154 203 254 296 352
#
# _framework density 18.827345999999999
#
# number of rings (size 3 to 8) (size 9 to 14) (size 15 to 20)
#    0.000    1.667    3.333    1.000    0.000    4.000 
#    0.000    5.000    0.000    0.000    0.000    0.000 
#    0.000    0.000    0.000    0.000    0.000    0.000 
#
# Total GULP energy -595470.207784 kJ/mol
# GULP energy per Si atom -12405.629329 kJ/mol
# Density = 1.878449 g / cm^3
# Si number density = 18.827346 Si / 1000 Ang^3
#
#
#
# Elastic Constant Matrix: (Units=GPa)
#
#
# Indices 1 2 3 4 5 6 
#
# 1 71.2642 17.8702 9.3798 0.0000 0.0000 0.0000
# 2 17.8702 76.2288 15.1515 0.0000 0.0000 0.0000
# 3 9.3798 15.1515 63.8576 0.0000 0.0000 0.0000
# 4 0.0000 0.0000 0.0000 32.6760 0.0000 0.0000
# 5 0.0000 0.0000 0.0000 0.0000 29.3293 0.0000
# 6 0.0000 0.0000 0.0000 0.0000 0.0000 24.9584
#
#
#
# Elastic Compliance Matrix: (Units=1/GPa)
#
#
# Indices 1 2 3 4 5 6 
#
# 1 0.015034 -0.003238 -0.001440 0.000000 0.000000 0.000000
# 2 -0.003238 0.014465 -0.002957 0.000000 0.000000 0.000000
# 3 -0.001440 -0.002957 0.016573 0.000000 0.000000 0.000000
# 4 0.000000 0.000000 0.000000 0.030604 0.000000 0.000000
# 5 0.000000 0.000000 0.000000 0.000000 0.034096 0.000000
# 6 0.000000 0.000000 0.000000 0.000000 0.000000 0.040067
#
#
# Mechanical properties :
#
#
# Convention : Reuss Voigt Hill
#
# Bulk Modulus (GPa) = 32.46476 32.90593 32.68534
# Shear Modulus (GPa) = 28.34879 28.65600 28.50239
#
# Velocity S-wave (km/s) = 3.88458 3.90557 3.89509
# Velocity P-wave (km/s) = 6.11561 6.15253 6.13410
#
# Compressibility (1/GPa) = 0.03080263
#
# Stress axis : x y z
#
# Youngs Moduli (GPa) = 66.51670 69.13162 60.33972
#
# Poissons Ratio (x) = 0.22386 0.08689
# Poissons Ratio (y) = 0.21539 0.17839
# Poissons Ratio (z) = 0.09578 0.20439
#
# Static dielectric constant tensor:
#      x y z
#    x 3.497730 0.000000 0.000000 
#    y 0.000000 3.526500 0.000000 
#    z 0.000000 0.000000 3.351370 
# 
# 
# High freq. dielectric constant tensor:
#      x y z
#    x 1.735990 0.000000 0.000000 
#    y 0.000000 1.736970 0.000000 
#    z 0.000000 0.000000 1.731590 
# 
# From -- ./inp_files/12210.got.cif
#   From: 2010.03.12/outbox.cif.g09.slc.cpg/sg56_7_cif.got.tgz:12210.got - 2010.04.16 15:33:40.
