data_PCOD8228423
_publ_section_title
;
Structure prediction by ZEFSAII (Michael W. Deem and Ramdas Pophale) SiO2 
 PCOD8228423
Probable space group: P C C N
;
_chemical_formula_sum "Si O2"
_cell_formula_units_Z 60
_cell_length_a 10.559495
_cell_length_b 13.853480
_cell_length_c 19.965014
_cell_angle_alpha 90.000000
_cell_angle_beta 90.000000
_cell_angle_gamma 90.000000
_cell_volume 2920.597103
_symmetry_space_group_name_H-M "P C C N"
_symmetry_group_IT_number 56
_symmetry_cell_setting 'orthorhombic'
loop_
_space_group_symop_operation_xyz
x,y,z
1/2-x,1/2-y,z
1/2+x,-y,1/2-z
-x,1/2+y,1/2-z
-x,-y,-z
1/2+x,1/2+y,-z
1/2-x,y,1/2+z
x,1/2-y,1/2+z
loop_
_atom_site_type_symbol
_atom_site_label
_atom_site_fract_x
_atom_site_fract_y
_atom_site_fract_z
Si Si1 0.483237 0.338852 0.932449
Si Si2 0.917278 0.449772 0.101104
Si Si3 0.275085 0.936647 0.602534
Si Si4 0.750000 0.750000 0.351490
Si Si5 0.972292 0.369754 0.966623
Si Si6 0.143614 0.496765 0.356739
Si Si7 0.860127 0.558134 0.796131
Si Si8 0.929333 0.612507 0.423311
O O1 0.608504 0.362847 0.889032
O O2 0.461303 0.224701 0.935130
O O3 0.366344 0.398325 0.900823
O O4 0.505788 0.372745 0.008482
O O5 0.773663 0.447235 0.127457
O O6 0.935419 0.546304 0.057672
O O7 0.005146 0.443582 0.166266
O O8 0.955385 0.365109 0.047953
O O9 0.168203 0.882175 0.561526
O O10 0.226787 0.971979 0.674859
O O11 0.318943 0.033482 0.563214
O O12 0.702769 0.663188 0.304508
O O13 0.864880 0.711527 0.397942
O O14 0.126477 0.463664 0.281084
O O15 0.029162 0.571074 0.369811
#
# Coordination Sequence:
#
# PCOD8228423 Si02
#       8
#     8   8   8   4   8   8   8   8
#     4  11  21  35  63  95 123 154 216 267 311 371
#     4  10  22  39  62  89 126 172 204 260 323 380
#     4   9  19  37  59  84 120 168 197 254 318 376
#     4  10  22  42  66  90 124 164 212 258 316 376
#     4  10  20  37  61  91 124 156 211 266 322 366
#     4  11  24  39  62  91 127 169 210 256 319 390
#     4  10  23  40  62  86 128 169 209 252 313 382
#     4  10  21  39  64  91 119 162 207 263 318 378
#
# _framework density 20.543745000000001
#
# number of rings (size 3 to 8) (size 9 to 14) (size 15 to 20)
#    0.000    1.867    0.000    4.400    5.600    4.800 
#    2.400    2.000    0.000    0.000    0.000    0.000 
#    0.000    0.000    0.000    0.000    0.000    0.000 
#
# Total GULP energy -743801.227788 kJ/mol
# GULP energy per Si atom -12396.687130 kJ/mol
# Density = 2.049699 g / cm^3
# Si number density = 20.543745 Si / 1000 Ang^3
#
#
#
# Elastic Constant Matrix: (Units=GPa)
#
#
# Indices 1 2 3 4 5 6 
#
# 1 96.3304 27.1126 44.3374 0.0000 0.0000 0.0000
# 2 27.1126 86.0461 44.2203 0.0000 0.0000 0.0000
# 3 44.3374 44.2203 132.8557 0.0000 0.0000 0.0000
# 4 0.0000 0.0000 0.0000 28.3193 0.0000 0.0000
# 5 0.0000 0.0000 0.0000 0.0000 24.9162 0.0000
# 6 0.0000 0.0000 0.0000 0.0000 0.0000 21.1546
#
#
#
# Elastic Compliance Matrix: (Units=1/GPa)
#
#
# Indices 1 2 3 4 5 6 
#
# 1 0.012595 -0.002182 -0.003477 0.000000 0.000000 0.000000
# 2 -0.002182 0.014398 -0.004064 0.000000 0.000000 0.000000
# 3 -0.003477 -0.004064 0.010040 0.000000 0.000000 0.000000
# 4 0.000000 0.000000 0.000000 0.035312 0.000000 0.000000
# 5 0.000000 0.000000 0.000000 0.000000 0.040135 0.000000
# 6 0.000000 0.000000 0.000000 0.000000 0.000000 0.047271
#
#
# Mechanical properties :
#
#
# Convention : Reuss Voigt Hill
#
# Bulk Modulus (GPa) = 56.85977 60.73030 58.79504
# Shear Modulus (GPa) = 27.01839 28.18214 27.60026
#
# Velocity S-wave (km/s) = 3.63045 3.70782 3.66934
# Velocity P-wave (km/s) = 6.73135 6.92504 6.82888
#
# Compressibility (1/GPa) = 0.01758713
#
# Stress axis : x y z
#
# Youngs Moduli (GPa) = 79.39369 69.45536 99.60033
#
# Poissons Ratio (x) = 0.15153 0.34634
# Poissons Ratio (y) = 0.17322 0.40479
# Poissons Ratio (z) = 0.27607 0.28227
#
# Static dielectric constant tensor:
#      x y z
#    x 3.721810 0.000000 0.000000 
#    y 0.000000 3.755060 0.000000 
#    z 0.000000 0.000000 3.568240 
# 
# 
# High freq. dielectric constant tensor:
#      x y z
#    x 1.808670 0.000000 0.000000 
#    y 0.000000 1.798610 0.000000 
#    z 0.000000 0.000000 1.790880 
# 
# From -- ./inp_files/15765.got.cif
#   From: 2010.03.12/outbox.cif.g09.slc.cpg/sg56_8_cif.got.tgz:15765.got - 2010.04.16 15:33:40.
