data_PCOD8228438
_publ_section_title
;
Structure prediction by ZEFSAII (Michael W. Deem and Ramdas Pophale) SiO2 
 PCOD8228438
Probable space group: P C C N
;
_chemical_formula_sum "Si O2"
_cell_formula_units_Z 64
_cell_length_a 19.271587
_cell_length_b 8.594159
_cell_length_c 19.024066
_cell_angle_alpha 90.000000
_cell_angle_beta 90.000000
_cell_angle_gamma 90.000000
_cell_volume 3150.824459
_symmetry_space_group_name_H-M "P C C N"
_symmetry_group_IT_number 56
_symmetry_cell_setting 'orthorhombic'
loop_
_space_group_symop_operation_xyz
x,y,z
1/2-x,1/2-y,z
1/2+x,-y,1/2-z
-x,1/2+y,1/2-z
-x,-y,-z
1/2+x,1/2+y,-z
1/2-x,y,1/2+z
x,1/2-y,1/2+z
loop_
_atom_site_type_symbol
_atom_site_label
_atom_site_fract_x
_atom_site_fract_y
_atom_site_fract_z
Si Si1 0.073346 0.752141 0.331202
Si Si2 0.823221 0.334726 0.288801
Si Si3 0.180895 0.347069 0.635075
Si Si4 0.440055 0.815350 0.128525
Si Si5 0.929694 0.859031 0.297507
Si Si6 0.102011 0.093760 0.003032
Si Si7 0.924330 0.610756 0.647024
Si Si8 0.041004 0.756767 0.980431
O O1 0.139960 0.809952 0.287339
O O2 0.066854 0.572734 0.349476
O O3 0.070168 0.828894 0.409719
O O4 0.006141 0.790861 0.285152
O O5 0.750000 0.250000 0.284555
O O6 0.813551 0.516081 0.307366
O O7 0.867169 0.264159 0.352558
O O8 0.250000 0.250000 0.640044
O O9 0.115558 0.236612 0.648602
O O10 0.168620 0.400367 0.554382
O O11 0.500949 0.691447 0.141139
O O12 0.443576 0.965552 0.177695
O O13 0.443449 0.860771 0.045649
O O14 0.890048 0.844824 0.221871
O O15 0.121335 0.149036 0.922657
O O16 0.079124 0.915600 0.001504
O O17 0.040296 0.205308 0.030917
#
# Coordination Sequence:
#
# PCOD8228438 Si02
#       8
#     8   8   8   8   8   8   8   8
#     4  11  22  38  67  94 130 161 217 274 325 381
#     4  12  25  43  64  91 124 173 218 268 330 396
#     4  12  26  44  65  91 131 178 217 264 324 402
#     4  11  21  37  65  96 132 165 212 264 320 390
#     4  12  22  37  63 102 131 170 212 263 326 383
#     4   9  18  37  66  92 123 165 210 262 325 380
#     4  10  20  37  66  97 126 161 210 269 321 373
#     4   9  18  37  65  98 124 159 208 274 321 372
#
# _framework density 20.312145000000001
#
# number of rings (size 3 to 8) (size 9 to 14) (size 15 to 20)
#    0.000    1.250    5.000    2.250    1.750    0.500 
#    0.000    1.250    2.750    0.000    0.000    0.000 
#    0.000    0.000    0.000    0.000    0.000    0.000 
#
# Total GULP energy -792965.175470 kJ/mol
# GULP energy per Si atom -12390.080867 kJ/mol
# Density = 2.026591 g / cm^3
# Si number density = 20.312145 Si / 1000 Ang^3
#
#
#
# Elastic Constant Matrix: (Units=GPa)
#
#
# Indices 1 2 3 4 5 6 
#
# 1 81.0377 43.7188 36.1761 0.0000 0.0000 0.0000
# 2 43.7188 73.6388 38.6653 0.0000 0.0000 0.0000
# 3 36.1761 38.6653 179.8540 0.0000 0.0000 0.0000
# 4 0.0000 0.0000 0.0000 25.7616 0.0000 0.0000
# 5 0.0000 0.0000 0.0000 0.0000 19.0416 0.0000
# 6 0.0000 0.0000 0.0000 0.0000 0.0000 22.3139
#
#
#
# Elastic Compliance Matrix: (Units=1/GPa)
#
#
# Indices 1 2 3 4 5 6 
#
# 1 0.018523 -0.010191 -0.001535 0.000000 0.000000 0.000000
# 2 -0.010191 0.020915 -0.002446 0.000000 0.000000 0.000000
# 3 -0.001535 -0.002446 0.006395 0.000000 0.000000 0.000000
# 4 0.000000 0.000000 0.000000 0.038817 0.000000 0.000000
# 5 0.000000 0.000000 0.000000 0.000000 0.052517 0.000000
# 6 0.000000 0.000000 0.000000 0.000000 0.000000 0.044815
#
#
# Mechanical properties :
#
#
# Convention : Reuss Voigt Hill
#
# Bulk Modulus (GPa) = 57.18292 63.51676 60.34984
# Shear Modulus (GPa) = 23.13147 27.82145 25.47646
#
# Velocity S-wave (km/s) = 3.37827 3.70495 3.54538
# Velocity P-wave (km/s) = 6.59016 7.04560 6.82168
#
# Compressibility (1/GPa) = 0.01748774
#
# Stress axis : x y z
#
# Youngs Moduli (GPa) = 53.98663 47.81321 156.37895
#
# Poissons Ratio (x) = 0.48727 0.24002
# Poissons Ratio (y) = 0.55018 0.38257
# Poissons Ratio (z) = 0.08286 0.11697
#
# Static dielectric constant tensor:
#      x y z
#    x 3.239330 0.000000 0.000000 
#    y 0.000000 3.644480 0.000000 
#    z 0.000000 0.000000 4.541850 
# 
# 
# High freq. dielectric constant tensor:
#      x y z
#    x 1.748040 0.000000 0.000000 
#    y 0.000000 1.787030 0.000000 
#    z 0.000000 0.000000 1.826170 
# 
# From -- ./inp_files/19329.got.cif
#   From: 2010.03.12/outbox.cif.g09.slc.cpg/sg56_10_cif.got.tgz:19329.got - 2010.04.16 15:33:40.
