data_PCOD8228949
_publ_section_title
;
Structure prediction by ZEFSAII (Michael W. Deem and Ramdas Pophale) SiO2 
 PCOD8228949
Probable space group: P C C N
;
_chemical_formula_sum "Si O2"
_cell_formula_units_Z 60
_cell_length_a 8.741719
_cell_length_b 23.859350
_cell_length_c 14.214661
_cell_angle_alpha 90.000000
_cell_angle_beta 90.000000
_cell_angle_gamma 90.000000
_cell_volume 2964.776482
_symmetry_space_group_name_H-M "P C C N"
_symmetry_group_IT_number 56
_symmetry_cell_setting 'orthorhombic'
loop_
_space_group_symop_operation_xyz
x,y,z
1/2-x,1/2-y,z
1/2+x,-y,1/2-z
-x,1/2+y,1/2-z
-x,-y,-z
1/2+x,1/2+y,-z
1/2-x,y,1/2+z
x,1/2-y,1/2+z
loop_
_atom_site_type_symbol
_atom_site_label
_atom_site_fract_x
_atom_site_fract_y
_atom_site_fract_z
Si Si1 0.919782 0.798706 0.150056
Si Si2 0.515543 0.064759 0.479921
Si Si3 0.872011 0.356467 0.648416
Si Si4 0.972556 0.309581 0.913633
Si Si5 0.243398 0.358632 0.498685
Si Si6 0.197123 0.187119 0.192267
Si Si7 0.750000 0.250000 0.044822
Si Si8 0.198034 0.874170 0.173822
O O1 0.871157 0.810361 0.042043
O O2 0.789118 0.827983 0.213333
O O3 0.933604 0.730471 0.162074
O O4 0.080296 0.823449 0.181629
O O5 0.584706 0.099214 0.567797
O O6 0.339315 0.084005 0.465146
O O7 0.619798 0.075279 0.386056
O O8 0.500000 0.000000 0.500000
O O9 0.777286 0.304901 0.606603
O O10 0.761051 0.389982 0.722154
O O11 0.016664 0.328263 0.702667
O O12 0.842954 0.349936 0.878751
O O13 0.086178 0.353710 0.960540
O O14 0.900537 0.262378 0.982358
O O15 0.255529 0.353872 0.610321
O O16 0.250000 0.250000 0.163221
#
# Coordination Sequence:
#
# PCOD8228949 Si02
#       8
#     8   8   8   8   8   8   4   8
#     4  11  21  35  54  89 133 172 195 245 321 392
#     4  10  23  50  69  84 126 177 227 291 343 378
#     4  11  24  39  62  99 127 169 222 267 332 410
#     4  12  20  36  58  91 137 175 209 251 320 409
#     4  10  22  37  58  87 118 163 218 259 311 389
#     4  11  21  33  54  86 129 167 202 245 310 392
#     4  12  22  36  64  94 142 174 200 262 338 416
#     4  11  23  38  61  94 126 165 221 269 330 390
#
# _framework density 20.237613
#
# number of rings (size 3 to 8) (size 9 to 14) (size 15 to 20)
#    0.000    1.067    2.667    6.000    5.600    0.000 
#    0.000    7.333    0.000    0.000    0.000    0.000 
#    0.000    0.000    0.000    0.000    0.000    0.000 
#
# Total GULP energy -743444.134113 kJ/mol
# GULP energy per Si atom -12390.735569 kJ/mol
# Density = 2.019155 g / cm^3
# Si number density = 20.237613 Si / 1000 Ang^3
#
#
#
# Elastic Constant Matrix: (Units=GPa)
#
#
# Indices 1 2 3 4 5 6 
#
# 1 111.8850 35.0691 41.0278 0.0000 0.0000 0.0000
# 2 35.0691 108.4917 33.8749 0.0000 0.0000 0.0000
# 3 41.0278 33.8749 91.0344 0.0000 0.0000 0.0000
# 4 0.0000 0.0000 0.0000 15.8440 0.0000 0.0000
# 5 0.0000 0.0000 0.0000 0.0000 34.5205 0.0000
# 6 0.0000 0.0000 0.0000 0.0000 0.0000 19.6876
#
#
#
# Elastic Compliance Matrix: (Units=1/GPa)
#
#
# Indices 1 2 3 4 5 6 
#
# 1 0.011198 -0.002312 -0.004186 0.000000 0.000000 0.000000
# 2 -0.002312 0.010907 -0.003016 0.000000 0.000000 0.000000
# 3 -0.004186 -0.003016 0.013994 0.000000 0.000000 0.000000
# 4 0.000000 0.000000 0.000000 0.063116 0.000000 0.000000
# 5 0.000000 0.000000 0.000000 0.000000 0.028968 0.000000
# 6 0.000000 0.000000 0.000000 0.000000 0.000000 0.050793
#
#
# Mechanical properties :
#
#
# Convention : Reuss Voigt Hill
#
# Bulk Modulus (GPa) = 58.58794 59.03941 58.81368
# Shear Modulus (GPa) = 24.54658 27.43970 25.99314
#
# Velocity S-wave (km/s) = 3.48648 3.68622 3.58774
# Velocity P-wave (km/s) = 6.72460 6.88143 6.80346
#
# Compressibility (1/GPa) = 0.01706836
#
# Stress axis : x y z
#
# Youngs Moduli (GPa) = 89.30490 91.68789 71.46007
#
# Poissons Ratio (x) = 0.21203 0.29914
# Poissons Ratio (y) = 0.20652 0.21554
# Poissons Ratio (z) = 0.37384 0.27655
#
# Static dielectric constant tensor:
#      x y z
#    x 4.218690 0.000000 0.000000 
#    y 0.000000 3.221800 0.000000 
#    z 0.000000 0.000000 4.066140 
# 
# 
# High freq. dielectric constant tensor:
#      x y z
#    x 1.816420 0.000000 0.000000 
#    y 0.000000 1.730420 0.000000 
#    z 0.000000 0.000000 1.806960 
# 
# From -- ./inp_files/11009.got.cif
#   From: 2010.03.12/outbox.cif.g09.slc.cpg/sg56_6_cif.got.tgz:11009.got - 2010.04.16 15:33:40.
