data_PCOD8228721
_publ_section_title
;
Structure prediction by ZEFSAII (Michael W. Deem and Ramdas Pophale) SiO2 
 PCOD8228721
Probable space group: P C C N
;
_chemical_formula_sum "Si O2"
_cell_formula_units_Z 56
_cell_length_a 16.753969
_cell_length_b 5.251914
_cell_length_c 29.310667
_cell_angle_alpha 90.000000
_cell_angle_beta 90.000000
_cell_angle_gamma 90.000000
_cell_volume 2579.057441
_symmetry_space_group_name_H-M "P C C N"
_symmetry_group_IT_number 56
_symmetry_cell_setting 'orthorhombic'
loop_
_space_group_symop_operation_xyz
x,y,z
1/2-x,1/2-y,z
1/2+x,-y,1/2-z
-x,1/2+y,1/2-z
-x,-y,-z
1/2+x,1/2+y,-z
1/2-x,y,1/2+z
x,1/2-y,1/2+z
loop_
_atom_site_type_symbol
_atom_site_label
_atom_site_fract_x
_atom_site_fract_y
_atom_site_fract_z
Si Si1 0.948973 0.421744 0.432516
Si Si2 0.156398 0.791643 0.392217
Si Si3 0.023856 0.597168 0.725233
Si Si4 0.430825 0.227382 0.366154
Si Si5 0.790509 0.001413 0.784451
Si Si6 0.441022 0.807671 0.975733
Si Si7 0.787964 0.999581 0.890088
O O1 0.908461 0.351356 0.480883
O O2 0.882349 0.503549 0.396624
O O3 0.006984 0.212454 0.408188
O O4 0.005149 0.661060 0.439642
O O5 0.250000 0.750000 0.388354
O O6 0.119575 0.524704 0.376575
O O7 0.134755 0.884824 0.444502
O O8 0.126037 0.025028 0.359975
O O9 0.114814 0.505015 0.720818
O O10 0.976923 0.348539 0.743113
O O11 0.984029 0.683909 0.678270
O O12 0.750000 0.250000 0.761303
O O13 0.750000 0.750000 0.761599
O O14 0.765832 0.998987 0.837218
O O15 0.500000 0.000000 0.000000
O O16 0.750000 0.750000 0.913802
O O17 0.750000 0.250000 0.913548
#
# Coordination Sequence:
#
# PCOD8228721 Si02
#       7
#     8   8   8   8   8   8   8
#     4  10  21  39  60  91 128 172 221 260 328 396
#     4  11  24  43  67  95 134 178 227 274 328 390
#     4  12  25  44  70 105 132 170 228 276 334 404
#     4  11  23  44  69  92 129 176 219 276 327 407
#     4  10  21  41  65  94 133 167 203 263 338 393
#     4  10  21  38  62  92 128 174 219 275 329 372
#     4  10  22  36  59  92 124 164 208 257 319 386
#
# _framework density 21.713356999999998
#
# number of rings (size 3 to 8) (size 9 to 14) (size 15 to 20)
#    0.000    1.429    2.857    2.143    2.000    0.571 
#    0.000    7.143    0.000    0.000    0.000    0.000 
#    0.000    0.000    0.000    0.000    0.000    0.000 
#
# Total GULP energy -693854.927413 kJ/mol
# GULP energy per Si atom -12390.266561 kJ/mol
# Density = 2.166394 g / cm^3
# Si number density = 21.713357 Si / 1000 Ang^3
#
#
#
# Elastic Constant Matrix: (Units=GPa)
#
#
# Indices 1 2 3 4 5 6 
#
# 1 140.4511 59.5171 42.3047 0.0000 0.0000 0.0000
# 2 59.5171 157.1680 28.9453 0.0000 0.0000 0.0000
# 3 42.3047 28.9453 49.9214 0.0000 0.0000 0.0000
# 4 0.0000 0.0000 0.0000 76.4991 0.0000 0.0000
# 5 0.0000 0.0000 0.0000 0.0000 26.2388 0.0000
# 6 0.0000 0.0000 0.0000 0.0000 0.0000 34.8688
#
#
#
# Elastic Compliance Matrix: (Units=1/GPa)
#
#
# Indices 1 2 3 4 5 6 
#
# 1 0.010430 -0.002599 -0.007331 0.000000 0.000000 0.000000
# 2 -0.002599 0.007771 -0.002303 0.000000 0.000000 0.000000
# 3 -0.007331 -0.002303 0.027579 0.000000 0.000000 0.000000
# 4 0.000000 0.000000 0.000000 0.013072 0.000000 0.000000
# 5 0.000000 0.000000 0.000000 0.000000 0.038112 0.000000
# 6 0.000000 0.000000 0.000000 0.000000 0.000000 0.028679
#
#
# Mechanical properties :
#
#
# Convention : Reuss Voigt Hill
#
# Bulk Modulus (GPa) = 46.91973 67.67496 57.29734
# Shear Modulus (GPa) = 31.80376 41.97289 36.88832
#
# Velocity S-wave (km/s) = 3.83130 4.40141 4.12622
# Velocity P-wave (km/s) = 6.42086 7.55414 7.01044
#
# Compressibility (1/GPa) = 0.02131300
#
# Stress axis : x y z
#
# Youngs Moduli (GPa) = 95.88095 128.68184 36.25893
#
# Poissons Ratio (x) = 0.33449 0.26582
# Poissons Ratio (y) = 0.24923 0.08351
# Poissons Ratio (z) = 0.70292 0.29636
#
# Static dielectric constant tensor:
#      x y z
#    x 3.304950 0.000000 0.000000 
#    y 0.000000 4.279030 0.000000 
#    z 0.000000 0.000000 0.457360 
# 
# 
# High freq. dielectric constant tensor:
#      x y z
#    x 1.849450 0.000000 0.000000 
#    y 0.000000 1.864700 0.000000 
#    z 0.000000 0.000000 1.840900 
# 
# From -- ./inp_files/23596.got.cif
#   From: 2010.03.12/outbox.cif.g09.slc.cpg/sg56_12_cif.got.tgz:23596.got - 2010.04.16 15:33:40.
