data_PCOD8228700
_publ_section_title
;
Structure prediction by ZEFSAII (Michael W. Deem and Ramdas Pophale) SiO2 
 PCOD8228700
Probable space group: P C C N
;
_chemical_formula_sum "Si O2"
_cell_formula_units_Z 64
_cell_length_a 20.551281
_cell_length_b 9.184677
_cell_length_c 18.335461
_cell_angle_alpha 90.000000
_cell_angle_beta 90.000000
_cell_angle_gamma 90.000000
_cell_volume 3460.944374
_symmetry_space_group_name_H-M "P C C N"
_symmetry_group_IT_number 56
_symmetry_cell_setting 'orthorhombic'
loop_
_space_group_symop_operation_xyz
x,y,z
1/2-x,1/2-y,z
1/2+x,-y,1/2-z
-x,1/2+y,1/2-z
-x,-y,-z
1/2+x,1/2+y,-z
1/2-x,y,1/2+z
x,1/2-y,1/2+z
loop_
_atom_site_type_symbol
_atom_site_label
_atom_site_fract_x
_atom_site_fract_y
_atom_site_fract_z
Si Si1 0.639752 0.415658 0.828041
Si Si2 0.125570 0.918688 0.841336
Si Si3 0.125591 0.581314 0.841276
Si Si4 0.749995 0.420365 0.564262
Si Si5 0.995776 0.917354 0.674671
Si Si6 0.750027 0.577530 0.911661
Si Si7 0.139726 0.584236 0.172018
Si Si8 0.504190 0.582562 0.174596
O O1 0.640744 0.457008 0.742695
O O2 0.685873 0.525541 0.870036
O O3 0.664766 0.249931 0.838151
O O4 0.567046 0.431270 0.862525
O O5 0.108302 0.749990 0.849490
O O6 0.187058 0.963690 0.889201
O O7 0.140736 0.957073 0.757371
O O8 0.062815 0.008691 0.871135
O O9 0.187105 0.536332 0.889098
O O10 0.062846 0.491252 0.871055
O O11 0.750000 0.250000 0.544446
O O12 0.749924 0.514516 0.492221
O O13 0.978316 0.749936 0.688847
O O14 0.067010 0.931348 0.637565
O O15 0.999965 0.999854 0.750067
O O16 0.750000 0.750000 0.915293
O O17 0.814174 0.525711 0.869968
#
# Coordination Sequence:
#
# PCOD8228700 Si02
#       8
#     8   8   8   8   8   8   8   8
#     4   9  18  35  57  79 105 137 171 208 257 316
#     4   9  18  34  58  83 104 133 174 215 258 311
#     4   9  18  34  58  83 104 133 174 215 258 311
#     4  10  21  38  56  74 104 144 177 210 262 320
#     4   9  17  30  52  81 109 135 167 211 260 308
#     4  12  25  36  50  76 106 138 179 222 258 298
#     4   9  18  35  57  79 105 137 171 208 257 316
#     4   9  17  30  52  81 109 135 167 211 260 308
#
# _framework density 18.492062000000001
#
# number of rings (size 3 to 8) (size 9 to 14) (size 15 to 20)
#    0.000    2.500    0.000    4.125    0.000    8.000 
#    0.000    2.500    0.000    0.000    0.000    0.000 
#    0.000    0.000    0.000    0.000    0.000    0.000 
#
# Total GULP energy -793363.042646 kJ/mol
# GULP energy per Si atom -12396.297541 kJ/mol
# Density = 1.844997 g / cm^3
# Si number density = 18.492062 Si / 1000 Ang^3
#
#
#
# Elastic Constant Matrix: (Units=GPa)
#
#
# Indices 1 2 3 4 5 6 
#
# 1 159.7883 85.2073 59.0400 0.0000 0.0000 0.0000
# 2 85.2073 112.6826 50.0021 0.0000 0.0000 0.0000
# 3 59.0400 50.0021 76.0383 0.0000 0.0000 0.0000
# 4 0.0000 0.0000 0.0000 24.1943 0.0000 0.0000
# 5 0.0000 0.0000 0.0000 0.0000 -4.1055 0.0000
# 6 0.0000 0.0000 0.0000 0.0000 0.0000 39.7442
#
#
#
# Elastic Compliance Matrix: (Units=1/GPa)
#
#
# Indices 1 2 3 4 5 6 
#
# 1 0.011496 -0.006682 -0.004532 0.000000 0.000000 0.000000
# 2 -0.006682 0.016415 -0.005606 0.000000 0.000000 0.000000
# 3 -0.004532 -0.005606 0.020357 0.000000 0.000000 0.000000
# 4 0.000000 0.000000 0.000000 0.041332 0.000000 0.000000
# 5 0.000000 0.000000 0.000000 0.000000 -0.243575 0.000000
# 6 0.000000 0.000000 0.000000 0.000000 0.000000 0.025161
#
#
# Mechanical properties :
#
#
# Convention : Reuss Voigt Hill
#
# Bulk Modulus (GPa) = 68.36500 81.88980 75.12740
# Shear Modulus (GPa) = -55.37143 22.25059 -16.56042
#
# Velocity S-wave (km/s) = -5.47799 3.47255 -2.99581
# Velocity P-wave (km/s) = 1.72075 7.77548 5.36177
#
# Compressibility (1/GPa) = 0.01462737
#
# Stress axis : x y z
#
# Youngs Moduli (GPa) = 86.98729 60.92083 49.12372
#
# Poissons Ratio (x) = 0.40706 0.22264
# Poissons Ratio (y) = 0.58123 0.27539
# Poissons Ratio (z) = 0.39424 0.34153
#
# Static dielectric constant tensor:
#      x y z
#    x 4.357160 0.000000 0.000000 
#    y 0.000000 3.537530 0.000000 
#    z 0.000000 0.000000 3.120430 
# 
# 
# High freq. dielectric constant tensor:
#      x y z
#    x 1.740490 0.000000 0.000000 
#    y 0.000000 1.716960 0.000000 
#    z 0.000000 0.000000 1.676720 
# 
# From -- ./inp_files/15235.got.cif
#   From: 2010.03.12/outbox.cif.g09.slc.cpg/sg56_8_cif.got.tgz:15235.got - 2010.04.16 15:33:40.
