data_PCOD8228215
_publ_section_title
;
Structure prediction by ZEFSAII (Michael W. Deem and Ramdas Pophale) SiO2 
 PCOD8228215
Probable space group: P C C N
;
_chemical_formula_sum "Si O2"
_cell_formula_units_Z 48
_cell_length_a 7.679614
_cell_length_b 15.608142
_cell_length_c 17.751932
_cell_angle_alpha 90.000000
_cell_angle_beta 90.000000
_cell_angle_gamma 90.000000
_cell_volume 2127.826556
_symmetry_space_group_name_H-M "P C C N"
_symmetry_group_IT_number 56
_symmetry_cell_setting 'orthorhombic'
loop_
_space_group_symop_operation_xyz
x,y,z
1/2-x,1/2-y,z
1/2+x,-y,1/2-z
-x,1/2+y,1/2-z
-x,-y,-z
1/2+x,1/2+y,-z
1/2-x,y,1/2+z
x,1/2-y,1/2+z
loop_
_atom_site_type_symbol
_atom_site_label
_atom_site_fract_x
_atom_site_fract_y
_atom_site_fract_z
Si Si1 0.250000 0.250000 0.298508
Si Si2 0.747453 0.029451 0.155875
Si Si3 0.400145 0.682723 0.430863
Si Si4 0.093116 0.371412 0.418556
Si Si5 0.792954 0.157122 0.403631
Si Si6 0.250000 0.250000 0.040170
Si Si7 0.517271 0.900076 0.233809
O O1 0.122590 0.308180 0.348487
O O2 0.372929 0.313217 0.249951
O O3 0.622261 0.094635 0.113108
O O4 0.903294 0.083324 0.192864
O O5 0.817467 0.962779 0.094370
O O6 0.643826 0.981241 0.222240
O O7 0.250000 0.750000 0.408946
O O8 0.408292 0.668141 0.521108
O O9 0.591078 0.717425 0.407688
O O10 0.174781 0.329538 0.492418
O O11 0.886957 0.389335 0.426784
O O12 0.750000 0.250000 0.368992
O O13 0.902567 0.105396 0.342315
#
# Coordination Sequence:
#
# PCOD8228215 Si02
#       7
#     4   8   8   8   8   4   8
#     4   9  18  36  69  94 118 182 236 266 334 415
#     4  11  26  44  65 100 144 176 236 297 346 409
#     4  11  24  46  66 105 138 180 231 293 348 418
#     4  10  19  38  69 100 131 178 228 281 340 419
#     4  11  19  38  73 100 132 180 231 280 342 418
#     4  11  20  42  73  98 138 178 236 276 356 433
#     4  11  23  44  67  98 137 183 232 284 346 422
#
# _framework density 22.558228
#
# number of rings (size 3 to 8) (size 9 to 14) (size 15 to 20)
#    0.000    1.333    5.000    3.000    0.000    4.000 
#   12.000    0.000    0.000    0.000    0.000    0.000 
#    0.000    0.000    0.000    0.000    0.000    0.000 
#
# Total GULP energy -595349.567901 kJ/mol
# GULP energy per Si atom -12403.115998 kJ/mol
# Density = 2.250688 g / cm^3
# Si number density = 22.558228 Si / 1000 Ang^3
#
#
#
# Elastic Constant Matrix: (Units=GPa)
#
#
# Indices 1 2 3 4 5 6 
#
# 1 158.2946 64.0365 16.7387 0.0000 0.0000 0.0000
# 2 64.0365 144.2225 41.0423 0.0000 0.0000 0.0000
# 3 16.7387 41.0423 25.4401 0.0000 0.0000 0.0000
# 4 0.0000 0.0000 0.0000 15.8550 0.0000 0.0000
# 5 0.0000 0.0000 0.0000 0.0000 20.3647 0.0000
# 6 0.0000 0.0000 0.0000 0.0000 0.0000 41.5685
#
#
#
# Elastic Compliance Matrix: (Units=1/GPa)
#
#
# Indices 1 2 3 4 5 6 
#
# 1 0.007710 -0.003660 0.000832 0.000000 0.000000 0.000000
# 2 -0.003660 0.014556 -0.021076 0.000000 0.000000 0.000000
# 3 0.000832 -0.021076 0.072762 0.000000 0.000000 0.000000
# 4 0.000000 0.000000 0.000000 0.063071 0.000000 0.000000
# 5 0.000000 0.000000 0.000000 0.000000 0.049105 0.000000
# 6 0.000000 0.000000 0.000000 0.000000 0.000000 0.024057
#
#
# Mechanical properties :
#
#
# Convention : Reuss Voigt Hill
#
# Bulk Modulus (GPa) = 21.17715 63.51024 42.34370
# Shear Modulus (GPa) = 16.96011 29.30029 23.13020
#
# Velocity S-wave (km/s) = 2.74494 3.60790 3.20559
# Velocity P-wave (km/s) = 4.41071 6.75063 5.70199
#
# Compressibility (1/GPa) = 0.04722070
#
# Stress axis : x y z
#
# Youngs Moduli (GPa) = 129.70154 68.69789 13.74342
#
# Poissons Ratio (x) = 0.25144 -0.01143
# Poissons Ratio (y) = 0.47471 0.28965
# Poissons Ratio (z) = -0.10789 1.44786
#
# Static dielectric constant tensor:
#      x y z
#    x 4.347380 0.000000 0.000000 
#    y 0.000000 4.123420 0.000000 
#    z 0.000000 0.000000 3.533240 
# 
# 
# High freq. dielectric constant tensor:
#      x y z
#    x 1.908800 0.000000 0.000000 
#    y 0.000000 1.889570 0.000000 
#    z 0.000000 0.000000 1.852880 
# 
# From -- ./inp_files/14856.got.cif
#   From: 2010.03.12/outbox.cif.g09.slc.cpg/sg56_8_cif.got.tgz:14856.got - 2010.04.16 15:33:40.
