data_PCOD8228697
_publ_section_title
;
Structure prediction by ZEFSAII (Michael W. Deem and Ramdas Pophale) SiO2 
 PCOD8228697
Probable space group: P C C N
;
_chemical_formula_sum "Si O2"
_cell_formula_units_Z 28
_cell_length_a 7.008022
_cell_length_b 13.606298
_cell_length_c 12.261631
_cell_angle_alpha 90.000000
_cell_angle_beta 90.000000
_cell_angle_gamma 90.000000
_cell_volume 1169.186191
_symmetry_space_group_name_H-M "P C C N"
_symmetry_group_IT_number 56
_symmetry_cell_setting 'orthorhombic'
loop_
_space_group_symop_operation_xyz
x,y,z
1/2-x,1/2-y,z
1/2+x,-y,1/2-z
-x,1/2+y,1/2-z
-x,-y,-z
1/2+x,1/2+y,-z
1/2-x,y,1/2+z
x,1/2-y,1/2+z
loop_
_atom_site_type_symbol
_atom_site_label
_atom_site_fract_x
_atom_site_fract_y
_atom_site_fract_z
Si Si1 0.239207 0.091935 0.021146
Si Si2 0.250000 0.250000 0.846978
Si Si3 0.892907 0.436114 0.128456
Si Si4 0.481691 0.613732 0.777651
O O1 0.434598 0.131336 0.081305
O O2 0.071301 0.085440 0.106856
O O3 0.174179 0.162308 0.922643
O O4 0.279674 0.983785 0.973429
O O5 0.074709 0.287518 0.772020
O O6 0.745529 0.371794 0.200796
O O7 0.992400 0.521919 0.198003
#
# Coordination Sequence:
#
# PCOD8228697 Si02
#       4
#     8   4   8   8
#     4  10  21  41  62  95 132 171 217 277 322 401
#     4  10  24  40  62  90 144 174 204 270 348 378
#     4  10  21  37  70  96 125 169 230 264 332 384
#     4  11  20  41  66  96 126 178 217 277 320 403
#
# _framework density 23.948283
#
# number of rings (size 3 to 8) (size 9 to 14) (size 15 to 20)
#    0.000    1.714    2.857    1.714    0.000    0.000 
#    0.000    8.571    0.000    0.000    0.000    0.000 
#    0.000    0.000    0.000    0.000    0.000    0.000 
#
# Total GULP energy -347148.034383 kJ/mol
# GULP energy per Si atom -12398.144085 kJ/mol
# Density = 2.389378 g / cm^3
# Si number density = 23.948283 Si / 1000 Ang^3
#
#
#
# Elastic Constant Matrix: (Units=GPa)
#
#
# Indices 1 2 3 4 5 6 
#
# 1 136.0786 31.0962 40.0631 0.0000 0.0000 0.0000
# 2 31.0962 39.1126 5.7722 0.0000 0.0000 0.0000
# 3 40.0631 5.7722 96.9902 0.0000 0.0000 0.0000
# 4 0.0000 0.0000 0.0000 22.9370 0.0000 0.0000
# 5 0.0000 0.0000 0.0000 0.0000 37.3776 0.0000
# 6 0.0000 0.0000 0.0000 0.0000 0.0000 22.3325
#
#
#
# Elastic Compliance Matrix: (Units=1/GPa)
#
#
# Indices 1 2 3 4 5 6 
#
# 1 0.010176 -0.007537 -0.003755 0.000000 0.000000 0.000000
# 2 -0.007537 0.031375 0.001246 0.000000 0.000000 0.000000
# 3 -0.003755 0.001246 0.011787 0.000000 0.000000 0.000000
# 4 0.000000 0.000000 0.000000 0.043598 0.000000 0.000000
# 5 0.000000 0.000000 0.000000 0.000000 0.026754 0.000000
# 6 0.000000 0.000000 0.000000 0.000000 0.000000 0.044778
#
#
# Mechanical properties :
#
#
# Convention : Reuss Voigt Hill
#
# Bulk Modulus (GPa) = 30.07748 47.33826 38.70787
# Shear Modulus (GPa) = 25.04483 29.54611 27.29547
#
# Velocity S-wave (km/s) = 3.23737 3.51628 3.37971
# Velocity P-wave (km/s) = 5.15371 6.02457 5.60608
#
# Compressibility (1/GPa) = 0.03324746
#
# Stress axis : x y z
#
# Youngs Moduli (GPa) = 98.26638 31.87234 84.83765
#
# Poissons Ratio (x) = 0.24021 0.31856
# Poissons Ratio (y) = 0.74059 -0.10569
# Poissons Ratio (z) = 0.36899 -0.03971
#
# Static dielectric constant tensor:
#      x y z
#    x 4.399790 0.000000 0.000000 
#    y 0.000000 3.860290 0.000000 
#    z 0.000000 0.000000 4.659800 
# 
# 
# High freq. dielectric constant tensor:
#      x y z
#    x 1.948250 0.000000 0.000000 
#    y 0.000000 1.909350 0.000000 
#    z 0.000000 0.000000 1.973850 
# 
# From -- ./inp_files/5894.got.cif
#   From: 2010.03.12/outbox.cif.g09.slc.cpg/sg56_3_cif.got.tgz:5894.got - 2010.04.16 15:33:40.
