data_PCOD8228531
_publ_section_title
;
Structure prediction by ZEFSAII (Michael W. Deem and Ramdas Pophale) SiO2 
 PCOD8228531
Probable space group: P C C N
;
_chemical_formula_sum "Si O2"
_cell_formula_units_Z 64
_cell_length_a 9.381730
_cell_length_b 21.534897
_cell_length_c 14.548425
_cell_angle_alpha 90.000000
_cell_angle_beta 90.000000
_cell_angle_gamma 90.000000
_cell_volume 2939.285069
_symmetry_space_group_name_H-M "P C C N"
_symmetry_group_IT_number 56
_symmetry_cell_setting 'orthorhombic'
loop_
_space_group_symop_operation_xyz
x,y,z
1/2-x,1/2-y,z
1/2+x,-y,1/2-z
-x,1/2+y,1/2-z
-x,-y,-z
1/2+x,1/2+y,-z
1/2-x,y,1/2+z
x,1/2-y,1/2+z
loop_
_atom_site_type_symbol
_atom_site_label
_atom_site_fract_x
_atom_site_fract_y
_atom_site_fract_z
Si Si1 0.199492 0.017049 0.790568
Si Si2 0.536254 0.865469 0.715297
Si Si3 0.497082 0.440878 0.313183
Si Si4 0.082359 0.751365 0.641389
Si Si5 0.302364 0.892478 0.864822
Si Si6 0.476938 0.136555 0.982215
Si Si7 0.453544 0.829845 0.307644
Si Si8 0.758847 0.678198 0.873070
O O1 0.106505 0.073832 0.833610
O O2 0.353402 0.041514 0.758221
O O3 0.224240 0.960261 0.862414
O O4 0.112802 0.996078 0.698196
O O5 0.487553 0.817547 0.634528
O O6 0.398674 0.884982 0.774317
O O7 0.658416 0.834750 0.778691
O O8 0.454988 0.423342 0.417074
O O9 0.571907 0.381389 0.270261
O O10 0.250000 0.750000 0.620396
O O11 0.050049 0.766041 0.749927
O O12 0.005730 0.798796 0.571627
O O13 0.184434 0.837450 0.872315
O O14 0.390385 0.883378 0.956589
O O15 0.334395 0.143790 0.042007
O O16 0.595478 0.843271 0.364888
O O17 0.750000 0.750000 0.895466
#
# Coordination Sequence:
#
# PCOD8228531 Si02
#       8
#     8   8   8   8   8   8   8   8
#     4  11  21  39  68  95 124 172 227 278 315 415
#     4  11  21  38  69  99 126 175 233 273 335 403
#     4  10  22  41  66  93 125 169 229 272 328 392
#     4  11  22  41  69  98 129 176 233 282 328 414
#     4  10  22  42  65  98 133 175 223 272 347 404
#     4  10  26  43  63  98 139 179 212 288 358 403
#     4  10  20  39  69  92 124 175 221 270 325 412
#     4  11  22  39  62  97 136 170 211 278 352 408
#
# _framework density 21.774003
#
# number of rings (size 3 to 8) (size 9 to 14) (size 15 to 20)
#    0.000    1.500    5.000    0.000    0.000    2.500 
#    0.000    1.250    0.000    3.750    0.000    0.000 
#    0.000    0.000    0.000    0.000    0.000    0.000 
#
# Total GULP energy -793150.237316 kJ/mol
# GULP energy per Si atom -12392.972458 kJ/mol
# Density = 2.172444 g / cm^3
# Si number density = 21.774003 Si / 1000 Ang^3
#
#
#
# Elastic Constant Matrix: (Units=GPa)
#
#
# Indices 1 2 3 4 5 6 
#
# 1 139.6629 26.1764 31.5617 0.0000 0.0000 0.0000
# 2 26.1764 100.4499 28.3659 0.0000 0.0000 0.0000
# 3 31.5617 28.3659 63.4595 0.0000 0.0000 0.0000
# 4 0.0000 0.0000 0.0000 21.7641 0.0000 0.0000
# 5 0.0000 0.0000 0.0000 0.0000 23.6712 0.0000
# 6 0.0000 0.0000 0.0000 0.0000 0.0000 44.7715
#
#
#
# Elastic Compliance Matrix: (Units=1/GPa)
#
#
# Indices 1 2 3 4 5 6 
#
# 1 0.008176 -0.001124 -0.003564 0.000000 0.000000 0.000000
# 2 -0.001124 0.011548 -0.004603 0.000000 0.000000 0.000000
# 3 -0.003564 -0.004603 0.019588 0.000000 0.000000 0.000000
# 4 0.000000 0.000000 0.000000 0.045947 0.000000 0.000000
# 5 0.000000 0.000000 0.000000 0.000000 0.042245 0.000000
# 6 0.000000 0.000000 0.000000 0.000000 0.000000 0.022336
#
#
# Mechanical properties :
#
#
# Convention : Reuss Voigt Hill
#
# Bulk Modulus (GPa) = 48.23832 52.86445 50.55139
# Shear Modulus (GPa) = 28.51728 32.53924 30.52826
#
# Velocity S-wave (km/s) = 3.62290 3.86995 3.74846
# Velocity P-wave (km/s) = 6.30101 6.65583 6.48085
#
# Compressibility (1/GPa) = 0.02073041
#
# Stress axis : x y z
#
# Youngs Moduli (GPa) = 122.30618 86.59565 51.05174
#
# Poissons Ratio (x) = 0.09735 0.18194
# Poissons Ratio (y) = 0.13750 0.23498
# Poissons Ratio (z) = 0.43589 0.39857
#
# Static dielectric constant tensor:
#      x y z
#    x 4.848130 0.000000 0.000000 
#    y 0.000000 4.281760 0.000000 
#    z 0.000000 0.000000 3.527880 
# 
# 
# High freq. dielectric constant tensor:
#      x y z
#    x 1.875010 0.000000 0.000000 
#    y 0.000000 1.870810 0.000000 
#    z 0.000000 0.000000 1.804410 
# 
# From -- ./inp_files/11073.got.cif
#   From: 2010.03.12/outbox.cif.g09.slc.cpg/sg56_6_cif.got.tgz:11073.got - 2010.04.16 15:33:40.
