data_PCOD8228330
_publ_section_title
;
Structure prediction by ZEFSAII (Michael W. Deem and Ramdas Pophale) SiO2 
 PCOD8228330
Probable space group: P C C N
;
_chemical_formula_sum "Si O2"
_cell_formula_units_Z 48
_cell_length_a 16.202591
_cell_length_b 16.174510
_cell_length_c 9.138191
_cell_angle_alpha 90.000000
_cell_angle_beta 90.000000
_cell_angle_gamma 90.000000
_cell_volume 2394.836304
_symmetry_space_group_name_H-M "P C C N"
_symmetry_group_IT_number 56
_symmetry_cell_setting 'orthorhombic'
loop_
_space_group_symop_operation_xyz
x,y,z
1/2-x,1/2-y,z
1/2+x,-y,1/2-z
-x,1/2+y,1/2-z
-x,-y,-z
1/2+x,1/2+y,-z
1/2-x,y,1/2+z
x,1/2-y,1/2+z
loop_
_atom_site_type_symbol
_atom_site_label
_atom_site_fract_x
_atom_site_fract_y
_atom_site_fract_z
Si Si1 0.966565 0.163394 0.840230
Si Si2 0.879264 0.236378 0.096646
Si Si3 0.847372 0.808212 0.182117
Si Si4 0.192841 0.348476 0.649199
Si Si5 0.263511 0.620427 0.455258
Si Si6 0.836476 0.467058 0.300212
O O1 0.919293 0.231008 0.744034
O O2 0.926591 0.073340 0.818331
O O3 0.062425 0.152498 0.804541
O O4 0.954303 0.197310 0.003898
O O5 0.834729 0.312273 0.011201
O O6 0.811460 0.165772 0.130988
O O7 0.851378 0.712596 0.234300
O O8 0.788212 0.855746 0.297705
O O9 0.813218 0.814430 0.016305
O O10 0.151172 0.437908 0.657840
O O11 0.301515 0.544382 0.362967
O O12 0.230056 0.581427 0.602956
#
# Coordination Sequence:
#
# PCOD8228330 Si02
#       6
#     8   8   8   8   8   8
#     4  10  20  35  57  84 111 140 180 228 270 313
#     4   9  17  31  53  82 116 150 179 213 267 329
#     4  11  23  40  60  78 105 145 186 223 268 327
#     4  11  23  40  60  78 105 145 186 223 268 327
#     4   9  17  31  53  82 116 150 179 213 267 329
#     4  10  20  35  57  84 111 140 180 228 270 313
#
# _framework density 20.043122
#
# number of rings (size 3 to 8) (size 9 to 14) (size 15 to 20)
#    0.000    2.000    0.000    5.000    0.000    4.667 
#    0.000    3.333    0.000    8.000    0.000    0.000 
#    0.000    0.000    0.000    0.000    0.000    0.000 
#
# Total GULP energy -595009.684182 kJ/mol
# GULP energy per Si atom -12396.035087 kJ/mol
# Density = 1.999750 g / cm^3
# Si number density = 20.043122 Si / 1000 Ang^3
#
#
#
# Elastic Constant Matrix: (Units=GPa)
#
#
# Indices 1 2 3 4 5 6 
#
# 1 120.8686 38.3344 41.1268 0.0000 0.0000 0.0000
# 2 38.3344 112.7382 36.7448 0.0000 0.0000 0.0000
# 3 41.1268 36.7448 80.6404 0.0000 0.0000 0.0000
# 4 0.0000 0.0000 0.0000 21.9162 0.0000 0.0000
# 5 0.0000 0.0000 0.0000 0.0000 22.7440 0.0000
# 6 0.0000 0.0000 0.0000 0.0000 0.0000 17.5259
#
#
#
# Elastic Compliance Matrix: (Units=1/GPa)
#
#
# Indices 1 2 3 4 5 6 
#
# 1 0.010428 -0.002129 -0.004348 0.000000 0.000000 0.000000
# 2 -0.002129 0.010852 -0.003859 0.000000 0.000000 0.000000
# 3 -0.004348 -0.003859 0.016377 0.000000 0.000000 0.000000
# 4 0.000000 0.000000 0.000000 0.045628 0.000000 0.000000
# 5 0.000000 0.000000 0.000000 0.000000 0.043968 0.000000
# 6 0.000000 0.000000 0.000000 0.000000 0.000000 0.057058
#
#
# Mechanical properties :
#
#
# Convention : Reuss Voigt Hill
#
# Bulk Modulus (GPa) = 58.87752 60.73990 59.80871
# Shear Modulus (GPa) = 23.73664 25.63999 24.68831
#
# Velocity S-wave (km/s) = 3.44507 3.58053 3.51345
# Velocity P-wave (km/s) = 6.72784 6.88941 6.80911
#
# Compressibility (1/GPa) = 0.01698441
#
# Stress axis : x y z
#
# Youngs Moduli (GPa) = 95.89423 92.15146 61.06157
#
# Poissons Ratio (x) = 0.19615 0.26552
# Poissons Ratio (y) = 0.20412 0.23564
# Poissons Ratio (z) = 0.41699 0.35562
#
# Static dielectric constant tensor:
#      x y z
#    x 3.577680 0.000000 0.000000 
#    y 0.000000 3.548500 0.000000 
#    z 0.000000 0.000000 3.580010 
# 
# 
# High freq. dielectric constant tensor:
#      x y z
#    x 1.774060 0.000000 0.000000 
#    y 0.000000 1.772010 0.000000 
#    z 0.000000 0.000000 1.782810 
# 
# From -- ./inp_files/4048.got.cif
#   From: 2010.03.12/outbox.cif.g09.slc.cpg/sg56_3_cif.got.tgz:4048.got - 2010.04.16 15:33:40.
