data_PCOD8228896
_publ_section_title
;
Structure prediction by ZEFSAII (Michael W. Deem and Ramdas Pophale) SiO2 
 PCOD8228896
Probable space group: P C C N
;
_chemical_formula_sum "Si O2"
_cell_formula_units_Z 64
_cell_length_a 8.721667
_cell_length_b 21.650652
_cell_length_c 16.512218
_cell_angle_alpha 90.000000
_cell_angle_beta 90.000000
_cell_angle_gamma 90.000000
_cell_volume 3117.998444
_symmetry_space_group_name_H-M "P C C N"
_symmetry_group_IT_number 56
_symmetry_cell_setting 'orthorhombic'
loop_
_space_group_symop_operation_xyz
x,y,z
1/2-x,1/2-y,z
1/2+x,-y,1/2-z
-x,1/2+y,1/2-z
-x,-y,-z
1/2+x,1/2+y,-z
1/2-x,y,1/2+z
x,1/2-y,1/2+z
loop_
_atom_site_type_symbol
_atom_site_label
_atom_site_fract_x
_atom_site_fract_y
_atom_site_fract_z
Si Si1 0.251974 0.050931 0.969797
Si Si2 0.005438 0.374845 0.873780
Si Si3 0.737600 0.679671 0.233923
Si Si4 0.184511 0.425359 0.146332
Si Si5 0.005910 0.880358 0.123394
Si Si6 0.234846 0.949207 0.721191
Si Si7 0.170566 0.574858 0.895871
Si Si8 0.745064 0.320900 0.483543
O O1 0.400109 0.089408 0.942295
O O2 0.103612 0.070083 0.919276
O O3 0.284667 0.978225 0.960015
O O4 0.220652 0.064392 0.063942
O O5 0.919684 0.425549 0.820182
O O6 0.110384 0.334195 0.816386
O O7 0.887661 0.328954 0.917110
O O8 0.750000 0.750000 0.261911
O O9 0.728774 0.640378 0.316176
O O10 0.589025 0.667370 0.178461
O O11 0.236645 0.476790 0.211494
O O12 0.005636 0.429866 0.127958
O O13 0.116705 0.918929 0.181017
O O14 0.093832 0.841242 0.055389
O O15 0.227740 0.933131 0.815649
O O16 0.210136 0.640268 0.935835
O O17 0.750000 0.250000 0.510582
#
# Coordination Sequence:
#
# PCOD8228896 Si02
#       8
#     8   8   8   8   8   8   8   8
#     4  11  22  41  69  95 126 163 212 273 330 379
#     4  10  21  42  70  92 123 172 214 259 330 382
#     4  11  24  43  64  93 131 172 216 261 315 388
#     4  12  24  42  65  96 130 167 215 266 330 386
#     4  10  23  43  67  99 125 161 219 274 317 382
#     4  11  23  40  67  96 126 160 212 274 326 380
#     4  12  24  42  66  96 133 169 212 272 332 383
#     4  11  24  44  66  95 132 174 218 260 321 394
#
# _framework density 20.525988999999999
#
# number of rings (size 3 to 8) (size 9 to 14) (size 15 to 20)
#    0.000    1.000    3.750    4.125    0.000    3.000 
#    4.500    1.250    0.000    0.000    0.000    0.000 
#    0.000    0.000    0.000    0.000    0.000    0.000 
#
# Total GULP energy -794079.206493 kJ/mol
# GULP energy per Si atom -12407.487601 kJ/mol
# Density = 2.047927 g / cm^3
# Si number density = 20.525989 Si / 1000 Ang^3
#
#
#
# Elastic Constant Matrix: (Units=GPa)
#
#
# Indices 1 2 3 4 5 6 
#
# 1 83.5683 43.5456 27.3177 0.0000 0.0000 0.0000
# 2 43.5456 172.7126 59.6764 0.0000 0.0000 0.0000
# 3 27.3177 59.6764 133.0427 0.0000 0.0000 0.0000
# 4 0.0000 0.0000 0.0000 34.3417 0.0000 0.0000
# 5 0.0000 0.0000 0.0000 0.0000 2.5007 0.0000
# 6 0.0000 0.0000 0.0000 0.0000 0.0000 18.1781
#
#
#
# Elastic Compliance Matrix: (Units=1/GPa)
#
#
# Indices 1 2 3 4 5 6 
#
# 1 0.014035 -0.003009 -0.001532 0.000000 0.000000 0.000000
# 2 -0.003009 0.007497 -0.002745 0.000000 0.000000 0.000000
# 3 -0.001532 -0.002745 0.009062 0.000000 0.000000 0.000000
# 4 0.000000 0.000000 0.000000 0.029119 0.000000 0.000000
# 5 0.000000 0.000000 0.000000 0.000000 0.399893 0.000000
# 6 0.000000 0.000000 0.000000 0.000000 0.000000 0.055011
#
#
# Mechanical properties :
#
#
# Convention : Reuss Voigt Hill
#
# Bulk Modulus (GPa) = 62.41436 72.26700 67.34068
# Shear Modulus (GPa) = 9.35400 28.25636 18.80518
#
# Velocity S-wave (km/s) = 2.13706 3.71430 3.03010
# Velocity P-wave (km/s) = 6.04672 7.32657 6.71720
#
# Compressibility (1/GPa) = 0.01602195
#
# Stress axis : x y z
#
# Youngs Moduli (GPa) = 71.24973 133.38424 110.34846
#
# Poissons Ratio (x) = 0.40139 0.16906
# Poissons Ratio (y) = 0.21441 0.30290
# Poissons Ratio (z) = 0.10916 0.36613
#
# Static dielectric constant tensor:
#      x y z
#    x 3.894610 0.000000 0.000000 
#    y 0.000000 3.575950 0.000000 
#    z 0.000000 0.000000 3.813130 
# 
# 
# High freq. dielectric constant tensor:
#      x y z
#    x 1.813710 0.000000 0.000000 
#    y 0.000000 1.795590 0.000000 
#    z 0.000000 0.000000 1.809770 
# 
# From -- ./inp_files/11067.got.cif
#   From: 2010.03.12/outbox.cif.g09.slc.cpg/sg56_6_cif.got.tgz:11067.got - 2010.04.16 15:33:40.
