data_PCOD8228524
_publ_section_title
;
Structure prediction by ZEFSAII (Michael W. Deem and Ramdas Pophale) SiO2 
 PCOD8228524
Probable space group: P C C N
;
_chemical_formula_sum "Si O2"
_cell_formula_units_Z 56
_cell_length_a 12.398763
_cell_length_b 14.220859
_cell_length_c 15.716798
_cell_angle_alpha 90.000000
_cell_angle_beta 90.000000
_cell_angle_gamma 90.000000
_cell_volume 2771.202489
_symmetry_space_group_name_H-M "P C C N"
_symmetry_group_IT_number 56
_symmetry_cell_setting 'orthorhombic'
loop_
_space_group_symop_operation_xyz
x,y,z
1/2-x,1/2-y,z
1/2+x,-y,1/2-z
-x,1/2+y,1/2-z
-x,-y,-z
1/2+x,1/2+y,-z
1/2-x,y,1/2+z
x,1/2-y,1/2+z
loop_
_atom_site_type_symbol
_atom_site_label
_atom_site_fract_x
_atom_site_fract_y
_atom_site_fract_z
Si Si1 0.483165 0.908970 0.254798
Si Si2 0.987010 0.848206 0.022744
Si Si3 0.968409 0.568566 0.873700
Si Si4 0.129186 0.515560 0.412528
Si Si5 0.858652 0.287448 0.877466
Si Si6 0.843064 0.051708 0.497904
Si Si7 0.121903 0.267019 0.639554
O O1 0.390941 0.943196 0.319375
O O2 0.428388 0.836223 0.193356
O O3 0.583675 0.855219 0.300806
O O4 0.518039 0.000741 0.199984
O O5 0.059688 0.785903 0.082723
O O6 0.907714 0.907365 0.083465
O O7 0.913563 0.789036 0.957112
O O8 0.065908 0.920703 0.978266
O O9 0.937011 0.669582 0.833518
O O10 0.054042 0.580578 0.947872
O O11 0.864911 0.524132 0.922575
O O12 0.254358 0.515431 0.436520
O O13 0.750000 0.250000 0.832540
O O14 0.809014 0.353142 0.951099
O O15 0.250000 0.250000 0.646904
#
# Coordination Sequence:
#
# PCOD8228524 Si02
#       7
#     8   8   8   8   8   8   8
#     4  10  26  41  57  98 133 165 214 267 337 386
#     4  10  21  39  66  90 119 163 223 266 308 393
#     4  10  22  40  62  92 132 166 212 272 316 396
#     4  10  21  40  62  92 122 163 216 269 320 386
#     4  11  21  41  65  94 126 167 215 271 326 390
#     4  10  20  39  66  88 123 168 214 262 328 384
#     4  11  23  43  67  93 131 175 218 272 328 391
#
# _framework density 20.207833000000001
#
# number of rings (size 3 to 8) (size 9 to 14) (size 15 to 20)
#    0.000    1.714    2.857    0.857    2.000    2.286 
#    0.000    0.000    0.000    0.000    0.000    0.000 
#    0.000    0.000    0.000    0.000    0.000    0.000 
#
# Total GULP energy -694095.826899 kJ/mol
# GULP energy per Si atom -12394.568337 kJ/mol
# Density = 2.016184 g / cm^3
# Si number density = 20.207833 Si / 1000 Ang^3
#
#
#
# Elastic Constant Matrix: (Units=GPa)
#
#
# Indices 1 2 3 4 5 6 
#
# 1 91.9609 36.2278 24.2545 0.0000 0.0000 0.0000
# 2 36.2278 108.8188 36.4514 0.0000 0.0000 0.0000
# 3 24.2545 36.4514 70.4951 0.0000 0.0000 0.0000
# 4 0.0000 0.0000 0.0000 -34.6277 0.0000 0.0000
# 5 0.0000 0.0000 0.0000 0.0000 6.6717 0.0000
# 6 0.0000 0.0000 0.0000 0.0000 0.0000 16.0056
#
#
#
# Elastic Compliance Matrix: (Units=1/GPa)
#
#
# Indices 1 2 3 4 5 6 
#
# 1 0.012923 -0.003402 -0.002687 0.000000 0.000000 0.000000
# 2 -0.003402 0.012010 -0.005040 0.000000 0.000000 0.000000
# 3 -0.002687 -0.005040 0.017716 0.000000 0.000000 0.000000
# 4 0.000000 0.000000 0.000000 -0.028879 0.000000 0.000000
# 5 0.000000 0.000000 0.000000 0.000000 0.149887 0.000000
# 6 0.000000 0.000000 0.000000 0.000000 0.000000 0.062478
#
#
# Mechanical properties :
#
#
# Convention : Reuss Voigt Hill
#
# Bulk Modulus (GPa) = 49.04064 51.68247 50.36156
# Shear Modulus (GPa) = 19.59310 9.23265 14.41288
#
# Velocity S-wave (km/s) = 3.11719 2.13981 2.67354
# Velocity P-wave (km/s) = 6.10546 5.63347 5.87421
#
# Compressibility (1/GPa) = 0.02039125
#
# Stress axis : x y z
#
# Youngs Moduli (GPa) = 77.38008 83.26091 56.44666
#
# Poissons Ratio (x) = 0.28328 0.15168
# Poissons Ratio (y) = 0.26327 0.28448
# Poissons Ratio (z) = 0.20793 0.41961
#
# Static dielectric constant tensor:
#      x y z
#    x 3.520320 0.000000 0.000000 
#    y 0.000000 4.004470 0.000000 
#    z 0.000000 0.000000 3.697850 
# 
# 
# High freq. dielectric constant tensor:
#      x y z
#    x 1.781150 0.000000 0.000000 
#    y 0.000000 1.803600 0.000000 
#    z 0.000000 0.000000 1.785440 
# 
# From -- ./inp_files/11670.got.cif
#   From: 2010.03.12/outbox.cif.g09.slc.cpg/sg56_6_cif.got.tgz:11670.got - 2010.04.16 15:33:40.
