data_PCOD8228435
_publ_section_title
;
Structure prediction by ZEFSAII (Michael W. Deem and Ramdas Pophale) SiO2 
 PCOD8228435
Probable space group: P C C N
;
_chemical_formula_sum "Si O2"
_cell_formula_units_Z 36
_cell_length_a 7.552464
_cell_length_b 16.055668
_cell_length_c 14.013443
_cell_angle_alpha 90.000000
_cell_angle_beta 90.000000
_cell_angle_gamma 90.000000
_cell_volume 1699.268060
_symmetry_space_group_name_H-M "P C C N"
_symmetry_group_IT_number 56
_symmetry_cell_setting 'orthorhombic'
loop_
_space_group_symop_operation_xyz
x,y,z
1/2-x,1/2-y,z
1/2+x,-y,1/2-z
-x,1/2+y,1/2-z
-x,-y,-z
1/2+x,1/2+y,-z
1/2-x,y,1/2+z
x,1/2-y,1/2+z
loop_
_atom_site_type_symbol
_atom_site_label
_atom_site_fract_x
_atom_site_fract_y
_atom_site_fract_z
Si Si1 0.750000 0.250000 0.742219
Si Si2 0.727800 0.553316 0.664559
Si Si3 0.105180 0.320280 0.684760
Si Si4 0.177824 0.040898 0.038127
Si Si5 0.359866 0.578787 0.195310
O O1 0.585789 0.223390 0.675630
O O2 0.697876 0.325836 0.811317
O O3 0.606181 0.618679 0.722700
O O4 0.687610 0.555168 0.550510
O O5 0.688028 0.459699 0.701098
O O6 0.931553 0.575760 0.680020
O O7 0.250000 0.250000 0.699269
O O8 0.141115 0.370506 0.587758
O O9 0.250827 0.975792 0.117310
O O10 0.000000 0.000000 0.000000
#
# Coordination Sequence:
#
# PCOD8228435 Si02
#       5
#     4   8   8   8   8
#     4  12  22  40  66  94 132 164 216 266 322 382
#     4  10  20  42  65  90 132 169 215 265 317 391
#     4  11  23  42  68  94 129 172 210 269 325 375
#     4   9  20  40  65  93 128 169 216 261 317 389
#     4  10  20  37  64  91 126 171 210 261 324 376
#
# _framework density 21.185593000000001
#
# number of rings (size 3 to 8) (size 9 to 14) (size 15 to 20)
#    0.000    1.778    2.222    4.000    0.000    0.889 
#    0.000   20.000    4.889    0.000    0.000    0.000 
#    0.000    0.000    0.000    0.000    0.000    0.000 
#
# Total GULP energy -446318.927842 kJ/mol
# GULP energy per Si atom -12397.747996 kJ/mol
# Density = 2.113737 g / cm^3
# Si number density = 21.185593 Si / 1000 Ang^3
#
#
#
# Elastic Constant Matrix: (Units=GPa)
#
#
# Indices 1 2 3 4 5 6 
#
# 1 61.4171 30.4471 20.3568 0.0000 0.0000 0.0000
# 2 30.4471 153.0403 52.4399 0.0000 0.0000 0.0000
# 3 20.3568 52.4399 150.3200 0.0000 0.0000 0.0000
# 4 0.0000 0.0000 0.0000 18.5829 0.0000 0.0000
# 5 0.0000 0.0000 0.0000 0.0000 23.2883 0.0000
# 6 0.0000 0.0000 0.0000 0.0000 0.0000 32.1536
#
#
#
# Elastic Compliance Matrix: (Units=1/GPa)
#
#
# Indices 1 2 3 4 5 6 
#
# 1 0.018310 -0.003172 -0.001373 0.000000 0.000000 0.000000
# 2 -0.003172 0.007971 -0.002351 0.000000 0.000000 0.000000
# 3 -0.001373 -0.002351 0.007659 0.000000 0.000000 0.000000
# 4 0.000000 0.000000 0.000000 0.053813 0.000000 0.000000
# 5 0.000000 0.000000 0.000000 0.000000 0.042940 0.000000
# 6 0.000000 0.000000 0.000000 0.000000 0.000000 0.031101
#
#
# Mechanical properties :
#
#
# Convention : Reuss Voigt Hill
#
# Bulk Modulus (GPa) = 49.63573 63.47389 56.55481
# Shear Modulus (GPa) = 27.42717 32.24054 29.83385
#
# Velocity S-wave (km/s) = 3.60198 3.90528 3.75669
# Velocity P-wave (km/s) = 6.38583 7.09654 6.75054
#
# Compressibility (1/GPa) = 0.02014678
#
# Stress axis : x y z
#
# Youngs Moduli (GPa) = 54.61558 125.45530 130.57228
#
# Poissons Ratio (x) = 0.39798 0.17926
# Poissons Ratio (y) = 0.17326 0.30699
# Poissons Ratio (z) = 0.07498 0.29496
#
# Static dielectric constant tensor:
#      x y z
#    x 3.733170 0.000000 0.000000 
#    y 0.000000 4.046170 0.000000 
#    z 0.000000 0.000000 4.587190 
# 
# 
# High freq. dielectric constant tensor:
#      x y z
#    x 1.824080 0.000000 0.000000 
#    y 0.000000 1.838840 0.000000 
#    z 0.000000 0.000000 1.819230 
# 
# From -- ./inp_files/10274.got.cif
#   From: 2010.03.12/outbox.cif.g09.slc.cpg/sg56_6_cif.got.tgz:10274.got - 2010.04.16 15:33:40.
