data_PCOD8228647
_publ_section_title
;
Structure prediction by ZEFSAII (Michael W. Deem and Ramdas Pophale) SiO2 
 PCOD8228647
Probable space group: P C C N
;
_chemical_formula_sum "Si O2"
_cell_formula_units_Z 60
_cell_length_a 35.007263
_cell_length_b 10.368850
_cell_length_c 8.449995
_cell_angle_alpha 90.000000
_cell_angle_beta 90.000000
_cell_angle_gamma 90.000000
_cell_volume 3067.221933
_symmetry_space_group_name_H-M "P C C N"
_symmetry_group_IT_number 56
_symmetry_cell_setting 'orthorhombic'
loop_
_space_group_symop_operation_xyz
x,y,z
1/2-x,1/2-y,z
1/2+x,-y,1/2-z
-x,1/2+y,1/2-z
-x,-y,-z
1/2+x,1/2+y,-z
1/2-x,y,1/2+z
x,1/2-y,1/2+z
loop_
_atom_site_type_symbol
_atom_site_label
_atom_site_fract_x
_atom_site_fract_y
_atom_site_fract_z
Si Si1 0.468816 0.802781 0.563784
Si Si2 0.278030 0.570364 0.762660
Si Si3 0.781470 0.646191 0.241847
Si Si4 0.432420 0.923777 0.259533
Si Si5 0.664719 0.754742 0.490966
Si Si6 0.357775 0.434007 0.752921
Si Si7 0.250000 0.750000 0.511608
Si Si8 0.990771 0.894658 0.368828
O O1 0.445325 0.888707 0.438400
O O2 0.442372 0.688144 0.633632
O O3 0.504970 0.741358 0.463775
O O4 0.481907 0.890557 0.712260
O O5 0.238195 0.492473 0.768517
O O6 0.314126 0.478284 0.765339
O O7 0.278548 0.659901 0.609504
O O8 0.279337 0.663858 0.912422
O O9 0.750000 0.750000 0.291330
O O10 0.815493 0.645479 0.369846
O O11 0.800524 0.680640 0.075362
O O12 0.386957 0.946641 0.259342
O O13 0.450020 0.062325 0.203221
O O14 0.636124 0.835904 0.601432
O O15 0.637899 0.648022 0.407607
O O16 0.000000 0.000000 0.500000
#
# Coordination Sequence:
#
# PCOD8228647 Si02
#       8
#     8   8   8   8   8   8   4   8
#     4   9  19  38  62  84 112 148 201 228 263 346
#     4  11  21  36  54  76 108 141 188 229 280 329
#     4  11  19  33  63  82  98 139 196 250 285 330
#     4  10  21  37  56  86 114 154 182 230 288 342
#     4  10  21  35  53  88 105 136 184 241 297 329
#     4  11  23  36  55  78 119 144 177 230 290 359
#     4  10  24  36  50  76 106 148 188 234 266 324
#     4   9  18  35  61  88 110 140 190 241 271 314
#
# _framework density 19.561677
#
# number of rings (size 3 to 8) (size 9 to 14) (size 15 to 20)
#    0.000    1.867    2.667    2.400    0.000    2.133 
#    0.000    8.000    0.000    0.000    0.000    0.000 
#    0.000    0.000    0.000    0.000    0.000    0.000 
#
# Total GULP energy -743517.095918 kJ/mol
# GULP energy per Si atom -12391.951599 kJ/mol
# Density = 1.951715 g / cm^3
# Si number density = 19.561677 Si / 1000 Ang^3
#
#
#
# Elastic Constant Matrix: (Units=GPa)
#
#
# Indices 1 2 3 4 5 6 
#
# 1 65.7359 30.3047 30.6104 0.0000 0.0000 0.0000
# 2 30.3047 83.0095 44.3098 0.0000 0.0000 0.0000
# 3 30.6104 44.3098 127.9751 0.0000 0.0000 0.0000
# 4 0.0000 0.0000 0.0000 40.8849 0.0000 0.0000
# 5 0.0000 0.0000 0.0000 0.0000 32.9796 0.0000
# 6 0.0000 0.0000 0.0000 0.0000 0.0000 31.3477
#
#
#
# Elastic Compliance Matrix: (Units=1/GPa)
#
#
# Indices 1 2 3 4 5 6 
#
# 1 0.018984 -0.005529 -0.002627 0.000000 0.000000 0.000000
# 2 -0.005529 0.016388 -0.004352 0.000000 0.000000 0.000000
# 3 -0.002627 -0.004352 0.009949 0.000000 0.000000 0.000000
# 4 0.000000 0.000000 0.000000 0.024459 0.000000 0.000000
# 5 0.000000 0.000000 0.000000 0.000000 0.030322 0.000000
# 6 0.000000 0.000000 0.000000 0.000000 0.000000 0.031900
#
#
# Mechanical properties :
#
#
# Convention : Reuss Voigt Hill
#
# Bulk Modulus (GPa) = 49.24331 54.13003 51.68667
# Shear Modulus (GPa) = 30.52773 32.47547 31.50160
#
# Velocity S-wave (km/s) = 3.95471 4.07892 4.01730
# Velocity P-wave (km/s) = 6.78830 7.06506 6.92806
#
# Compressibility (1/GPa) = 0.02030733
#
# Stress axis : x y z
#
# Youngs Moduli (GPa) = 52.67534 61.01982 100.51218
#
# Poissons Ratio (x) = 0.33735 0.26401
# Poissons Ratio (y) = 0.29122 0.43741
# Poissons Ratio (z) = 0.13836 0.26555
#
# Static dielectric constant tensor:
#      x y z
#    x 3.179470 0.000000 0.000000 
#    y 0.000000 3.655760 0.000000 
#    z 0.000000 0.000000 3.957690 
# 
# 
# High freq. dielectric constant tensor:
#      x y z
#    x 1.719310 0.000000 0.000000 
#    y 0.000000 1.761410 0.000000 
#    z 0.000000 0.000000 1.788340 
# 
# From -- ./inp_files/5189.got.cif
#   From: 2010.03.12/outbox.cif.g09.slc.cpg/sg56_3_cif.got.tgz:5189.got - 2010.04.16 15:33:40.
