data_PCOD8228288
_publ_section_title
;
Structure prediction by ZEFSAII (Michael W. Deem and Ramdas Pophale) SiO2 
 PCOD8228288
Probable space group: P C C N
;
_chemical_formula_sum "Si O2"
_cell_formula_units_Z 60
_cell_length_a 24.167362
_cell_length_b 8.534434
_cell_length_c 14.177578
_cell_angle_alpha 90.000000
_cell_angle_beta 90.000000
_cell_angle_gamma 90.000000
_cell_volume 2924.192890
_symmetry_space_group_name_H-M "P C C N"
_symmetry_group_IT_number 56
_symmetry_cell_setting 'orthorhombic'
loop_
_space_group_symop_operation_xyz
x,y,z
1/2-x,1/2-y,z
1/2+x,-y,1/2-z
-x,1/2+y,1/2-z
-x,-y,-z
1/2+x,1/2+y,-z
1/2-x,y,1/2+z
x,1/2-y,1/2+z
loop_
_atom_site_type_symbol
_atom_site_label
_atom_site_fract_x
_atom_site_fract_y
_atom_site_fract_z
Si Si1 0.516747 0.821166 0.103921
Si Si2 0.930375 0.249452 0.249930
Si Si3 0.750000 0.250000 0.250207
Si Si4 0.142138 0.211185 0.611157
Si Si5 0.337364 0.505533 0.225375
Si Si6 0.483460 0.178920 0.103818
Si Si7 0.642281 0.711318 0.611180
Si Si8 0.662866 0.494867 0.225364
O O1 0.470559 0.728664 0.161221
O O2 0.578619 0.802994 0.143412
O O3 0.500750 0.000519 0.103882
O O4 0.515155 0.747903 0.000054
O O5 0.894362 0.406174 0.251940
O O6 0.970926 0.227001 0.161573
O O7 0.894258 0.092984 0.247647
O O8 0.790671 0.367947 0.306657
O O9 0.709479 0.368041 0.193631
O O10 0.159530 0.388201 0.636861
O O11 0.078514 0.194803 0.643157
O O12 0.152514 0.176754 0.499997
O O13 0.176869 0.088988 0.676770
O O14 0.323258 0.411498 0.323212
O O15 0.660175 0.887936 0.636770
#
# Coordination Sequence:
#
# PCOD8228288 Si02
#       8
#     8   8   4   8   8   8   8   8
#     4  10  20  33  54  87 124 158 190 226 274 345
#     4  11  20  33  58  84 118 161 194 227 284 340
#     4  10  24  46  62  84 112 144 196 262 306 336
#     4  10  21  38  60  88 119 152 190 232 286 351
#     4  10  22  40  61  83 114 152 195 247 294 340
#     4  10  20  33  54  87 124 158 190 226 274 345
#     4  10  21  38  60  88 119 152 190 232 286 351
#     4  10  22  40  61  83 114 152 195 247 294 340
#
# _framework density 20.518483
#
# number of rings (size 3 to 8) (size 9 to 14) (size 15 to 20)
#    0.000    1.867    2.667    1.600    0.000    3.200 
#    0.000   10.667    0.000    0.000    0.000    0.000 
#    0.000    0.000    0.000    0.000    0.000    0.000 
#
# Total GULP energy -743416.329156 kJ/mol
# GULP energy per Si atom -12390.272153 kJ/mol
# Density = 2.047178 g / cm^3
# Si number density = 20.518483 Si / 1000 Ang^3
#
#
#
# Elastic Constant Matrix: (Units=GPa)
#
#
# Indices 1 2 3 4 5 6 
#
# 1 -960.5025-1327.0731 145.2323 0.0000 0.0000 0.0000
# 2 -1327.0731-1665.4247 194.1491 0.0000 0.0000 0.0000
# 3 145.2323 194.1491 81.2380 0.0000 0.0000 0.0000
# 4 0.0000 0.0000 0.0000 24.7092 0.0000 0.0000
# 5 0.0000 0.0000 0.0000 0.0000 26.2962 0.0000
# 6 0.0000 0.0000 0.0000 0.0000 0.0000 26.3198
#
#
#
# Elastic Compliance Matrix: (Units=1/GPa)
#
#
# Indices 1 2 3 4 5 6 
#
# 1 0.010406 -0.008182 0.000949 0.000000 0.000000 0.000000
# 2 -0.008182 0.005963 0.000376 0.000000 0.000000 0.000000
# 3 0.000949 0.000376 0.009714 0.000000 0.000000 0.000000
# 4 0.000000 0.000000 0.000000 0.040471 0.000000 0.000000
# 5 0.000000 0.000000 0.000000 0.000000 0.038028 0.000000
# 6 0.000000 0.000000 0.000000 0.000000 0.000000 0.037994
#
#
# Mechanical properties :
#
#
# Convention : Reuss Voigt Hill
#
# Bulk Modulus (GPa) = 80.83848 -502.23029 -210.69591
# Shear Modulus (GPa) = 31.16969 -88.33480 -28.58255
#
# Velocity S-wave (km/s) = 3.90180 -6.56847 -3.73636
# Velocity P-wave (km/s) = 7.73189 17.40194 11.02373
#
# Compressibility (1/GPa) = 0.01237035
#
# Stress axis : x y z
#
# Youngs Moduli (GPa) = 96.09532 167.70792 102.94562
#
# Poissons Ratio (x) = 1.37211 -0.09770
# Poissons Ratio (y) = 0.78621 -0.03872
# Poissons Ratio (z) = -0.09120 -0.06309
#
# Static dielectric constant tensor:
#      x y z
#    x 3.828750 0.000000 0.000000 
#    y 0.000000 4.548190 0.000000 
#    z 0.000000 0.000000 3.908140 
# 
# 
# High freq. dielectric constant tensor:
#      x y z
#    x 1.802320 0.000000 0.000000 
#    y 0.000000 1.809300 0.000000 
#    z 0.000000 0.000000 1.781220 
# 
# From -- ./inp_files/13242.got.cif
#   From: 2010.03.12/outbox.cif.g09.slc.cpg/sg56_7_cif.got.tgz:13242.got - 2010.04.16 15:33:40.
