data_PCOD8228778
_publ_section_title
;
Structure prediction by ZEFSAII (Michael W. Deem and Ramdas Pophale) SiO2 
 PCOD8228778
Probable space group: P C C N
;
_chemical_formula_sum "Si O2"
_cell_formula_units_Z 48
_cell_length_a 8.748714
_cell_length_b 29.847755
_cell_length_c 7.985652
_cell_angle_alpha 90.000000
_cell_angle_beta 90.000000
_cell_angle_gamma 90.000000
_cell_volume 2085.289091
_symmetry_space_group_name_H-M "P C C N"
_symmetry_group_IT_number 56
_symmetry_cell_setting 'orthorhombic'
loop_
_space_group_symop_operation_xyz
x,y,z
1/2-x,1/2-y,z
1/2+x,-y,1/2-z
-x,1/2+y,1/2-z
-x,-y,-z
1/2+x,1/2+y,-z
1/2-x,y,1/2+z
x,1/2-y,1/2+z
loop_
_atom_site_type_symbol
_atom_site_label
_atom_site_fract_x
_atom_site_fract_y
_atom_site_fract_z
Si Si1 0.898038 0.280561 0.827150
Si Si2 0.128634 0.454634 0.157859
Si Si3 0.960737 0.959099 0.727491
Si Si4 0.840479 0.636693 0.676637
Si Si5 0.602844 0.724857 0.379338
Si Si6 0.481056 0.134327 0.689189
O O1 0.750000 0.250000 0.798582
O O2 0.055391 0.259502 0.762403
O O3 0.887010 0.329585 0.738243
O O4 0.944014 0.283175 0.020097
O O5 0.309963 0.461478 0.158752
O O6 0.083717 0.408410 0.249792
O O7 0.055178 0.495868 0.259940
O O8 0.074406 0.453472 0.968032
O O9 0.054649 0.915522 0.797318
O O10 0.865024 0.677048 0.802327
O O11 0.655271 0.632956 0.670264
O O12 0.911358 0.645797 0.493720
O O13 0.750000 0.750000 0.466570
#
# Coordination Sequence:
#
# PCOD8228778 Si02
#       6
#     8   8   8   8   8   8
#     4  12  26  44  65  97 138 174 218 283 348 400
#     4  10  21  39  65  98 134 170 219 273 328 390
#     4  10  21  39  66  98 133 174 217 271 328 394
#     4  11  22  39  69 101 126 171 231 282 321 394
#     4  12  24  42  70  97 126 177 230 277 329 403
#     4  11  22  40  67  98 133 175 222 275 338 397
#
# _framework density 23.01839
#
# number of rings (size 3 to 8) (size 9 to 14) (size 15 to 20)
#    0.000    1.000    1.667    8.000    0.000    2.667 
#    3.000    0.833    3.667    0.000    0.000    0.000 
#    0.000    0.000    0.000    0.000    0.000    0.000 
#
# Total GULP energy -594733.972118 kJ/mol
# GULP energy per Si atom -12390.291086 kJ/mol
# Density = 2.296600 g / cm^3
# Si number density = 23.018390 Si / 1000 Ang^3
#
#
#
# Elastic Constant Matrix: (Units=GPa)
#
#
# Indices 1 2 3 4 5 6 
#
# 1 67.1925 63.9788 23.0204 0.0000 0.0000 0.0000
# 2 63.9788 211.1382 39.7019 0.0000 0.0000 0.0000
# 3 23.0204 39.7019 67.7985 0.0000 0.0000 0.0000
# 4 0.0000 0.0000 0.0000 27.4361 0.0000 0.0000
# 5 0.0000 0.0000 0.0000 0.0000 25.1407 0.0000
# 6 0.0000 0.0000 0.0000 0.0000 0.0000 50.3530
#
#
#
# Elastic Compliance Matrix: (Units=1/GPa)
#
#
# Indices 1 2 3 4 5 6 
#
# 1 0.021832 -0.005868 -0.003977 0.000000 0.000000 0.000000
# 2 -0.005868 0.006899 -0.002048 0.000000 0.000000 0.000000
# 3 -0.003977 -0.002048 0.017299 0.000000 0.000000 0.000000
# 4 0.000000 0.000000 0.000000 0.036448 0.000000 0.000000
# 5 0.000000 0.000000 0.000000 0.000000 0.039776 0.000000
# 6 0.000000 0.000000 0.000000 0.000000 0.000000 0.019860
#
#
# Mechanical properties :
#
#
# Convention : Reuss Voigt Hill
#
# Bulk Modulus (GPa) = 44.95241 66.61462 55.78351
# Shear Modulus (GPa) = 28.84919 35.21450 32.03184
#
# Velocity S-wave (km/s) = 3.54405 3.91556 3.73443
# Velocity P-wave (km/s) = 6.02647 7.03170 6.54840
#
# Compressibility (1/GPa) = 0.02224575
#
# Stress axis : x y z
#
# Youngs Moduli (GPa) = 45.80381 144.94129 57.80660
#
# Poissons Ratio (x) = 0.85048 0.22989
# Poissons Ratio (y) = 0.26877 0.11838
# Poissons Ratio (z) = 0.18216 0.29681
#
# Static dielectric constant tensor:
#      x y z
#    x 3.833750 0.000000 0.000000 
#    y 0.000000 4.898620 0.000000 
#    z 0.000000 0.000000 4.085720 
# 
# 
# High freq. dielectric constant tensor:
#      x y z
#    x 1.866610 0.000000 0.000000 
#    y 0.000000 1.938640 0.000000 
#    z 0.000000 0.000000 1.916660 
# 
# From -- ./inp_files/2245.got.cif
#   From: 2010.03.12/outbox.cif.g09.slc.cpg/sg56_2_cif.got.tgz:2245.got - 2010.04.16 15:33:40.
