data_PCOD8228771
_publ_section_title
;
Structure prediction by ZEFSAII (Michael W. Deem and Ramdas Pophale) SiO2 
 PCOD8228771
Probable space group: P C C N
;
_chemical_formula_sum "Si O2"
_cell_formula_units_Z 48
_cell_length_a 27.047825
_cell_length_b 8.408740
_cell_length_c 9.732715
_cell_angle_alpha 90.000000
_cell_angle_beta 90.000000
_cell_angle_gamma 90.000000
_cell_volume 2213.590480
_symmetry_space_group_name_H-M "P C C N"
_symmetry_group_IT_number 56
_symmetry_cell_setting 'orthorhombic'
loop_
_space_group_symop_operation_xyz
x,y,z
1/2-x,1/2-y,z
1/2+x,-y,1/2-z
-x,1/2+y,1/2-z
-x,-y,-z
1/2+x,1/2+y,-z
1/2-x,y,1/2+z
x,1/2-y,1/2+z
loop_
_atom_site_type_symbol
_atom_site_label
_atom_site_fract_x
_atom_site_fract_y
_atom_site_fract_z
Si Si1 0.364816 0.444174 0.760764
Si Si2 0.492711 0.312846 0.478257
Si Si3 0.855692 0.387953 0.134441
Si Si4 0.878808 0.714453 0.015464
Si Si5 0.447470 0.702057 0.785420
Si Si6 0.192903 0.723066 0.132171
O O1 0.370755 0.300551 0.648829
O O2 0.353956 0.368889 0.911514
O O3 0.416682 0.539465 0.767598
O O4 0.320154 0.561156 0.716996
O O5 0.500000 0.500000 0.500000
O O6 0.436074 0.278414 0.444466
O O7 0.508190 0.198949 0.604837
O O8 0.527927 0.252362 0.357454
O O9 0.851354 0.566508 0.084854
O O10 0.912178 0.344618 0.165295
O O11 0.824305 0.369796 0.273581
O O12 0.835572 0.273004 0.012847
O O13 0.250000 0.750000 0.101647
#
# Coordination Sequence:
#
# PCOD8228771 Si02
#       6
#     8   8   8   8   8   8
#     4  10  23  39  59  90 125 162 201 254 319 370
#     4  12  22  38  59  87 128 172 225 265 289 365
#     4  10  21  39  64  88 127 159 204 261 312 374
#     4  11  22  39  57  90 130 166 203 258 314 358
#     4  11  22  40  59  88 123 173 222 253 304 359
#     4  10  21  41  68  94 115 155 207 255 317 391
#
# _framework density 21.684228999999998
#
# number of rings (size 3 to 8) (size 9 to 14) (size 15 to 20)
#    0.000    1.333    3.333    3.500    0.000    4.667 
#    0.000    0.833    0.000    4.000    0.000    0.000 
#    0.000    0.000    0.000    0.000    0.000    0.000 
#
# Total GULP energy -595043.338419 kJ/mol
# GULP energy per Si atom -12396.736217 kJ/mol
# Density = 2.163487 g / cm^3
# Si number density = 21.684229 Si / 1000 Ang^3
#
#
#
# Elastic Constant Matrix: (Units=GPa)
#
#
# Indices 1 2 3 4 5 6 
#
# 1 88.2395 13.3602 28.8831 0.0000 0.0000 0.0000
# 2 13.3602 40.0583 20.9962 0.0000 0.0000 0.0000
# 3 28.8831 20.9962 106.2816 0.0000 0.0000 0.0000
# 4 0.0000 0.0000 0.0000 41.7374 0.0000 0.0000
# 5 0.0000 0.0000 0.0000 0.0000 26.0770 0.0000
# 6 0.0000 0.0000 0.0000 0.0000 0.0000 17.2880
#
#
#
# Elastic Compliance Matrix: (Units=1/GPa)
#
#
# Indices 1 2 3 4 5 6 
#
# 1 0.012697 -0.002706 -0.002916 0.000000 0.000000 0.000000
# 2 -0.002706 0.028424 -0.004880 0.000000 0.000000 0.000000
# 3 -0.002916 -0.004880 0.011165 0.000000 0.000000 0.000000
# 4 0.000000 0.000000 0.000000 0.023959 0.000000 0.000000
# 5 0.000000 0.000000 0.000000 0.000000 0.038348 0.000000
# 6 0.000000 0.000000 0.000000 0.000000 0.000000 0.057844
#
#
# Mechanical properties :
#
#
# Convention : Reuss Voigt Hill
#
# Bulk Modulus (GPa) = 31.96695 40.11763 36.04229
# Shear Modulus (GPa) = 24.52561 28.44314 26.48437
#
# Velocity S-wave (km/s) = 3.36673 3.62566 3.49860
# Velocity P-wave (km/s) = 5.46692 6.00569 5.74263
#
# Compressibility (1/GPa) = 0.03128231
#
# Stress axis : x y z
#
# Youngs Moduli (GPa) = 78.75872 35.18169 89.56249
#
# Poissons Ratio (x) = 0.09521 0.26115
# Poissons Ratio (y) = 0.21315 0.43704
# Poissons Ratio (z) = 0.22965 0.17168
#
# Static dielectric constant tensor:
#      x y z
#    x 3.704180 0.000000 0.000000 
#    y 0.000000 3.738350 0.000000 
#    z 0.000000 0.000000 4.221900 
# 
# 
# High freq. dielectric constant tensor:
#      x y z
#    x 1.829600 0.000000 0.000000 
#    y 0.000000 1.832710 0.000000 
#    z 0.000000 0.000000 1.872460 
# 
# From -- ./inp_files/2209.got.cif
#   From: 2010.03.12/outbox.cif.g09.slc.cpg/sg56_2_cif.got.tgz:2209.got - 2010.04.16 15:33:40.
