data_PCOD8228375
_publ_section_title
;
Structure prediction by ZEFSAII (Michael W. Deem and Ramdas Pophale) SiO2 
 PCOD8228375
Probable space group: P C C N
;
_chemical_formula_sum "Si O2"
_cell_formula_units_Z 40
_cell_length_a 8.770947
_cell_length_b 20.726479
_cell_length_c 10.387732
_cell_angle_alpha 90.000000
_cell_angle_beta 90.000000
_cell_angle_gamma 90.000000
_cell_volume 1888.394617
_symmetry_space_group_name_H-M "P C C N"
_symmetry_group_IT_number 56
_symmetry_cell_setting 'orthorhombic'
loop_
_space_group_symop_operation_xyz
x,y,z
1/2-x,1/2-y,z
1/2+x,-y,1/2-z
-x,1/2+y,1/2-z
-x,-y,-z
1/2+x,1/2+y,-z
1/2-x,y,1/2+z
x,1/2-y,1/2+z
loop_
_atom_site_type_symbol
_atom_site_label
_atom_site_fract_x
_atom_site_fract_y
_atom_site_fract_z
Si Si1 0.298848 0.389176 0.899319
Si Si2 0.848387 0.375040 0.450633
Si Si3 0.167789 0.317326 0.137174
Si Si4 0.155361 0.978437 0.436371
Si Si5 0.161421 0.847698 0.322662
O O1 0.194672 0.361198 0.012536
O O2 0.471810 0.384905 0.947372
O O3 0.271420 0.350522 0.767480
O O4 0.246529 0.462351 0.872948
O O5 0.764295 0.444495 0.456909
O O6 0.788840 0.335860 0.324922
O O7 0.798850 0.332885 0.577155
O O8 0.250000 0.250000 0.116579
O O9 0.986360 0.304939 0.144194
O O10 0.115147 0.924356 0.328418
O O11 0.000000 0.000000 0.500000
#
# Coordination Sequence:
#
# PCOD8228375 Si02
#       5
#     8   8   8   8   8
#     4  11  22  38  63  91 122 164 204 258 311 367
#     4   9  21  35  58  93 127 157 198 249 321 378
#     4  11  24  43  62  87 122 168 216 250 298 371
#     4  10  20  36  61  92 131 157 198 255 323 374
#     4   9  21  38  60  91 127 158 203 253 311 378
#
# _framework density 21.182012
#
# number of rings (size 3 to 8) (size 9 to 14) (size 15 to 20)
#    1.200    0.800    2.000    1.200    2.800    3.200 
#    0.000    1.000    0.000    4.800    0.000    0.000 
#    0.000    0.000    0.000    0.000    0.000    0.000 
#
# Total GULP energy -495731.238094 kJ/mol
# GULP energy per Si atom -12393.280952 kJ/mol
# Density = 2.113380 g / cm^3
# Si number density = 21.182012 Si / 1000 Ang^3
#
#
#
# Elastic Constant Matrix: (Units=GPa)
#
#
# Indices 1 2 3 4 5 6 
#
# 1 48.9510 13.7872 6.9935 0.0000 0.0000 0.0000
# 2 13.7872 60.6456 -1.6701 0.0000 0.0000 0.0000
# 3 6.9935 -1.6701 93.5005 0.0000 0.0000 0.0000
# 4 0.0000 0.0000 0.0000 15.7568 0.0000 0.0000
# 5 0.0000 0.0000 0.0000 0.0000 33.6555 0.0000
# 6 0.0000 0.0000 0.0000 0.0000 0.0000 39.3363
#
#
#
# Elastic Compliance Matrix: (Units=1/GPa)
#
#
# Indices 1 2 3 4 5 6 
#
# 1 0.022107 -0.005074 -0.001744 0.000000 0.000000 0.000000
# 2 -0.005074 0.017662 0.000695 0.000000 0.000000 0.000000
# 3 -0.001744 0.000695 0.010838 0.000000 0.000000 0.000000
# 4 0.000000 0.000000 0.000000 0.063465 0.000000 0.000000
# 5 0.000000 0.000000 0.000000 0.000000 0.029713 0.000000
# 6 0.000000 0.000000 0.000000 0.000000 0.000000 0.025422
#
#
# Mechanical properties :
#
#
# Convention : Reuss Voigt Hill
#
# Bulk Modulus (GPa) = 26.06831 26.81314 26.44072
# Shear Modulus (GPa) = 25.74150 30.01549 27.87850
#
# Velocity S-wave (km/s) = 3.48983 3.76843 3.63180
# Velocity P-wave (km/s) = 5.34529 5.62322 5.48602
#
# Compressibility (1/GPa) = 0.03836076
#
# Stress axis : x y z
#
# Youngs Moduli (GPa) = 45.23488 56.61918 92.26795
#
# Poissons Ratio (x) = 0.28727 0.16093
# Poissons Ratio (y) = 0.22951 -0.06412
# Poissons Ratio (z) = 0.07890 -0.03935
#
# Static dielectric constant tensor:
#      x y z
#    x 3.689360 0.000000 0.000000 
#    y 0.000000 3.686380 0.000000 
#    z 0.000000 0.000000 3.911450 
# 
# 
# High freq. dielectric constant tensor:
#      x y z
#    x 1.832870 0.000000 0.000000 
#    y 0.000000 1.813380 0.000000 
#    z 0.000000 0.000000 1.835130 
# 
# From -- ./inp_files/6164.got.cif
#   From: 2010.03.12/outbox.cif.g09.slc.cpg/sg56_4_cif.got.tgz:6164.got - 2010.04.16 15:33:40.
