data_PCOD8228198
_publ_section_title
;
Structure prediction by ZEFSAII (Michael W. Deem and Ramdas Pophale) SiO2 
 PCOD8228198
Probable space group: P C C N
;
_chemical_formula_sum "Si O2"
_cell_formula_units_Z 40
_cell_length_a 10.287988
_cell_length_b 9.290464
_cell_length_c 19.987011
_cell_angle_alpha 90.000000
_cell_angle_beta 90.000000
_cell_angle_gamma 90.000000
_cell_volume 1910.362152
_symmetry_space_group_name_H-M "P C C N"
_symmetry_group_IT_number 56
_symmetry_cell_setting 'orthorhombic'
loop_
_space_group_symop_operation_xyz
x,y,z
1/2-x,1/2-y,z
1/2+x,-y,1/2-z
-x,1/2+y,1/2-z
-x,-y,-z
1/2+x,1/2+y,-z
1/2-x,y,1/2+z
x,1/2-y,1/2+z
loop_
_atom_site_type_symbol
_atom_site_label
_atom_site_fract_x
_atom_site_fract_y
_atom_site_fract_z
Si Si1 0.363102 0.045149 0.875928
Si Si2 0.114280 0.899192 0.918104
Si Si3 0.750000 0.750000 0.943042
Si Si4 0.960666 0.811241 0.037275
Si Si5 0.250000 0.250000 0.272842
Si Si6 0.951207 0.815135 0.338703
O O1 0.433130 0.159092 0.926165
O O2 0.270477 0.115743 0.821216
O O3 0.270369 0.926585 0.912911
O O4 0.474967 0.966136 0.834218
O O5 0.054602 0.810231 0.856097
O O6 0.036678 0.052448 0.913291
O O7 0.085994 0.811901 0.988012
O O8 0.654534 0.843127 0.896835
O O9 0.836470 0.852041 0.990249
O O10 0.379531 0.221339 0.230210
#
# Coordination Sequence:
#
# PCOD8228198 Si02
#       6
#     8   8   4   8   4   8
#     4  12  22  42  66  95 124 177 209 260 326 377
#     4  10  20  38  64  97 126 160 211 257 316 389
#     4   9  17  40  58  90 125 161 194 246 324 367
#     4  10  19  37  67  91 134 159 196 261 326 379
#     4  11  25  44  66  84 133 171 218 270 314 361
#     4  10  25  39  63  91 124 168 216 262 302 376
#
# _framework density 20.938438999999999
#
# number of rings (size 3 to 8) (size 9 to 14) (size 15 to 20)
#    0.000    1.600    4.000    0.600    2.800    3.200 
#    3.600    0.000    0.000    2.400    0.000    0.000 
#    0.000    0.000    0.000    0.000    0.000    0.000 
#
# Total GULP energy -495576.982948 kJ/mol
# GULP energy per Si atom -12389.424574 kJ/mol
# Density = 2.089078 g / cm^3
# Si number density = 20.938439 Si / 1000 Ang^3
#
#
#
# Elastic Constant Matrix: (Units=GPa)
#
#
# Indices 1 2 3 4 5 6 
#
# 1 95.8315 59.0945 40.1100 0.0000 0.0000 0.0000
# 2 59.0945 88.5361 45.5758 0.0000 0.0000 0.0000
# 3 40.1100 45.5758 87.8628 0.0000 0.0000 0.0000
# 4 0.0000 0.0000 0.0000 -4.9752 0.0000 0.0000
# 5 0.0000 0.0000 0.0000 0.0000 25.6860 0.0000
# 6 0.0000 0.0000 0.0000 0.0000 0.0000 40.2829
#
#
#
# Elastic Compliance Matrix: (Units=1/GPa)
#
#
# Indices 1 2 3 4 5 6 
#
# 1 0.018205 -0.010741 -0.002739 0.000000 0.000000 0.000000
# 2 -0.010741 0.021747 -0.006377 0.000000 0.000000 0.000000
# 3 -0.002739 -0.006377 0.015940 0.000000 0.000000 0.000000
# 4 0.000000 0.000000 0.000000 -0.200997 0.000000 0.000000
# 5 0.000000 0.000000 0.000000 0.000000 0.038932 0.000000
# 6 0.000000 0.000000 0.000000 0.000000 0.000000 0.024824
#
#
# Mechanical properties :
#
#
# Convention : Reuss Voigt Hill
#
# Bulk Modulus (GPa) = 61.81631 62.42121 62.11876
# Shear Modulus (GPa) = -137.95845 20.69540 -58.63152
#
# Velocity S-wave (km/s) = -8.12593 3.14728 -5.29742
# Velocity P-wave (km/s) = 7.64552 6.56382 2.77221
#
# Compressibility (1/GPa) = 0.01617696
#
# Stress axis : x y z
#
# Youngs Moduli (GPa) = 54.93031 45.98379 62.73652
#
# Poissons Ratio (x) = 0.49391 0.17184
# Poissons Ratio (y) = 0.59001 0.40007
# Poissons Ratio (z) = 0.15046 0.29324
#
# Static dielectric constant tensor:
#      x y z
#    x 4.022930 0.000000 0.000000 
#    y 0.000000 3.641270 0.000000 
#    z 0.000000 0.000000 3.747500 
# 
# 
# High freq. dielectric constant tensor:
#      x y z
#    x 1.822350 0.000000 0.000000 
#    y 0.000000 1.814450 0.000000 
#    z 0.000000 0.000000 1.804590 
# 
# From -- ./inp_files/18014.got.cif
#   From: 2010.03.12/outbox.cif.g09.slc.cpg/sg56_10_cif.got.tgz:18014.got - 2010.04.16 15:33:40.
