data_PCOD8228083
_publ_section_title
;
Structure prediction by ZEFSAII (Michael W. Deem and Ramdas Pophale) SiO2 
 PCOD8228083
Probable space group: P C C N
;
_chemical_formula_sum "Si O2"
_cell_formula_units_Z 64
_cell_length_a 14.188578
_cell_length_b 12.708185
_cell_length_c 19.022266
_cell_angle_alpha 90.000000
_cell_angle_beta 90.000000
_cell_angle_gamma 90.000000
_cell_volume 3429.925214
_symmetry_space_group_name_H-M "P C C N"
_symmetry_group_IT_number 56
_symmetry_cell_setting 'orthorhombic'
loop_
_space_group_symop_operation_xyz
x,y,z
1/2-x,1/2-y,z
1/2+x,-y,1/2-z
-x,1/2+y,1/2-z
-x,-y,-z
1/2+x,1/2+y,-z
1/2-x,y,1/2+z
x,1/2-y,1/2+z
loop_
_atom_site_type_symbol
_atom_site_label
_atom_site_fract_x
_atom_site_fract_y
_atom_site_fract_z
Si Si1 0.350763 0.711759 0.866877
Si Si2 0.758010 0.475445 0.691127
Si Si3 0.468258 0.795991 0.143852
Si Si4 0.080966 0.844682 0.493727
Si Si5 0.072205 0.856264 0.263328
Si Si6 0.322664 0.340287 0.396586
Si Si7 0.879751 0.567967 0.964066
Si Si8 0.107868 0.018155 0.688692
O O1 0.250000 0.750000 0.839804
O O2 0.338337 0.586871 0.855150
O O3 0.432181 0.756087 0.815942
O O4 0.369451 0.758089 0.944401
O O5 0.673626 0.410857 0.728115
O O6 0.712875 0.551577 0.634877
O O7 0.811736 0.535342 0.753465
O O8 0.436801 0.778348 0.063853
O O9 0.442229 0.689347 0.185007
O O10 0.580049 0.814575 0.142484
O O11 0.412690 0.895129 0.175926
O O12 0.988791 0.898320 0.460653
O O13 0.142842 0.948948 0.509131
O O14 0.988999 0.933733 0.283621
O O15 0.250000 0.250000 0.378271
O O16 0.328952 0.352720 0.481695
O O17 0.850428 0.573842 0.882001
#
# Coordination Sequence:
#
# PCOD8228083 Si02
#       8
#     8   8   8   8   8   8   8   8
#     4  10  19  32  55  85 116 152 189 247 302 349
#     4  11  23  37  61  91 121 160 205 255 309 362
#     4  10  21  37  61  86 118 164 198 250 305 360
#     4   9  17  34  57  85 109 147 203 241 296 358
#     4  11  20  38  59  87 127 156 202 255 299 368
#     4  11  22  41  62  86 121 161 208 244 306 379
#     4   9  18  34  61  83 108 153 201 247 287 353
#     4  11  20  37  63  88 120 157 204 251 304 359
#
# _framework density 18.659299000000001
#
# number of rings (size 3 to 8) (size 9 to 14) (size 15 to 20)
#    0.000    1.750    3.750    3.000    0.000    0.000 
#    6.750    1.875    5.500    3.750    0.000    0.000 
#    0.000    0.000    0.000    0.000    0.000    0.000 
#
# Total GULP energy -792860.977841 kJ/mol
# GULP energy per Si atom -12388.452779 kJ/mol
# Density = 1.861683 g / cm^3
# Si number density = 18.659299 Si / 1000 Ang^3
#
#
#
# Elastic Constant Matrix: (Units=GPa)
#
#
# Indices 1 2 3 4 5 6 
#
# 1 69.7688 24.6680 27.6172 0.0000 0.0000 0.0000
# 2 24.6680 63.9989 34.9885 0.0000 0.0000 0.0000
# 3 27.6172 34.9885 92.4396 0.0000 0.0000 0.0000
# 4 0.0000 0.0000 0.0000 23.5521 0.0000 0.0000
# 5 0.0000 0.0000 0.0000 0.0000 -28.3544 0.0000
# 6 0.0000 0.0000 0.0000 0.0000 0.0000 25.5421
#
#
#
# Elastic Compliance Matrix: (Units=1/GPa)
#
#
# Indices 1 2 3 4 5 6 
#
# 1 0.017380 -0.004868 -0.003350 0.000000 0.000000 0.000000
# 2 -0.004868 0.021065 -0.006519 0.000000 0.000000 0.000000
# 3 -0.003350 -0.006519 0.014286 0.000000 0.000000 0.000000
# 4 0.000000 0.000000 0.000000 0.042459 0.000000 0.000000
# 5 0.000000 0.000000 0.000000 0.000000 -0.035268 0.000000
# 6 0.000000 0.000000 0.000000 0.000000 0.000000 0.039151
#
#
# Mechanical properties :
#
#
# Convention : Reuss Voigt Hill
#
# Bulk Modulus (GPa) = 42.99530 44.52832 43.76181
# Shear Modulus (GPa) = 36.68371 13.41021 25.04696
#
# Velocity S-wave (km/s) = 4.43874 2.68374 3.66776
# Velocity P-wave (km/s) = 7.02583 5.78956 6.43744
#
# Compressibility (1/GPa) = 0.02325836
#
# Stress axis : x y z
#
# Youngs Moduli (GPa) = 57.53683 47.47103 69.99745
#
# Poissons Ratio (x) = 0.23107 0.23450
# Poissons Ratio (y) = 0.28006 0.45632
# Poissons Ratio (z) = 0.19275 0.30947
#
# Static dielectric constant tensor:
#      x y z
#    x 3.302110 0.000000 0.000000 
#    y 0.000000 3.408170 0.000000 
#    z 0.000000 0.000000 3.518580 
# 
# 
# High freq. dielectric constant tensor:
#      x y z
#    x 1.706540 0.000000 0.000000 
#    y 0.000000 1.709880 0.000000 
#    z 0.000000 0.000000 1.733060 
# 
# From -- ./inp_files/16357.got.cif
#   From: 2010.03.12/outbox.cif.g09.slc.cpg/sg56_9_cif.got.tgz:16357.got - 2010.04.16 15:33:40.
