data_PCOD8228188
_publ_section_title
;
Structure prediction by ZEFSAII (Michael W. Deem and Ramdas Pophale) SiO2 
 PCOD8228188
Probable space group: P C C N
;
_chemical_formula_sum "Si O2"
_cell_formula_units_Z 56
_cell_length_a 16.183791
_cell_length_b 13.117348
_cell_length_c 13.510346
_cell_angle_alpha 90.000000
_cell_angle_beta 90.000000
_cell_angle_gamma 90.000000
_cell_volume 2868.089986
_symmetry_space_group_name_H-M "P C C N"
_symmetry_group_IT_number 56
_symmetry_cell_setting 'orthorhombic'
loop_
_space_group_symop_operation_xyz
x,y,z
1/2-x,1/2-y,z
1/2+x,-y,1/2-z
-x,1/2+y,1/2-z
-x,-y,-z
1/2+x,1/2+y,-z
1/2-x,y,1/2+z
x,1/2-y,1/2+z
loop_
_atom_site_type_symbol
_atom_site_label
_atom_site_fract_x
_atom_site_fract_y
_atom_site_fract_z
Si Si1 0.160673 0.946581 0.901548
Si Si2 0.194584 0.481400 0.191662
Si Si3 0.931864 0.692011 0.780062
Si Si4 0.704714 0.146076 0.961296
Si Si5 0.068196 0.360401 0.446020
Si Si6 0.818964 0.831803 0.881547
Si Si7 0.432700 0.753885 0.420015
O O1 0.203839 0.999975 0.808233
O O2 0.125271 0.837444 0.867512
O O3 0.083211 0.016834 0.940087
O O4 0.232456 0.929154 0.981644
O O5 0.120966 0.400620 0.173542
O O6 0.173698 0.586370 0.135759
O O7 0.282534 0.440992 0.150032
O O8 0.939135 0.687131 0.662533
O O9 0.892982 0.802249 0.806836
O O10 0.020046 0.690319 0.835374
O O11 0.750000 0.250000 0.928795
O O12 0.623171 0.170848 0.024331
O O13 0.150311 0.324477 0.504944
O O14 0.988230 0.320325 0.503839
O O15 0.750000 0.750000 0.863872
#
# Coordination Sequence:
#
# PCOD8228188 Si02
#       7
#     8   8   8   8   8   8   8
#     4  10  21  38  59  84 116 152 198 237 284 350
#     4  10  20  38  61  86 114 151 193 240 291 349
#     4   9  21  37  56  88 117 152 192 238 291 342
#     4  10  22  39  58  85 115 152 193 241 293 342
#     4  10  19  37  61  81 117 157 191 242 289 345
#     4   9  18  35  59  88 117 145 194 240 289 345
#     4  10  22  38  56  85 119 152 196 235 290 352
#
# _framework density 19.525189000000001
#
# number of rings (size 3 to 8) (size 9 to 14) (size 15 to 20)
#    0.000    2.286    1.429    0.429    2.000    5.143 
#    5.143    2.857    0.000    0.000    0.000    0.000 
#    0.000    0.000    0.000    0.000    0.000    0.000 
#
# Total GULP energy -694010.383079 kJ/mol
# GULP energy per Si atom -12393.042555 kJ/mol
# Density = 1.948075 g / cm^3
# Si number density = 19.525189 Si / 1000 Ang^3
#
#
#
# Elastic Constant Matrix: (Units=GPa)
#
#
# Indices 1 2 3 4 5 6 
#
# 1 66.3122 22.3964 29.2292 0.0000 0.0000 0.0000
# 2 22.3964 75.0521 40.8737 0.0000 0.0000 0.0000
# 3 29.2292 40.8737 100.1820 0.0000 0.0000 0.0000
# 4 0.0000 0.0000 0.0000 32.8709 0.0000 0.0000
# 5 0.0000 0.0000 0.0000 0.0000 19.9549 0.0000
# 6 0.0000 0.0000 0.0000 0.0000 0.0000 22.4512
#
#
#
# Elastic Compliance Matrix: (Units=1/GPa)
#
#
# Indices 1 2 3 4 5 6 
#
# 1 0.017887 -0.003208 -0.003910 0.000000 0.000000 0.000000
# 2 -0.003208 0.017706 -0.006288 0.000000 0.000000 0.000000
# 3 -0.003910 -0.006288 0.013688 0.000000 0.000000 0.000000
# 4 0.000000 0.000000 0.000000 0.030422 0.000000 0.000000
# 5 0.000000 0.000000 0.000000 0.000000 0.050113 0.000000
# 6 0.000000 0.000000 0.000000 0.000000 0.000000 0.044541
#
#
# Mechanical properties :
#
#
# Convention : Reuss Voigt Hill
#
# Bulk Modulus (GPa) = 44.50583 47.39386 45.94984
# Shear Modulus (GPa) = 23.96259 24.99189 24.47724
#
# Velocity S-wave (km/s) = 3.50704 3.58156 3.54450
# Velocity P-wave (km/s) = 6.26439 6.43656 6.35106
#
# Compressibility (1/GPa) = 0.02246897
#
# Stress axis : x y z
#
# Youngs Moduli (GPa) = 55.90608 56.47840 73.05719
#
# Poissons Ratio (x) = 0.18121 0.28563
# Poissons Ratio (y) = 0.17937 0.45937
# Poissons Ratio (z) = 0.21858 0.35512
#
# Static dielectric constant tensor:
#      x y z
#    x 3.626780 0.000000 0.000000 
#    y 0.000000 3.640420 0.000000 
#    z 0.000000 0.000000 3.381180 
# 
# 
# High freq. dielectric constant tensor:
#      x y z
#    x 1.756650 0.000000 0.000000 
#    y 0.000000 1.761440 0.000000 
#    z 0.000000 0.000000 1.755690 
# 
# From -- ./inp_files/12277.got.cif
#   From: 2010.03.12/outbox.cif.g09.slc.cpg/sg56_7_cif.got.tgz:12277.got - 2010.04.16 15:33:40.
