data_PCOD8228073
_publ_section_title
;
Structure prediction by ZEFSAII (Michael W. Deem and Ramdas Pophale) SiO2 
 PCOD8228073
Probable space group: P C C N
;
_chemical_formula_sum "Si O2"
_cell_formula_units_Z 48
_cell_length_a 19.406516
_cell_length_b 5.049568
_cell_length_c 23.576823
_cell_angle_alpha 90.000000
_cell_angle_beta 90.000000
_cell_angle_gamma 90.000000
_cell_volume 2310.399505
_symmetry_space_group_name_H-M "P C C N"
_symmetry_group_IT_number 56
_symmetry_cell_setting 'orthorhombic'
loop_
_space_group_symop_operation_xyz
x,y,z
1/2-x,1/2-y,z
1/2+x,-y,1/2-z
-x,1/2+y,1/2-z
-x,-y,-z
1/2+x,1/2+y,-z
1/2-x,y,1/2+z
x,1/2-y,1/2+z
loop_
_atom_site_type_symbol
_atom_site_label
_atom_site_fract_x
_atom_site_fract_y
_atom_site_fract_z
Si Si1 0.544938 0.647852 0.744099
Si Si2 0.038449 0.774411 0.450772
Si Si3 0.750000 0.750000 0.457176
Si Si4 0.606904 0.608724 0.971532
Si Si5 0.750000 0.250000 0.378581
Si Si6 0.889052 0.080638 0.847337
Si Si7 0.965805 0.737570 0.624612
O O1 0.492183 0.867536 0.766349
O O2 0.602324 0.610494 0.792849
O O3 0.578096 0.734211 0.683047
O O4 0.091224 0.678941 0.499879
O O5 0.040535 0.553672 0.401343
O O6 0.961382 0.795876 0.479693
O O7 0.059541 0.050922 0.422087
O O8 0.820257 0.721436 0.495866
O O9 0.738660 0.496588 0.418952
O O10 0.619128 0.588842 0.904517
O O11 0.682593 0.235733 0.338395
O O12 0.954432 0.278622 0.855253
#
# Coordination Sequence:
#
# PCOD8228073 Si02
#       7
#     8   8   4   8   4   8   8
#     4  10  19  32  52  74  99 131 165 207 249 295
#     4  10  20  32  51  74 102 130 166 209 250 297
#     4  10  20  34  50  72 104 136 168 202 256 318
#     4   9  19  33  51  75 101 131 164 208 255 300
#     4  10  20  32  50  74 104 134 160 206 260 310
#     4   9  19  33  52  77 104 130 168 210 260 311
#     4  10  19  33  50  74 100 131 167 204 248 299
#
# _framework density 20.775628999999999
#
# number of rings (size 3 to 8) (size 9 to 14) (size 15 to 20)
#    0.000    2.333    0.000    4.000    0.000   12.667 
#    0.000    0.000    0.000    2.000    0.000    0.000 
#    0.000    0.000    0.000    0.000    0.000    0.000 
#
# Total GULP energy -594701.330482 kJ/mol
# GULP energy per Si atom -12389.611052 kJ/mol
# Density = 2.072834 g / cm^3
# Si number density = 20.775629 Si / 1000 Ang^3
#
#
#
# Elastic Constant Matrix: (Units=GPa)
#
#
# Indices 1 2 3 4 5 6 
#
# 1 111.8986 8.7666 20.9549 0.0000 0.0000 0.0000
# 2 8.7666 57.4642 4.4304 0.0000 0.0000 0.0000
# 3 20.9549 4.4304 102.6406 0.0000 0.0000 0.0000
# 4 0.0000 0.0000 0.0000 34.0382 0.0000 0.0000
# 5 0.0000 0.0000 0.0000 0.0000 21.7117 0.0000
# 6 0.0000 0.0000 0.0000 0.0000 0.0000 25.2022
#
#
#
# Elastic Compliance Matrix: (Units=1/GPa)
#
#
# Indices 1 2 3 4 5 6 
#
# 1 0.009386 -0.001288 -0.001861 0.000000 0.000000 0.000000
# 2 -0.001288 0.017637 -0.000498 0.000000 0.000000 0.000000
# 3 -0.001861 -0.000498 0.010144 0.000000 0.000000 0.000000
# 4 0.000000 0.000000 0.000000 0.029379 0.000000 0.000000
# 5 0.000000 0.000000 0.000000 0.000000 0.046058 0.000000
# 6 0.000000 0.000000 0.000000 0.000000 0.000000 0.039679
#
#
# Mechanical properties :
#
#
# Convention : Reuss Voigt Hill
#
# Bulk Modulus (GPa) = 33.47547 37.81191 35.64369
# Shear Modulus (GPa) = 29.49236 32.04718 30.76977
#
# Velocity S-wave (km/s) = 3.77180 3.93178 3.85262
# Velocity P-wave (km/s) = 5.92591 6.23309 6.08144
#
# Compressibility (1/GPa) = 0.02987262
#
# Stress axis : x y z
#
# Youngs Moduli (GPa) = 106.54122 56.69860 98.57949
#
# Poissons Ratio (x) = 0.07305 0.18342
# Poissons Ratio (y) = 0.13727 0.04912
# Poissons Ratio (z) = 0.19823 0.02825
#
# Static dielectric constant tensor:
#      x y z
#    x 4.166390 0.000000 0.000000 
#    y 0.000000 3.655650 0.000000 
#    z 0.000000 0.000000 3.947760 
# 
# 
# High freq. dielectric constant tensor:
#      x y z
#    x 1.772920 0.000000 0.000000 
#    y 0.000000 1.820180 0.000000 
#    z 0.000000 0.000000 1.809070 
# 
# From -- ./inp_files/21296.got.cif
#   From: 2010.03.12/outbox.cif.g09.slc.cpg/sg56_11_cif.got.tgz:21296.got - 2010.04.16 15:33:40.
