data_PCOD8228902
_publ_section_title
;
Structure prediction by ZEFSAII (Michael W. Deem and Ramdas Pophale) SiO2 
 PCOD8228902
Probable space group: P C C N
;
_chemical_formula_sum "Si O2"
_cell_formula_units_Z 40
_cell_length_a 5.025980
_cell_length_b 29.893967
_cell_length_c 13.200904
_cell_angle_alpha 90.000000
_cell_angle_beta 90.000000
_cell_angle_gamma 90.000000
_cell_volume 1983.389362
_symmetry_space_group_name_H-M "P C C N"
_symmetry_group_IT_number 56
_symmetry_cell_setting 'orthorhombic'
loop_
_space_group_symop_operation_xyz
x,y,z
1/2-x,1/2-y,z
1/2+x,-y,1/2-z
-x,1/2+y,1/2-z
-x,-y,-z
1/2+x,1/2+y,-z
1/2-x,y,1/2+z
x,1/2-y,1/2+z
loop_
_atom_site_type_symbol
_atom_site_label
_atom_site_fract_x
_atom_site_fract_y
_atom_site_fract_z
Si Si1 0.060879 0.556290 0.708838
Si Si2 0.667546 0.800269 0.118847
Si Si3 0.994759 0.779920 0.399103
Si Si4 0.552378 0.987205 0.115532
Si Si5 0.143689 0.659859 0.714984
O O1 0.051809 0.532067 0.817436
O O2 0.312314 0.543944 0.643916
O O3 0.107983 0.607724 0.733741
O O4 0.812477 0.542857 0.637594
O O5 0.750000 0.750000 0.151966
O O6 0.439147 0.822018 0.189789
O O7 0.939851 0.828088 0.125343
O O8 0.574744 0.803875 0.003959
O O9 0.250000 0.750000 0.418811
O O10 0.048487 0.817899 0.318357
O O11 0.750000 0.750000 0.360039
O O12 0.500000 0.000000 0.000000
#
# Coordination Sequence:
#
# PCOD8228902 Si02
#       5
#     8   8   8   8   8
#     4  10  23  38  61  94 115 148 202 239 290 367
#     4  11  23  40  59  84 121 162 200 240 292 350
#     4  11  23  39  59  84 116 159 201 235 288 350
#     4  10  21  43  64  83 121 158 187 239 304 359
#     4  12  23  38  61  89 120 151 196 253 293 336
#
# _framework density 20.1675
#
# number of rings (size 3 to 8) (size 9 to 14) (size 15 to 20)
#    0.000    1.200    0.000    7.800    0.000    3.200 
#    0.000    0.000    0.000    0.000    0.000    0.000 
#    0.000    0.000    0.000    0.000    0.000    0.000 
#
# Total GULP energy -495904.960198 kJ/mol
# GULP energy per Si atom -12397.624005 kJ/mol
# Density = 2.012160 g / cm^3
# Si number density = 20.167500 Si / 1000 Ang^3
#
#
#
# Elastic Constant Matrix: (Units=GPa)
#
#
# Indices 1 2 3 4 5 6 
#
# 1 135.3461 29.7752 34.8154 0.0000 0.0000 0.0000
# 2 29.7752 126.6532 43.0931 0.0000 0.0000 0.0000
# 3 34.8154 43.0931 120.7841 0.0000 0.0000 0.0000
# 4 0.0000 0.0000 0.0000 10.7672 0.0000 0.0000
# 5 0.0000 0.0000 0.0000 0.0000 18.4365 0.0000
# 6 0.0000 0.0000 0.0000 0.0000 0.0000 31.7821
#
#
#
# Elastic Compliance Matrix: (Units=1/GPa)
#
#
# Indices 1 2 3 4 5 6 
#
# 1 0.008156 -0.001272 -0.001897 0.000000 0.000000 0.000000
# 2 -0.001272 0.009185 -0.002910 0.000000 0.000000 0.000000
# 3 -0.001897 -0.002910 0.009864 0.000000 0.000000 0.000000
# 4 0.000000 0.000000 0.000000 0.092874 0.000000 0.000000
# 5 0.000000 0.000000 0.000000 0.000000 0.054240 0.000000
# 6 0.000000 0.000000 0.000000 0.000000 0.000000 0.031464
#
#
# Mechanical properties :
#
#
# Convention : Reuss Voigt Hill
#
# Bulk Modulus (GPa) = 66.46018 66.46120 66.46069
# Shear Modulus (GPa) = 22.42565 30.53715 26.48140
#
# Velocity S-wave (km/s) = 3.33824 3.89546 3.62757
# Velocity P-wave (km/s) = 6.91983 7.29788 7.11137
#
# Compressibility (1/GPa) = 0.01504660
#
# Stress axis : x y z
#
# Youngs Moduli (GPa) = 122.60446 108.87525 101.37433
#
# Poissons Ratio (x) = 0.13849 0.19233
# Poissons Ratio (y) = 0.15595 0.29503
# Poissons Ratio (z) = 0.23261 0.31686
#
# Static dielectric constant tensor:
#      x y z
#    x 4.163410 0.000000 0.000000 
#    y 0.000000 3.446270 0.000000 
#    z 0.000000 0.000000 3.451730 
# 
# 
# High freq. dielectric constant tensor:
#      x y z
#    x 1.814780 0.000000 0.000000 
#    y 0.000000 1.782540 0.000000 
#    z 0.000000 0.000000 1.794080 
# 
# From -- ./inp_files/5679.got.cif
#   From: 2010.03.12/outbox.cif.g09.slc.cpg/sg56_3_cif.got.tgz:5679.got - 2010.04.16 15:33:40.
