data_PCOD8228370
_publ_section_title
;
Structure prediction by ZEFSAII (Michael W. Deem and Ramdas Pophale) SiO2 
 PCOD8228370
Probable space group: P C C N
;
_chemical_formula_sum "Si O2"
_cell_formula_units_Z 52
_cell_length_a 9.284796
_cell_length_b 14.325677
_cell_length_c 19.558541
_cell_angle_alpha 90.000000
_cell_angle_beta 90.000000
_cell_angle_gamma 90.000000
_cell_volume 2601.500872
_symmetry_space_group_name_H-M "P C C N"
_symmetry_group_IT_number 56
_symmetry_cell_setting 'orthorhombic'
loop_
_space_group_symop_operation_xyz
x,y,z
1/2-x,1/2-y,z
1/2+x,-y,1/2-z
-x,1/2+y,1/2-z
-x,-y,-z
1/2+x,1/2+y,-z
1/2-x,y,1/2+z
x,1/2-y,1/2+z
loop_
_atom_site_type_symbol
_atom_site_label
_atom_site_fract_x
_atom_site_fract_y
_atom_site_fract_z
Si Si1 0.960391 0.677780 0.872481
Si Si2 0.250000 0.250000 0.520589
Si Si3 0.168673 0.436126 0.799648
Si Si4 0.750000 0.750000 0.760482
Si Si5 0.750000 0.250000 0.191348
Si Si6 0.690513 0.568345 0.549525
Si Si7 0.160478 0.579663 0.214815
Si Si8 0.119098 0.971838 0.575605
O O1 0.893453 0.741738 0.932722
O O2 0.873175 0.699546 0.803842
O O3 0.941681 0.570329 0.893810
O O4 0.127657 0.704385 0.857286
O O5 0.225929 0.338503 0.471724
O O6 0.182243 0.326047 0.789428
O O7 0.234024 0.463930 0.874249
O O8 0.248951 0.495361 0.743884
O O9 0.001720 0.457991 0.789440
O O10 0.680891 0.326999 0.241745
O O11 0.517900 0.588294 0.550317
O O12 0.721523 0.490371 0.490437
O O13 0.205805 0.586732 0.133943
#
# Coordination Sequence:
#
# PCOD8228370 Si02
#       8
#     8   4   8   4   4   8   8   8
#     4  10  20  36  60  88 121 156 196 246 307 365
#     4   9  19  36  60  88 116 158 202 244 302 372
#     4  11  22  37  62  91 121 156 201 257 301 362
#     4  11  19  36  58  92 116 154 198 250 296 364
#     4  12  22  36  56  94 122 154 204 258 306 360
#     4   9  18  33  60  85 113 154 205 238 297 366
#     4  11  23  36  59  89 121 157 202 254 310 358
#     4   9  18  37  58  82 115 161 198 238 301 371
#
# _framework density 19.988461000000001
#
# number of rings (size 3 to 8) (size 9 to 14) (size 15 to 20)
#    0.000    1.846    3.077    2.308    0.000    0.000 
#    0.000    0.000    0.000   48.923    0.000    0.000 
#    0.000    0.000    0.000    0.000    0.000    0.000 
#
# Total GULP energy -644277.509720 kJ/mol
# GULP energy per Si atom -12389.952110 kJ/mol
# Density = 1.994297 g / cm^3
# Si number density = 19.988461 Si / 1000 Ang^3
#
#
#
# Elastic Constant Matrix: (Units=GPa)
#
#
# Indices 1 2 3 4 5 6 
#
# 1 67.1177 15.6998 35.5295 0.0000 0.0000 0.0000
# 2 15.6998 55.5784 12.5568 0.0000 0.0000 0.0000
# 3 35.5295 12.5568 109.3931 0.0000 0.0000 0.0000
# 4 0.0000 0.0000 0.0000 -8.1717 0.0000 0.0000
# 5 0.0000 0.0000 0.0000 0.0000 26.5163 0.0000
# 6 0.0000 0.0000 0.0000 0.0000 0.0000 30.4383
#
#
#
# Elastic Compliance Matrix: (Units=1/GPa)
#
#
# Indices 1 2 3 4 5 6 
#
# 1 0.018838 -0.004044 -0.005654 0.000000 0.000000 0.000000
# 2 -0.004044 0.019340 -0.000906 0.000000 0.000000 0.000000
# 3 -0.005654 -0.000906 0.011082 0.000000 0.000000 0.000000
# 4 0.000000 0.000000 0.000000 -0.122373 0.000000 0.000000
# 5 0.000000 0.000000 0.000000 0.000000 0.037713 0.000000
# 6 0.000000 0.000000 0.000000 0.000000 0.000000 0.032853
#
#
# Mechanical properties :
#
#
# Convention : Reuss Voigt Hill
#
# Bulk Modulus (GPa) = 35.65010 39.96238 37.80624
# Shear Modulus (GPa) = 178.49175 20.97675 99.73425
#
# Velocity S-wave (km/s) = 9.45998 3.24303 7.07137
# Velocity P-wave (km/s) = 11.71306 5.83602 9.25351
#
# Compressibility (1/GPa) = 0.02805041
#
# Stress axis : x y z
#
# Youngs Moduli (GPa) = 53.08336 51.70691 90.23782
#
# Poissons Ratio (x) = 0.20910 0.51023
# Poissons Ratio (y) = 0.21467 0.08180
# Poissons Ratio (z) = 0.30015 0.04687
#
# Static dielectric constant tensor:
#      x y z
#    x 3.441380 0.000000 0.000000 
#    y 0.000000 3.653880 0.000000 
#    z 0.000000 0.000000 4.151130 
# 
# 
# High freq. dielectric constant tensor:
#      x y z
#    x 1.745130 0.000000 0.000000 
#    y 0.000000 1.771750 0.000000 
#    z 0.000000 0.000000 1.803590 
# 
# From -- ./inp_files/18181.got.cif
#   From: 2010.03.12/outbox.cif.g09.slc.cpg/sg56_10_cif.got.tgz:18181.got - 2010.04.16 15:33:40.
