data_PCOD8228399
_publ_section_title
;
Structure prediction by ZEFSAII (Michael W. Deem and Ramdas Pophale) SiO2 
 PCOD8228399
Probable space group: P C C N
;
_chemical_formula_sum "Si O2"
_cell_formula_units_Z 56
_cell_length_a 29.831921
_cell_length_b 4.902922
_cell_length_c 17.895544
_cell_angle_alpha 90.000000
_cell_angle_beta 90.000000
_cell_angle_gamma 90.000000
_cell_volume 2617.466363
_symmetry_space_group_name_H-M "P C C N"
_symmetry_group_IT_number 56
_symmetry_cell_setting 'orthorhombic'
loop_
_space_group_symop_operation_xyz
x,y,z
1/2-x,1/2-y,z
1/2+x,-y,1/2-z
-x,1/2+y,1/2-z
-x,-y,-z
1/2+x,1/2+y,-z
1/2-x,y,1/2+z
x,1/2-y,1/2+z
loop_
_atom_site_type_symbol
_atom_site_label
_atom_site_fract_x
_atom_site_fract_y
_atom_site_fract_z
Si Si1 0.392502 0.007778 0.537568
Si Si2 0.998991 0.466299 0.200340
Si Si3 0.653887 0.606795 0.809816
Si Si4 0.356839 0.953579 0.384774
Si Si5 0.797847 0.391066 0.747648
Si Si6 0.097467 0.054526 0.324997
Si Si7 0.954943 0.510237 0.950956
O O1 0.357535 0.901098 0.473858
O O2 0.428501 0.773759 0.554951
O O3 0.360836 0.109582 0.604652
O O4 0.422414 0.265597 0.512378
O O5 0.954981 0.601764 0.163345
O O6 0.983109 0.186843 0.239997
O O7 0.034184 0.406935 0.134654
O O8 0.667999 0.302258 0.790054
O O9 0.610370 0.660760 0.758334
O O10 0.694728 0.817552 0.789530
O O11 0.309080 0.920529 0.341644
O O12 0.391955 0.759391 0.342680
O O13 0.373358 0.264423 0.380960
O O14 0.750000 0.250000 0.756091
O O15 0.000000 0.500000 0.000000
#
# Coordination Sequence:
#
# PCOD8228399 Si02
#       7
#     8   8   8   8   8   8   8
#     4  12  23  40  58  87 123 159 205 248 300 363
#     4  12  23  36  55  80 111 152 203 255 296 335
#     4  10  21  37  62  88 118 156 192 245 305 358
#     4  10  21  37  61  82 111 153 191 235 287 355
#     4  10  21  40  65  92 117 148 192 238 296 370
#     4  10  20  37  54  79 111 152 202 240 287 353
#     4  12  25  39  57  84 122 166 206 257 304 342
#
# _framework density 21.394734
#
# number of rings (size 3 to 8) (size 9 to 14) (size 15 to 20)
#    0.000    1.143    0.000    7.714    0.000    2.286 
#    0.000    0.714    0.000    5.143    0.000    0.000 
#    0.000    0.000    0.000    0.000    0.000    0.000 
#
# Total GULP energy -694012.003877 kJ/mol
# GULP energy per Si atom -12393.071498 kJ/mol
# Density = 2.134604 g / cm^3
# Si number density = 21.394734 Si / 1000 Ang^3
#
#
#
# Elastic Constant Matrix: (Units=GPa)
#
#
# Indices 1 2 3 4 5 6 
#
# 1 73.2612 14.5592 40.5834 0.0000 0.0000 0.0000
# 2 14.5592 96.8253 22.6526 0.0000 0.0000 0.0000
# 3 40.5834 22.6526 143.0646 0.0000 0.0000 0.0000
# 4 0.0000 0.0000 0.0000 24.7717 0.0000 0.0000
# 5 0.0000 0.0000 0.0000 0.0000 25.8812 0.0000
# 6 0.0000 0.0000 0.0000 0.0000 0.0000 32.7757
#
#
#
# Elastic Compliance Matrix: (Units=1/GPa)
#
#
# Indices 1 2 3 4 5 6 
#
# 1 0.016383 -0.001429 -0.004421 0.000000 0.000000 0.000000
# 2 -0.001429 0.010850 -0.001313 0.000000 0.000000 0.000000
# 3 -0.004421 -0.001313 0.008452 0.000000 0.000000 0.000000
# 4 0.000000 0.000000 0.000000 0.040369 0.000000 0.000000
# 5 0.000000 0.000000 0.000000 0.000000 0.038638 0.000000
# 6 0.000000 0.000000 0.000000 0.000000 0.000000 0.030510
#
#
# Mechanical properties :
#
#
# Convention : Reuss Voigt Hill
#
# Bulk Modulus (GPa) = 46.81853 52.08241 49.45047
# Shear Modulus (GPa) = 30.00357 32.37611 31.18984
#
# Velocity S-wave (km/s) = 3.74890 3.89430 3.82229
# Velocity P-wave (km/s) = 6.37728 6.67961 6.53020
#
# Compressibility (1/GPa) = 0.02135906
#
# Stress axis : x y z
#
# Youngs Moduli (GPa) = 61.03938 92.16723 118.31785
#
# Poissons Ratio (x) = 0.13172 0.52309
# Poissons Ratio (y) = 0.08723 0.15530
# Poissons Ratio (z) = 0.26986 0.12097
#
# Static dielectric constant tensor:
#      x y z
#    x 3.611910 0.000000 0.000000 
#    y 0.000000 4.055320 0.000000 
#    z 0.000000 0.000000 3.875550 
# 
# 
# High freq. dielectric constant tensor:
#      x y z
#    x 1.810860 0.000000 0.000000 
#    y 0.000000 1.858520 0.000000 
#    z 0.000000 0.000000 1.838360 
# 
# From -- ./inp_files/13447.got.cif
#   From: 2010.03.12/outbox.cif.g09.slc.cpg/sg56_7_cif.got.tgz:13447.got - 2010.04.16 15:33:40.
