data_PCOD8228264
_publ_section_title
;
Structure prediction by ZEFSAII (Michael W. Deem and Ramdas Pophale) SiO2 
 PCOD8228264
Probable space group: P C C N
;
_chemical_formula_sum "Si O2"
_cell_formula_units_Z 48
_cell_length_a 22.289225
_cell_length_b 21.755315
_cell_length_c 5.170020
_cell_angle_alpha 90.000000
_cell_angle_beta 90.000000
_cell_angle_gamma 90.000000
_cell_volume 2506.989802
_symmetry_space_group_name_H-M "P C C N"
_symmetry_group_IT_number 56
_symmetry_cell_setting 'orthorhombic'
loop_
_space_group_symop_operation_xyz
x,y,z
1/2-x,1/2-y,z
1/2+x,-y,1/2-z
-x,1/2+y,1/2-z
-x,-y,-z
1/2+x,1/2+y,-z
1/2-x,y,1/2+z
x,1/2-y,1/2+z
loop_
_atom_site_type_symbol
_atom_site_label
_atom_site_fract_x
_atom_site_fract_y
_atom_site_fract_z
Si Si1 0.533936 0.428160 0.726810
Si Si2 0.888865 0.714299 0.680731
Si Si3 0.719113 0.994046 0.788775
Si Si4 0.221374 0.353043 0.200402
Si Si5 0.077552 0.506396 0.273760
Si Si6 0.972351 0.288658 0.285549
O O1 0.553408 0.445164 0.436595
O O2 0.462419 0.443636 0.754661
O O3 0.553601 0.357349 0.770163
O O4 0.570586 0.467320 0.937359
O O5 0.873328 0.732225 0.386799
O O6 0.849621 0.654764 0.752125
O O7 0.957474 0.697778 0.718474
O O8 0.752164 0.026136 0.543732
O O9 0.647405 0.996068 0.778657
O O10 0.739596 0.923813 0.806864
O O11 0.258246 0.320849 0.434022
O O12 0.951640 0.253050 0.543393
#
# Coordination Sequence:
#
# PCOD8228264 Si02
#       6
#     8   8   8   8   8   8
#     4  10  20  34  54  79 107 138 172 214 261 309
#     4  10  20  31  44  62  87 124 165 205 244 280
#     4  10  20  34  51  72 101 133 166 204 250 306
#     4  10  20  31  44  62  87 124 165 205 244 280
#     4  10  20  34  54  79 107 138 172 214 261 309
#     4  10  20  34  51  72 101 133 166 204 250 306
#
# _framework density 19.146469
#
# number of rings (size 3 to 8) (size 9 to 14) (size 15 to 20)
#    0.000    2.000    0.000    4.000    0.000    2.000 
#    0.000   10.000    0.000    0.000    0.000    0.000 
#    0.000   46.667    0.000    0.000    0.000    0.000 
#
# Total GULP energy -594870.560281 kJ/mol
# GULP energy per Si atom -12393.136673 kJ/mol
# Density = 1.910289 g / cm^3
# Si number density = 19.146469 Si / 1000 Ang^3
#
#
#
# Elastic Constant Matrix: (Units=GPa)
#
#
# Indices 1 2 3 4 5 6 
#
# 1 69.0234 -7.6075 20.3032 0.0000 0.0000 0.0000
# 2 -7.6075 58.1600 13.5183 0.0000 0.0000 0.0000
# 3 20.3032 13.5183 124.8067 0.0000 0.0000 0.0000
# 4 0.0000 0.0000 0.0000 12.7221 0.0000 0.0000
# 5 0.0000 0.0000 0.0000 0.0000 23.5821 0.0000
# 6 0.0000 0.0000 0.0000 0.0000 0.0000 14.8626
#
#
#
# Elastic Compliance Matrix: (Units=1/GPa)
#
#
# Indices 1 2 3 4 5 6 
#
# 1 0.015619 0.002702 -0.002833 0.000000 0.000000 0.000000
# 2 0.002702 0.018105 -0.002401 0.000000 0.000000 0.000000
# 3 -0.002833 -0.002401 0.008733 0.000000 0.000000 0.000000
# 4 0.000000 0.000000 0.000000 0.078603 0.000000 0.000000
# 5 0.000000 0.000000 0.000000 0.000000 0.042405 0.000000
# 6 0.000000 0.000000 0.000000 0.000000 0.000000 0.067283
#
#
# Mechanical properties :
#
#
# Convention : Reuss Voigt Hill
#
# Bulk Modulus (GPa) = 26.74305 33.82422 30.28364
# Shear Modulus (GPa) = 20.13872 25.28512 22.71192
#
# Velocity S-wave (km/s) = 3.24670 3.63797 3.44789
# Velocity P-wave (km/s) = 5.29648 5.94566 5.63043
#
# Compressibility (1/GPa) = 0.03739289
#
# Stress axis : x y z
#
# Youngs Moduli (GPa) = 64.02433 55.23242 114.50366
#
# Poissons Ratio (x) = -0.14922 0.32444
# Poissons Ratio (y) = -0.17297 0.27487
# Poissons Ratio (z) = 0.18141 0.13259
#
# Static dielectric constant tensor:
#      x y z
#    x 3.160800 0.000000 0.000000 
#    y 0.000000 3.117390 0.000000 
#    z 0.000000 0.000000 4.017020 
# 
# 
# High freq. dielectric constant tensor:
#      x y z
#    x 1.716010 0.000000 0.000000 
#    y 0.000000 1.705440 0.000000 
#    z 0.000000 0.000000 1.774800 
# 
# From -- ./inp_files/864.got.cif
#   From: 2010.03.12/outbox.cif.g09.slc.cpg/sg56_1_cif.got.tgz:864.got - 2010.04.16 15:33:40.
