data_PCOD8228709
_publ_section_title
;
Structure prediction by ZEFSAII (Michael W. Deem and Ramdas Pophale) SiO2 
 PCOD8228709
Probable space group: P C C N
;
_chemical_formula_sum "Si O2"
_cell_formula_units_Z 40
_cell_length_a 7.364602
_cell_length_b 16.170799
_cell_length_c 14.837540
_cell_angle_alpha 90.000000
_cell_angle_beta 90.000000
_cell_angle_gamma 90.000000
_cell_volume 1767.024875
_symmetry_space_group_name_H-M "P C C N"
_symmetry_group_IT_number 56
_symmetry_cell_setting 'orthorhombic'
loop_
_space_group_symop_operation_xyz
x,y,z
1/2-x,1/2-y,z
1/2+x,-y,1/2-z
-x,1/2+y,1/2-z
-x,-y,-z
1/2+x,1/2+y,-z
1/2-x,y,1/2+z
x,1/2-y,1/2+z
loop_
_atom_site_type_symbol
_atom_site_label
_atom_site_fract_x
_atom_site_fract_y
_atom_site_fract_z
Si Si1 0.307512 0.481777 0.887903
Si Si2 0.856425 0.573826 0.415847
Si Si3 0.536543 0.735730 0.992997
Si Si4 0.595531 0.688486 0.184461
Si Si5 0.028144 0.874396 0.359475
O O1 0.510473 0.512834 0.861557
O O2 0.288831 0.393547 0.840726
O O3 0.154811 0.546053 0.857177
O O4 0.283614 0.471157 0.994724
O O5 0.991559 0.650949 0.438340
O O6 0.682017 0.596838 0.357396
O O7 0.750000 0.750000 0.991880
O O8 0.481828 0.724263 0.098163
O O9 0.431845 0.812406 0.944590
O O10 0.750000 0.750000 0.219887
O O11 0.450730 0.674592 0.264982
#
# Coordination Sequence:
#
# PCOD8228709 Si02
#       5
#     8   8   8   8   8
#     4  10  22  37  62  94 124 163 213 261 316 378
#     4   9  19  38  60  86 126 165 205 259 311 371
#     4   8  17  36  60  86 124 171 206 252 322 378
#     4  10  21  38  60  93 129 164 212 265 316 381
#     4  11  21  37  67  90 122 173 211 253 321 380
#
# _framework density 22.636921000000001
#
# number of rings (size 3 to 8) (size 9 to 14) (size 15 to 20)
#    0.000    2.400    0.000    3.600    2.800    0.800 
#    0.000    0.000    0.000   22.800    0.000    0.000 
#    0.000    0.000    0.000    0.000    0.000    0.000 
#
# Total GULP energy -495816.634032 kJ/mol
# GULP energy per Si atom -12395.415851 kJ/mol
# Density = 2.258540 g / cm^3
# Si number density = 22.636921 Si / 1000 Ang^3
#
#
#
# Elastic Constant Matrix: (Units=GPa)
#
#
# Indices 1 2 3 4 5 6 
#
# 1 47.0187 40.0362 29.4882 0.0000 0.0000 0.0000
# 2 40.0362 139.2044 51.8677 0.0000 0.0000 0.0000
# 3 29.4882 51.8677 111.8225 0.0000 0.0000 0.0000
# 4 0.0000 0.0000 0.0000 21.9763 0.0000 0.0000
# 5 0.0000 0.0000 0.0000 0.0000 13.0908 0.0000
# 6 0.0000 0.0000 0.0000 0.0000 0.0000 35.2793
#
#
#
# Elastic Compliance Matrix: (Units=1/GPa)
#
#
# Indices 1 2 3 4 5 6 
#
# 1 0.030113 -0.006893 -0.004744 0.000000 0.000000 0.000000
# 2 -0.006893 0.010263 -0.002942 0.000000 0.000000 0.000000
# 3 -0.004744 -0.002942 0.011558 0.000000 0.000000 0.000000
# 4 0.000000 0.000000 0.000000 0.045504 0.000000 0.000000
# 5 0.000000 0.000000 0.000000 0.000000 0.076390 0.000000
# 6 0.000000 0.000000 0.000000 0.000000 0.000000 0.028345
#
#
# Mechanical properties :
#
#
# Convention : Reuss Voigt Hill
#
# Bulk Modulus (GPa) = 43.90711 60.09223 51.99967
# Shear Modulus (GPa) = 20.92734 25.84618 23.38676
#
# Velocity S-wave (km/s) = 3.04382 3.38268 3.21771
# Velocity P-wave (km/s) = 5.63839 6.46996 6.06844
#
# Compressibility (1/GPa) = 0.02277535
#
# Stress axis : x y z
#
# Youngs Moduli (GPa) = 33.20873 97.44171 86.51677
#
# Poissons Ratio (x) = 0.67168 0.41040
# Poissons Ratio (y) = 0.22891 0.25457
# Poissons Ratio (z) = 0.15753 0.28671
#
# Static dielectric constant tensor:
#      x y z
#    x 3.519130 0.000000 0.000000 
#    y 0.000000 4.581990 0.000000 
#    z 0.000000 0.000000 4.161500 
# 
# 
# High freq. dielectric constant tensor:
#      x y z
#    x 1.850100 0.000000 0.000000 
#    y 0.000000 1.910180 0.000000 
#    z 0.000000 0.000000 1.889270 
# 
# From -- ./inp_files/10348.got.cif
#   From: 2010.03.12/outbox.cif.g09.slc.cpg/sg56_6_cif.got.tgz:10348.got - 2010.04.16 15:33:40.
