data_PCOD8228665
_publ_section_title
;
Structure prediction by ZEFSAII (Michael W. Deem and Ramdas Pophale) SiO2 
 PCOD8228665
Probable space group: P C C N
;
_chemical_formula_sum "Si O2"
_cell_formula_units_Z 32
_cell_length_a 17.355050
_cell_length_b 17.549427
_cell_length_c 5.036282
_cell_angle_alpha 90.000000
_cell_angle_beta 90.000000
_cell_angle_gamma 90.000000
_cell_volume 1533.906367
_symmetry_space_group_name_H-M "P C C N"
_symmetry_group_IT_number 56
_symmetry_cell_setting 'orthorhombic'
loop_
_space_group_symop_operation_xyz
x,y,z
1/2-x,1/2-y,z
1/2+x,-y,1/2-z
-x,1/2+y,1/2-z
-x,-y,-z
1/2+x,1/2+y,-z
1/2-x,y,1/2+z
x,1/2-y,1/2+z
loop_
_atom_site_type_symbol
_atom_site_label
_atom_site_fract_x
_atom_site_fract_y
_atom_site_fract_z
Si Si1 0.459744 0.298497 0.373671
Si Si2 0.208329 0.523264 0.111703
Si Si3 0.208692 0.344841 0.010933
Si Si4 0.966342 0.043584 0.254717
O O1 0.478053 0.270570 0.671326
O O2 0.371415 0.324319 0.374087
O O3 0.510361 0.368531 0.272377
O O4 0.270352 0.557866 0.323532
O O5 0.216223 0.434224 0.056371
O O6 0.125452 0.542525 0.231386
O O7 0.225237 0.312335 0.307165
O O8 0.000000 0.000000 0.500000
O O9 0.000000 0.000000 0.000000
#
# Coordination Sequence:
#
# PCOD8228665 Si02
#       4
#     8   8   8   8
#     4  12  26  41  60  91 132 170 210 261 323 383
#     4  10  21  38  64  95 123 158 214 272 317 373
#     4  10  21  36  59  88 127 169 206 246 306 387
#     4  12  24  42  69  94 125 172 221 270 321 380
#
# _framework density 20.86177
#
# number of rings (size 3 to 8) (size 9 to 14) (size 15 to 20)
#    0.000    1.000    2.500    4.500    7.000    3.000 
#    0.000    0.000    0.000    4.500    0.000    0.000 
#    0.000    0.000    0.000    0.000    0.000    0.000 
#
# Total GULP energy -396460.826918 kJ/mol
# GULP energy per Si atom -12389.400841 kJ/mol
# Density = 2.081429 g / cm^3
# Si number density = 20.861770 Si / 1000 Ang^3
#
#
#
# Elastic Constant Matrix: (Units=GPa)
#
#
# Indices 1 2 3 4 5 6 
#
# 1 97.8385 -55.5791 131.1263 0.0000 0.0000 0.0000
# 2 -55.5791 -286.5498 344.1695 0.0000 0.0000 0.0000
# 3 131.1263 344.1695 -89.3214 0.0000 0.0000 0.0000
# 4 0.0000 0.0000 0.0000 30.8439 0.0000 0.0000
# 5 0.0000 0.0000 0.0000 0.0000 35.1169 0.0000
# 6 0.0000 0.0000 0.0000 0.0000 0.0000 34.3175
#
#
#
# Elastic Compliance Matrix: (Units=1/GPa)
#
#
# Indices 1 2 3 4 5 6 
#
# 1 0.010435 -0.004514 -0.002073 0.000000 0.000000 0.000000
# 2 -0.004514 0.002914 0.004603 0.000000 0.000000 0.000000
# 3 -0.002073 0.004603 0.003498 0.000000 0.000000 0.000000
# 4 0.000000 0.000000 0.000000 0.032421 0.000000 0.000000
# 5 0.000000 0.000000 0.000000 0.000000 0.028476 0.000000
# 6 0.000000 0.000000 0.000000 0.000000 0.000000 0.029140
#
#
# Mechanical properties :
#
#
# Convention : Reuss Voigt Hill
#
# Bulk Modulus (GPa) = 77.63955 62.37786 70.00871
# Shear Modulus (GPa) = 43.42377 -26.46095 8.48141
#
# Velocity S-wave (km/s) = 4.56730 -3.56532 2.01850
# Velocity P-wave (km/s) = 8.06911 3.60788 6.25010
#
# Compressibility (1/GPa) = 0.01288003
#
# Stress axis : x y z
#
# Youngs Moduli (GPa) = 95.83169 343.13969 285.90540
#
# Poissons Ratio (x) = 1.54880 0.59264
# Poissons Ratio (y) = 0.43255 -1.31603
# Poissons Ratio (z) = 0.19864 -1.57948
#
# Static dielectric constant tensor:
#      x y z
#    x 3.779380 0.000000 0.000000 
#    y 0.000000 5.515410 0.000000 
#    z 0.000000 0.000000 4.483120 
# 
# 
# High freq. dielectric constant tensor:
#      x y z
#    x 1.802660 0.000000 0.000000 
#    y 0.000000 1.797560 0.000000 
#    z 0.000000 0.000000 1.849300 
# 
# From -- ./inp_files/405.got.cif
#   From: 2010.03.12/outbox.cif.g09.slc.cpg/sg56_1_cif.got.tgz:405.got - 2010.04.16 15:33:40.
