data_PCOD8228346
_publ_section_title
;
Structure prediction by ZEFSAII (Michael W. Deem and Ramdas Pophale) SiO2 
 PCOD8228346
Probable space group: P C C N
;
_chemical_formula_sum "Si O2"
_cell_formula_units_Z 36
_cell_length_a 10.346414
_cell_length_b 18.958361
_cell_length_c 9.064540
_cell_angle_alpha 90.000000
_cell_angle_beta 90.000000
_cell_angle_gamma 90.000000
_cell_volume 1778.019054
_symmetry_space_group_name_H-M "P C C N"
_symmetry_group_IT_number 56
_symmetry_cell_setting 'orthorhombic'
loop_
_space_group_symop_operation_xyz
x,y,z
1/2-x,1/2-y,z
1/2+x,-y,1/2-z
-x,1/2+y,1/2-z
-x,-y,-z
1/2+x,1/2+y,-z
1/2-x,y,1/2+z
x,1/2-y,1/2+z
loop_
_atom_site_type_symbol
_atom_site_label
_atom_site_fract_x
_atom_site_fract_y
_atom_site_fract_z
Si Si1 0.646540 0.157003 0.639139
Si Si2 0.634655 0.916873 0.968488
Si Si3 0.616388 0.590738 0.792534
Si Si4 0.374122 0.548749 0.354964
Si Si5 0.250000 0.750000 0.116710
O O1 0.507839 0.120544 0.623752
O O2 0.754370 0.098942 0.673612
O O3 0.671542 0.195416 0.484371
O O4 0.647407 0.210578 0.777409
O O5 0.625035 0.877327 0.126567
O O6 0.649112 0.001769 0.996477
O O7 0.756134 0.886070 0.880755
O O8 0.503565 0.904083 0.874899
O O9 0.608493 0.504984 0.783349
#
# Coordination Sequence:
#
# PCOD8228346 Si02
#       5
#     8   8   8   8   4
#     4  11  22  42  64  83 126 153 217 240 286 373
#     4   9  20  33  53  97 123 146 182 232 343 354
#     4  10  20  35  59  91 122 153 186 258 315 356
#     4   9  20  35  61  90 128 147 188 260 317 353
#     4  10  26  40  60  88 110 184 206 240 276 346
#
# _framework density 20.247252
#
# number of rings (size 3 to 8) (size 9 to 14) (size 15 to 20)
#    1.333    0.889    0.000    2.667    3.111    2.667 
#    0.000    0.000    0.000   22.667    0.000    0.000 
#    0.000    0.000    0.000    0.000    0.000    0.000 
#
# Total GULP energy -446202.821445 kJ/mol
# GULP energy per Si atom -12394.522818 kJ/mol
# Density = 2.020117 g / cm^3
# Si number density = 20.247252 Si / 1000 Ang^3
#
#
#
# Elastic Constant Matrix: (Units=GPa)
#
#
# Indices 1 2 3 4 5 6 
#
# 1 139.8284 3.6866 16.2269 0.0000 0.0000 0.0000
# 2 3.6866 26.0828 -3.7896 0.0000 0.0000 0.0000
# 3 16.2269 -3.7896 56.7787 0.0000 0.0000 0.0000
# 4 0.0000 0.0000 0.0000 12.6344 0.0000 0.0000
# 5 0.0000 0.0000 0.0000 0.0000 29.0308 0.0000
# 6 0.0000 0.0000 0.0000 0.0000 0.0000 13.9117
#
#
#
# Elastic Compliance Matrix: (Units=1/GPa)
#
#
# Indices 1 2 3 4 5 6 
#
# 1 0.007445 -0.001375 -0.002220 0.000000 0.000000 0.000000
# 2 -0.001375 0.038969 0.002994 0.000000 0.000000 0.000000
# 3 -0.002220 0.002994 0.018446 0.000000 0.000000 0.000000
# 4 0.000000 0.000000 0.000000 0.079149 0.000000 0.000000
# 5 0.000000 0.000000 0.000000 0.000000 0.034446 0.000000
# 6 0.000000 0.000000 0.000000 0.000000 0.000000 0.071882
#
#
# Mechanical properties :
#
#
# Convention : Reuss Voigt Hill
#
# Bulk Modulus (GPa) = 15.70863 28.32642 22.01753
# Shear Modulus (GPa) = 18.33121 24.88643 21.60882
#
# Velocity S-wave (km/s) = 3.01220 3.50969 3.27042
# Velocity P-wave (km/s) = 4.45792 5.51766 5.01585
#
# Compressibility (1/GPa) = 0.06365927
#
# Stress axis : x y z
#
# Youngs Moduli (GPa) = 134.31009 25.66162 54.21107
#
# Poissons Ratio (x) = 0.03528 0.12033
# Poissons Ratio (y) = 0.18466 -0.16230
# Poissons Ratio (z) = 0.29812 -0.07683
#
# Static dielectric constant tensor:
#      x y z
#    x 3.439890 0.000000 0.000000 
#    y 0.000000 3.370130 0.000000 
#    z 0.000000 0.000000 3.549410 
# 
# 
# High freq. dielectric constant tensor:
#      x y z
#    x 1.788700 0.000000 0.000000 
#    y 0.000000 1.750920 0.000000 
#    z 0.000000 0.000000 1.788430 
# 
# From -- ./inp_files/2027.got.cif
#   From: 2010.03.12/outbox.cif.g09.slc.cpg/sg56_2_cif.got.tgz:2027.got - 2010.04.16 15:33:40.
