data_PCOD8228053
_publ_section_title
;
Structure prediction by ZEFSAII (Michael W. Deem and Ramdas Pophale) SiO2 
 PCOD8228053
Probable space group: P C C N
;
_chemical_formula_sum "Si O2"
_cell_formula_units_Z 64
_cell_length_a 18.329739
_cell_length_b 13.283419
_cell_length_c 12.565438
_cell_angle_alpha 90.000000
_cell_angle_beta 90.000000
_cell_angle_gamma 90.000000
_cell_volume 3059.452990
_symmetry_space_group_name_H-M "P C C N"
_symmetry_group_IT_number 56
_symmetry_cell_setting 'orthorhombic'
loop_
_space_group_symop_operation_xyz
x,y,z
1/2-x,1/2-y,z
1/2+x,-y,1/2-z
-x,1/2+y,1/2-z
-x,-y,-z
1/2+x,1/2+y,-z
1/2-x,y,1/2+z
x,1/2-y,1/2+z
loop_
_atom_site_type_symbol
_atom_site_label
_atom_site_fract_x
_atom_site_fract_y
_atom_site_fract_z
Si Si1 0.827198 0.962773 0.569002
Si Si2 0.514346 0.338284 0.053503
Si Si3 0.428256 0.218479 0.896357
Si Si4 0.404436 0.504062 0.062861
Si Si5 0.072717 0.714564 0.231879
Si Si6 0.677847 0.400586 0.762944
Si Si7 0.329475 0.542441 0.669643
Si Si8 0.828093 0.597754 0.633305
O O1 0.898572 0.894586 0.589542
O O2 0.756521 0.897285 0.600570
O O3 0.832481 0.062697 0.641779
O O4 0.820586 0.998708 0.448017
O O5 0.465055 0.426379 0.104328
O O6 0.569916 0.297059 0.140924
O O7 0.463403 0.249071 0.009578
O O8 0.559952 0.385681 0.955364
O O9 0.490188 0.231885 0.806895
O O10 0.361002 0.290575 0.865069
O O11 0.346207 0.509728 0.157202
O O12 0.370440 0.470851 0.951179
O O13 0.129999 0.803395 0.211447
O O14 0.099877 0.613584 0.173380
O O15 0.762824 0.385427 0.791379
O O16 0.337863 0.448935 0.749702
#
# Coordination Sequence:
#
# PCOD8228053 Si02
#       8
#     8   8   8   8   8   8   8   8
#     4  11  25  44  66  98 134 167 218 274 325 377
#     4  10  22  38  64  94 124 168 214 264 313 392
#     4  11  25  41  66  99 129 171 212 264 330 391
#     4  10  18  42  67  88 122 172 217 257 319 380
#     4  12  25  41  63  98 132 170 220 264 327 388
#     4  11  24  43  66  92 129 177 213 270 321 384
#     4  11  25  44  66  95 131 172 218 275 325 378
#     4  10  22  45  69  92 128 170 221 262 321 391
#
# _framework density 20.918772000000001
#
# number of rings (size 3 to 8) (size 9 to 14) (size 15 to 20)
#    0.000    1.250    3.750    1.500    3.500    1.500 
#    0.000    2.500    0.000    0.000    0.000    0.000 
#    0.000    0.000    0.000    0.000    0.000    0.000 
#
# Total GULP energy -793667.907410 kJ/mol
# GULP energy per Si atom -12401.061053 kJ/mol
# Density = 2.087116 g / cm^3
# Si number density = 20.918772 Si / 1000 Ang^3
#
#
#
# Elastic Constant Matrix: (Units=GPa)
#
#
# Indices 1 2 3 4 5 6 
#
# 1 82.5101 31.7785 20.0193 0.0000 0.0000 0.0000
# 2 31.7785 72.5479 33.1942 0.0000 0.0000 0.0000
# 3 20.0193 33.1942 121.8687 0.0000 0.0000 0.0000
# 4 0.0000 0.0000 0.0000 14.2245 0.0000 0.0000
# 5 0.0000 0.0000 0.0000 0.0000 34.8440 0.0000
# 6 0.0000 0.0000 0.0000 0.0000 0.0000 31.5181
#
#
#
# Elastic Compliance Matrix: (Units=1/GPa)
#
#
# Indices 1 2 3 4 5 6 
#
# 1 0.014639 -0.006069 -0.000752 0.000000 0.000000 0.000000
# 2 -0.006069 0.018262 -0.003977 0.000000 0.000000 0.000000
# 3 -0.000752 -0.003977 0.009412 0.000000 0.000000 0.000000
# 4 0.000000 0.000000 0.000000 0.070301 0.000000 0.000000
# 5 0.000000 0.000000 0.000000 0.000000 0.028699 0.000000
# 6 0.000000 0.000000 0.000000 0.000000 0.000000 0.031728
#
#
# Mechanical properties :
#
#
# Convention : Reuss Voigt Hill
#
# Bulk Modulus (GPa) = 48.26622 49.65675 48.96149
# Shear Modulus (GPa) = 24.80848 28.91296 26.86072
#
# Velocity S-wave (km/s) = 3.44749 3.72177 3.58725
# Velocity P-wave (km/s) = 6.24261 6.50063 6.37292
#
# Compressibility (1/GPa) = 0.02071842
#
# Stress axis : x y z
#
# Youngs Moduli (GPa) = 68.30868 54.75842 106.24302
#
# Poissons Ratio (x) = 0.33230 0.07988
# Poissons Ratio (y) = 0.41453 0.42256
# Poissons Ratio (z) = 0.05136 0.21779
#
# Static dielectric constant tensor:
#      x y z
#    x 3.941530 0.000000 0.000000 
#    y 0.000000 3.565950 0.000000 
#    z 0.000000 0.000000 3.646420 
# 
# 
# High freq. dielectric constant tensor:
#      x y z
#    x 1.831490 0.000000 0.000000 
#    y 0.000000 1.806930 0.000000 
#    z 0.000000 0.000000 1.821230 
# 
# From -- ./inp_files/8416.got.cif
#   From: 2010.03.12/outbox.cif.g09.slc.cpg/sg56_5_cif.got.tgz:8416.got - 2010.04.16 15:33:40.
