data_PCOD8228013
_publ_section_title
;
Structure prediction by ZEFSAII (Michael W. Deem and Ramdas Pophale) SiO2 
 PCOD8228013
Probable space group: P C C N
;
_chemical_formula_sum "Si O2"
_cell_formula_units_Z 40
_cell_length_a 8.990325
_cell_length_b 8.510479
_cell_length_c 22.283388
_cell_angle_alpha 90.000000
_cell_angle_beta 90.000000
_cell_angle_gamma 90.000000
_cell_volume 1704.945961
_symmetry_space_group_name_H-M "P C C N"
_symmetry_group_IT_number 56
_symmetry_cell_setting 'orthorhombic'
loop_
_space_group_symop_operation_xyz
x,y,z
1/2-x,1/2-y,z
1/2+x,-y,1/2-z
-x,1/2+y,1/2-z
-x,-y,-z
1/2+x,1/2+y,-z
1/2-x,y,1/2+z
x,1/2-y,1/2+z
loop_
_atom_site_type_symbol
_atom_site_label
_atom_site_fract_x
_atom_site_fract_y
_atom_site_fract_z
Si Si1 0.058840 0.895840 0.312956
Si Si2 0.750000 0.750000 0.521368
Si Si3 0.883625 0.463444 0.710799
Si Si4 0.250000 0.750000 0.031077
Si Si5 0.504301 0.946222 0.588883
Si Si6 0.506079 0.310422 0.555096
O O1 0.079351 0.718985 0.292149
O O2 0.209157 0.993378 0.300775
O O3 0.019531 0.906780 0.383306
O O4 0.923683 0.972364 0.276449
O O5 0.646624 0.858838 0.561923
O O6 0.646296 0.642230 0.478135
O O7 0.980231 0.554828 0.660923
O O8 0.349532 0.637683 0.073019
O O9 0.355782 0.854260 0.987736
O O10 0.506224 0.122213 0.563737
#
# Coordination Sequence:
#
# PCOD8228013 Si02
#       6
#     8   4   8   4   8   8
#     4  10  23  43  68  90 123 165 208 261 314 376
#     4  10  20  36  62  90 122 166 208 252 306 370
#     4  10  23  44  65  92 124 163 210 260 317 372
#     4  10  18  36  64  90 126 166 204 256 306 366
#     4  10  22  40  61  90 129 164 209 261 311 374
#     4  10  21  41  62  90 127 168 208 254 316 376
#
# _framework density 23.461152999999999
#
# number of rings (size 3 to 8) (size 9 to 14) (size 15 to 20)
#    0.000    2.000    0.000    4.800    0.000    7.200 
#    0.000   29.000    0.000    4.800    0.000    0.000 
#    0.000    0.000    0.000    0.000    0.000    0.000 
#
# Total GULP energy -496072.289266 kJ/mol
# GULP energy per Si atom -12401.807232 kJ/mol
# Density = 2.340775 g / cm^3
# Si number density = 23.461153 Si / 1000 Ang^3
#
#
#
# Elastic Constant Matrix: (Units=GPa)
#
#
# Indices 1 2 3 4 5 6 
#
# 1 164.7168 41.1676 76.9205 0.0000 0.0000 0.0000
# 2 41.1676 50.6426 50.4770 0.0000 0.0000 0.0000
# 3 76.9205 50.4770 153.8641 0.0000 0.0000 0.0000
# 4 0.0000 0.0000 0.0000 37.5046 0.0000 0.0000
# 5 0.0000 0.0000 0.0000 0.0000 35.9291 0.0000
# 6 0.0000 0.0000 0.0000 0.0000 0.0000 30.8349
#
#
#
# Elastic Compliance Matrix: (Units=1/GPa)
#
#
# Indices 1 2 3 4 5 6 
#
# 1 0.008417 -0.003935 -0.002917 0.000000 0.000000 0.000000
# 2 -0.003935 0.031179 -0.008262 0.000000 0.000000 0.000000
# 3 -0.002917 -0.008262 0.010668 0.000000 0.000000 0.000000
# 4 0.000000 0.000000 0.000000 0.026663 0.000000 0.000000
# 5 0.000000 0.000000 0.000000 0.000000 0.027833 0.000000
# 6 0.000000 0.000000 0.000000 0.000000 0.000000 0.032431
#
#
# Mechanical properties :
#
#
# Convention : Reuss Voigt Hill
#
# Bulk Modulus (GPa) = 49.90670 78.48375 64.19523
# Shear Modulus (GPa) = 28.71976 34.23094 31.47535
#
# Velocity S-wave (km/s) = 3.50257 3.82389 3.66675
# Velocity P-wave (km/s) = 6.13804 7.28158 6.73413
#
# Compressibility (1/GPa) = 0.02003739
#
# Stress axis : x y z
#
# Youngs Moduli (GPa) = 118.81408 32.07241 93.73955
#
# Poissons Ratio (x) = 0.12619 0.27343
# Poissons Ratio (y) = 0.46747 0.77446
# Poissons Ratio (z) = 0.34656 0.26498
#
# Static dielectric constant tensor:
#      x y z
#    x 4.431470 0.000000 0.000000 
#    y 0.000000 3.918680 0.000000 
#    z 0.000000 0.000000 4.370600 
# 
# 
# High freq. dielectric constant tensor:
#      x y z
#    x 1.938620 0.000000 0.000000 
#    y 0.000000 1.919010 0.000000 
#    z 0.000000 0.000000 1.934060 
# 
# From -- ./inp_files/20384.got.cif
#   From: 2010.03.12/outbox.cif.g09.slc.cpg/sg56_11_cif.got.tgz:20384.got - 2010.04.16 15:33:40.
