data_PCOD8228826
_publ_section_title
;
Structure prediction by ZEFSAII (Michael W. Deem and Ramdas Pophale) SiO2 
 PCOD8228826
Probable space group: P C C N
;
_chemical_formula_sum "Si O2"
_cell_formula_units_Z 64
_cell_length_a 17.296620
_cell_length_b 18.440288
_cell_length_c 9.229538
_cell_angle_alpha 90.000000
_cell_angle_beta 90.000000
_cell_angle_gamma 90.000000
_cell_volume 2943.804101
_symmetry_space_group_name_H-M "P C C N"
_symmetry_group_IT_number 56
_symmetry_cell_setting 'orthorhombic'
loop_
_space_group_symop_operation_xyz
x,y,z
1/2-x,1/2-y,z
1/2+x,-y,1/2-z
-x,1/2+y,1/2-z
-x,-y,-z
1/2+x,1/2+y,-z
1/2-x,y,1/2+z
x,1/2-y,1/2+z
loop_
_atom_site_type_symbol
_atom_site_label
_atom_site_fract_x
_atom_site_fract_y
_atom_site_fract_z
Si Si1 0.739097 0.095292 0.963708
Si Si2 0.810678 0.188503 0.713976
Si Si3 0.069021 0.197701 0.471661
Si Si4 0.548640 0.933860 0.568037
Si Si5 0.982470 0.301886 0.263896
Si Si6 0.298715 0.379477 0.359293
Si Si7 0.691588 0.495887 0.203166
Si Si8 0.163825 0.330345 0.564504
O O1 0.783666 0.149051 0.858690
O O2 0.689861 0.040518 0.862482
O O3 0.681139 0.136246 0.073849
O O4 0.803992 0.058205 0.065947
O O5 0.750000 0.250000 0.670893
O O6 0.893664 0.221802 0.750617
O O7 0.115170 0.123106 0.431765
O O8 0.136632 0.251878 0.518065
O O9 0.024598 0.232506 0.334466
O O10 0.011973 0.182607 0.602720
O O11 0.491751 0.875910 0.644384
O O12 0.595062 0.890557 0.443130
O O13 0.500000 0.000000 0.500000
O O14 0.611385 0.960583 0.687350
O O15 0.271986 0.458204 0.301884
O O16 0.233530 0.353269 0.465275
O O17 0.304246 0.324132 0.225873
#
# Coordination Sequence:
#
# PCOD8228826 Si02
#       8
#     8   8   8   8   8   8   8   8
#     4  10  23  43  68  98 126 163 228 275 328 403
#     4  11  25  46  73  96 125 169 224 281 349 398
#     4  11  24  42  61  99 139 176 223 276 339 395
#     4  10  22  43  67  96 137 179 221 272 354 400
#     4  11  26  43  68  98 139 173 227 284 343 411
#     4  11  22  38  65  92 137 178 227 264 327 399
#     4  10  21  40  68  95 133 175 218 269 330 402
#     4  10  23  39  64  94 130 186 222 273 322 398
#
# _framework density 21.740577999999999
#
# number of rings (size 3 to 8) (size 9 to 14) (size 15 to 20)
#    0.000    1.500    1.250    3.000   10.500    2.000 
#    4.500    0.625    0.000    0.000    0.000    0.000 
#    0.000    0.000    0.000    0.000    0.000    0.000 
#
# Total GULP energy -793390.819806 kJ/mol
# GULP energy per Si atom -12396.731559 kJ/mol
# Density = 2.169110 g / cm^3
# Si number density = 21.740578 Si / 1000 Ang^3
#
#
#
# Elastic Constant Matrix: (Units=GPa)
#
#
# Indices 1 2 3 4 5 6 
#
# 1 117.8619 43.6933 36.0170 0.0000 0.0000 0.0000
# 2 43.6933 68.4798 6.3687 0.0000 0.0000 0.0000
# 3 36.0170 6.3687 109.0661 0.0000 0.0000 0.0000
# 4 0.0000 0.0000 0.0000 85.5973 0.0000 0.0000
# 5 0.0000 0.0000 0.0000 0.0000 5.2686 0.0000
# 6 0.0000 0.0000 0.0000 0.0000 0.0000 -544.7606
#
#
#
# Elastic Compliance Matrix: (Units=1/GPa)
#
#
# Indices 1 2 3 4 5 6 
#
# 1 0.012411 -0.007579 -0.003656 0.000000 0.000000 0.000000
# 2 -0.007579 0.019311 0.001375 0.000000 0.000000 0.000000
# 3 -0.003656 0.001375 0.010296 0.000000 0.000000 0.000000
# 4 0.000000 0.000000 0.000000 0.011683 0.000000 0.000000
# 5 0.000000 0.000000 0.000000 0.000000 0.189804 0.000000
# 6 0.000000 0.000000 0.000000 0.000000 0.000000 -0.001836
#
#
# Mechanical properties :
#
#
# Convention : Reuss Voigt Hill
#
# Bulk Modulus (GPa) = 44.84674 51.95174 48.39924
# Shear Modulus (GPa) = 18.59970 -76.82368 -29.11199
#
# Velocity S-wave (km/s) = 2.92812 -5.95090 -3.66329
# Velocity P-wave (km/s) = 5.66610 4.82386 2.10180
#
# Compressibility (1/GPa) = 0.02229817
#
# Stress axis : x y z
#
# Youngs Moduli (GPa) = 80.57087 51.78464 97.12706
#
# Poissons Ratio (x) = 0.39248 0.35510
# Poissons Ratio (y) = 0.61065 -0.13357
# Poissons Ratio (z) = 0.29457 -0.07122
#
# Static dielectric constant tensor:
#      x y z
#    x 4.076180 0.000000 0.000000 
#    y 0.000000 4.076900 0.000000 
#    z 0.000000 0.000000 4.089360 
# 
# 
# High freq. dielectric constant tensor:
#      x y z
#    x 1.845120 0.000000 0.000000 
#    y 0.000000 1.845450 0.000000 
#    z 0.000000 0.000000 1.870000 
# 
# From -- ./inp_files/4205.got.cif
#   From: 2010.03.12/outbox.cif.g09.slc.cpg/sg56_3_cif.got.tgz:4205.got - 2010.04.16 15:33:40.
