data_PCOD8228706
_publ_section_title
;
Structure prediction by ZEFSAII (Michael W. Deem and Ramdas Pophale) SiO2 
 PCOD8228706
Probable space group: P C C N
;
_chemical_formula_sum "Si O2"
_cell_formula_units_Z 56
_cell_length_a 15.251018
_cell_length_b 12.081825
_cell_length_c 14.153572
_cell_angle_alpha 90.000000
_cell_angle_beta 90.000000
_cell_angle_gamma 90.000000
_cell_volume 2607.939024
_symmetry_space_group_name_H-M "P C C N"
_symmetry_group_IT_number 56
_symmetry_cell_setting 'orthorhombic'
loop_
_space_group_symop_operation_xyz
x,y,z
1/2-x,1/2-y,z
1/2+x,-y,1/2-z
-x,1/2+y,1/2-z
-x,-y,-z
1/2+x,1/2+y,-z
1/2-x,y,1/2+z
x,1/2-y,1/2+z
loop_
_atom_site_type_symbol
_atom_site_label
_atom_site_fract_x
_atom_site_fract_y
_atom_site_fract_z
Si Si1 0.543348 0.082427 0.140451
Si Si2 0.663801 0.970971 0.697036
Si Si3 0.651192 0.282870 0.502261
Si Si4 0.939543 0.384198 0.838279
Si Si5 0.652297 0.524331 0.798328
Si Si6 0.575457 0.756864 0.762596
Si Si7 0.400864 0.543590 0.998751
O O1 0.578593 0.045343 0.243458
O O2 0.473816 0.181975 0.151329
O O3 0.493663 0.974034 0.098429
O O4 0.622764 0.122174 0.075447
O O5 0.640544 0.842710 0.712285
O O6 0.594649 0.054584 0.744675
O O7 0.757449 0.996115 0.743155
O O8 0.658423 0.992568 0.585111
O O9 0.750000 0.250000 0.522862
O O10 0.640707 0.333981 0.397807
O O11 0.590897 0.175221 0.514660
O O12 0.003310 0.283626 0.812313
O O13 0.631140 0.654665 0.802114
O O14 0.653601 0.482053 0.905905
O O15 0.500000 0.500000 0.000000
#
# Coordination Sequence:
#
# PCOD8228706 Si02
#       7
#     8   8   8   8   8   8   8
#     4  10  21  38  59  85 122 163 204 252 306 369
#     4  11  23  41  63  92 126 160 205 261 310 362
#     4  12  23  37  60  93 124 161 207 256 312 364
#     4  10  21  38  59  85 122 163 204 252 306 369
#     4  11  23  41  63  92 126 160 205 261 310 362
#     4  10  21  40  63  86 120 166 206 248 309 372
#     4  12  24  41  67  95 125 167 215 256 307 380
#
# _framework density 21.472894
#
# number of rings (size 3 to 8) (size 9 to 14) (size 15 to 20)
#    0.000    1.143    0.000    8.571    0.000    0.000 
#    0.000    8.571    0.000    0.000    0.000    0.000 
#    0.000    0.000    0.000    0.000    0.000    0.000 
#
# Total GULP energy -694447.938810 kJ/mol
# GULP energy per Si atom -12400.856050 kJ/mol
# Density = 2.142402 g / cm^3
# Si number density = 21.472894 Si / 1000 Ang^3
#
#
#
# Elastic Constant Matrix: (Units=GPa)
#
#
# Indices 1 2 3 4 5 6 
#
# 1 107.2624 16.3838 19.4290 0.0000 0.0000 0.0000
# 2 16.3838 92.0787 3.6460 0.0000 0.0000 0.0000
# 3 19.4290 3.6460 70.8970 0.0000 0.0000 0.0000
# 4 0.0000 0.0000 0.0000 22.6010 0.0000 0.0000
# 5 0.0000 0.0000 0.0000 0.0000 34.7919 0.0000
# 6 0.0000 0.0000 0.0000 0.0000 0.0000 34.8790
#
#
#
# Elastic Compliance Matrix: (Units=1/GPa)
#
#
# Indices 1 2 3 4 5 6 
#
# 1 0.010064 -0.001685 -0.002671 0.000000 0.000000 0.000000
# 2 -0.001685 0.011165 -0.000112 0.000000 0.000000 0.000000
# 3 -0.002671 -0.000112 0.014843 0.000000 0.000000 0.000000
# 4 0.000000 0.000000 0.000000 0.044246 0.000000 0.000000
# 5 0.000000 0.000000 0.000000 0.000000 0.028742 0.000000
# 6 0.000000 0.000000 0.000000 0.000000 0.000000 0.028671
#
#
# Mechanical properties :
#
#
# Convention : Reuss Voigt Hill
#
# Bulk Modulus (GPa) = 36.85408 38.79507 37.82457
# Shear Modulus (GPa) = 32.11046 33.83965 32.97506
#
# Velocity S-wave (km/s) = 3.87123 3.97410 3.92300
# Velocity P-wave (km/s) = 6.09772 6.25813 6.17845
#
# Compressibility (1/GPa) = 0.02713404
#
# Stress axis : x y z
#
# Youngs Moduli (GPa) = 99.36224 89.56930 67.37255
#
# Poissons Ratio (x) = 0.15092 0.17998
# Poissons Ratio (y) = 0.16742 0.00757
# Poissons Ratio (z) = 0.26544 0.01007
#
# Static dielectric constant tensor:
#      x y z
#    x 3.761890 0.000000 0.000000 
#    y 0.000000 4.203220 0.000000 
#    z 0.000000 0.000000 3.678540 
# 
# 
# High freq. dielectric constant tensor:
#      x y z
#    x 1.842120 0.000000 0.000000 
#    y 0.000000 1.863160 0.000000 
#    z 0.000000 0.000000 1.832480 
# 
# From -- ./inp_files/12299.got.cif
#   From: 2010.03.12/outbox.cif.g09.slc.cpg/sg56_7_cif.got.tgz:12299.got - 2010.04.16 15:33:40.
