data_PCOD8228596
_publ_section_title
;
Structure prediction by ZEFSAII (Michael W. Deem and Ramdas Pophale) SiO2 
 PCOD8228596
Probable space group: P C C N
;
_chemical_formula_sum "Si O2"
_cell_formula_units_Z 44
_cell_length_a 10.402920
_cell_length_b 8.563307
_cell_length_c 24.638527
_cell_angle_alpha 90.000000
_cell_angle_beta 90.000000
_cell_angle_gamma 90.000000
_cell_volume 2194.883698
_symmetry_space_group_name_H-M "P C C N"
_symmetry_group_IT_number 56
_symmetry_cell_setting 'orthorhombic'
loop_
_space_group_symop_operation_xyz
x,y,z
1/2-x,1/2-y,z
1/2+x,-y,1/2-z
-x,1/2+y,1/2-z
-x,-y,-z
1/2+x,1/2+y,-z
1/2-x,y,1/2+z
x,1/2-y,1/2+z
loop_
_atom_site_type_symbol
_atom_site_label
_atom_site_fract_x
_atom_site_fract_y
_atom_site_fract_z
Si Si1 0.940896 0.008429 0.058884
Si Si2 0.750000 0.250000 0.087355
Si Si3 0.435081 0.908392 0.830402
Si Si4 0.628940 0.669816 0.859133
Si Si5 0.360075 0.877837 0.709981
Si Si6 0.598981 0.754113 0.646766
O O1 0.810032 0.109244 0.051934
O O2 0.041570 0.101515 0.094410
O O3 0.911746 0.841672 0.088131
O O4 0.000000 0.000000 0.000000
O O5 0.642117 0.183118 0.125118
O O6 0.563419 0.806564 0.823024
O O7 0.359852 0.913635 0.773774
O O8 0.457783 0.079819 0.855472
O O9 0.750000 0.750000 0.888541
O O10 0.680831 0.536659 0.818964
O O11 0.250000 0.750000 0.696392
O O12 0.506007 0.838317 0.690493
O O13 0.750000 0.750000 0.664818
#
# Coordination Sequence:
#
# PCOD8228596 Si02
#       6
#     8   4   8   8   8   8
#     4  10  23  45  66  92 121 167 218 277 335 392
#     4  10  20  42  64  90 126 162 206 276 310 396
#     4  11  21  38  64  89 134 171 212 257 328 384
#     4  10  23  41  58  91 132 164 214 270 322 384
#     4  11  23  38  62  96 134 179 216 262 319 392
#     4  11  23  40  65  95 132 170 223 272 322 403
#
# _framework density 20.046620000000001
#
# number of rings (size 3 to 8) (size 9 to 14) (size 15 to 20)
#    0.000    1.455    2.727    2.182    0.000    5.091 
#    9.818    1.818    0.000    0.000    0.000    0.000 
#    0.000    0.000    0.000    0.000    0.000    0.000 
#
# Total GULP energy -545217.838508 kJ/mol
# GULP energy per Si atom -12391.314512 kJ/mol
# Density = 2.000099 g / cm^3
# Si number density = 20.046620 Si / 1000 Ang^3
#
#
#
# Elastic Constant Matrix: (Units=GPa)
#
#
# Indices 1 2 3 4 5 6 
#
# 1 108.3195 50.1749 36.1120 0.0000 0.0000 0.0000
# 2 50.1749 162.4148 46.2283 0.0000 0.0000 0.0000
# 3 36.1120 46.2283 98.3423 0.0000 0.0000 0.0000
# 4 0.0000 0.0000 0.0000 19.6795 0.0000 0.0000
# 5 0.0000 0.0000 0.0000 0.0000 17.1130 0.0000
# 6 0.0000 0.0000 0.0000 0.0000 0.0000 41.9291
#
#
#
# Elastic Compliance Matrix: (Units=1/GPa)
#
#
# Indices 1 2 3 4 5 6 
#
# 1 0.011465 -0.002706 -0.002938 0.000000 0.000000 0.000000
# 2 -0.002706 0.007747 -0.002648 0.000000 0.000000 0.000000
# 3 -0.002938 -0.002648 0.012492 0.000000 0.000000 0.000000
# 4 0.000000 0.000000 0.000000 0.050814 0.000000 0.000000
# 5 0.000000 0.000000 0.000000 0.000000 0.058435 0.000000
# 6 0.000000 0.000000 0.000000 0.000000 0.000000 0.023850
#
#
# Mechanical properties :
#
#
# Convention : Reuss Voigt Hill
#
# Bulk Modulus (GPa) = 66.13650 70.45632 68.29641
# Shear Modulus (GPa) = 26.82030 31.51510 29.16770
#
# Velocity S-wave (km/s) = 3.66169 3.96926 3.81858
# Velocity P-wave (km/s) = 7.13725 7.49862 7.32016
#
# Compressibility (1/GPa) = 0.01512024
#
# Stress axis : x y z
#
# Youngs Moduli (GPa) = 87.22430 129.08898 80.04987
#
# Poissons Ratio (x) = 0.34925 0.23520
# Poissons Ratio (y) = 0.23599 0.21197
# Poissons Ratio (z) = 0.25628 0.34183
#
# Static dielectric constant tensor:
#      x y z
#    x 3.956970 0.000000 0.000000 
#    y 0.000000 4.305140 0.000000 
#    z 0.000000 0.000000 3.529190 
# 
# 
# High freq. dielectric constant tensor:
#      x y z
#    x 1.794380 0.000000 0.000000 
#    y 0.000000 1.803820 0.000000 
#    z 0.000000 0.000000 1.751470 
# 
# From -- ./inp_files/20849.got.cif
#   From: 2010.03.12/outbox.cif.g09.slc.cpg/sg56_11_cif.got.tgz:20849.got - 2010.04.16 15:33:40.
