data_PCOD8228039
_publ_section_title
;
Structure prediction by ZEFSAII (Michael W. Deem and Ramdas Pophale) SiO2 
 PCOD8228039
Probable space group: P C C N
;
_chemical_formula_sum "Si O2"
_cell_formula_units_Z 36
_cell_length_a 7.934269
_cell_length_b 23.199683
_cell_length_c 8.806008
_cell_angle_alpha 90.000000
_cell_angle_beta 90.000000
_cell_angle_gamma 90.000000
_cell_volume 1620.944133
_symmetry_space_group_name_H-M "P C C N"
_symmetry_group_IT_number 56
_symmetry_cell_setting 'orthorhombic'
loop_
_space_group_symop_operation_xyz
x,y,z
1/2-x,1/2-y,z
1/2+x,-y,1/2-z
-x,1/2+y,1/2-z
-x,-y,-z
1/2+x,1/2+y,-z
1/2-x,y,1/2+z
x,1/2-y,1/2+z
loop_
_atom_site_type_symbol
_atom_site_label
_atom_site_fract_x
_atom_site_fract_y
_atom_site_fract_z
Si Si1 0.422506 0.430251 0.532737
Si Si2 0.620207 0.172737 0.946062
Si Si3 0.111717 0.475638 0.361062
Si Si4 0.250000 0.750000 0.793928
Si Si5 0.745255 0.057697 0.864443
O O1 0.451227 0.363429 0.479468
O O2 0.238158 0.443466 0.471684
O O3 0.422487 0.434823 0.714680
O O4 0.583689 0.466497 0.461711
O O5 0.606101 0.221813 0.816160
O O6 0.762079 0.126536 0.883519
O O7 0.671945 0.199930 0.105418
O O8 0.195575 0.537010 0.306643
O O9 0.914557 0.476027 0.428599
#
# Coordination Sequence:
#
# PCOD8228039 Si02
#       5
#     8   8   8   4   8
#     4  10  25  38  60  95 123 168 203 249 307 375
#     4   9  21  36  62  91 117 156 215 245 322 352
#     4  12  22  40  63  93 138 160 207 245 312 377
#     4  10  18  38  66  86 114 162 202 274 300 366
#     4  10  22  37  62  94 124 168 200 253 300 382
#
# _framework density 22.209278999999999
#
# number of rings (size 3 to 8) (size 9 to 14) (size 15 to 20)
#    1.333    0.444    2.222    2.000    0.000    4.444 
#    0.000    0.000    0.000   22.667    0.000    0.000 
#    0.000    0.000    0.000    0.000    0.000    0.000 
#
# Total GULP energy -446041.195251 kJ/mol
# GULP energy per Si atom -12390.033201 kJ/mol
# Density = 2.215873 g / cm^3
# Si number density = 22.209279 Si / 1000 Ang^3
#
#
#
# Elastic Constant Matrix: (Units=GPa)
#
#
# Indices 1 2 3 4 5 6 
#
# 1 150.2691 54.4756 62.3872 0.0000 0.0000 0.0000
# 2 54.4756 124.2395 59.8928 0.0000 0.0000 0.0000
# 3 62.3872 59.8928 119.3629 0.0000 0.0000 0.0000
# 4 0.0000 0.0000 0.0000 37.3536 0.0000 0.0000
# 5 0.0000 0.0000 0.0000 0.0000 35.0791 0.0000
# 6 0.0000 0.0000 0.0000 0.0000 0.0000 24.3815
#
#
#
# Elastic Compliance Matrix: (Units=1/GPa)
#
#
# Indices 1 2 3 4 5 6 
#
# 1 0.008932 -0.002197 -0.003566 0.000000 0.000000 0.000000
# 2 -0.002197 0.011158 -0.004450 0.000000 0.000000 0.000000
# 3 -0.003566 -0.004450 0.012474 0.000000 0.000000 0.000000
# 4 0.000000 0.000000 0.000000 0.026771 0.000000 0.000000
# 5 0.000000 0.000000 0.000000 0.000000 0.028507 0.000000
# 6 0.000000 0.000000 0.000000 0.000000 0.000000 0.041015
#
#
# Mechanical properties :
#
#
# Convention : Reuss Voigt Hill
#
# Bulk Modulus (GPa) = 82.38976 83.04253 82.71615
# Shear Modulus (GPa) = 32.60959 33.83723 33.22341
#
# Velocity S-wave (km/s) = 3.83598 3.90752 3.87191
# Velocity P-wave (km/s) = 7.53639 7.60463 7.57059
#
# Compressibility (1/GPa) = 0.01213743
#
# Stress axis : x y z
#
# Youngs Moduli (GPa) = 111.96079 89.62377 80.16368
#
# Poissons Ratio (x) = 0.19693 0.28584
# Poissons Ratio (y) = 0.24602 0.35674
# Poissons Ratio (z) = 0.39922 0.39884
#
# Static dielectric constant tensor:
#      x y z
#    x 3.998030 0.000000 0.000000 
#    y 0.000000 4.078650 0.000000 
#    z 0.000000 0.000000 4.408350 
# 
# 
# High freq. dielectric constant tensor:
#      x y z
#    x 1.856840 0.000000 0.000000 
#    y 0.000000 1.868890 0.000000 
#    z 0.000000 0.000000 1.920600 
# 
# From -- ./inp_files/2109.got.cif
#   From: 2010.03.12/outbox.cif.g09.slc.cpg/sg56_2_cif.got.tgz:2109.got - 2010.04.16 15:33:40.
