data_PCOD8228103
_publ_section_title
;
Structure prediction by ZEFSAII (Michael W. Deem and Ramdas Pophale) SiO2 
 PCOD8228103
Probable space group: P C C N
;
_chemical_formula_sum "Si O2"
_cell_formula_units_Z 52
_cell_length_a 19.016721
_cell_length_b 8.491484
_cell_length_c 15.022181
_cell_angle_alpha 90.000000
_cell_angle_beta 90.000000
_cell_angle_gamma 90.000000
_cell_volume 2425.784523
_symmetry_space_group_name_H-M "P C C N"
_symmetry_group_IT_number 56
_symmetry_cell_setting 'orthorhombic'
loop_
_space_group_symop_operation_xyz
x,y,z
1/2-x,1/2-y,z
1/2+x,-y,1/2-z
-x,1/2+y,1/2-z
-x,-y,-z
1/2+x,1/2+y,-z
1/2-x,y,1/2+z
x,1/2-y,1/2+z
loop_
_atom_site_type_symbol
_atom_site_label
_atom_site_fract_x
_atom_site_fract_y
_atom_site_fract_z
Si Si1 0.967645 0.883379 0.285993
Si Si2 0.959575 0.707127 0.594660
Si Si3 0.250000 0.250000 0.475649
Si Si4 0.621310 0.259421 0.919788
Si Si5 0.114718 0.097383 0.540340
Si Si6 0.842695 0.474777 0.569466
Si Si7 0.599479 0.297938 0.230591
O O1 0.942198 0.783801 0.200068
O O2 0.923347 0.834801 0.372183
O O3 0.050099 0.844149 0.305399
O O4 0.955197 0.068300 0.266596
O O5 0.932330 0.865764 0.547012
O O6 0.917733 0.558347 0.554831
O O7 0.041269 0.680014 0.576415
O O8 0.188761 0.186693 0.538625
O O9 0.219103 0.395222 0.416167
O O10 0.645532 0.259424 0.815955
O O11 0.627584 0.087110 0.961080
O O12 0.670504 0.372724 0.979706
O O13 0.846935 0.360336 0.655528
#
# Coordination Sequence:
#
# PCOD8228103 Si02
#       7
#     8   8   4   8   8   8   8
#     4   9  18  32  53  82 118 146 182 233 292 353
#     4   9  18  33  55  87 116 146 182 231 301 361
#     4  10  24  40  56  76 110 162 208 234 278 342
#     4  10  19  33  59  88 113 142 188 245 301 348
#     4  10  20  36  54  79 114 152 190 238 285 338
#     4  10  20  37  58  82 119 156 193 240 283 343
#     4   9  19  34  56  89 119 147 183 236 302 361
#
# _framework density 21.436363
#
# number of rings (size 3 to 8) (size 9 to 14) (size 15 to 20)
#    0.000    2.462    0.000    1.846    0.000    9.231 
#    0.000   12.308    0.000    5.538    0.000    0.000 
#    0.000    0.000    0.000    0.000    0.000    0.000 
#
# Total GULP energy -644485.465134 kJ/mol
# GULP energy per Si atom -12393.951253 kJ/mol
# Density = 2.138757 g / cm^3
# Si number density = 21.436363 Si / 1000 Ang^3
#
#
#
# Elastic Constant Matrix: (Units=GPa)
#
#
# Indices 1 2 3 4 5 6 
#
# 1 41.6760 16.8199 37.9285 0.0000 0.0000 0.0000
# 2 16.8199 70.5051 63.0194 0.0000 0.0000 0.0000
# 3 37.9285 63.0194 128.9994 0.0000 0.0000 0.0000
# 4 0.0000 0.0000 0.0000 37.8489 0.0000 0.0000
# 5 0.0000 0.0000 0.0000 0.0000 14.4760 0.0000
# 6 0.0000 0.0000 0.0000 0.0000 0.0000 31.3812
#
#
#
# Elastic Compliance Matrix: (Units=1/GPa)
#
#
# Indices 1 2 3 4 5 6 
#
# 1 0.032840 0.001413 -0.010346 0.000000 0.000000 0.000000
# 2 0.001413 0.025238 -0.012745 0.000000 0.000000 0.000000
# 3 -0.010346 -0.012745 0.017020 0.000000 0.000000 0.000000
# 4 0.000000 0.000000 0.000000 0.026421 0.000000 0.000000
# 5 0.000000 0.000000 0.000000 0.000000 0.069080 0.000000
# 6 0.000000 0.000000 0.000000 0.000000 0.000000 0.031866
#
#
# Mechanical properties :
#
#
# Convention : Reuss Voigt Hill
#
# Bulk Modulus (GPa) = 31.50341 52.96846 42.23593
# Shear Modulus (GPa) = 19.50068 24.96872 22.23470
#
# Velocity S-wave (km/s) = 3.01940 3.41659 3.22412
# Velocity P-wave (km/s) = 5.18496 6.35039 5.79704
#
# Compressibility (1/GPa) = 0.03174259
#
# Stress axis : x y z
#
# Youngs Moduli (GPa) = 30.45071 39.62283 58.75408
#
# Poissons Ratio (x) = -0.05599 0.60787
# Poissons Ratio (y) = -0.04303 0.74881
# Poissons Ratio (z) = 0.31504 0.50499
#
# Static dielectric constant tensor:
#      x y z
#    x 3.535820 0.000000 0.000000 
#    y 0.000000 3.969220 0.000000 
#    z 0.000000 0.000000 4.051950 
# 
# 
# High freq. dielectric constant tensor:
#      x y z
#    x 1.803710 0.000000 0.000000 
#    y 0.000000 1.844320 0.000000 
#    z 0.000000 0.000000 1.844300 
# 
# From -- ./inp_files/10831.got.cif
#   From: 2010.03.12/outbox.cif.g09.slc.cpg/sg56_6_cif.got.tgz:10831.got - 2010.04.16 15:33:40.
