data_PCOD8228602
_publ_section_title
;
Structure prediction by ZEFSAII (Michael W. Deem and Ramdas Pophale) SiO2 
 PCOD8228602
Probable space group: P C C N
;
_chemical_formula_sum "Si O2"
_cell_formula_units_Z 60
_cell_length_a 8.608790
_cell_length_b 25.041163
_cell_length_c 12.482444
_cell_angle_alpha 90.000000
_cell_angle_beta 90.000000
_cell_angle_gamma 90.000000
_cell_volume 2690.891801
_symmetry_space_group_name_H-M "P C C N"
_symmetry_group_IT_number 56
_symmetry_cell_setting 'orthorhombic'
loop_
_space_group_symop_operation_xyz
x,y,z
1/2-x,1/2-y,z
1/2+x,-y,1/2-z
-x,1/2+y,1/2-z
-x,-y,-z
1/2+x,1/2+y,-z
1/2-x,y,1/2+z
x,1/2-y,1/2+z
loop_
_atom_site_type_symbol
_atom_site_label
_atom_site_fract_x
_atom_site_fract_y
_atom_site_fract_z
Si Si1 0.460005 0.440782 0.532443
Si Si2 0.553679 0.167117 0.995067
Si Si3 0.765157 0.809256 0.921038
Si Si4 0.999768 0.936408 0.809275
Si Si5 0.750000 0.250000 0.621331
Si Si6 0.651604 0.956224 0.739312
Si Si7 0.009352 0.819386 0.749537
Si Si8 0.874675 0.592326 0.525896
O O1 0.500000 0.500000 0.500000
O O2 0.590632 0.397011 0.492717
O O3 0.442571 0.436313 0.659101
O O4 0.300679 0.428344 0.473048
O O5 0.507106 0.189782 0.878092
O O6 0.407889 0.167434 0.077616
O O7 0.689929 0.202705 0.044147
O O8 0.750000 0.750000 0.967071
O O9 0.836239 0.811938 0.800496
O O10 0.877146 0.844042 0.999335
O O11 0.835169 0.946065 0.750621
O O12 0.069027 0.879312 0.772991
O O13 0.977381 0.938272 0.937649
O O14 0.126045 0.980661 0.778957
O O15 0.617137 0.225393 0.695967
O O16 0.569014 0.921630 0.644960
#
# Coordination Sequence:
#
# PCOD8228602 Si02
#       8
#     8   8   8   8   4   8   8   8
#     4  10  21  38  63  92 126 165 213 265 325 396
#     4  11  24  44  67  96 131 172 222 274 332 406
#     4  10  20  42  67  95 122 167 222 272 324 396
#     4  10  22  38  63  92 131 168 213 267 326 403
#     4  12  26  46  62  96 132 176 224 274 334 412
#     4  11  20  39  64  94 129 171 210 264 334 393
#     4  11  24  46  66  95 134 174 220 282 338 391
#     4   9  20  35  59  93 127 158 213 267 313 390
#
# _framework density 22.297440999999999
#
# number of rings (size 3 to 8) (size 9 to 14) (size 15 to 20)
#    0.000    1.600    1.333    4.800    0.000    2.667 
#    2.400    5.333    0.000    0.000    0.000    0.000 
#    0.000    0.000    0.000    0.000    0.000    0.000 
#
# Total GULP energy -743674.291709 kJ/mol
# GULP energy per Si atom -12394.571528 kJ/mol
# Density = 2.224669 g / cm^3
# Si number density = 22.297441 Si / 1000 Ang^3
#
#
#
# Elastic Constant Matrix: (Units=GPa)
#
#
# Indices 1 2 3 4 5 6 
#
# 1 48.3002 23.1725 31.1400 0.0000 0.0000 0.0000
# 2 23.1725 150.0955 38.5733 0.0000 0.0000 0.0000
# 3 31.1400 38.5733 152.1134 0.0000 0.0000 0.0000
# 4 0.0000 0.0000 0.0000 23.9534 0.0000 0.0000
# 5 0.0000 0.0000 0.0000 0.0000 19.5501 0.0000
# 6 0.0000 0.0000 0.0000 0.0000 0.0000 32.2697
#
#
#
# Elastic Compliance Matrix: (Units=1/GPa)
#
#
# Indices 1 2 3 4 5 6 
#
# 1 0.024837 -0.002704 -0.004399 0.000000 0.000000 0.000000
# 2 -0.002704 0.007421 -0.001328 0.000000 0.000000 0.000000
# 3 -0.004399 -0.001328 0.007811 0.000000 0.000000 0.000000
# 4 0.000000 0.000000 0.000000 0.041748 0.000000 0.000000
# 5 0.000000 0.000000 0.000000 0.000000 0.051151 0.000000
# 6 0.000000 0.000000 0.000000 0.000000 0.000000 0.030989
#
#
# Mechanical properties :
#
#
# Convention : Reuss Voigt Hill
#
# Bulk Modulus (GPa) = 43.08975 59.58673 51.33824
# Shear Modulus (GPa) = 26.51745 32.32954 29.42349
#
# Velocity S-wave (km/s) = 3.45231 3.81191 3.63656
# Velocity P-wave (km/s) = 5.93786 6.79381 6.38020
#
# Compressibility (1/GPa) = 0.02320738
#
# Stress axis : x y z
#
# Youngs Moduli (GPa) = 40.26226 134.74802 128.01791
#
# Poissons Ratio (x) = 0.36436 0.56313
# Poissons Ratio (y) = 0.10887 0.17005
# Poissons Ratio (z) = 0.17711 0.17899
#
# Static dielectric constant tensor:
#      x y z
#    x 3.832650 0.000000 0.000000 
#    y 0.000000 4.555560 0.000000 
#    z 0.000000 0.000000 4.113780 
# 
# 
# High freq. dielectric constant tensor:
#      x y z
#    x 1.839440 0.000000 0.000000 
#    y 0.000000 1.898110 0.000000 
#    z 0.000000 0.000000 1.884000 
# 
# From -- ./inp_files/6538.got.cif
#   From: 2010.03.12/outbox.cif.g09.slc.cpg/sg56_4_cif.got.tgz:6538.got - 2010.04.16 15:33:40.
