data_PCOD8228906
_publ_section_title
;
Structure prediction by ZEFSAII (Michael W. Deem and Ramdas Pophale) SiO2 
 PCOD8228906
Probable space group: P C C N
;
_chemical_formula_sum "Si O2"
_cell_formula_units_Z 44
_cell_length_a 12.064061
_cell_length_b 13.301780
_cell_length_c 13.635618
_cell_angle_alpha 90.000000
_cell_angle_beta 90.000000
_cell_angle_gamma 90.000000
_cell_volume 2188.155145
_symmetry_space_group_name_H-M "P C C N"
_symmetry_group_IT_number 56
_symmetry_cell_setting 'orthorhombic'
loop_
_space_group_symop_operation_xyz
x,y,z
1/2-x,1/2-y,z
1/2+x,-y,1/2-z
-x,1/2+y,1/2-z
-x,-y,-z
1/2+x,1/2+y,-z
1/2-x,y,1/2+z
x,1/2-y,1/2+z
loop_
_atom_site_type_symbol
_atom_site_label
_atom_site_fract_x
_atom_site_fract_y
_atom_site_fract_z
Si Si1 0.750000 0.750000 0.071675
Si Si2 0.083571 0.347509 0.574541
Si Si3 0.557033 0.068797 0.920307
Si Si4 0.302319 0.535923 0.127069
Si Si5 0.865996 0.605204 0.219124
Si Si6 0.368058 0.720048 0.011318
O O1 0.645855 0.722849 0.003646
O O2 0.785851 0.656128 0.139434
O O3 0.114762 0.319090 0.687781
O O4 0.123150 0.462801 0.557740
O O5 0.950411 0.338166 0.562375
O O6 0.674690 0.019111 0.899167
O O7 0.484230 0.072679 0.822876
O O8 0.566836 0.182116 0.956533
O O9 0.500000 0.000000 0.000000
O O10 0.314784 0.500797 0.240712
O O11 0.341018 0.650186 0.106584
O O12 0.250000 0.750000 0.960557
#
# Coordination Sequence:
#
# PCOD8228906 Si02
#       6
#     4   8   8   8   8   8
#     4  12  20  40  68  96 136 176 222 306 336 398
#     4  10  22  41  67  97 132 177 233 274 344 408
#     4  11  22  44  66  95 133 178 222 285 346 402
#     4   9  23  41  65  96 132 172 232 272 340 416
#     4  10  24  39  64 100 129 174 233 277 350 409
#     4  10  21  43  67  92 134 181 219 279 343 407
#
# _framework density 20.108263000000001
#
# number of rings (size 3 to 8) (size 9 to 14) (size 15 to 20)
#    1.091    0.727    1.818    2.182    0.000    1.455 
#    9.818    0.909    0.000    0.000    0.000    0.000 
#    0.000    0.000    0.000    0.000    0.000    0.000 
#
# Total GULP energy -545171.929736 kJ/mol
# GULP energy per Si atom -12390.271130 kJ/mol
# Density = 2.006250 g / cm^3
# Si number density = 20.108263 Si / 1000 Ang^3
#
#
#
# Elastic Constant Matrix: (Units=GPa)
#
#
# Indices 1 2 3 4 5 6 
#
# 1 157.9111 58.0755 59.0843 0.0000 0.0000 0.0000
# 2 58.0755 104.2465 40.3092 0.0000 0.0000 0.0000
# 3 59.0843 40.3092 116.3168 0.0000 0.0000 0.0000
# 4 0.0000 0.0000 0.0000 22.1203 0.0000 0.0000
# 5 0.0000 0.0000 0.0000 0.0000 30.7906 0.0000
# 6 0.0000 0.0000 0.0000 0.0000 0.0000 41.7525
#
#
#
# Elastic Compliance Matrix: (Units=1/GPa)
#
#
# Indices 1 2 3 4 5 6 
#
# 1 0.008910 -0.003711 -0.003240 0.000000 0.000000 0.000000
# 2 -0.003711 0.012622 -0.002489 0.000000 0.000000 0.000000
# 3 -0.003240 -0.002489 0.011106 0.000000 0.000000 0.000000
# 4 0.000000 0.000000 0.000000 0.045207 0.000000 0.000000
# 5 0.000000 0.000000 0.000000 0.000000 0.032477 0.000000
# 6 0.000000 0.000000 0.000000 0.000000 0.000000 0.023951
#
#
# Mechanical properties :
#
#
# Convention : Reuss Voigt Hill
#
# Bulk Modulus (GPa) = 72.68582 77.04581 74.86582
# Shear Modulus (GPa) = 31.69794 33.66636 32.68215
#
# Velocity S-wave (km/s) = 3.97465 4.09621 4.03589
# Velocity P-wave (km/s) = 7.56898 7.79555 7.68310
#
# Compressibility (1/GPa) = 0.01375784
#
# Stress axis : x y z
#
# Youngs Moduli (GPa) = 112.23847 79.22370 90.04504
#
# Poissons Ratio (x) = 0.29398 0.29172
# Poissons Ratio (y) = 0.41649 0.22415
# Poissons Ratio (z) = 0.36363 0.19722
#
# Static dielectric constant tensor:
#      x y z
#    x 3.818840 0.000000 0.000000 
#    y 0.000000 3.494880 0.000000 
#    z 0.000000 0.000000 3.440990 
# 
# 
# High freq. dielectric constant tensor:
#      x y z
#    x 1.802510 0.000000 0.000000 
#    y 0.000000 1.780480 0.000000 
#    z 0.000000 0.000000 1.762390 
# 
# From -- ./inp_files/7108.got.cif
#   From: 2010.03.12/outbox.cif.g09.slc.cpg/sg56_4_cif.got.tgz:7108.got - 2010.04.16 15:33:40.
