data_PCOD8228745
_publ_section_title
;
Structure prediction by ZEFSAII (Michael W. Deem and Ramdas Pophale) SiO2 
 PCOD8228745
Probable space group: P C C N
;
_chemical_formula_sum "Si O2"
_cell_formula_units_Z 56
_cell_length_a 13.900964
_cell_length_b 9.211242
_cell_length_c 19.402673
_cell_angle_alpha 90.000000
_cell_angle_beta 90.000000
_cell_angle_gamma 90.000000
_cell_volume 2484.418047
_symmetry_space_group_name_H-M "P C C N"
_symmetry_group_IT_number 56
_symmetry_cell_setting 'orthorhombic'
loop_
_space_group_symop_operation_xyz
x,y,z
1/2-x,1/2-y,z
1/2+x,-y,1/2-z
-x,1/2+y,1/2-z
-x,-y,-z
1/2+x,1/2+y,-z
1/2-x,y,1/2+z
x,1/2-y,1/2+z
loop_
_atom_site_type_symbol
_atom_site_label
_atom_site_fract_x
_atom_site_fract_y
_atom_site_fract_z
Si Si1 0.649440 0.165236 0.264320
Si Si2 0.652247 0.325181 0.514574
Si Si3 0.043796 0.682284 0.116811
Si Si4 0.950276 0.553966 0.568934
Si Si5 0.112059 0.408701 0.641158
Si Si6 0.486166 0.852966 0.864410
Si Si7 0.268477 0.087091 0.500965
O O1 0.750000 0.250000 0.254689
O O2 0.579748 0.265721 0.309257
O O3 0.597517 0.144629 0.191783
O O4 0.661730 0.002289 0.297439
O O5 0.750000 0.250000 0.539384
O O6 0.626867 0.271920 0.437856
O O7 0.563761 0.290911 0.565929
O O8 0.669755 0.498491 0.505780
O O9 0.953273 0.773829 0.087713
O O10 0.021378 0.513922 0.119733
O O11 0.838594 0.516484 0.557323
O O12 0.000000 0.500000 0.500000
O O13 0.004535 0.474207 0.631192
O O14 0.183643 0.420043 0.576715
O O15 0.082514 0.240231 0.656503
O O16 0.250000 0.250000 0.480297
#
# Coordination Sequence:
#
# PCOD8228745 Si02
#       7
#     8   8   8   8   8   8   8
#     4  11  24  43  64  87 121 166 214 264 323 390
#     4  12  22  36  61  94 125 158 202 257 312 371
#     4  11  22  40  64  90 122 169 215 257 316 394
#     4   9  18  35  56  82 119 160 199 243 304 373
#     4  10  21  39  61  83 118 166 206 245 307 392
#     4  12  24  40  62  95 127 160 208 268 324 380
#     4  11  20  33  56  89 120 151 195 256 309 358
#
# _framework density 22.540492
#
# number of rings (size 3 to 8) (size 9 to 14) (size 15 to 20)
#    0.000    1.143    0.000    9.857    0.000    0.000 
#    0.000    0.000    0.000    4.286    0.000    0.000 
#    0.000    0.000    0.000    0.000    0.000    0.000 
#
# Total GULP energy -693792.720946 kJ/mol
# GULP energy per Si atom -12389.155731 kJ/mol
# Density = 2.248919 g / cm^3
# Si number density = 22.540492 Si / 1000 Ang^3
#
#
#
# Elastic Constant Matrix: (Units=GPa)
#
#
# Indices 1 2 3 4 5 6 
#
# 1 62.8070 9.8515 23.0220 0.0000 0.0000 0.0000
# 2 9.8515 103.0286 21.1024 0.0000 0.0000 0.0000
# 3 23.0220 21.1024 75.2456 0.0000 0.0000 0.0000
# 4 0.0000 0.0000 0.0000 23.9774 0.0000 0.0000
# 5 0.0000 0.0000 0.0000 0.0000 30.0149 0.0000
# 6 0.0000 0.0000 0.0000 0.0000 0.0000 41.7259
#
#
#
# Elastic Compliance Matrix: (Units=1/GPa)
#
#
# Indices 1 2 3 4 5 6 
#
# 1 0.017971 -0.000628 -0.005322 0.000000 0.000000 0.000000
# 2 -0.000628 0.010320 -0.002702 0.000000 0.000000 0.000000
# 3 -0.005322 -0.002702 0.015676 0.000000 0.000000 0.000000
# 4 0.000000 0.000000 0.000000 0.041706 0.000000 0.000000
# 5 0.000000 0.000000 0.000000 0.000000 0.033317 0.000000
# 6 0.000000 0.000000 0.000000 0.000000 0.000000 0.023966
#
#
# Mechanical properties :
#
#
# Convention : Reuss Voigt Hill
#
# Bulk Modulus (GPa) = 37.50673 38.78148 38.14410
# Shear Modulus (GPa) = 29.56003 31.61733 30.58868
#
# Velocity S-wave (km/s) = 3.62528 3.74931 3.68782
# Velocity P-wave (km/s) = 5.84802 5.99881 5.92390
#
# Compressibility (1/GPa) = 0.02666188
#
# Stress axis : x y z
#
# Youngs Moduli (GPa) = 55.64456 96.90380 63.79211
#
# Poissons Ratio (x) = 0.06088 0.33952
# Poissons Ratio (y) = 0.03496 0.17236
# Poissons Ratio (z) = 0.29615 0.26182
#
# Static dielectric constant tensor:
#      x y z
#    x 4.213700 0.000000 0.000000 
#    y 0.000000 4.735080 0.000000 
#    z 0.000000 0.000000 3.889650 
# 
# 
# High freq. dielectric constant tensor:
#      x y z
#    x 1.878560 0.000000 0.000000 
#    y 0.000000 1.914420 0.000000 
#    z 0.000000 0.000000 1.864590 
# 
# From -- ./inp_files/19116.got.cif
#   From: 2010.03.12/outbox.cif.g09.slc.cpg/sg56_10_cif.got.tgz:19116.got - 2010.04.16 15:33:40.
