data_PCOD8228638
_publ_section_title
;
Structure prediction by ZEFSAII (Michael W. Deem and Ramdas Pophale) SiO2 
 PCOD8228638
Probable space group: P C C N
;
_chemical_formula_sum "Si O2"
_cell_formula_units_Z 40
_cell_length_a 21.374701
_cell_length_b 14.424067
_cell_length_c 5.059016
_cell_angle_alpha 90.000000
_cell_angle_beta 90.000000
_cell_angle_gamma 90.000000
_cell_volume 1559.745827
_symmetry_space_group_name_H-M "P C C N"
_symmetry_group_IT_number 56
_symmetry_cell_setting 'orthorhombic'
loop_
_space_group_symop_operation_xyz
x,y,z
1/2-x,1/2-y,z
1/2+x,-y,1/2-z
-x,1/2+y,1/2-z
-x,-y,-z
1/2+x,1/2+y,-z
1/2-x,y,1/2+z
x,1/2-y,1/2+z
loop_
_atom_site_type_symbol
_atom_site_label
_atom_site_fract_x
_atom_site_fract_y
_atom_site_fract_z
Si Si1 0.995494 0.803870 0.838556
Si Si2 0.357573 0.506573 0.083162
Si Si3 0.934333 0.464165 0.902003
Si Si4 0.852092 0.689264 0.297203
Si Si5 0.318437 0.793645 0.530794
O O1 0.002318 0.713273 0.651604
O O2 0.051775 0.869568 0.754211
O O3 0.925227 0.841415 0.783123
O O4 0.391972 0.546098 0.341553
O O5 0.319131 0.411790 0.158718
O O6 0.314151 0.594070 0.997540
O O7 0.401101 0.476101 0.831340
O O8 0.000000 0.500000 0.000000
O O9 0.833025 0.762649 0.522811
O O10 0.250000 0.750000 0.577297
O O11 0.354808 0.742929 0.291194
#
# Coordination Sequence:
#
# PCOD8228638 Si02
#       5
#     8   8   8   8   8
#     4  10  21  34  50  71 110 167 215 260 306 353
#     4  12  24  38  64  89 123 171 220 271 332 399
#     4  12  24  36  53  84 128 169 221 267 319 377
#     4  10  21  36  55  81 118 163 214 251 298 379
#     4  10  23  45  70  98 128 161 213 286 355 422
#
# _framework density 25.645206000000002
#
# number of rings (size 3 to 8) (size 9 to 14) (size 15 to 20)
#    0.000    1.200    2.000    4.200    5.600    4.800 
#    0.000    0.000    0.000    0.000    0.000   16.800 
#    0.000    0.000    0.000    0.000    0.000    0.000 
#
# Total GULP energy -495544.487187 kJ/mol
# GULP energy per Si atom -12388.612180 kJ/mol
# Density = 2.558684 g / cm^3
# Si number density = 25.645206 Si / 1000 Ang^3
#
#
#
# Elastic Constant Matrix: (Units=GPa)
#
#
# Indices 1 2 3 4 5 6 
#
# 1 15.0306 22.2490 9.6517 0.0000 0.0000 0.0000
# 2 22.2490 164.0902 16.9370 0.0000 0.0000 0.0000
# 3 9.6517 16.9370 160.7628 0.0000 0.0000 0.0000
# 4 0.0000 0.0000 0.0000 41.9482 0.0000 0.0000
# 5 0.0000 0.0000 0.0000 0.0000 3.8358 0.0000
# 6 0.0000 0.0000 0.0000 0.0000 0.0000 15.5479
#
#
#
# Elastic Compliance Matrix: (Units=1/GPa)
#
#
# Indices 1 2 3 4 5 6 
#
# 1 0.085663 -0.011206 -0.003962 0.000000 0.000000 0.000000
# 2 -0.011206 0.007627 -0.000131 0.000000 0.000000 0.000000
# 3 -0.003962 -0.000131 0.006472 0.000000 0.000000 0.000000
# 4 0.000000 0.000000 0.000000 0.023839 0.000000 0.000000
# 5 0.000000 0.000000 0.000000 0.000000 0.260704 0.000000
# 6 0.000000 0.000000 0.000000 0.000000 0.000000 0.064317
#
#
# Mechanical properties :
#
#
# Convention : Reuss Voigt Hill
#
# Bulk Modulus (GPa) = 14.45844 48.61766 31.53805
# Shear Modulus (GPa) = 9.95470 31.66946 20.81208
#
# Velocity S-wave (km/s) = 1.97234 3.51794 2.85184
# Velocity P-wave (km/s) = 3.29195 5.95820 4.81337
#
# Compressibility (1/GPa) = 0.06916374
#
# Stress axis : x y z
#
# Youngs Moduli (GPa) = 11.67366 131.11067 154.51162
#
# Poissons Ratio (x) = 1.46924 0.61222
# Poissons Ratio (y) = 0.13082 0.02021
# Poissons Ratio (z) = 0.04625 0.01715
#
# Static dielectric constant tensor:
#      x y z
#    x 4.572230 0.000000 0.000000 
#    y 0.000000 4.913250 0.000000 
#    z 0.000000 0.000000 8.155440 
# 
# 
# High freq. dielectric constant tensor:
#      x y z
#    x 1.969670 0.000000 0.000000 
#    y 0.000000 2.029900 0.000000 
#    z 0.000000 0.000000 2.057930 
# 
# From -- ./inp_files/1314.got.cif
#   From: 2010.03.12/outbox.cif.g09.slc.cpg/sg56_1_cif.got.tgz:1314.got - 2010.04.16 15:33:40.
