data_PCOD8228094
_publ_section_title
;
Structure prediction by ZEFSAII (Michael W. Deem and Ramdas Pophale) SiO2 
 PCOD8228094
Probable space group: P C C N
;
_chemical_formula_sum "Si O2"
_cell_formula_units_Z 48
_cell_length_a 4.990097
_cell_length_b 15.874977
_cell_length_c 29.506144
_cell_angle_alpha 90.000000
_cell_angle_beta 90.000000
_cell_angle_gamma 90.000000
_cell_volume 2337.408129
_symmetry_space_group_name_H-M "P C C N"
_symmetry_group_IT_number 56
_symmetry_cell_setting 'orthorhombic'
loop_
_space_group_symop_operation_xyz
x,y,z
1/2-x,1/2-y,z
1/2+x,-y,1/2-z
-x,1/2+y,1/2-z
-x,-y,-z
1/2+x,1/2+y,-z
1/2-x,y,1/2+z
x,1/2-y,1/2+z
loop_
_atom_site_type_symbol
_atom_site_label
_atom_site_fract_x
_atom_site_fract_y
_atom_site_fract_z
Si Si1 0.072944 0.448750 0.152211
Si Si2 0.497800 0.806007 0.578294
Si Si3 0.318413 0.446251 0.749018
Si Si4 0.216598 0.651112 0.485993
Si Si5 0.427661 0.063598 0.345712
Si Si6 0.281393 0.349940 0.565072
O O1 0.103386 0.401499 0.201334
O O2 0.274119 0.527655 0.149577
O O3 0.134258 0.379498 0.114662
O O4 0.777101 0.486554 0.145913
O O5 0.250000 0.750000 0.596467
O O6 0.382350 0.864539 0.537472
O O7 0.614524 0.862984 0.618148
O O8 0.750000 0.750000 0.560420
O O9 0.504577 0.530457 0.751903
O O10 0.381211 0.395097 0.795430
O O11 0.250000 0.750000 0.478751
O O12 0.505550 0.614193 0.472199
O O13 0.001360 0.611538 0.451000
O O14 0.250000 0.250000 0.565919
#
# Coordination Sequence:
#
# PCOD8228094 Si02
#       6
#     8   8   8   8   8   8
#     4  10  19  34  54  78 105 137 172 211 256 308
#     4  11  21  36  56  77 101 136 176 215 256 306
#     4   8  16  31  52  72  99 137 170 197 248 317
#     4   9  18  33  51  71  99 138 174 201 249 317
#     4  10  20  35  54  78 104 135 173 214 257 307
#     4  10  19  33  53  76 102 135 173 210 249 301
#
# _framework density 20.535567
#
# number of rings (size 3 to 8) (size 9 to 14) (size 15 to 20)
#    0.000    2.333    0.000    4.500    0.000    0.000 
#    0.000    5.833    0.000    3.000    0.000    0.000 
#    0.000    0.000    0.000    0.000    0.000    0.000 
#
# Total GULP energy -594697.925071 kJ/mol
# GULP energy per Si atom -12389.540106 kJ/mol
# Density = 2.048883 g / cm^3
# Si number density = 20.535567 Si / 1000 Ang^3
#
#
#
# Elastic Constant Matrix: (Units=GPa)
#
#
# Indices 1 2 3 4 5 6 
#
# 1 95.4076 13.6882 31.8709 0.0000 0.0000 0.0000
# 2 13.6882 22.2941 36.0542 0.0000 0.0000 0.0000
# 3 31.8709 36.0542 179.1333 0.0000 0.0000 0.0000
# 4 0.0000 0.0000 0.0000 26.3078 0.0000 0.0000
# 5 0.0000 0.0000 0.0000 0.0000 32.5223 0.0000
# 6 0.0000 0.0000 0.0000 0.0000 0.0000 18.5026
#
#
#
# Elastic Compliance Matrix: (Units=1/GPa)
#
#
# Indices 1 2 3 4 5 6 
#
# 1 0.011598 -0.005610 -0.000934 0.000000 0.000000 0.000000
# 2 -0.005610 0.069214 -0.012933 0.000000 0.000000 0.000000
# 3 -0.000934 -0.012933 0.008352 0.000000 0.000000 0.000000
# 4 0.000000 0.000000 0.000000 0.038011 0.000000 0.000000
# 5 0.000000 0.000000 0.000000 0.000000 0.030748 0.000000
# 6 0.000000 0.000000 0.000000 0.000000 0.000000 0.054046
#
#
# Mechanical properties :
#
#
# Convention : Reuss Voigt Hill
#
# Bulk Modulus (GPa) = 19.91639 51.11796 35.51718
# Shear Modulus (GPa) = 18.68036 29.81467 24.24751
#
# Velocity S-wave (km/s) = 3.01933 3.81446 3.43994
# Velocity P-wave (km/s) = 4.67703 6.65932 5.75418
#
# Compressibility (1/GPa) = 0.05020990
#
# Stress axis : x y z
#
# Youngs Moduli (GPa) = 86.21913 14.44794 119.73694
#
# Poissons Ratio (x) = 0.08105 0.11188
# Poissons Ratio (y) = 0.48369 1.54851
# Poissons Ratio (z) = 0.08056 0.18685
#
# Static dielectric constant tensor:
#      x y z
#    x 4.205440 0.000000 0.000000 
#    y 0.000000 2.934990 0.000000 
#    z 0.000000 0.000000 4.105010 
# 
# 
# High freq. dielectric constant tensor:
#      x y z
#    x 1.834330 0.000000 0.000000 
#    y 0.000000 1.719280 0.000000 
#    z 0.000000 0.000000 1.823390 
# 
# From -- ./inp_files/22836.got.cif
#   From: 2010.03.12/outbox.cif.g09.slc.cpg/sg56_12_cif.got.tgz:22836.got - 2010.04.16 15:33:40.
