data_PCOD8228963
_publ_section_title
;
Structure prediction by ZEFSAII (Michael W. Deem and Ramdas Pophale) SiO2 
 PCOD8228963
Probable space group: P C C N
;
_chemical_formula_sum "Si O2"
_cell_formula_units_Z 48
_cell_length_a 29.683168
_cell_length_b 8.280523
_cell_length_c 9.395195
_cell_angle_alpha 90.000000
_cell_angle_beta 90.000000
_cell_angle_gamma 90.000000
_cell_volume 2309.265229
_symmetry_space_group_name_H-M "P C C N"
_symmetry_group_IT_number 56
_symmetry_cell_setting 'orthorhombic'
loop_
_space_group_symop_operation_xyz
x,y,z
1/2-x,1/2-y,z
1/2+x,-y,1/2-z
-x,1/2+y,1/2-z
-x,-y,-z
1/2+x,1/2+y,-z
1/2-x,y,1/2+z
x,1/2-y,1/2+z
loop_
_atom_site_type_symbol
_atom_site_label
_atom_site_fract_x
_atom_site_fract_y
_atom_site_fract_z
Si Si1 0.228037 0.090938 0.382273
Si Si2 0.128912 0.171207 0.387470
Si Si3 0.045359 0.541079 0.818200
Si Si4 0.626488 0.535540 0.305300
Si Si5 0.222569 0.590545 0.156733
Si Si6 0.959348 0.335337 0.872807
O O1 0.250000 0.250000 0.453965
O O2 0.176957 0.111834 0.331720
O O3 0.257238 0.057629 0.243602
O O4 0.230976 0.941652 0.490923
O O5 0.123964 0.357207 0.338057
O O6 0.127140 0.157559 0.559263
O O7 0.091497 0.058573 0.315455
O O8 0.042400 0.649690 0.676743
O O9 0.005074 0.413651 0.815530
O O10 0.042487 0.657559 0.956084
O O11 0.668998 0.411339 0.308405
O O12 0.582402 0.427528 0.303824
O O13 0.250000 0.750000 0.201540
#
# Coordination Sequence:
#
# PCOD8228963 Si02
#       6
#     8   8   8   8   8   8
#     4  11  22  40  61  86 118 161 206 246 301 361
#     4  10  22  38  60  88 117 155 199 248 293 361
#     4  10  22  40  62  89 123 154 199 247 300 360
#     4  10  22  40  59  89 119 155 202 246 301 358
#     4  11  24  39  59  87 123 158 200 256 303 357
#     4  10  22  40  61  89 122 156 196 248 298 361
#
# _framework density 20.785833
#
# number of rings (size 3 to 8) (size 9 to 14) (size 15 to 20)
#    0.000    1.667    1.667    2.000    4.667    2.000 
#    3.000    0.000    0.000    0.000    0.000    0.000 
#    0.000    0.000    0.000    0.000    0.000    0.000 
#
# Total GULP energy -595242.532039 kJ/mol
# GULP energy per Si atom -12400.886084 kJ/mol
# Density = 2.073852 g / cm^3
# Si number density = 20.785833 Si / 1000 Ang^3
#
#
#
# Elastic Constant Matrix: (Units=GPa)
#
#
# Indices 1 2 3 4 5 6 
#
# 1 144.0970 32.5336 27.9396 0.0000 0.0000 0.0000
# 2 32.5336 78.9809 20.6879 0.0000 0.0000 0.0000
# 3 27.9396 20.6879 35.0341 0.0000 0.0000 0.0000
# 4 0.0000 0.0000 0.0000 36.6257 0.0000 0.0000
# 5 0.0000 0.0000 0.0000 0.0000 21.0628 0.0000
# 6 0.0000 0.0000 0.0000 0.0000 0.0000 28.1206
#
#
#
# Elastic Compliance Matrix: (Units=1/GPa)
#
#
# Indices 1 2 3 4 5 6 
#
# 1 0.008477 -0.002036 -0.005558 0.000000 0.000000 0.000000
# 2 -0.002036 0.015467 -0.007510 0.000000 0.000000 0.000000
# 3 -0.005558 -0.007510 0.037411 0.000000 0.000000 0.000000
# 4 0.000000 0.000000 0.000000 0.027303 0.000000 0.000000
# 5 0.000000 0.000000 0.000000 0.000000 0.047477 0.000000
# 6 0.000000 0.000000 0.000000 0.000000 0.000000 0.035561
#
#
# Mechanical properties :
#
#
# Convention : Reuss Voigt Hill
#
# Bulk Modulus (GPa) = 32.10568 46.71491 39.41030
# Shear Modulus (GPa) = 23.55308 28.95856 26.25582
#
# Velocity S-wave (km/s) = 3.36985 3.73659 3.55795
# Velocity P-wave (km/s) = 5.53360 6.41400 5.98999
#
# Compressibility (1/GPa) = 0.03114714
#
# Stress axis : x y z
#
# Youngs Moduli (GPa) = 117.96407 64.65382 26.73028
#
# Poissons Ratio (x) = 0.13163 0.14857
# Poissons Ratio (y) = 0.24017 0.20074
# Poissons Ratio (z) = 0.65567 0.48553
#
# Static dielectric constant tensor:
#      x y z
#    x 3.980240 0.000000 0.000000 
#    y 0.000000 3.454680 0.000000 
#    z 0.000000 0.000000 3.615700 
# 
# 
# High freq. dielectric constant tensor:
#      x y z
#    x 1.836100 0.000000 0.000000 
#    y 0.000000 1.798960 0.000000 
#    z 0.000000 0.000000 1.806500 
# 
# From -- ./inp_files/2241.got.cif
#   From: 2010.03.12/outbox.cif.g09.slc.cpg/sg56_2_cif.got.tgz:2241.got - 2010.04.16 15:33:40.
