data_PCOD8228988
_publ_section_title
;
Structure prediction by ZEFSAII (Michael W. Deem and Ramdas Pophale) SiO2 
 PCOD8228988
Probable space group: P C C N
;
_chemical_formula_sum "Si O2"
_cell_formula_units_Z 56
_cell_length_a 10.586043
_cell_length_b 13.224062
_cell_length_c 16.009995
_cell_angle_alpha 90.000000
_cell_angle_beta 90.000000
_cell_angle_gamma 90.000000
_cell_volume 2241.247028
_symmetry_space_group_name_H-M "P C C N"
_symmetry_group_IT_number 56
_symmetry_cell_setting 'orthorhombic'
loop_
_space_group_symop_operation_xyz
x,y,z
1/2-x,1/2-y,z
1/2+x,-y,1/2-z
-x,1/2+y,1/2-z
-x,-y,-z
1/2+x,1/2+y,-z
1/2-x,y,1/2+z
x,1/2-y,1/2+z
loop_
_atom_site_type_symbol
_atom_site_label
_atom_site_fract_x
_atom_site_fract_y
_atom_site_fract_z
Si Si1 0.003912 0.341745 0.066404
Si Si2 0.173118 0.983124 0.052582
Si Si3 0.750000 0.250000 0.633334
Si Si4 0.558577 0.431976 0.405878
Si Si5 0.750000 0.750000 0.685803
Si Si6 0.870827 0.667658 0.344423
Si Si7 0.085914 0.083086 0.885329
Si Si8 0.113796 0.909824 0.778065
O O1 0.872904 0.279623 0.078722
O O2 0.000691 0.455200 0.104420
O O3 0.121435 0.277010 0.107320
O O4 0.027638 0.360662 0.966277
O O5 0.207493 0.083401 0.105904
O O6 0.304235 0.924148 0.050249
O O7 0.142307 0.014452 0.958802
O O8 0.065034 0.912001 0.095833
O O9 0.736062 0.154217 0.696171
O O10 0.570383 0.384165 0.314964
O O11 0.675354 0.675910 0.748887
O O12 0.650959 0.807488 0.624553
O O13 0.011730 0.627082 0.345144
O O14 0.123966 0.029389 0.797212
#
# Coordination Sequence:
#
# PCOD8228988 Si02
#       8
#     8   8   4   8   4   8   8   8
#     4  10  23  41  61  91 129 172 218 273 341 411
#     4  10  22  42  64  89 130 177 215 268 341 414
#     4  10  22  42  64  86 130 176 216 274 340 408
#     4  11  23  39  65  93 123 167 221 274 332 406
#     4  12  24  40  70 102 128 170 228 286 342 418
#     4  10  22  39  60  91 131 170 216 276 340 401
#     4  10  23  41  63  93 131 172 219 276 344 412
#     4  10  22  39  60  92 127 167 217 274 333 400
#
# _framework density 24.986090999999998
#
# number of rings (size 3 to 8) (size 9 to 14) (size 15 to 20)
#    0.000    1.714    0.000    3.429    0.000   12.571 
#    0.000    0.000    0.000    0.000    0.000    0.000 
#    0.000    0.000    0.000    0.000    0.000    0.000 
#
# Total GULP energy -693740.122630 kJ/mol
# GULP energy per Si atom -12388.216476 kJ/mol
# Density = 2.492922 g / cm^3
# Si number density = 24.986091 Si / 1000 Ang^3
#
#
#
# Elastic Constant Matrix: (Units=GPa)
#
#
# Indices 1 2 3 4 5 6 
#
# 1 49.3036 19.8937 -8.2380 0.0000 0.0000 0.0000
# 2 19.8937 74.3104 24.8780 0.0000 0.0000 0.0000
# 3 -8.2380 24.8780 114.6744 0.0000 0.0000 0.0000
# 4 0.0000 0.0000 0.0000 26.3953 0.0000 0.0000
# 5 0.0000 0.0000 0.0000 0.0000 29.0838 0.0000
# 6 0.0000 0.0000 0.0000 0.0000 0.0000 47.1881
#
#
#
# Elastic Compliance Matrix: (Units=1/GPa)
#
#
# Indices 1 2 3 4 5 6 
#
# 1 0.023872 -0.007510 0.003344 0.000000 0.000000 0.000000
# 2 -0.007510 0.016874 -0.004200 0.000000 0.000000 0.000000
# 3 0.003344 -0.004200 0.009872 0.000000 0.000000 0.000000
# 4 0.000000 0.000000 0.000000 0.037886 0.000000 0.000000
# 5 0.000000 0.000000 0.000000 0.000000 0.034383 0.000000
# 6 0.000000 0.000000 0.000000 0.000000 0.000000 0.021192
#
#
# Mechanical properties :
#
#
# Convention : Reuss Voigt Hill
#
# Bulk Modulus (GPa) = 29.51185 34.59508 32.05347
# Shear Modulus (GPa) = 29.05196 33.98375 31.51786
#
# Velocity S-wave (km/s) = 3.41358 3.69196 3.55550
# Velocity P-wave (km/s) = 5.23198 5.66126 5.45085
#
# Compressibility (1/GPa) = 0.03388469
#
# Stress axis : x y z
#
# Youngs Moduli (GPa) = 41.89074 59.26337 101.29866
#
# Poissons Ratio (x) = 0.44508 -0.33876
# Poissons Ratio (y) = 0.31461 0.42548
# Poissons Ratio (z) = -0.14009 0.24892
#
# Static dielectric constant tensor:
#      x y z
#    x 4.504360 0.000000 0.000000 
#    y 0.000000 4.638060 0.000000 
#    z 0.000000 0.000000 4.254990 
# 
# 
# High freq. dielectric constant tensor:
#      x y z
#    x 1.998860 0.000000 0.000000 
#    y 0.000000 1.990270 0.000000 
#    z 0.000000 0.000000 1.993720 
# 
# From -- ./inp_files/11733.got.cif
#   From: 2010.03.12/outbox.cif.g09.slc.cpg/sg56_6_cif.got.tgz:11733.got - 2010.04.16 15:33:40.
