data_PCOD8228272
_publ_section_title
;
Structure prediction by ZEFSAII (Michael W. Deem and Ramdas Pophale) SiO2 
 PCOD8228272
Probable space group: P C C N
;
_chemical_formula_sum "Si O2"
_cell_formula_units_Z 48
_cell_length_a 24.540185
_cell_length_b 11.745504
_cell_length_c 8.497028
_cell_angle_alpha 90.000000
_cell_angle_beta 90.000000
_cell_angle_gamma 90.000000
_cell_volume 2449.156509
_symmetry_space_group_name_H-M "P C C N"
_symmetry_group_IT_number 56
_symmetry_cell_setting 'orthorhombic'
loop_
_space_group_symop_operation_xyz
x,y,z
1/2-x,1/2-y,z
1/2+x,-y,1/2-z
-x,1/2+y,1/2-z
-x,-y,-z
1/2+x,1/2+y,-z
1/2-x,y,1/2+z
x,1/2-y,1/2+z
loop_
_atom_site_type_symbol
_atom_site_label
_atom_site_fract_x
_atom_site_fract_y
_atom_site_fract_z
Si Si1 0.024587 0.376506 0.973624
Si Si2 0.732384 0.875582 0.048327
Si Si3 0.504956 0.157901 0.623614
Si Si4 0.083942 0.025763 0.944231
Si Si5 0.169947 0.083037 0.155477
Si Si6 0.367133 0.162263 0.159265
O O1 0.024619 0.345583 0.790719
O O2 0.086776 0.367501 0.031074
O O3 0.000000 0.500000 0.000000
O O4 0.986841 0.289091 0.073143
O O5 0.750000 0.750000 0.110958
O O6 0.788138 0.929541 0.989241
O O7 0.691737 0.877563 0.900371
O O8 0.702717 0.947955 0.186096
O O9 0.468304 0.100911 0.488438
O O10 0.563328 0.093393 0.629779
O O11 0.119472 0.099468 0.822078
O O12 0.121091 0.999081 0.099652
O O13 0.138873 0.202844 0.181748
#
# Coordination Sequence:
#
# PCOD8228272 Si02
#       6
#     8   8   8   8   8   8
#     4  12  24  41  62  84 126 167 211 262 316 368
#     4  10  20  32  53  85 123 161 202 244 311 391
#     4  11  25  39  56  89 118 166 218 256 303 380
#     4  11  22  37  57  82 126 161 206 254 304 371
#     4  11  20  34  56  85 127 164 197 254 315 381
#     4  11  20  34  54  84 118 165 199 251 313 376
#
# _framework density 19.598583999999999
#
# number of rings (size 3 to 8) (size 9 to 14) (size 15 to 20)
#    0.000    1.000    3.333    6.500    2.333    0.000 
#    0.000    0.000    0.000    0.000    0.000    1.167 
#    0.000    0.000    0.000    0.000    0.000    0.000 
#
# Total GULP energy -594899.267488 kJ/mol
# GULP energy per Si atom -12393.734739 kJ/mol
# Density = 1.955398 g / cm^3
# Si number density = 19.598584 Si / 1000 Ang^3
#
#
#
# Elastic Constant Matrix: (Units=GPa)
#
#
# Indices 1 2 3 4 5 6 
#
# 1 89.6789 31.9818 23.7282 0.0000 0.0000 0.0000
# 2 31.9818 78.0842 27.9124 0.0000 0.0000 0.0000
# 3 23.7282 27.9124 93.7974 0.0000 0.0000 0.0000
# 4 0.0000 0.0000 0.0000 20.6200 0.0000 0.0000
# 5 0.0000 0.0000 0.0000 0.0000 44.3863 0.0000
# 6 0.0000 0.0000 0.0000 0.0000 0.0000 23.8305
#
#
#
# Elastic Compliance Matrix: (Units=1/GPa)
#
#
# Indices 1 2 3 4 5 6 
#
# 1 0.013373 -0.004776 -0.001962 0.000000 0.000000 0.000000
# 2 -0.004776 0.016037 -0.003564 0.000000 0.000000 0.000000
# 3 -0.001962 -0.003564 0.012218 0.000000 0.000000 0.000000
# 4 0.000000 0.000000 0.000000 0.048497 0.000000 0.000000
# 5 0.000000 0.000000 0.000000 0.000000 0.022529 0.000000
# 6 0.000000 0.000000 0.000000 0.000000 0.000000 0.041963
#
#
# Mechanical properties :
#
#
# Convention : Reuss Voigt Hill
#
# Bulk Modulus (GPa) = 47.56389 47.64504 47.60447
# Shear Modulus (GPa) = 27.43790 29.62989 28.53390
#
# Velocity S-wave (km/s) = 3.74571 3.89245 3.81979
# Velocity P-wave (km/s) = 6.55964 6.67569 6.61792
#
# Compressibility (1/GPa) = 0.02102435
#
# Stress axis : x y z
#
# Youngs Moduli (GPa) = 74.77602 62.35595 81.84539
#
# Poissons Ratio (x) = 0.29782 0.16056
# Poissons Ratio (y) = 0.35714 0.29170
# Poissons Ratio (z) = 0.14669 0.22224
#
# Static dielectric constant tensor:
#      x y z
#    x 3.895440 0.000000 0.000000 
#    y 0.000000 3.250140 0.000000 
#    z 0.000000 0.000000 3.769660 
# 
# 
# High freq. dielectric constant tensor:
#      x y z
#    x 1.778400 0.000000 0.000000 
#    y 0.000000 1.692570 0.000000 
#    z 0.000000 0.000000 1.786320 
# 
# From -- ./inp_files/2770.got.cif
#   From: 2010.03.12/outbox.cif.g09.slc.cpg/sg56_2_cif.got.tgz:2770.got - 2010.04.16 15:33:40.
