data_PCOD8228394
_publ_section_title
;
Structure prediction by ZEFSAII (Michael W. Deem and Ramdas Pophale) SiO2 
 PCOD8228394
Probable space group: P C C N
;
_chemical_formula_sum "Si O2"
_cell_formula_units_Z 52
_cell_length_a 20.314104
_cell_length_b 12.337201
_cell_length_c 8.884144
_cell_angle_alpha 90.000000
_cell_angle_beta 90.000000
_cell_angle_gamma 90.000000
_cell_volume 2226.536921
_symmetry_space_group_name_H-M "P C C N"
_symmetry_group_IT_number 56
_symmetry_cell_setting 'orthorhombic'
loop_
_space_group_symop_operation_xyz
x,y,z
1/2-x,1/2-y,z
1/2+x,-y,1/2-z
-x,1/2+y,1/2-z
-x,-y,-z
1/2+x,1/2+y,-z
1/2-x,y,1/2+z
x,1/2-y,1/2+z
loop_
_atom_site_type_symbol
_atom_site_label
_atom_site_fract_x
_atom_site_fract_y
_atom_site_fract_z
Si Si1 0.662908 0.953900 0.024324
Si Si2 0.331241 0.653020 0.027791
Si Si3 0.392713 0.275914 0.025390
Si Si4 0.250000 0.750000 0.786364
Si Si5 0.015432 0.254148 0.278478
Si Si6 0.070912 0.835782 0.469870
Si Si7 0.203038 0.437249 0.635931
O O1 0.615411 0.854463 0.981660
O O2 0.695616 0.930875 0.185424
O O3 0.621030 0.064770 0.018670
O O4 0.721120 0.963505 0.901371
O O5 0.275230 0.655015 0.897777
O O6 0.393627 0.718676 0.969532
O O7 0.308641 0.704822 0.186046
O O8 0.345569 0.528458 0.065237
O O9 0.429133 0.318873 0.874892
O O10 0.442508 0.313113 0.157083
O O11 0.320905 0.327015 0.054929
O O12 0.967703 0.338660 0.190111
O O13 0.977883 0.167631 0.386375
#
# Coordination Sequence:
#
# PCOD8228394 Si02
#       7
#     8   8   8   4   8   8   8
#     4  12  27  46  74 106 149 189 237 302 363 435
#     4  11  21  40  63 102 142 175 235 284 357 433
#     4  11  25  50  68 103 142 193 249 289 355 425
#     4  10  20  36  64  96 146 184 216 288 356 428
#     4  10  24  47  72  98 140 191 245 292 344 426
#     4  11  24  46  71 107 140 189 241 300 366 415
#     4  12  26  44  71 109 144 190 235 295 369 426
#
# _framework density 23.354655000000001
#
# number of rings (size 3 to 8) (size 9 to 14) (size 15 to 20)
#    0.000    0.923    1.538    6.000    2.154    4.923 
#    5.538    2.308    0.000    0.000    0.000    0.000 
#    0.000    0.000    0.000    0.000    0.000    0.000 
#
# Total GULP energy -644637.358862 kJ/mol
# GULP energy per Si atom -12396.872286 kJ/mol
# Density = 2.330150 g / cm^3
# Si number density = 23.354655 Si / 1000 Ang^3
#
#
#
# Elastic Constant Matrix: (Units=GPa)
#
#
# Indices 1 2 3 4 5 6 
#
# 1 108.1808 35.4710 44.0616 0.0000 0.0000 0.0000
# 2 35.4710 86.2912 25.3505 0.0000 0.0000 0.0000
# 3 44.0616 25.3505 150.1844 0.0000 0.0000 0.0000
# 4 0.0000 0.0000 0.0000 21.2063 0.0000 0.0000
# 5 0.0000 0.0000 0.0000 0.0000 37.6970 0.0000
# 6 0.0000 0.0000 0.0000 0.0000 0.0000 37.2877
#
#
#
# Elastic Compliance Matrix: (Units=1/GPa)
#
#
# Indices 1 2 3 4 5 6 
#
# 1 0.011673 -0.003990 -0.002751 0.000000 0.000000 0.000000
# 2 -0.003990 0.013557 -0.001118 0.000000 0.000000 0.000000
# 3 -0.002751 -0.001118 0.007654 0.000000 0.000000 0.000000
# 4 0.000000 0.000000 0.000000 0.047156 0.000000 0.000000
# 5 0.000000 0.000000 0.000000 0.000000 0.026527 0.000000
# 6 0.000000 0.000000 0.000000 0.000000 0.000000 0.026819
#
#
# Mechanical properties :
#
#
# Convention : Reuss Voigt Hill
#
# Bulk Modulus (GPa) = 58.25337 61.60251 59.92794
# Shear Modulus (GPa) = 32.29446 35.22306 33.75876
#
# Velocity S-wave (km/s) = 3.72262 3.88774 3.80608
# Velocity P-wave (km/s) = 6.59350 6.82547 6.71048
#
# Compressibility (1/GPa) = 0.01716639
#
# Stress axis : x y z
#
# Youngs Moduli (GPa) = 85.67131 73.76169 130.64594
#
# Poissons Ratio (x) = 0.29430 0.35941
# Poissons Ratio (y) = 0.34182 0.14604
# Poissons Ratio (z) = 0.23569 0.08245
#
# Static dielectric constant tensor:
#      x y z
#    x 4.274250 0.000000 0.000000 
#    y 0.000000 3.967850 0.000000 
#    z 0.000000 0.000000 4.577410 
# 
# 
# High freq. dielectric constant tensor:
#      x y z
#    x 1.930660 0.000000 0.000000 
#    y 0.000000 1.892400 0.000000 
#    z 0.000000 0.000000 1.948950 
# 
# From -- ./inp_files/4454.got.cif
#   From: 2010.03.12/outbox.cif.g09.slc.cpg/sg56_3_cif.got.tgz:4454.got - 2010.04.16 15:33:40.
