data_PCOD8228184
_publ_section_title
;
Structure prediction by ZEFSAII (Michael W. Deem and Ramdas Pophale) SiO2 
 PCOD8228184
Probable space group: P C C N
;
_chemical_formula_sum "Si O2"
_cell_formula_units_Z 60
_cell_length_a 23.814487
_cell_length_b 13.814975
_cell_length_c 8.648453
_cell_angle_alpha 90.000000
_cell_angle_beta 90.000000
_cell_angle_gamma 90.000000
_cell_volume 2845.311135
_symmetry_space_group_name_H-M "P C C N"
_symmetry_group_IT_number 56
_symmetry_cell_setting 'orthorhombic'
loop_
_space_group_symop_operation_xyz
x,y,z
1/2-x,1/2-y,z
1/2+x,-y,1/2-z
-x,1/2+y,1/2-z
-x,-y,-z
1/2+x,1/2+y,-z
1/2-x,y,1/2+z
x,1/2-y,1/2+z
loop_
_atom_site_type_symbol
_atom_site_label
_atom_site_fract_x
_atom_site_fract_y
_atom_site_fract_z
Si Si1 0.502163 0.624074 0.421223
Si Si2 0.690162 0.370623 0.267096
Si Si3 0.618731 0.673354 0.983055
Si Si4 0.680003 0.629217 0.473289
Si Si5 0.093210 0.970677 0.569473
Si Si6 0.047817 0.226598 0.292698
Si Si7 0.789382 0.574914 0.646557
Si Si8 0.750000 0.250000 0.024036
O O1 0.437582 0.589085 0.432355
O O2 0.545034 0.541326 0.355843
O O3 0.503308 0.722267 0.322372
O O4 0.519484 0.646767 0.599262
O O5 0.624720 0.398576 0.306486
O O6 0.721039 0.465996 0.202625
O O7 0.722193 0.334558 0.421161
O O8 0.698916 0.291223 0.131375
O O9 0.569640 0.680269 0.110292
O O10 0.660194 0.583481 0.018950
O O11 0.649116 0.774376 0.020647
O O12 0.595001 0.669879 0.809062
O O13 0.641269 0.536260 0.506333
O O14 0.734331 0.620053 0.576441
O O15 0.694415 0.639852 0.292970
#
# Coordination Sequence:
#
# PCOD8228184 Si02
#       8
#     8   8   8   8   8   8   8   4
#     4  10  21  37  63  84 117 162 208 263 306 370
#     4  10  21  41  63  85 119 158 198 264 300 372
#     4  11  20  36  58  89 129 166 200 246 301 380
#     4  11  22  36  56  87 126 170 198 246 303 366
#     4  10  20  38  60  87 118 159 209 251 316 349
#     4  10  19  37  59  87 119 164 207 250 316 353
#     4  11  23  35  57  90 126 159 205 240 299 377
#     4  10  22  42  64  88 116 160 208 246 324 356
#
# _framework density 21.087323999999999
#
# number of rings (size 3 to 8) (size 9 to 14) (size 15 to 20)
#    0.000    1.600    4.000    2.800    1.867    2.133 
#    0.000    1.333    0.000   35.200    0.000    0.000 
#    0.000    0.000    0.000    0.000    0.000    0.000 
#
# Total GULP energy -743448.692739 kJ/mol
# GULP energy per Si atom -12390.811546 kJ/mol
# Density = 2.103933 g / cm^3
# Si number density = 21.087324 Si / 1000 Ang^3
#
#
#
# Elastic Constant Matrix: (Units=GPa)
#
#
# Indices 1 2 3 4 5 6 
#
# 1 80.4120 12.1510 29.8861 0.0000 0.0000 0.0000
# 2 12.1510 65.5825 24.0403 0.0000 0.0000 0.0000
# 3 29.8861 24.0403 93.2967 0.0000 0.0000 0.0000
# 4 0.0000 0.0000 0.0000 30.0839 0.0000 0.0000
# 5 0.0000 0.0000 0.0000 0.0000 17.0710 0.0000
# 6 0.0000 0.0000 0.0000 0.0000 0.0000 68.4881
#
#
#
# Elastic Compliance Matrix: (Units=1/GPa)
#
#
# Indices 1 2 3 4 5 6 
#
# 1 0.014183 -0.001063 -0.004270 0.000000 0.000000 0.000000
# 2 -0.001063 0.016918 -0.004019 0.000000 0.000000 0.000000
# 3 -0.004270 -0.004019 0.013122 0.000000 0.000000 0.000000
# 4 0.000000 0.000000 0.000000 0.033240 0.000000 0.000000
# 5 0.000000 0.000000 0.000000 0.000000 0.058579 0.000000
# 6 0.000000 0.000000 0.000000 0.000000 0.000000 0.014601
#
#
# Mechanical properties :
#
#
# Convention : Reuss Voigt Hill
#
# Bulk Modulus (GPa) = 39.18396 41.27178 40.22787
# Shear Modulus (GPa) = 28.11312 34.67620 31.39466
#
# Velocity S-wave (km/s) = 3.65523 4.05953 3.86267
# Velocity P-wave (km/s) = 6.03625 6.44883 6.24595
#
# Compressibility (1/GPa) = 0.02552065
#
# Stress axis : x y z
#
# Youngs Moduli (GPa) = 70.50498 59.10839 76.20927
#
# Poissons Ratio (x) = 0.06282 0.32538
# Poissons Ratio (y) = 0.07493 0.30628
# Poissons Ratio (z) = 0.30103 0.23755
#
# Static dielectric constant tensor:
#      x y z
#    x 3.819300 0.000000 0.000000 
#    y 0.000000 3.765460 0.000000 
#    z 0.000000 0.000000 3.901550 
# 
# 
# High freq. dielectric constant tensor:
#      x y z
#    x 1.814710 0.000000 0.000000 
#    y 0.000000 1.816860 0.000000 
#    z 0.000000 0.000000 1.822250 
# 
# From -- ./inp_files/5020.got.cif
#   From: 2010.03.12/outbox.cif.g09.slc.cpg/sg56_3_cif.got.tgz:5020.got - 2010.04.16 15:33:40.
