data_PCOD8228628
_publ_section_title
;
Structure prediction by ZEFSAII (Michael W. Deem and Ramdas Pophale) SiO2 
 PCOD8228628
Probable space group: P C C N
;
_chemical_formula_sum "Si O2"
_cell_formula_units_Z 40
_cell_length_a 13.709677
_cell_length_b 13.728659
_cell_length_c 8.793663
_cell_angle_alpha 90.000000
_cell_angle_beta 90.000000
_cell_angle_gamma 90.000000
_cell_volume 1655.103507
_symmetry_space_group_name_H-M "P C C N"
_symmetry_group_IT_number 56
_symmetry_cell_setting 'orthorhombic'
loop_
_space_group_symop_operation_xyz
x,y,z
1/2-x,1/2-y,z
1/2+x,-y,1/2-z
-x,1/2+y,1/2-z
-x,-y,-z
1/2+x,1/2+y,-z
1/2-x,y,1/2+z
x,1/2-y,1/2+z
loop_
_atom_site_type_symbol
_atom_site_label
_atom_site_fract_x
_atom_site_fract_y
_atom_site_fract_z
Si Si1 0.460772 0.883266 0.176646
Si Si2 0.508348 0.706656 0.992020
Si Si3 0.289048 0.484013 0.632153
Si Si4 0.210555 0.148617 0.905738
Si Si5 0.436462 0.964042 0.644549
O O1 0.502156 0.820688 0.035227
O O2 0.457745 0.818171 0.330920
O O3 0.353917 0.918936 0.123036
O O4 0.525848 0.980720 0.203721
O O5 0.621318 0.672214 0.979406
O O6 0.455030 0.652147 0.135620
O O7 0.327390 0.421994 0.774602
O O8 0.297603 0.408946 0.491216
O O9 0.177789 0.518013 0.633607
O O10 0.250000 0.250000 0.835710
O O11 0.500000 0.000000 0.500000
#
# Coordination Sequence:
#
# PCOD8228628 Si02
#       5
#     8   8   8   8   8
#     4  11  24  44  75 107 146 196 245 305 374 447
#     4  11  24  47  72 104 154 198 242 313 377 436
#     4  12  24  45  74 107 143 199 245 305 384 441
#     4  12  25  42  75 110 142 193 260 310 365 447
#     4  10  20  46  69  96 151 195 235 306 368 434
#
# _framework density 24.167672
#
# number of rings (size 3 to 8) (size 9 to 14) (size 15 to 20)
#    0.000    0.800    6.000    3.000    2.800    2.400 
#    0.000    7.000    0.000    0.000    0.000    0.000 
#    0.000    0.000    0.000    0.000    0.000    0.000 
#
# Total GULP energy -495711.428104 kJ/mol
# GULP energy per Si atom -12392.785703 kJ/mol
# Density = 2.411267 g / cm^3
# Si number density = 24.167672 Si / 1000 Ang^3
#
#
#
# Elastic Constant Matrix: (Units=GPa)
#
#
# Indices 1 2 3 4 5 6 
#
# 1 100.0899 21.5251 -0.5481 0.0000 0.0000 0.0000
# 2 21.5251 89.3418 28.1634 0.0000 0.0000 0.0000
# 3 -0.5481 28.1634 56.5259 0.0000 0.0000 0.0000
# 4 0.0000 0.0000 0.0000 37.9049 0.0000 0.0000
# 5 0.0000 0.0000 0.0000 0.0000 31.3677 0.0000
# 6 0.0000 0.0000 0.0000 0.0000 0.0000 43.5320
#
#
#
# Elastic Compliance Matrix: (Units=1/GPa)
#
#
# Indices 1 2 3 4 5 6 
#
# 1 0.010664 -0.003087 0.001641 0.000000 0.000000 0.000000
# 2 -0.003087 0.014172 -0.007091 0.000000 0.000000 0.000000
# 3 0.001641 -0.007091 0.021240 0.000000 0.000000 0.000000
# 4 0.000000 0.000000 0.000000 0.026382 0.000000 0.000000
# 5 0.000000 0.000000 0.000000 0.000000 0.031880 0.000000
# 6 0.000000 0.000000 0.000000 0.000000 0.000000 0.022972
#
#
# Mechanical properties :
#
#
# Convention : Reuss Voigt Hill
#
# Bulk Modulus (GPa) = 34.47911 38.24873 36.36392
# Shear Modulus (GPa) = 32.45718 35.68208 34.06963
#
# Velocity S-wave (km/s) = 3.66867 3.84661 3.75870
# Velocity P-wave (km/s) = 5.67830 5.96568 5.82376
#
# Compressibility (1/GPa) = 0.02900307
#
# Stress axis : x y z
#
# Youngs Moduli (GPa) = 93.77520 70.56211 47.08119
#
# Poissons Ratio (x) = 0.21780 -0.07727
# Poissons Ratio (y) = 0.28945 0.33385
# Poissons Ratio (z) = -0.15391 0.50035
#
# Static dielectric constant tensor:
#      x y z
#    x 4.209000 0.000000 0.000000 
#    y 0.000000 5.226380 0.000000 
#    z 0.000000 0.000000 4.187770 
# 
# 
# High freq. dielectric constant tensor:
#      x y z
#    x 1.951390 0.000000 0.000000 
#    y 0.000000 1.973180 0.000000 
#    z 0.000000 0.000000 1.939920 
# 
# From -- ./inp_files/3237.got.cif
#   From: 2010.03.12/outbox.cif.g09.slc.cpg/sg56_2_cif.got.tgz:3237.got - 2010.04.16 15:33:40.
