data_PCOD8228707
_publ_section_title
;
Structure prediction by ZEFSAII (Michael W. Deem and Ramdas Pophale) SiO2 
 PCOD8228707
Probable space group: P C C N
;
_chemical_formula_sum "Si O2"
_cell_formula_units_Z 36
_cell_length_a 7.922507
_cell_length_b 9.013760
_cell_length_c 21.299352
_cell_angle_alpha 90.000000
_cell_angle_beta 90.000000
_cell_angle_gamma 90.000000
_cell_volume 1521.020309
_symmetry_space_group_name_H-M "P C C N"
_symmetry_group_IT_number 56
_symmetry_cell_setting 'orthorhombic'
loop_
_space_group_symop_operation_xyz
x,y,z
1/2-x,1/2-y,z
1/2+x,-y,1/2-z
-x,1/2+y,1/2-z
-x,-y,-z
1/2+x,1/2+y,-z
1/2-x,y,1/2+z
x,1/2-y,1/2+z
loop_
_atom_site_type_symbol
_atom_site_label
_atom_site_fract_x
_atom_site_fract_y
_atom_site_fract_z
Si Si1 0.141878 0.437595 0.815664
Si Si2 0.663250 0.049840 0.398938
Si Si3 0.750000 0.750000 0.452402
Si Si4 0.487431 0.319095 0.439938
Si Si5 0.002508 0.861963 0.222525
O O1 0.038958 0.311661 0.777084
O O2 0.337086 0.449454 0.799570
O O3 0.129461 0.402558 0.889204
O O4 0.055036 0.591374 0.793418
O O5 0.504311 0.140974 0.427908
O O6 0.829705 0.108033 0.434360
O O7 0.657091 0.089621 0.324434
O O8 0.655119 0.872649 0.409598
O O9 0.606880 0.665028 0.493619
#
# Coordination Sequence:
#
# PCOD8228707 Si02
#       5
#     8   8   4   8   8
#     4  10  21  38  61  85 116 151 187 233 287 348
#     4  10  22  38  59  86 116 151 193 239 287 343
#     4  12  22  38  60  84 112 152 200 242 280 338
#     4  10  21  39  59  83 117 154 189 235 295 342
#     4  10  21  38  59  87 117 149 188 234 289 345
#
# _framework density 23.668322
#
# number of rings (size 3 to 8) (size 9 to 14) (size 15 to 20)
#    0.000    1.778    0.000    5.333    0.000    6.222 
#    0.000    0.000    0.000    0.000    0.000    0.000 
#    0.000    0.000    0.000    0.000    0.000    0.000 
#
# Total GULP energy -446075.365557 kJ/mol
# GULP energy per Si atom -12390.982377 kJ/mol
# Density = 2.361445 g / cm^3
# Si number density = 23.668322 Si / 1000 Ang^3
#
#
#
# Elastic Constant Matrix: (Units=GPa)
#
#
# Indices 1 2 3 4 5 6 
#
# 1 82.1414 -2.1951 14.8334 0.0000 0.0000 0.0000
# 2 -2.1951 78.3169 32.9695 0.0000 0.0000 0.0000
# 3 14.8334 32.9695 47.6736 0.0000 0.0000 0.0000
# 4 0.0000 0.0000 0.0000 37.3762 0.0000 0.0000
# 5 0.0000 0.0000 0.0000 0.0000 31.0769 0.0000
# 6 0.0000 0.0000 0.0000 0.0000 0.0000 30.3147
#
#
#
# Elastic Compliance Matrix: (Units=1/GPa)
#
#
# Indices 1 2 3 4 5 6 
#
# 1 0.013381 0.003002 -0.006239 0.000000 0.000000 0.000000
# 2 0.003002 0.018686 -0.013857 0.000000 0.000000 0.000000
# 3 -0.006239 -0.013857 0.032500 0.000000 0.000000 0.000000
# 4 0.000000 0.000000 0.000000 0.026755 0.000000 0.000000
# 5 0.000000 0.000000 0.000000 0.000000 0.032178 0.000000
# 6 0.000000 0.000000 0.000000 0.000000 0.000000 0.032987
#
#
# Mechanical properties :
#
#
# Convention : Reuss Voigt Hill
#
# Bulk Modulus (GPa) = 32.91783 33.26083 33.08933
# Shear Modulus (GPa) = 24.90012 30.58851 27.74431
#
# Velocity S-wave (km/s) = 3.24704 3.59887 3.42747
# Velocity P-wave (km/s) = 5.29111 5.59934 5.44740
#
# Compressibility (1/GPa) = 0.03037868
#
# Stress axis : x y z
#
# Youngs Moduli (GPa) = 74.73250 53.51591 30.76921
#
# Poissons Ratio (x) = -0.16064 0.19198
# Poissons Ratio (y) = -0.22432 0.42636
# Poissons Ratio (z) = 0.46628 0.74155
#
# Static dielectric constant tensor:
#      x y z
#    x 4.275420 0.000000 0.000000 
#    y 0.000000 4.277930 0.000000 
#    z 0.000000 0.000000 3.991180 
# 
# 
# High freq. dielectric constant tensor:
#      x y z
#    x 1.944380 0.000000 0.000000 
#    y 0.000000 1.928580 0.000000 
#    z 0.000000 0.000000 1.911110 
# 
# From -- ./inp_files/17863.got.cif
#   From: 2010.03.12/outbox.cif.g09.slc.cpg/sg56_9_cif.got.tgz:17863.got - 2010.04.16 15:33:40.
