data_PCOD8228522
_publ_section_title
;
Structure prediction by ZEFSAII (Michael W. Deem and Ramdas Pophale) SiO2 
 PCOD8228522
Probable space group: P C C N
;
_chemical_formula_sum "Si O2"
_cell_formula_units_Z 64
_cell_length_a 21.517279
_cell_length_b 8.988576
_cell_length_c 16.356983
_cell_angle_alpha 90.000000
_cell_angle_beta 90.000000
_cell_angle_gamma 90.000000
_cell_volume 3163.599136
_symmetry_space_group_name_H-M "P C C N"
_symmetry_group_IT_number 56
_symmetry_cell_setting 'orthorhombic'
loop_
_space_group_symop_operation_xyz
x,y,z
1/2-x,1/2-y,z
1/2+x,-y,1/2-z
-x,1/2+y,1/2-z
-x,-y,-z
1/2+x,1/2+y,-z
1/2-x,y,1/2+z
x,1/2-y,1/2+z
loop_
_atom_site_type_symbol
_atom_site_label
_atom_site_fract_x
_atom_site_fract_y
_atom_site_fract_z
Si Si1 0.737967 0.914975 0.675953
Si Si2 0.633143 0.121557 0.872744
Si Si3 0.950769 0.114979 0.528040
Si Si4 0.643964 0.411325 0.662443
Si Si5 0.252672 0.083702 0.130048
Si Si6 0.371441 0.959741 0.658361
Si Si7 0.615851 0.430779 0.192323
Si Si8 0.499072 0.422459 0.085881
O O1 0.750000 0.750000 0.640734
O O2 0.742261 0.918131 0.773074
O O3 0.786894 0.033009 0.637370
O O4 0.667984 0.961625 0.653788
O O5 0.647428 0.287415 0.844991
O O6 0.605421 0.044097 0.790265
O O7 0.692242 0.023517 0.904483
O O8 0.585844 0.154139 0.945807
O O9 0.904312 0.039628 0.592734
O O10 0.989461 0.248422 0.569864
O O11 0.000000 0.000000 0.500000
O O12 0.626357 0.499113 0.745386
O O13 0.639913 0.234038 0.671254
O O14 0.250000 0.250000 0.093492
O O15 0.184489 0.027993 0.105897
O O16 0.433944 0.030889 0.624318
O O17 0.552413 0.477593 0.147717
O O18 0.500000 0.500000 0.000000
#
# Coordination Sequence:
#
# PCOD8228522 Si02
#       8
#     8   8   8   8   8   8   8   8
#     4   9  17  35  59  90 117 146 200 257 299 348
#     4  10  20  40  60  88 118 161 204 244 304 359
#     4  11  25  40  57  87 128 157 197 252 299 363
#     4   9  20  39  59  87 114 159 201 243 304 354
#     4   9  19  35  61  91 116 150 202 255 297 347
#     4  10  20  39  65  85 118 157 205 246 295 367
#     4   9  20  37  63  86 116 161 203 244 300 368
#     4  11  23  42  60  89 120 158 205 247 300 358
#
# _framework density 20.230124
#
# number of rings (size 3 to 8) (size 9 to 14) (size 15 to 20)
#    0.000    2.250    1.250    0.750    3.500    4.000 
#    2.250    1.875    0.000    0.000    0.000    0.000 
#    0.000    0.000    0.000    0.000    0.000    0.000 
#
# Total GULP energy -792842.344424 kJ/mol
# GULP energy per Si atom -12388.161632 kJ/mol
# Density = 2.018408 g / cm^3
# Si number density = 20.230124 Si / 1000 Ang^3
#
#
#
# Elastic Constant Matrix: (Units=GPa)
#
#
# Indices 1 2 3 4 5 6 
#
# 1 146.4883 57.9095 37.6538 0.0000 0.0000 0.0000
# 2 57.9095 78.5441 16.5142 0.0000 0.0000 0.0000
# 3 37.6538 16.5142 71.9146 0.0000 0.0000 0.0000
# 4 0.0000 0.0000 0.0000 20.0120 0.0000 0.0000
# 5 0.0000 0.0000 0.0000 0.0000 23.6790 0.0000
# 6 0.0000 0.0000 0.0000 0.0000 0.0000 41.7976
#
#
#
# Elastic Compliance Matrix: (Units=1/GPa)
#
#
# Indices 1 2 3 4 5 6 
#
# 1 0.010604 -0.006988 -0.003947 0.000000 0.000000 0.000000
# 2 -0.006988 0.017983 -0.000471 0.000000 0.000000 0.000000
# 3 -0.003947 -0.000471 0.016080 0.000000 0.000000 0.000000
# 4 0.000000 0.000000 0.000000 0.049970 0.000000 0.000000
# 5 0.000000 0.000000 0.000000 0.000000 0.042232 0.000000
# 6 0.000000 0.000000 0.000000 0.000000 0.000000 0.023925
#
#
# Mechanical properties :
#
#
# Convention : Reuss Voigt Hill
#
# Bulk Modulus (GPa) = 45.75650 57.90024 51.82837
# Shear Modulus (GPa) = 26.19316 29.42235 27.80775
#
# Velocity S-wave (km/s) = 3.60218 3.81777 3.71154
# Velocity P-wave (km/s) = 6.32203 6.93663 6.63645
#
# Compressibility (1/GPa) = 0.02185482
#
# Stress axis : x y z
#
# Youngs Moduli (GPa) = 94.30803 55.60874 62.18831
#
# Poissons Ratio (x) = 0.38859 0.24547
# Poissons Ratio (y) = 0.65902 0.02927
# Poissons Ratio (z) = 0.37226 0.02617
#
# Static dielectric constant tensor:
#      x y z
#    x 1.851500 0.000000 0.000000 
#    y 0.000000 4.003530 0.000000 
#    z 0.000000 0.000000 3.397940 
# 
# 
# High freq. dielectric constant tensor:
#      x y z
#    x 1.795420 0.000000 0.000000 
#    y 0.000000 1.786020 0.000000 
#    z 0.000000 0.000000 1.778720 
# 
# From -- ./inp_files/16870.got.cif
#   From: 2010.03.12/outbox.cif.g09.slc.cpg/sg56_9_cif.got.tgz:16870.got - 2010.04.16 15:33:40.
