data_PCOD8228100
_publ_section_title
;
Structure prediction by ZEFSAII (Michael W. Deem and Ramdas Pophale) SiO2 
 PCOD8228100
Probable space group: P C C N
;
_chemical_formula_sum "Si O2"
_cell_formula_units_Z 64
_cell_length_a 16.740225
_cell_length_b 7.256509
_cell_length_c 28.079697
_cell_angle_alpha 90.000000
_cell_angle_beta 90.000000
_cell_angle_gamma 90.000000
_cell_volume 3410.997855
_symmetry_space_group_name_H-M "P C C N"
_symmetry_group_IT_number 56
_symmetry_cell_setting 'orthorhombic'
loop_
_space_group_symop_operation_xyz
x,y,z
1/2-x,1/2-y,z
1/2+x,-y,1/2-z
-x,1/2+y,1/2-z
-x,-y,-z
1/2+x,1/2+y,-z
1/2-x,y,1/2+z
x,1/2-y,1/2+z
loop_
_atom_site_type_symbol
_atom_site_label
_atom_site_fract_x
_atom_site_fract_y
_atom_site_fract_z
Si Si1 0.891015 0.506604 0.167568
Si Si2 0.531340 0.303775 0.920893
Si Si3 0.861528 0.920692 0.073244
Si Si4 0.984271 0.192359 0.816146
Si Si5 0.597550 0.969363 0.061953
Si Si6 0.779526 0.050817 0.167342
Si Si7 0.838675 0.284678 0.496681
Si Si8 0.427431 0.848638 0.278157
O O1 0.933215 0.702984 0.172065
O O2 0.885810 0.435749 0.112885
O O3 0.800884 0.549510 0.186010
O O4 0.938031 0.347214 0.195555
O O5 0.458406 0.452438 0.924276
O O6 0.563650 0.310548 0.866220
O O7 0.605373 0.358487 0.954208
O O8 0.495199 0.103207 0.937051
O O9 0.655666 0.790369 0.057176
O O10 0.822751 0.946729 0.124604
O O11 0.824225 0.058679 0.035569
O O12 0.934381 0.311119 0.778109
O O13 0.003652 0.988512 0.796073
O O14 0.617446 0.107964 0.019536
O O15 0.750000 0.250000 0.149052
O O16 0.839940 0.068848 0.211783
O O17 0.750000 0.250000 0.475985
#
# Coordination Sequence:
#
# PCOD8228100 Si02
#       8
#     8   8   8   8   8   8   8   8
#     4  10  20  34  55  87 111 137 175 234 297 320
#     4   9  22  40  54  82 112 152 187 227 275 338
#     4  10  20  36  58  83 115 144 184 234 288 332
#     4  11  21  37  58  78 109 151 186 220 280 336
#     4   9  21  35  59  82 114 146 187 229 286 335
#     4  10  19  33  56  89 114 136 176 240 296 332
#     4  12  22  36  56  82 115 153 191 229 271 326
#     4  11  20  35  56  81 112 141 180 225 274 346
#
# _framework density 18.762837999999999
#
# number of rings (size 3 to 8) (size 9 to 14) (size 15 to 20)
#    0.750    1.000    2.500    3.375    0.000    3.500 
#    0.000    1.875    0.000    0.000    0.000    0.000 
#    0.000    0.000    0.000    0.000    0.000    0.000 
#
# Total GULP energy -793116.564151 kJ/mol
# GULP energy per Si atom -12392.446315 kJ/mol
# Density = 1.872013 g / cm^3
# Si number density = 18.762838 Si / 1000 Ang^3
#
#
#
# Elastic Constant Matrix: (Units=GPa)
#
#
# Indices 1 2 3 4 5 6 
#
# 1 66.5308 13.5441 41.6724 0.0000 0.0000 0.0000
# 2 13.5441 55.4320 27.3657 0.0000 0.0000 0.0000
# 3 41.6724 27.3657 88.2598 0.0000 0.0000 0.0000
# 4 0.0000 0.0000 0.0000 21.9064 0.0000 0.0000
# 5 0.0000 0.0000 0.0000 0.0000 23.9093 0.0000
# 6 0.0000 0.0000 0.0000 0.0000 0.0000 24.0240
#
#
#
# Elastic Compliance Matrix: (Units=1/GPa)
#
#
# Indices 1 2 3 4 5 6 
#
# 1 0.021346 -0.000283 -0.009991 0.000000 0.000000 0.000000
# 2 -0.000283 0.021304 -0.006472 0.000000 0.000000 0.000000
# 3 -0.009991 -0.006472 0.018054 0.000000 0.000000 0.000000
# 4 0.000000 0.000000 0.000000 0.045649 0.000000 0.000000
# 5 0.000000 0.000000 0.000000 0.000000 0.041825 0.000000
# 6 0.000000 0.000000 0.000000 0.000000 0.000000 0.041625
#
#
# Mechanical properties :
#
#
# Convention : Reuss Voigt Hill
#
# Bulk Modulus (GPa) = 36.74774 41.70967 39.22870
# Shear Modulus (GPa) = 21.51776 22.47731 21.99754
#
# Velocity S-wave (km/s) = 3.39016 3.46492 3.42775
# Velocity P-wave (km/s) = 5.91203 6.18755 6.05136
#
# Compressibility (1/GPa) = 0.02721256
#
# Stress axis : x y z
#
# Youngs Moduli (GPa) = 46.84664 46.93873 55.38907
#
# Poissons Ratio (x) = 0.01330 0.55339
# Poissons Ratio (y) = 0.01327 0.35847
# Poissons Ratio (z) = 0.46804 0.30378
#
# Static dielectric constant tensor:
#      x y z
#    x 3.387280 0.000000 0.000000 
#    y 0.000000 3.402020 0.000000 
#    z 0.000000 0.000000 3.330460 
# 
# 
# High freq. dielectric constant tensor:
#      x y z
#    x 1.709530 0.000000 0.000000 
#    y 0.000000 1.729400 0.000000 
#    z 0.000000 0.000000 1.711890 
# 
# From -- ./inp_files/21190.got.cif
#   From: 2010.03.12/outbox.cif.g09.slc.cpg/sg56_11_cif.got.tgz:21190.got - 2010.04.16 15:33:40.
