data_PCOD8228688
_publ_section_title
;
Structure prediction by ZEFSAII (Michael W. Deem and Ramdas Pophale) SiO2 
 PCOD8228688
Probable space group: P C C N
;
_chemical_formula_sum "Si O2"
_cell_formula_units_Z 48
_cell_length_a 17.148164
_cell_length_b 7.712551
_cell_length_c 18.037639
_cell_angle_alpha 90.000000
_cell_angle_beta 90.000000
_cell_angle_gamma 90.000000
_cell_volume 2385.587596
_symmetry_space_group_name_H-M "P C C N"
_symmetry_group_IT_number 56
_symmetry_cell_setting 'orthorhombic'
loop_
_space_group_symop_operation_xyz
x,y,z
1/2-x,1/2-y,z
1/2+x,-y,1/2-z
-x,1/2+y,1/2-z
-x,-y,-z
1/2+x,1/2+y,-z
1/2-x,y,1/2+z
x,1/2-y,1/2+z
loop_
_atom_site_type_symbol
_atom_site_label
_atom_site_fract_x
_atom_site_fract_y
_atom_site_fract_z
Si Si1 0.331637 0.332380 0.070979
Si Si2 0.331507 0.315636 0.241416
Si Si3 0.006506 0.367330 0.065027
Si Si4 0.928719 0.510869 0.699972
Si Si5 0.932775 0.108438 0.714580
Si Si6 0.081310 0.955059 0.963437
O O1 0.250000 0.250000 0.043304
O O2 0.323495 0.381460 0.156847
O O3 0.407077 0.211645 0.058678
O O4 0.347333 0.502128 0.019299
O O5 0.250000 0.250000 0.273948
O O6 0.357564 0.482572 0.289685
O O7 0.387498 0.148791 0.246164
O O8 0.991699 0.441355 0.147200
O O9 0.929565 0.246448 0.055050
O O10 0.000000 0.500000 0.000000
O O11 0.908171 0.310320 0.719795
O O12 0.907116 0.554988 0.614879
O O13 0.021318 0.543387 0.711448
O O14 0.000000 0.000000 0.000000
#
# Coordination Sequence:
#
# PCOD8228688 Si02
#       6
#     8   8   8   8   8   8
#     4  10  21  41  61  87 123 160 204 252 316 367
#     4  11  24  41  62  91 125 163 203 259 317 362
#     4  10  21  37  60  92 117 159 214 246 297 377
#     4  11  21  37  62  92 121 160 209 251 304 372
#     4  11  21  38  64  91 122 163 208 256 305 372
#     4   9  20  36  58  87 119 157 198 252 301 359
#
# _framework density 20.120827999999999
#
# number of rings (size 3 to 8) (size 9 to 14) (size 15 to 20)
#    0.000    1.667    3.333    2.000    4.667    2.667 
#    0.000    0.833    0.000    0.000    0.000    0.000 
#    0.000    0.000    0.000    0.000    0.000    0.000 
#
# Total GULP energy -594716.736132 kJ/mol
# GULP energy per Si atom -12389.932003 kJ/mol
# Density = 2.007503 g / cm^3
# Si number density = 20.120828 Si / 1000 Ang^3
#
#
#
# Elastic Constant Matrix: (Units=GPa)
#
#
# Indices 1 2 3 4 5 6 
#
# 1 104.5161 39.0297 28.5193 0.0000 0.0000 0.0000
# 2 39.0297 99.0141 36.7930 0.0000 0.0000 0.0000
# 3 28.5193 36.7930 92.1299 0.0000 0.0000 0.0000
# 4 0.0000 0.0000 0.0000 28.5214 0.0000 0.0000
# 5 0.0000 0.0000 0.0000 0.0000 27.7357 0.0000
# 6 0.0000 0.0000 0.0000 0.0000 0.0000 32.8534
#
#
#
# Elastic Compliance Matrix: (Units=1/GPa)
#
#
# Indices 1 2 3 4 5 6 
#
# 1 0.011544 -0.003784 -0.002062 0.000000 0.000000 0.000000
# 2 -0.003784 0.013100 -0.004060 0.000000 0.000000 0.000000
# 3 -0.002062 -0.004060 0.013114 0.000000 0.000000 0.000000
# 4 0.000000 0.000000 0.000000 0.035061 0.000000 0.000000
# 5 0.000000 0.000000 0.000000 0.000000 0.036055 0.000000
# 6 0.000000 0.000000 0.000000 0.000000 0.000000 0.030438
#
#
# Mechanical properties :
#
#
# Convention : Reuss Voigt Hill
#
# Bulk Modulus (GPa) = 55.72648 56.03822 55.88235
# Shear Modulus (GPa) = 30.28347 30.57663 30.43005
#
# Velocity S-wave (km/s) = 3.88375 3.90250 3.89313
# Velocity P-wave (km/s) = 6.91862 6.94387 6.93126
#
# Compressibility (1/GPa) = 0.01794479
#
# Stress axis : x y z
#
# Youngs Moduli (GPa) = 86.62735 76.33629 76.25380
#
# Poissons Ratio (x) = 0.28886 0.15725
# Poissons Ratio (y) = 0.32780 0.30961
# Poissons Ratio (z) = 0.17864 0.30994
#
# Static dielectric constant tensor:
#      x y z
#    x 3.421890 0.000000 0.000000 
#    y 0.000000 3.851910 0.000000 
#    z 0.000000 0.000000 1.483480 
# 
# 
# High freq. dielectric constant tensor:
#      x y z
#    x 1.767810 0.000000 0.000000 
#    y 0.000000 1.774540 0.000000 
#    z 0.000000 0.000000 1.796650 
# 
# From -- ./inp_files/12689.got.cif
#   From: 2010.03.12/outbox.cif.g09.slc.cpg/sg56_7_cif.got.tgz:12689.got - 2010.04.16 15:33:40.
