data_PCOD8228962
_publ_section_title
;
Structure prediction by ZEFSAII (Michael W. Deem and Ramdas Pophale) SiO2 
 PCOD8228962
Probable space group: P C C N
;
_chemical_formula_sum "Si O2"
_cell_formula_units_Z 60
_cell_length_a 11.581238
_cell_length_b 20.697908
_cell_length_c 11.763487
_cell_angle_alpha 90.000000
_cell_angle_beta 90.000000
_cell_angle_gamma 90.000000
_cell_volume 2819.794868
_symmetry_space_group_name_H-M "P C C N"
_symmetry_group_IT_number 56
_symmetry_cell_setting 'orthorhombic'
loop_
_space_group_symop_operation_xyz
x,y,z
1/2-x,1/2-y,z
1/2+x,-y,1/2-z
-x,1/2+y,1/2-z
-x,-y,-z
1/2+x,1/2+y,-z
1/2-x,y,1/2+z
x,1/2-y,1/2+z
loop_
_atom_site_type_symbol
_atom_site_label
_atom_site_fract_x
_atom_site_fract_y
_atom_site_fract_z
Si Si1 0.649771 0.867062 0.993179
Si Si2 0.785648 0.180096 0.013258
Si Si3 0.881068 0.263809 0.728557
Si Si4 0.917085 0.845029 0.739366
Si Si5 0.881304 0.565704 0.441509
Si Si6 0.750000 0.750000 0.871988
Si Si7 0.926052 0.421954 0.384015
Si Si8 0.569712 0.130460 0.147126
O O1 0.749639 0.913663 0.950254
O O2 0.673550 0.793789 0.955631
O O3 0.531938 0.890901 0.936055
O O4 0.642275 0.874185 0.128482
O O5 0.750000 0.250000 0.958989
O O6 0.878559 0.198631 0.108585
O O7 0.685135 0.138025 0.072549
O O8 0.841783 0.137419 0.915434
O O9 0.750000 0.250000 0.772455
O O10 0.952677 0.197885 0.712764
O O11 0.961422 0.311553 0.803575
O O12 0.939906 0.902305 0.829941
O O13 0.833899 0.791678 0.793545
O O14 0.876583 0.488867 0.430346
O O15 0.949574 0.587950 0.555484
O O16 0.928328 0.423658 0.246815
#
# Coordination Sequence:
#
# PCOD8228962 Si02
#       8
#     8   8   8   8   8   4   8   8
#     4  11  24  40  64 100 134 167 225 271 332 397
#     4   9  21  40  64  96 127 169 213 273 334 396
#     4   9  19  37  61  97 130 165 209 257 328 395
#     4  11  21  40  66  95 138 169 217 280 327 405
#     4  10  26  43  65  93 123 188 224 266 345 400
#     4  10  22  38  60 102 130 178 206 258 350 394
#     4  11  23  47  67  88 132 178 227 276 330 423
#     4  10  23  39  64  99 128 164 219 271 334 387
#
# _framework density 21.278143
#
# number of rings (size 3 to 8) (size 9 to 14) (size 15 to 20)
#    0.000    2.133    2.667    0.400    3.733    9.600 
#    2.400    2.000    0.000    0.000    0.000    0.000 
#    0.000    0.000    0.000    0.000    0.000    0.000 
#
# Total GULP energy -743690.112107 kJ/mol
# GULP energy per Si atom -12394.835202 kJ/mol
# Density = 2.122971 g / cm^3
# Si number density = 21.278143 Si / 1000 Ang^3
#
#
#
# Elastic Constant Matrix: (Units=GPa)
#
#
# Indices 1 2 3 4 5 6 
#
# 1 77.0882 32.3129 23.3553 0.0000 0.0000 0.0000
# 2 32.3129 71.8323 14.0850 0.0000 0.0000 0.0000
# 3 23.3553 14.0850 96.3089 0.0000 0.0000 0.0000
# 4 0.0000 0.0000 0.0000 20.8461 0.0000 0.0000
# 5 0.0000 0.0000 0.0000 0.0000 4.0365 0.0000
# 6 0.0000 0.0000 0.0000 0.0000 0.0000 26.2680
#
#
#
# Elastic Compliance Matrix: (Units=1/GPa)
#
#
# Indices 1 2 3 4 5 6 
#
# 1 0.016819 -0.006966 -0.003060 0.000000 0.000000 0.000000
# 2 -0.006966 0.017217 -0.000829 0.000000 0.000000 0.000000
# 3 -0.003060 -0.000829 0.011247 0.000000 0.000000 0.000000
# 4 0.000000 0.000000 0.000000 0.047971 0.000000 0.000000
# 5 0.000000 0.000000 0.000000 0.000000 0.247737 0.000000
# 6 0.000000 0.000000 0.000000 0.000000 0.000000 0.038069
#
#
# Mechanical properties :
#
#
# Convention : Reuss Voigt Hill
#
# Bulk Modulus (GPa) = 42.41999 42.74841 42.58420
# Shear Modulus (GPa) = 12.23612 21.92853 17.08232
#
# Velocity S-wave (km/s) = 2.40063 3.21373 2.83647
# Velocity P-wave (km/s) = 5.25959 5.82277 5.54833
#
# Compressibility (1/GPa) = 0.02357379
#
# Stress axis : x y z
#
# Youngs Moduli (GPa) = 59.45627 58.08107 88.91643
#
# Poissons Ratio (x) = 0.40458 0.27208
# Poissons Ratio (y) = 0.41416 0.07369
# Poissons Ratio (z) = 0.18193 0.04814
#
# Static dielectric constant tensor:
#      x y z
#    x 3.853790 0.000000 0.000000 
#    y 0.000000 3.771460 0.000000 
#    z 0.000000 0.000000 3.761160 
# 
# 
# High freq. dielectric constant tensor:
#      x y z
#    x 1.835500 0.000000 0.000000 
#    y 0.000000 1.818610 0.000000 
#    z 0.000000 0.000000 1.838370 
# 
# From -- ./inp_files/7329.got.cif
#   From: 2010.03.12/outbox.cif.g09.slc.cpg/sg56_4_cif.got.tgz:7329.got - 2010.04.16 15:33:40.
