data_PCOD8228751
_publ_section_title
;
Structure prediction by ZEFSAII (Michael W. Deem and Ramdas Pophale) SiO2 
 PCOD8228751
Probable space group: P C C N
;
_chemical_formula_sum "Si O2"
_cell_formula_units_Z 36
_cell_length_a 5.079144
_cell_length_b 11.770320
_cell_length_c 25.209389
_cell_angle_alpha 90.000000
_cell_angle_beta 90.000000
_cell_angle_gamma 90.000000
_cell_volume 1507.096689
_symmetry_space_group_name_H-M "P C C N"
_symmetry_group_IT_number 56
_symmetry_cell_setting 'orthorhombic'
loop_
_space_group_symop_operation_xyz
x,y,z
1/2-x,1/2-y,z
1/2+x,-y,1/2-z
-x,1/2+y,1/2-z
-x,-y,-z
1/2+x,1/2+y,-z
1/2-x,y,1/2+z
x,1/2-y,1/2+z
loop_
_atom_site_type_symbol
_atom_site_label
_atom_site_fract_x
_atom_site_fract_y
_atom_site_fract_z
Si Si1 0.251300 0.384026 0.450977
Si Si2 0.736567 0.971292 0.933659
Si Si3 0.250000 0.250000 0.244655
Si Si4 0.552930 0.158385 0.647734
Si Si5 0.113562 0.473970 0.280805
O O1 0.250000 0.250000 0.436568
O O2 0.310687 0.399164 0.513274
O O3 0.476002 0.455840 0.419405
O O4 0.970873 0.438083 0.437607
O O5 0.804635 0.873866 0.889541
O O6 0.478861 0.291321 0.205183
O O7 0.143814 0.339853 0.287342
O O8 0.750000 0.250000 0.619634
O O9 0.693110 0.039026 0.664586
O O10 0.306910 0.505904 0.232371
#
# Coordination Sequence:
#
# PCOD8228751 Si02
#       5
#     8   8   4   8   8
#     4  10  22  44  65  90 139 170 209 277 350 403
#     4  10  24  38  67 101 123 173 226 269 333 409
#     4  10  22  40  66  92 134 176 218 284 336 398
#     4  11  23  39  66 100 133 173 234 287 322 418
#     4  10  21  39  61  92 129 171 212 265 347 386
#
# _framework density 23.886984999999999
#
# number of rings (size 3 to 8) (size 9 to 14) (size 15 to 20)
#    0.000    1.778    2.222    0.667    4.667    3.556 
#    2.000    0.000   19.556    0.000    0.000    0.000 
#    0.000    0.000    0.000    0.000    0.000    0.000 
#
# Total GULP energy -445984.551899 kJ/mol
# GULP energy per Si atom -12388.459775 kJ/mol
# Density = 2.383262 g / cm^3
# Si number density = 23.886985 Si / 1000 Ang^3
#
#
#
# Elastic Constant Matrix: (Units=GPa)
#
#
# Indices 1 2 3 4 5 6 
#
# 1 109.4373 36.5276 20.9805 0.0000 0.0000 0.0000
# 2 36.5276 138.1718 44.9859 0.0000 0.0000 0.0000
# 3 20.9805 44.9859 55.4270 0.0000 0.0000 0.0000
# 4 0.0000 0.0000 0.0000 10.5245 0.0000 0.0000
# 5 0.0000 0.0000 0.0000 0.0000 28.4433 0.0000
# 6 0.0000 0.0000 0.0000 0.0000 0.0000 36.5568
#
#
#
# Elastic Compliance Matrix: (Units=1/GPa)
#
#
# Indices 1 2 3 4 5 6 
#
# 1 0.010230 -0.001962 -0.002280 0.000000 0.000000 0.000000
# 2 -0.001962 0.010213 -0.007546 0.000000 0.000000 0.000000
# 3 -0.002280 -0.007546 0.025030 0.000000 0.000000 0.000000
# 4 0.000000 0.000000 0.000000 0.095016 0.000000 0.000000
# 5 0.000000 0.000000 0.000000 0.000000 0.035158 0.000000
# 6 0.000000 0.000000 0.000000 0.000000 0.000000 0.027355
#
#
# Mechanical properties :
#
#
# Convention : Reuss Voigt Hill
#
# Bulk Modulus (GPa) = 45.67101 56.44714 51.05908
# Shear Modulus (GPa) = 21.37888 28.47440 24.92664
#
# Velocity S-wave (km/s) = 2.99490 3.45635 3.23387
# Velocity P-wave (km/s) = 5.57856 6.29370 5.94689
#
# Compressibility (1/GPa) = 0.02189573
#
# Stress axis : x y z
#
# Youngs Moduli (GPa) = 97.75548 97.91405 39.95285
#
# Poissons Ratio (x) = 0.19212 0.09108
# Poissons Ratio (y) = 0.19181 0.30150
# Poissons Ratio (z) = 0.22285 0.73890
#
# Static dielectric constant tensor:
#      x y z
#    x 4.165610 0.000000 0.000000 
#    y 0.000000 4.926510 0.000000 
#    z 0.000000 0.000000 3.984940 
# 
# 
# High freq. dielectric constant tensor:
#      x y z
#    x 1.947810 0.000000 0.000000 
#    y 0.000000 1.968470 0.000000 
#    z 0.000000 0.000000 1.912070 
# 
# From -- ./inp_files/22779.got.cif
#   From: 2010.03.12/outbox.cif.g09.slc.cpg/sg56_12_cif.got.tgz:22779.got - 2010.04.16 15:33:40.
