data_PCOD8228878
_publ_section_title
;
Structure prediction by ZEFSAII (Michael W. Deem and Ramdas Pophale) SiO2 
 PCOD8228878
Probable space group: P C C N
;
_chemical_formula_sum "Si O2"
_cell_formula_units_Z 64
_cell_length_a 12.191400
_cell_length_b 11.683077
_cell_length_c 22.893482
_cell_angle_alpha 90.000000
_cell_angle_beta 90.000000
_cell_angle_gamma 90.000000
_cell_volume 3260.788808
_symmetry_space_group_name_H-M "P C C N"
_symmetry_group_IT_number 56
_symmetry_cell_setting 'orthorhombic'
loop_
_space_group_symop_operation_xyz
x,y,z
1/2-x,1/2-y,z
1/2+x,-y,1/2-z
-x,1/2+y,1/2-z
-x,-y,-z
1/2+x,1/2+y,-z
1/2-x,y,1/2+z
x,1/2-y,1/2+z
loop_
_atom_site_type_symbol
_atom_site_label
_atom_site_fract_x
_atom_site_fract_y
_atom_site_fract_z
Si Si1 0.680699 0.458472 0.128597
Si Si2 0.131140 0.293527 0.382744
Si Si3 0.322863 0.642721 0.669827
Si Si4 0.047775 0.318866 0.769432
Si Si5 0.535419 0.130423 0.937824
Si Si6 0.104964 0.909202 0.438113
Si Si7 0.816850 0.460315 0.234782
Si Si8 0.939820 0.231609 0.667861
O O1 0.615745 0.570381 0.106196
O O2 0.768069 0.413610 0.080792
O O3 0.736836 0.512073 0.186108
O O4 0.605082 0.353275 0.146134
O O5 0.250000 0.250000 0.405548
O O6 0.119365 0.252242 0.315423
O O7 0.029384 0.244045 0.419429
O O8 0.250000 0.750000 0.651186
O O9 0.420298 0.678670 0.712923
O O10 0.374493 0.591816 0.610245
O O11 0.244388 0.552279 0.703088
O O12 0.084696 0.449660 0.759764
O O13 0.049327 0.254256 0.706466
O O14 0.441603 0.035816 0.943259
O O15 0.595697 0.152909 0.999333
O O16 0.032977 0.841796 0.389713
O O17 0.854652 0.337260 0.209299
#
# Coordination Sequence:
#
# PCOD8228878 Si02
#       8
#     8   8   8   8   8   8   8   8
#     4  11  20  35  63  88 117 158 209 243 306 370
#     4  11  20  39  58  92 121 161 203 251 308 373
#     4  11  20  37  57  87 121 155 197 245 305 362
#     4  11  23  34  58  89 125 158 195 251 311 375
#     4  10  23  40  64  87 117 164 209 257 308 363
#     4  10  21  42  61  84 117 161 213 252 297 368
#     4  11  20  37  56  86 123 159 197 247 308 375
#     4  11  22  36  61  89 118 160 198 250 304 369
#
# _framework density 19.627153
#
# number of rings (size 3 to 8) (size 9 to 14) (size 15 to 20)
#    0.000    1.250    5.000    3.750    1.750    2.000 
#    0.000    1.875    0.000    0.000    0.000    0.000 
#    0.000    0.000    0.000    0.000    0.000    0.000 
#
# Total GULP energy -793300.100183 kJ/mol
# GULP energy per Si atom -12395.314065 kJ/mol
# Density = 1.958248 g / cm^3
# Si number density = 19.627153 Si / 1000 Ang^3
#
#
#
# Elastic Constant Matrix: (Units=GPa)
#
#
# Indices 1 2 3 4 5 6 
#
# 1 52.3093 20.4590 33.6032 0.0000 0.0000 0.0000
# 2 20.4590 97.6958 30.3923 0.0000 0.0000 0.0000
# 3 33.6032 30.3923 142.3620 0.0000 0.0000 0.0000
# 4 0.0000 0.0000 0.0000 26.1267 0.0000 0.0000
# 5 0.0000 0.0000 0.0000 0.0000 23.8839 0.0000
# 6 0.0000 0.0000 0.0000 0.0000 0.0000 27.6921
#
#
#
# Elastic Compliance Matrix: (Units=1/GPa)
#
#
# Indices 1 2 3 4 5 6 
#
# 1 0.023561 -0.003432 -0.004829 0.000000 0.000000 0.000000
# 2 -0.003432 0.011464 -0.001637 0.000000 0.000000 0.000000
# 3 -0.004829 -0.001637 0.008514 0.000000 0.000000 0.000000
# 4 0.000000 0.000000 0.000000 0.038275 0.000000 0.000000
# 5 0.000000 0.000000 0.000000 0.000000 0.041869 0.000000
# 6 0.000000 0.000000 0.000000 0.000000 0.000000 0.036111
#
#
# Mechanical properties :
#
#
# Convention : Reuss Voigt Hill
#
# Bulk Modulus (GPa) = 42.11783 51.25291 46.68537
# Shear Modulus (GPa) = 26.66599 29.40137 28.03368
#
# Velocity S-wave (km/s) = 3.68995 3.87459 3.78340
# Velocity P-wave (km/s) = 6.29761 6.79607 6.55158
#
# Compressibility (1/GPa) = 0.02374292
#
# Stress axis : x y z
#
# Youngs Moduli (GPa) = 42.44249 87.23034 117.45815
#
# Poissons Ratio (x) = 0.29937 0.56718
# Poissons Ratio (y) = 0.14566 0.19232
# Poissons Ratio (z) = 0.20494 0.14282
#
# Static dielectric constant tensor:
#      x y z
#    x 3.417880 0.000000 0.000000 
#    y 0.000000 3.533650 0.000000 
#    z 0.000000 0.000000 3.791990 
# 
# 
# High freq. dielectric constant tensor:
#      x y z
#    x 1.745540 0.000000 0.000000 
#    y 0.000000 1.766830 0.000000 
#    z 0.000000 0.000000 1.754500 
# 
# From -- ./inp_files/21023.got.cif
#   From: 2010.03.12/outbox.cif.g09.slc.cpg/sg56_11_cif.got.tgz:21023.got - 2010.04.16 15:33:40.
