data_PCOD8228621
_publ_section_title
;
Structure prediction by ZEFSAII (Michael W. Deem and Ramdas Pophale) SiO2 
 PCOD8228621
Probable space group: P C C N
;
_chemical_formula_sum "Si O2"
_cell_formula_units_Z 56
_cell_length_a 8.652981
_cell_length_b 14.735572
_cell_length_c 19.614305
_cell_angle_alpha 90.000000
_cell_angle_beta 90.000000
_cell_angle_gamma 90.000000
_cell_volume 2500.953823
_symmetry_space_group_name_H-M "P C C N"
_symmetry_group_IT_number 56
_symmetry_cell_setting 'orthorhombic'
loop_
_space_group_symop_operation_xyz
x,y,z
1/2-x,1/2-y,z
1/2+x,-y,1/2-z
-x,1/2+y,1/2-z
-x,-y,-z
1/2+x,1/2+y,-z
1/2-x,y,1/2+z
x,1/2-y,1/2+z
loop_
_atom_site_type_symbol
_atom_site_label
_atom_site_fract_x
_atom_site_fract_y
_atom_site_fract_z
Si Si1 0.158538 0.519365 0.963490
Si Si2 0.351956 0.161308 0.481229
Si Si3 0.668052 0.107733 0.425534
Si Si4 0.237905 0.972426 0.823705
Si Si5 0.825143 0.654031 0.236069
Si Si6 0.313730 0.842077 0.210232
Si Si7 0.409371 0.410789 0.122737
O O1 0.259739 0.428637 0.962105
O O2 0.134841 0.545889 0.883451
O O3 0.242911 0.603187 0.001898
O O4 0.000000 0.500000 0.000000
O O5 0.250000 0.250000 0.464562
O O6 0.505683 0.159550 0.434517
O O7 0.403631 0.160639 0.560440
O O8 0.766199 0.159170 0.368791
O O9 0.662625 0.003785 0.402570
O O10 0.274951 0.921018 0.752830
O O11 0.081040 0.931424 0.852832
O O12 0.229555 0.079318 0.806678
O O13 0.750000 0.750000 0.218230
O O14 0.809992 0.632712 0.316267
O O15 0.002725 0.650362 0.213421
O O16 0.250000 0.750000 0.244024
#
# Coordination Sequence:
#
# PCOD8228621 Si02
#       7
#     8   8   8   8   8   8   8
#     4  11  23  42  67 102 137 185 236 286 364 428
#     4  11  23  42  73 102 133 185 240 297 360 428
#     4  11  21  45  70  94 139 185 234 301 350 425
#     4  11  22  44  70  99 140 188 229 292 360 429
#     4  11  25  41  72 105 140 185 239 290 360 439
#     4  11  27  45  65 102 144 185 238 296 359 425
#     4  10  20  44  68  98 139 181 231 285 362 418
#
# _framework density 22.391458
#
# number of rings (size 3 to 8) (size 9 to 14) (size 15 to 20)
#    0.000    1.143    4.286    2.143    2.000    2.857 
#   10.286    0.714    0.000    0.000    0.000    0.000 
#    0.000    0.000    0.000    0.000    0.000    0.000 
#
# Total GULP energy -694292.392934 kJ/mol
# GULP energy per Si atom -12398.078445 kJ/mol
# Density = 2.234049 g / cm^3
# Si number density = 22.391458 Si / 1000 Ang^3
#
#
#
# Elastic Constant Matrix: (Units=GPa)
#
#
# Indices 1 2 3 4 5 6 
#
# 1 99.4753 36.7861 44.8136 0.0000 0.0000 0.0000
# 2 36.7861 115.5129 46.1325 0.0000 0.0000 0.0000
# 3 44.8136 46.1325 148.1146 0.0000 0.0000 0.0000
# 4 0.0000 0.0000 0.0000 18.3395 0.0000 0.0000
# 5 0.0000 0.0000 0.0000 0.0000 34.4557 0.0000
# 6 0.0000 0.0000 0.0000 0.0000 0.0000 35.2428
#
#
#
# Elastic Compliance Matrix: (Units=1/GPa)
#
#
# Indices 1 2 3 4 5 6 
#
# 1 0.012382 -0.002795 -0.002876 0.000000 0.000000 0.000000
# 2 -0.002795 0.010518 -0.002430 0.000000 0.000000 0.000000
# 3 -0.002876 -0.002430 0.008379 0.000000 0.000000 0.000000
# 4 0.000000 0.000000 0.000000 0.054527 0.000000 0.000000
# 5 0.000000 0.000000 0.000000 0.000000 0.029023 0.000000
# 6 0.000000 0.000000 0.000000 0.000000 0.000000 0.028375
#
#
# Mechanical properties :
#
#
# Convention : Reuss Voigt Hill
#
# Bulk Modulus (GPa) = 66.32834 68.72970 67.52902
# Shear Modulus (GPa) = 30.40821 33.29898 31.85360
#
# Velocity S-wave (km/s) = 3.68914 3.86051 3.77580
# Velocity P-wave (km/s) = 6.91613 7.11566 7.01660
#
# Compressibility (1/GPa) = 0.01507651
#
# Stress axis : x y z
#
# Youngs Moduli (GPa) = 80.76415 95.07867 119.35163
#
# Poissons Ratio (x) = 0.26570 0.34323
# Poissons Ratio (y) = 0.22570 0.29007
# Poissons Ratio (z) = 0.23226 0.23107
#
# Static dielectric constant tensor:
#      x y z
#    x 1.661610 0.000000 0.000000 
#    y 0.000000 3.978340 0.000000 
#    z 0.000000 0.000000 5.132560 
# 
# 
# High freq. dielectric constant tensor:
#      x y z
#    x 1.870440 0.000000 0.000000 
#    y 0.000000 1.871480 0.000000 
#    z 0.000000 0.000000 1.907280 
# 
# From -- ./inp_files/18224.got.cif
#   From: 2010.03.12/outbox.cif.g09.slc.cpg/sg56_10_cif.got.tgz:18224.got - 2010.04.16 15:33:40.
