data_PCOD8228971
_publ_section_title
;
Structure prediction by ZEFSAII (Michael W. Deem and Ramdas Pophale) SiO2 
 PCOD8228971
Probable space group: P C C N
;
_chemical_formula_sum "Si O2"
_cell_formula_units_Z 60
_cell_length_a 10.920153
_cell_length_b 25.215343
_cell_length_c 9.566765
_cell_angle_alpha 90.000000
_cell_angle_beta 90.000000
_cell_angle_gamma 90.000000
_cell_volume 2634.260437
_symmetry_space_group_name_H-M "P C C N"
_symmetry_group_IT_number 56
_symmetry_cell_setting 'orthorhombic'
loop_
_space_group_symop_operation_xyz
x,y,z
1/2-x,1/2-y,z
1/2+x,-y,1/2-z
-x,1/2+y,1/2-z
-x,-y,-z
1/2+x,1/2+y,-z
1/2-x,y,1/2+z
x,1/2-y,1/2+z
loop_
_atom_site_type_symbol
_atom_site_label
_atom_site_fract_x
_atom_site_fract_y
_atom_site_fract_z
Si Si1 0.412813 0.666345 0.535999
Si Si2 0.611634 0.982759 0.412014
Si Si3 0.073553 0.840682 0.839107
Si Si4 0.614740 0.629768 0.331162
Si Si5 0.526868 0.472451 0.643904
Si Si6 0.250000 0.750000 0.928888
Si Si7 0.153691 0.364692 0.493679
Si Si8 0.755932 0.421974 0.536294
O O1 0.484526 0.660315 0.682856
O O2 0.493296 0.656141 0.397099
O O3 0.355927 0.724752 0.523912
O O4 0.299645 0.625465 0.556253
O O5 0.655338 0.926092 0.462407
O O6 0.500000 0.000000 0.500000
O O7 0.557354 0.981570 0.254962
O O8 0.714908 0.027825 0.436719
O O9 0.181278 0.796266 0.841328
O O10 0.126919 0.898842 0.880112
O O11 0.959146 0.831154 0.942666
O O12 0.589662 0.565948 0.322476
O O13 0.648331 0.646427 0.172549
O O14 0.718842 0.652413 0.435522
O O15 0.500000 0.500000 0.500000
O O16 0.650102 0.437802 0.644472
#
# Coordination Sequence:
#
# PCOD8228971 Si02
#       8
#     8   8   8   8   8   4   8   8
#     4  10  23  43  71 100 136 166 225 273 348 400
#     4  12  23  38  58  90 132 179 232 272 322 382
#     4  11  22  42  70 100 129 173 212 277 338 401
#     4  11  25  44  61  94 129 182 218 278 329 398
#     4  11  24  38  58  88 126 173 229 275 323 380
#     4  10  24  44  76 110 132 160 212 278 346 414
#     4  12  26  42  66  91 140 180 232 274 334 394
#     4  10  22  38  62  92 133 172 224 275 326 387
#
# _framework density 22.776792
#
# number of rings (size 3 to 8) (size 9 to 14) (size 15 to 20)
#    0.000    1.067    2.667    2.800    7.467    7.467 
#    0.000    0.667    0.000    3.200    0.000    0.000 
#    0.000    0.000    0.000    0.000    0.000    0.000 
#
# Total GULP energy -743385.259125 kJ/mol
# GULP energy per Si atom -12389.754319 kJ/mol
# Density = 2.272495 g / cm^3
# Si number density = 22.776792 Si / 1000 Ang^3
#
#
#
# Elastic Constant Matrix: (Units=GPa)
#
#
# Indices 1 2 3 4 5 6 
#
# 1 102.2385 16.3691 43.9274 0.0000 0.0000 0.0000
# 2 16.3691 74.2342 24.7619 0.0000 0.0000 0.0000
# 3 43.9274 24.7619 182.8472 0.0000 0.0000 0.0000
# 4 0.0000 0.0000 0.0000 18.4822 0.0000 0.0000
# 5 0.0000 0.0000 0.0000 0.0000 36.8435 0.0000
# 6 0.0000 0.0000 0.0000 0.0000 0.0000 24.9293
#
#
#
# Elastic Compliance Matrix: (Units=1/GPa)
#
#
# Indices 1 2 3 4 5 6 
#
# 1 0.011092 -0.001631 -0.002444 0.000000 0.000000 0.000000
# 2 -0.001631 0.014348 -0.001551 0.000000 0.000000 0.000000
# 3 -0.002444 -0.001551 0.006266 0.000000 0.000000 0.000000
# 4 0.000000 0.000000 0.000000 0.054106 0.000000 0.000000
# 5 0.000000 0.000000 0.000000 0.000000 0.027142 0.000000
# 6 0.000000 0.000000 0.000000 0.000000 0.000000 0.040113
#
#
# Mechanical properties :
#
#
# Convention : Reuss Voigt Hill
#
# Bulk Modulus (GPa) = 48.88900 58.82630 53.85765
# Shear Modulus (GPa) = 29.21623 34.33510 31.77566
#
# Velocity S-wave (km/s) = 3.58539 3.88681 3.73914
# Velocity P-wave (km/s) = 6.21700 6.78428 6.50682
#
# Compressibility (1/GPa) = 0.02045450
#
# Stress axis : x y z
#
# Youngs Moduli (GPa) = 90.15342 69.69656 159.58458
#
# Poissons Ratio (x) = 0.11365 0.39002
# Poissons Ratio (y) = 0.14701 0.24756
# Poissons Ratio (z) = 0.22033 0.10812
#
# Static dielectric constant tensor:
#      x y z
#    x 4.311690 0.000000 0.000000 
#    y 0.000000 3.872070 0.000000 
#    z 0.000000 0.000000 3.809930 
# 
# 
# High freq. dielectric constant tensor:
#      x y z
#    x 1.903930 0.000000 0.000000 
#    y 0.000000 1.876610 0.000000 
#    z 0.000000 0.000000 1.899150 
# 
# From -- ./inp_files/2905.got.cif
#   From: 2010.03.12/outbox.cif.g09.slc.cpg/sg56_2_cif.got.tgz:2905.got - 2010.04.16 15:33:40.
