data_PCOD8228813
_publ_section_title
;
Structure prediction by ZEFSAII (Michael W. Deem and Ramdas Pophale) SiO2 
 PCOD8228813
Probable space group: P C C N
;
_chemical_formula_sum "Si O2"
_cell_formula_units_Z 40
_cell_length_a 15.779013
_cell_length_b 11.935475
_cell_length_c 10.115686
_cell_angle_alpha 90.000000
_cell_angle_beta 90.000000
_cell_angle_gamma 90.000000
_cell_volume 1905.087298
_symmetry_space_group_name_H-M "P C C N"
_symmetry_group_IT_number 56
_symmetry_cell_setting 'orthorhombic'
loop_
_space_group_symop_operation_xyz
x,y,z
1/2-x,1/2-y,z
1/2+x,-y,1/2-z
-x,1/2+y,1/2-z
-x,-y,-z
1/2+x,1/2+y,-z
1/2-x,y,1/2+z
x,1/2-y,1/2+z
loop_
_atom_site_type_symbol
_atom_site_label
_atom_site_fract_x
_atom_site_fract_y
_atom_site_fract_z
Si Si1 0.677077 0.413681 0.900195
Si Si2 0.121412 0.338694 0.601400
Si Si3 0.322901 0.586302 0.400203
Si Si4 0.878570 0.661317 0.101410
Si Si5 0.458382 0.749978 0.500008
O O1 0.647414 0.537251 0.942129
O O2 0.711759 0.411308 0.750002
O O3 0.749986 0.373273 0.000008
O O4 0.598222 0.330032 0.909080
O O5 0.164912 0.250024 0.499982
O O6 0.151838 0.312070 0.749989
O O7 0.018890 0.326417 0.593364
O O8 0.352529 0.462718 0.442143
O O9 0.401773 0.669918 0.409113
O O10 0.981095 0.673545 0.093363
#
# Coordination Sequence:
#
# PCOD8228813 Si02
#       5
#     8   8   8   8   8
#     4  11  24  41  61  90 124 159 198 246 302 355
#     4   9  21  39  63  90 119 157 201 246 296 353
#     4  11  24  41  61  90 124 159 198 246 302 355
#     4   9  21  39  63  90 119 157 201 246 296 353
#     4  10  21  40  65  86 116 156 204 246 291 356
#
# _framework density 20.996413
#
# number of rings (size 3 to 8) (size 9 to 14) (size 15 to 20)
#    1.200    0.800    0.000    3.000    0.000    7.200 
#    0.000    4.000    0.000    0.000    0.000    0.000 
#    0.000    0.000    0.000    0.000    0.000    0.000 
#
# Total GULP energy -495855.623302 kJ/mol
# GULP energy per Si atom -12396.390583 kJ/mol
# Density = 2.094862 g / cm^3
# Si number density = 20.996413 Si / 1000 Ang^3
#
#
#
# Elastic Constant Matrix: (Units=GPa)
#
#
# Indices 1 2 3 4 5 6 
#
# 1 56.0085 5.7857 16.5243 0.0000 0.0000 0.0000
# 2 5.7857 69.8719 26.0902 0.0000 0.0000 0.0000
# 3 16.5243 26.0902 104.2965 0.0000 0.0000 0.0000
# 4 0.0000 0.0000 0.0000 32.0005 0.0000 0.0000
# 5 0.0000 0.0000 0.0000 0.0000 23.5606 0.0000
# 6 0.0000 0.0000 0.0000 0.0000 0.0000 14.3244
#
#
#
# Elastic Compliance Matrix: (Units=1/GPa)
#
#
# Indices 1 2 3 4 5 6 
#
# 1 0.018745 -0.000489 -0.002848 0.000000 0.000000 0.000000
# 2 -0.000489 0.015799 -0.003875 0.000000 0.000000 0.000000
# 3 -0.002848 -0.003875 0.011008 0.000000 0.000000 0.000000
# 4 0.000000 0.000000 0.000000 0.031250 0.000000 0.000000
# 5 0.000000 0.000000 0.000000 0.000000 0.042444 0.000000
# 6 0.000000 0.000000 0.000000 0.000000 0.000000 0.069811
#
#
# Mechanical properties :
#
#
# Convention : Reuss Voigt Hill
#
# Bulk Modulus (GPa) = 32.12306 36.33081 34.22694
# Shear Modulus (GPa) = 23.38020 26.09555 24.73787
#
# Velocity S-wave (km/s) = 3.34058 3.52924 3.43621
# Velocity P-wave (km/s) = 5.49653 5.82652 5.66393
#
# Compressibility (1/GPa) = 0.03113028
#
# Stress axis : x y z
#
# Youngs Moduli (GPa) = 53.34742 63.29421 90.83890
#
# Poissons Ratio (x) = 0.03094 0.25867
# Poissons Ratio (y) = 0.02608 0.35198
# Poissons Ratio (z) = 0.15191 0.24525
#
# Static dielectric constant tensor:
#      x y z
#    x 3.559940 0.000000 0.000000 
#    y 0.000000 3.774720 0.000000 
#    z 0.000000 0.000000 3.543210 
# 
# 
# High freq. dielectric constant tensor:
#      x y z
#    x 1.812770 0.000000 0.000000 
#    y 0.000000 1.829900 0.000000 
#    z 0.000000 0.000000 1.817670 
# 
# From -- ./inp_files/3943.got.cif
#   From: 2010.03.12/outbox.cif.g09.slc.cpg/sg56_2_cif.got.tgz:3943.got - 2010.04.16 15:33:40.
