data_PCOD8228839
_publ_section_title
;
Structure prediction by ZEFSAII (Michael W. Deem and Ramdas Pophale) SiO2 
 PCOD8228839
Probable space group: P C C N
;
_chemical_formula_sum "Si O2"
_cell_formula_units_Z 64
_cell_length_a 12.663476
_cell_length_b 26.284100
_cell_length_c 8.447350
_cell_angle_alpha 90.000000
_cell_angle_beta 90.000000
_cell_angle_gamma 90.000000
_cell_volume 2811.684140
_symmetry_space_group_name_H-M "P C C N"
_symmetry_group_IT_number 56
_symmetry_cell_setting 'orthorhombic'
loop_
_space_group_symop_operation_xyz
x,y,z
1/2-x,1/2-y,z
1/2+x,-y,1/2-z
-x,1/2+y,1/2-z
-x,-y,-z
1/2+x,1/2+y,-z
1/2-x,y,1/2+z
x,1/2-y,1/2+z
loop_
_atom_site_type_symbol
_atom_site_label
_atom_site_fract_x
_atom_site_fract_y
_atom_site_fract_z
Si Si1 0.998168 0.285301 0.768866
Si Si2 0.951066 0.920971 0.052859
Si Si3 0.383193 0.525576 0.838961
Si Si4 0.832651 0.792323 0.188991
Si Si5 0.675849 0.656097 0.874102
Si Si6 0.637915 0.270081 0.560543
Si Si7 0.292159 0.925792 0.036248
Si Si8 0.872140 0.132394 0.756893
O O1 0.919915 0.281758 0.618980
O O2 0.929136 0.297197 0.923518
O O3 0.051753 0.228683 0.770087
O O4 0.082054 0.331058 0.751719
O O5 0.014805 0.879027 0.157769
O O6 0.911630 0.965959 0.166796
O O7 0.849409 0.896126 0.965931
O O8 0.021150 0.942422 0.910762
O O9 0.364705 0.544480 0.660925
O O10 0.281670 0.532805 0.950662
O O11 0.750000 0.750000 0.243100
O O12 0.791026 0.843088 0.285870
O O13 0.825672 0.799119 0.002365
O O14 0.750000 0.250000 0.497590
O O15 0.644527 0.308530 0.711266
O O16 0.222505 0.882671 0.124029
O O17 0.366095 0.900230 0.904539
#
# Coordination Sequence:
#
# PCOD8228839 Si02
#       8
#     8   8   8   8   8   8   8   8
#     4  11  24  42  63  88 130 174 215 273 329 383
#     4  10  22  41  61  96 129 172 212 286 327 400
#     4   9  20  40  66  89 131 167 217 266 349 391
#     4  10  21  41  62  88 118 170 214 266 329 378
#     4  11  23  39  66  89 125 163 223 271 322 391
#     4  12  27  40  62  96 134 178 220 275 318 393
#     4   9  20  40  65  92 124 179 214 271 326 417
#     4  10  23  39  63  91 134 172 225 265 337 389
#
# _framework density 22.762157999999999
#
# number of rings (size 3 to 8) (size 9 to 14) (size 15 to 20)
#    0.000    1.750    1.250    2.250    7.000    2.500 
#    0.000    0.000    0.000    0.000    0.000    0.000 
#    0.000    0.000    0.000    0.000    0.000    0.000 
#
# Total GULP energy -793373.917104 kJ/mol
# GULP energy per Si atom -12396.467455 kJ/mol
# Density = 2.271035 g / cm^3
# Si number density = 22.762158 Si / 1000 Ang^3
#
#
#
# Elastic Constant Matrix: (Units=GPa)
#
#
# Indices 1 2 3 4 5 6 
#
# 1 75.5991 15.9081 15.7353 0.0000 0.0000 0.0000
# 2 15.9081 69.5574 3.4538 0.0000 0.0000 0.0000
# 3 15.7353 3.4538 81.5344 0.0000 0.0000 0.0000
# 4 0.0000 0.0000 0.0000 31.1853 0.0000 0.0000
# 5 0.0000 0.0000 0.0000 0.0000 35.0904 0.0000
# 6 0.0000 0.0000 0.0000 0.0000 0.0000 25.0378
#
#
#
# Elastic Compliance Matrix: (Units=1/GPa)
#
#
# Indices 1 2 3 4 5 6 
#
# 1 0.014448 -0.003172 -0.002654 0.000000 0.000000 0.000000
# 2 -0.003172 0.015104 -0.000028 0.000000 0.000000 0.000000
# 3 -0.002654 -0.000028 0.012778 0.000000 0.000000 0.000000
# 4 0.000000 0.000000 0.000000 0.032066 0.000000 0.000000
# 5 0.000000 0.000000 0.000000 0.000000 0.028498 0.000000
# 6 0.000000 0.000000 0.000000 0.000000 0.000000 0.039940
#
#
# Mechanical properties :
#
#
# Convention : Reuss Voigt Hill
#
# Bulk Modulus (GPa) = 32.65673 32.98725 32.82199
# Shear Modulus (GPa) = 30.34939 31.03562 30.69250
#
# Velocity S-wave (km/s) = 3.65544 3.69653 3.67604
# Velocity P-wave (km/s) = 5.67401 5.72213 5.69812
#
# Compressibility (1/GPa) = 0.03062156
#
# Stress axis : x y z
#
# Youngs Moduli (GPa) = 69.21553 66.20963 78.25891
#
# Poissons Ratio (x) = 0.21005 0.20769
# Poissons Ratio (y) = 0.21958 0.00215
# Poissons Ratio (z) = 0.18369 0.00182
#
# Static dielectric constant tensor:
#      x y z
#    x 4.204860 0.000000 0.000000 
#    y 0.000000 3.842970 0.000000 
#    z 0.000000 0.000000 4.070100 
# 
# 
# High freq. dielectric constant tensor:
#      x y z
#    x 1.898150 0.000000 0.000000 
#    y 0.000000 1.871650 0.000000 
#    z 0.000000 0.000000 1.906260 
# 
# From -- ./inp_files/2960.got.cif
#   From: 2010.03.12/outbox.cif.g09.slc.cpg/sg56_2_cif.got.tgz:2960.got - 2010.04.16 15:33:40.
