data_PCOD8228769
_publ_section_title
;
Structure prediction by ZEFSAII (Michael W. Deem and Ramdas Pophale) SiO2 
 PCOD8228769
Probable space group: P C C N
;
_chemical_formula_sum "Si O2"
_cell_formula_units_Z 36
_cell_length_a 6.560739
_cell_length_b 19.262328
_cell_length_c 12.270998
_cell_angle_alpha 90.000000
_cell_angle_beta 90.000000
_cell_angle_gamma 90.000000
_cell_volume 1550.748680
_symmetry_space_group_name_H-M "P C C N"
_symmetry_group_IT_number 56
_symmetry_cell_setting 'orthorhombic'
loop_
_space_group_symop_operation_xyz
x,y,z
1/2-x,1/2-y,z
1/2+x,-y,1/2-z
-x,1/2+y,1/2-z
-x,-y,-z
1/2+x,1/2+y,-z
1/2-x,y,1/2+z
x,1/2-y,1/2+z
loop_
_atom_site_type_symbol
_atom_site_label
_atom_site_fract_x
_atom_site_fract_y
_atom_site_fract_z
Si Si1 0.755146 0.540148 0.372121
Si Si2 0.029667 0.849143 0.768205
Si Si3 0.567457 0.097748 0.294850
Si Si4 0.789310 0.631818 0.058587
Si Si5 0.250000 0.250000 0.610324
O O1 0.950948 0.586929 0.341029
O O2 0.805814 0.459366 0.362447
O O3 0.567390 0.558953 0.294583
O O4 0.702492 0.556570 0.498976
O O5 0.971050 0.860883 0.642678
O O6 0.936381 0.776768 0.813477
O O7 0.276458 0.849773 0.766461
O O8 0.425456 0.141554 0.377435
O O9 0.827486 0.687865 0.964404
#
# Coordination Sequence:
#
# PCOD8228769 Si02
#       5
#     8   8   8   8   4
#     4  10  21  39  63  99 143 168 212 278 333 399
#     4  10  22  41  65  95 132 175 225 273 332 395
#     4  11  21  40  66 101 133 181 215 269 344 403
#     4  10  23  40  64  96 127 178 229 275 329 394
#     4  10  22  46  64  84 136 178 220 286 322 380
#
# _framework density 23.214594000000002
#
# number of rings (size 3 to 8) (size 9 to 14) (size 15 to 20)
#    0.000    1.778    2.222    1.333    0.000    4.444 
#    0.000   24.444    0.000    0.000    0.000    0.000 
#    0.000    0.000    0.000    0.000    0.000    0.000 
#
# Total GULP energy -446371.450324 kJ/mol
# GULP energy per Si atom -12399.206953 kJ/mol
# Density = 2.316176 g / cm^3
# Si number density = 23.214594 Si / 1000 Ang^3
#
#
#
# Elastic Constant Matrix: (Units=GPa)
#
#
# Indices 1 2 3 4 5 6 
#
# 1 108.3027 34.8210 13.9127 0.0000 0.0000 0.0000
# 2 34.8210 68.5175 10.3838 0.0000 0.0000 0.0000
# 3 13.9127 10.3838 88.5776 0.0000 0.0000 0.0000
# 4 0.0000 0.0000 0.0000 36.3020 0.0000 0.0000
# 5 0.0000 0.0000 0.0000 0.0000 14.0710 0.0000
# 6 0.0000 0.0000 0.0000 0.0000 0.0000 36.7533
#
#
#
# Elastic Compliance Matrix: (Units=1/GPa)
#
#
# Indices 1 2 3 4 5 6 
#
# 1 0.011142 -0.005495 -0.001106 0.000000 0.000000 0.000000
# 2 -0.005495 0.017569 -0.001196 0.000000 0.000000 0.000000
# 3 -0.001106 -0.001196 0.011604 0.000000 0.000000 0.000000
# 4 0.000000 0.000000 0.000000 0.027547 0.000000 0.000000
# 5 0.000000 0.000000 0.000000 0.000000 0.071068 0.000000
# 6 0.000000 0.000000 0.000000 0.000000 0.000000 0.027208
#
#
# Mechanical properties :
#
#
# Convention : Reuss Voigt Hill
#
# Bulk Modulus (GPa) = 40.45352 42.62588 41.53970
# Shear Modulus (GPa) = 26.31967 31.17729 28.74848
#
# Velocity S-wave (km/s) = 3.37078 3.66868 3.52288
# Velocity P-wave (km/s) = 5.71080 6.02886 5.87199
#
# Compressibility (1/GPa) = 0.02471973
#
# Stress axis : x y z
#
# Youngs Moduli (GPa) = 89.74933 56.91953 86.18088
#
# Poissons Ratio (x) = 0.31277 0.09531
# Poissons Ratio (y) = 0.49316 0.10311
# Poissons Ratio (z) = 0.09926 0.06810
#
# Static dielectric constant tensor:
#      x y z
#    x 4.039820 0.000000 0.000000 
#    y 0.000000 4.193760 0.000000 
#    z 0.000000 0.000000 4.352750 
# 
# 
# High freq. dielectric constant tensor:
#      x y z
#    x 1.908590 0.000000 0.000000 
#    y 0.000000 1.906040 0.000000 
#    z 0.000000 0.000000 1.925460 
# 
# From -- ./inp_files/5559.got.cif
#   From: 2010.03.12/outbox.cif.g09.slc.cpg/sg56_3_cif.got.tgz:5559.got - 2010.04.16 15:33:40.
