data_PCOD8228204
_publ_section_title
;
Structure prediction by ZEFSAII (Michael W. Deem and Ramdas Pophale) SiO2 
 PCOD8228204
Probable space group: P C C N
;
_chemical_formula_sum "Si O2"
_cell_formula_units_Z 64
_cell_length_a 22.066990
_cell_length_b 9.417071
_cell_length_c 14.751628
_cell_angle_alpha 90.000000
_cell_angle_beta 90.000000
_cell_angle_gamma 90.000000
_cell_volume 3065.482880
_symmetry_space_group_name_H-M "P C C N"
_symmetry_group_IT_number 56
_symmetry_cell_setting 'orthorhombic'
loop_
_space_group_symop_operation_xyz
x,y,z
1/2-x,1/2-y,z
1/2+x,-y,1/2-z
-x,1/2+y,1/2-z
-x,-y,-z
1/2+x,1/2+y,-z
1/2-x,y,1/2+z
x,1/2-y,1/2+z
loop_
_atom_site_type_symbol
_atom_site_label
_atom_site_fract_x
_atom_site_fract_y
_atom_site_fract_z
Si Si1 0.482022 0.356847 0.805046
Si Si2 0.286145 0.485914 0.873145
Si Si3 0.370178 0.707856 0.941845
Si Si4 0.426962 0.868260 0.257787
Si Si5 0.440737 0.982456 0.558919
Si Si6 0.674023 0.505188 0.509905
Si Si7 0.797830 0.119572 0.317310
Si Si8 0.614145 0.711284 0.048797
O O1 0.513432 0.225564 0.756330
O O2 0.441631 0.462751 0.742235
O O3 0.537077 0.459749 0.838844
O O4 0.444585 0.285386 0.886956
O O5 0.305804 0.631704 0.923795
O O6 0.223327 0.442227 0.917840
O O7 0.279149 0.514557 0.765065
O O8 0.332568 0.357629 0.890746
O O9 0.414345 0.653743 0.863277
O O10 0.362104 0.875152 0.945954
O O11 0.401605 0.657738 0.034263
O O12 0.367164 0.826099 0.199572
O O13 0.397818 0.118061 0.541797
O O14 0.500000 0.000000 0.500000
O O15 0.702996 0.466485 0.412193
O O16 0.627544 0.635367 0.506319
O O17 0.750000 0.250000 0.322922
#
# Coordination Sequence:
#
# PCOD8228204 Si02
#       8
#     8   8   8   8   8   8   8   8
#     4  11  22  41  63  91 129 171 218 262 333 396
#     4  10  20  44  65  85 132 178 212 274 338 394
#     4  10  19  38  62  91 124 165 219 261 327 385
#     4  11  23  40  65  95 131 173 216 274 332 393
#     4   9  17  39  60  78 118 175 202 252 319 389
#     4  12  24  37  67 102 124 169 229 279 332 396
#     4  11  23  44  67 100 132 168 229 284 329 392
#     4  10  22  42  61  89 134 169 214 270 337 398
#
# _framework density 20.877624999999998
#
# number of rings (size 3 to 8) (size 9 to 14) (size 15 to 20)
#    0.000    1.500    5.000    3.750    1.750    2.000 
#    0.000    5.625    0.000    0.000    0.000    0.000 
#    0.000    0.000    0.000    0.000    0.000    0.000 
#
# Total GULP energy -793037.368166 kJ/mol
# GULP energy per Si atom -12391.208878 kJ/mol
# Density = 2.083011 g / cm^3
# Si number density = 20.877625 Si / 1000 Ang^3
#
#
#
# Elastic Constant Matrix: (Units=GPa)
#
#
# Indices 1 2 3 4 5 6 
#
# 1 86.1770 36.9751 23.0045 0.0000 0.0000 0.0000
# 2 36.9751 109.1391 21.6805 0.0000 0.0000 0.0000
# 3 23.0045 21.6805 58.8226 0.0000 0.0000 0.0000
# 4 0.0000 0.0000 0.0000 22.8297 0.0000 0.0000
# 5 0.0000 0.0000 0.0000 0.0000 28.8492 0.0000
# 6 0.0000 0.0000 0.0000 0.0000 0.0000 36.6831
#
#
#
# Elastic Compliance Matrix: (Units=1/GPa)
#
#
# Indices 1 2 3 4 5 6 
#
# 1 0.014461 -0.004074 -0.004154 0.000000 0.000000 0.000000
# 2 -0.004074 0.011034 -0.002474 0.000000 0.000000 0.000000
# 3 -0.004154 -0.002474 0.019536 0.000000 0.000000 0.000000
# 4 0.000000 0.000000 0.000000 0.043803 0.000000 0.000000
# 5 0.000000 0.000000 0.000000 0.000000 0.034663 0.000000
# 6 0.000000 0.000000 0.000000 0.000000 0.000000 0.027260
#
#
# Mechanical properties :
#
#
# Convention : Reuss Voigt Hill
#
# Bulk Modulus (GPa) = 42.32160 46.38433 44.35296
# Shear Modulus (GPa) = 27.77208 29.17097 28.47153
#
# Velocity S-wave (km/s) = 3.65119 3.74202 3.69688
# Velocity P-wave (km/s) = 6.17173 6.39810 6.28593
#
# Compressibility (1/GPa) = 0.02362859
#
# Stress axis : x y z
#
# Youngs Moduli (GPa) = 69.15215 90.62686 51.18631
#
# Poissons Ratio (x) = 0.36922 0.21262
# Poissons Ratio (y) = 0.28173 0.12662
# Poissons Ratio (z) = 0.28724 0.22418
#
# Static dielectric constant tensor:
#      x y z
#    x 3.998940 0.000000 0.000000 
#    y 0.000000 3.918720 0.000000 
#    z 0.000000 0.000000 3.801900 
# 
# 
# High freq. dielectric constant tensor:
#      x y z
#    x 1.825190 0.000000 0.000000 
#    y 0.000000 1.810440 0.000000 
#    z 0.000000 0.000000 1.800540 
# 
# From -- ./inp_files/13286.got.cif
#   From: 2010.03.12/outbox.cif.g09.slc.cpg/sg56_7_cif.got.tgz:13286.got - 2010.04.16 15:33:40.
