data_PCOD8228550
_publ_section_title
;
Structure prediction by ZEFSAII (Michael W. Deem and Ramdas Pophale) SiO2 
 PCOD8228550
Probable space group: P C C N
;
_chemical_formula_sum "Si O2"
_cell_formula_units_Z 44
_cell_length_a 21.039290
_cell_length_b 10.185545
_cell_length_c 9.193000
_cell_angle_alpha 90.000000
_cell_angle_beta 90.000000
_cell_angle_gamma 90.000000
_cell_volume 1970.028966
_symmetry_space_group_name_H-M "P C C N"
_symmetry_group_IT_number 56
_symmetry_cell_setting 'orthorhombic'
loop_
_space_group_symop_operation_xyz
x,y,z
1/2-x,1/2-y,z
1/2+x,-y,1/2-z
-x,1/2+y,1/2-z
-x,-y,-z
1/2+x,1/2+y,-z
1/2-x,y,1/2+z
x,1/2-y,1/2+z
loop_
_atom_site_type_symbol
_atom_site_label
_atom_site_fract_x
_atom_site_fract_y
_atom_site_fract_z
Si Si1 0.250000 0.250000 0.176662
Si Si2 0.622794 0.971862 0.039302
Si Si3 0.269445 0.428657 0.921728
Si Si4 0.117318 0.972854 0.799751
Si Si5 0.955298 0.782588 0.130500
Si Si6 0.543777 0.225260 0.116289
O O1 0.206493 0.332439 0.288539
O O2 0.286735 0.353015 0.071847
O O3 0.624340 0.980404 0.866070
O O4 0.584798 0.092646 0.109148
O O5 0.696165 0.970509 0.092470
O O6 0.589719 0.840740 0.097566
O O7 0.315808 0.550692 0.888221
O O8 0.080684 0.080790 0.898034
O O9 0.084246 0.833532 0.800358
O O10 0.977559 0.792425 0.297980
O O11 0.021332 0.773534 0.041573
#
# Coordination Sequence:
#
# PCOD8228550 Si02
#       6
#     4   8   8   8   8   8
#     4  10  20  40  64 102 142 166 236 280 336 410
#     4  12  26  48  71 105 151 180 233 302 348 422
#     4  11  24  41  71 105 139 186 228 290 356 416
#     4  12  26  47  72 106 145 185 236 294 352 425
#     4  12  24  46  77 103 137 188 242 295 346 409
#     4  12  26  47  73 103 145 191 234 283 359 420
#
# _framework density 22.334696999999998
#
# number of rings (size 3 to 8) (size 9 to 14) (size 15 to 20)
#    0.000    0.364    5.455    4.364    0.000    3.636 
#    0.000    1.818    0.000    0.000    0.000    0.000 
#    0.000    0.000    0.000    0.000    0.000    0.000 
#
# Total GULP energy -545230.446015 kJ/mol
# GULP energy per Si atom -12391.601046 kJ/mol
# Density = 2.228386 g / cm^3
# Si number density = 22.334697 Si / 1000 Ang^3
#
#
#
# Elastic Constant Matrix: (Units=GPa)
#
#
# Indices 1 2 3 4 5 6 
#
# 1 127.0939 43.9637 26.3869 0.0000 0.0000 0.0000
# 2 43.9637 100.2995 25.3005 0.0000 0.0000 0.0000
# 3 26.3869 25.3005 93.1014 0.0000 0.0000 0.0000
# 4 0.0000 0.0000 0.0000 28.7093 0.0000 0.0000
# 5 0.0000 0.0000 0.0000 0.0000 32.6082 0.0000
# 6 0.0000 0.0000 0.0000 0.0000 0.0000 8.5055
#
#
#
# Elastic Compliance Matrix: (Units=1/GPa)
#
#
# Indices 1 2 3 4 5 6 
#
# 1 0.009512 -0.003746 -0.001678 0.000000 0.000000 0.000000
# 2 -0.003746 0.012179 -0.002248 0.000000 0.000000 0.000000
# 3 -0.001678 -0.002248 0.011827 0.000000 0.000000 0.000000
# 4 0.000000 0.000000 0.000000 0.034832 0.000000 0.000000
# 5 0.000000 0.000000 0.000000 0.000000 0.030667 0.000000
# 6 0.000000 0.000000 0.000000 0.000000 0.000000 0.117572
#
#
# Mechanical properties :
#
#
# Convention : Reuss Voigt Hill
#
# Bulk Modulus (GPa) = 55.02143 56.86635 55.94389
# Shear Modulus (GPa) = 21.00906 28.95416 24.98161
#
# Velocity S-wave (km/s) = 3.07032 3.60443 3.34804
# Velocity P-wave (km/s) = 6.10390 6.54514 6.32837
#
# Compressibility (1/GPa) = 0.01817474
#
# Stress axis : x y z
#
# Youngs Moduli (GPa) = 105.12522 82.10671 84.54911
#
# Poissons Ratio (x) = 0.30759 0.14187
# Poissons Ratio (y) = 0.39383 0.19006
# Poissons Ratio (z) = 0.17640 0.18457
#
# Static dielectric constant tensor:
#      x y z
#    x 4.083620 0.000000 0.000000 
#    y 0.000000 3.975680 0.000000 
#    z 0.000000 0.000000 4.205430 
# 
# 
# High freq. dielectric constant tensor:
#      x y z
#    x 1.884660 0.000000 0.000000 
#    y 0.000000 1.865810 0.000000 
#    z 0.000000 0.000000 1.895080 
# 
# From -- ./inp_files/4723.got.cif
#   From: 2010.03.12/outbox.cif.g09.slc.cpg/sg56_3_cif.got.tgz:4723.got - 2010.04.16 15:33:40.
