data_PCOD8228982
_publ_section_title
;
Structure prediction by ZEFSAII (Michael W. Deem and Ramdas Pophale) SiO2 
 PCOD8228982
Probable space group: P C C N
;
_chemical_formula_sum "Si O2"
_cell_formula_units_Z 56
_cell_length_a 8.704832
_cell_length_b 15.099322
_cell_length_c 18.926811
_cell_angle_alpha 90.000000
_cell_angle_beta 90.000000
_cell_angle_gamma 90.000000
_cell_volume 2487.684418
_symmetry_space_group_name_H-M "P C C N"
_symmetry_group_IT_number 56
_symmetry_cell_setting 'orthorhombic'
loop_
_space_group_symop_operation_xyz
x,y,z
1/2-x,1/2-y,z
1/2+x,-y,1/2-z
-x,1/2+y,1/2-z
-x,-y,-z
1/2+x,1/2+y,-z
1/2-x,y,1/2+z
x,1/2-y,1/2+z
loop_
_atom_site_type_symbol
_atom_site_label
_atom_site_fract_x
_atom_site_fract_y
_atom_site_fract_z
Si Si1 0.618086 0.678135 0.638059
Si Si2 0.909676 0.417775 0.390784
Si Si3 0.422226 0.754978 0.523647
Si Si4 0.656659 0.526413 0.460243
Si Si5 0.046883 0.653033 0.886770
Si Si6 0.777667 0.992139 0.103337
Si Si7 0.585611 0.216315 0.263768
O O1 0.750000 0.750000 0.632362
O O2 0.522519 0.680623 0.564397
O O3 0.685955 0.580067 0.650960
O O4 0.511236 0.702475 0.704331
O O5 0.974271 0.354093 0.454271
O O6 0.740427 0.454766 0.409363
O O7 0.897544 0.363458 0.318590
O O8 0.040360 0.493864 0.377917
O O9 0.250000 0.750000 0.554084
O O10 0.423855 0.735721 0.439786
O O11 0.500000 0.500000 0.500000
O O12 0.612821 0.608108 0.410639
O O13 0.776182 0.544685 0.522829
O O14 0.196419 0.587718 0.888594
O O15 0.007582 0.684585 0.808528
O O16 0.750000 0.250000 0.240065
#
# Coordination Sequence:
#
# PCOD8228982 Si02
#       7
#     8   8   8   8   8   8   8
#     4  11  21  43  66  96 128 176 228 280 334 415
#     4  11  23  42  69  98 135 181 229 280 344 424
#     4  11  21  38  69  93 130 173 222 279 342 406
#     4  10  22  38  68 105 129 168 226 288 348 392
#     4  11  25  42  64 100 140 173 228 292 343 406
#     4  11  22  41  70  97 135 170 233 289 346 399
#     4  11  26  43  65  94 135 186 235 266 358 431
#
# _framework density 22.510892999999999
#
# number of rings (size 3 to 8) (size 9 to 14) (size 15 to 20)
#    0.000    1.143    4.286    4.286    6.000    1.143 
#    0.000    2.143    0.000    0.000    0.000    0.000 
#    0.000    0.000    0.000    0.000    0.000    0.000 
#
# Total GULP energy -694023.543164 kJ/mol
# GULP energy per Si atom -12393.277557 kJ/mol
# Density = 2.245966 g / cm^3
# Si number density = 22.510893 Si / 1000 Ang^3
#
#
#
# Elastic Constant Matrix: (Units=GPa)
#
#
# Indices 1 2 3 4 5 6 
#
# 1 74.0465 3.2336 19.5577 0.0000 0.0000 0.0000
# 2 3.2336 51.0253 36.9595 0.0000 0.0000 0.0000
# 3 19.5577 36.9595 145.1117 0.0000 0.0000 0.0000
# 4 0.0000 0.0000 0.0000 24.6922 0.0000 0.0000
# 5 0.0000 0.0000 0.0000 0.0000 20.6193 0.0000
# 6 0.0000 0.0000 0.0000 0.0000 0.0000 39.5002
#
#
#
# Elastic Compliance Matrix: (Units=1/GPa)
#
#
# Indices 1 2 3 4 5 6 
#
# 1 0.014018 0.000589 -0.002039 0.000000 0.000000 0.000000
# 2 0.000589 0.024056 -0.006206 0.000000 0.000000 0.000000
# 3 -0.002039 -0.006206 0.008747 0.000000 0.000000 0.000000
# 4 0.000000 0.000000 0.000000 0.040499 0.000000 0.000000
# 5 0.000000 0.000000 0.000000 0.000000 0.048498 0.000000
# 6 0.000000 0.000000 0.000000 0.000000 0.000000 0.025316
#
#
# Mechanical properties :
#
#
# Convention : Reuss Voigt Hill
#
# Bulk Modulus (GPa) = 31.73869 43.29833 37.51851
# Shear Modulus (GPa) = 26.74504 30.99120 28.86812
#
# Velocity S-wave (km/s) = 3.45061 3.71444 3.58496
# Velocity P-wave (km/s) = 5.47773 6.13777 5.81712
#
# Compressibility (1/GPa) = 0.03150728
#
# Stress axis : x y z
#
# Youngs Moduli (GPa) = 71.33717 41.56912 114.32706
#
# Poissons Ratio (x) = -0.02447 0.23314
# Poissons Ratio (y) = -0.04200 0.70956
# Poissons Ratio (z) = 0.14547 0.25800
#
# Static dielectric constant tensor:
#      x y z
#    x 4.432130 0.000000 0.000000 
#    y 0.000000 4.026330 0.000000 
#    z 0.000000 0.000000 3.966720 
# 
# 
# High freq. dielectric constant tensor:
#      x y z
#    x 1.897520 0.000000 0.000000 
#    y 0.000000 1.871810 0.000000 
#    z 0.000000 0.000000 1.869920 
# 
# From -- ./inp_files/18219.got.cif
#   From: 2010.03.12/outbox.cif.g09.slc.cpg/sg56_10_cif.got.tgz:18219.got - 2010.04.16 15:33:40.
