data_PCOD8228770
_publ_section_title
;
Structure prediction by ZEFSAII (Michael W. Deem and Ramdas Pophale) SiO2 
 PCOD8228770
Probable space group: P C C N
;
_chemical_formula_sum "Si O2"
_cell_formula_units_Z 48
_cell_length_a 18.825491
_cell_length_b 9.782089
_cell_length_c 13.055800
_cell_angle_alpha 90.000000
_cell_angle_beta 90.000000
_cell_angle_gamma 90.000000
_cell_volume 2404.259886
_symmetry_space_group_name_H-M "P C C N"
_symmetry_group_IT_number 56
_symmetry_cell_setting 'orthorhombic'
loop_
_space_group_symop_operation_xyz
x,y,z
1/2-x,1/2-y,z
1/2+x,-y,1/2-z
-x,1/2+y,1/2-z
-x,-y,-z
1/2+x,1/2+y,-z
1/2-x,y,1/2+z
x,1/2-y,1/2+z
loop_
_atom_site_type_symbol
_atom_site_label
_atom_site_fract_x
_atom_site_fract_y
_atom_site_fract_z
Si Si1 0.250000 0.250000 0.901036
Si Si2 0.250000 0.750000 0.879915
Si Si3 0.444219 0.624875 0.710219
Si Si4 0.696974 0.999420 0.732611
Si Si5 0.988234 0.662069 0.851531
Si Si6 0.844424 0.891308 0.441033
Si Si7 0.613524 0.327280 0.500965
O O1 0.213851 0.133559 0.833727
O O2 0.310394 0.207732 0.978894
O O3 0.249165 0.617907 0.805171
O O4 0.181004 0.754277 0.953590
O O5 0.383690 0.556983 0.783766
O O6 0.494473 0.740366 0.756384
O O7 0.494871 0.499964 0.673653
O O8 0.401279 0.702082 0.618894
O O9 0.707201 0.955914 0.852374
O O10 0.042591 0.709230 0.938264
O O11 0.907738 0.692117 0.885990
O O12 0.873881 0.011652 0.512249
#
# Coordination Sequence:
#
# PCOD8228770 Si02
#       7
#     4   4   8   8   8   8   8
#     4  12  22  44  62  92 128 166 200 258 324 378
#     4  12  20  42  64  94 124 162 210 270 312 368
#     4  10  22  41  61  94 122 165 217 257 310 384
#     4  10  23  40  63  89 129 157 213 260 309 376
#     4  10  21  42  62  87 123 166 209 260 313 368
#     4  10  23  40  62  92 124 166 209 250 316 387
#     4  10  21  39  64  87 124 164 205 259 318 371
#
# _framework density 19.964565
#
# number of rings (size 3 to 8) (size 9 to 14) (size 15 to 20)
#    0.000    2.000    3.333    2.500    0.000    8.000 
#    6.000    1.667    0.000    0.000    0.000    0.000 
#    0.000    0.000    0.000    0.000    0.000    0.000 
#
# Total GULP energy -594707.957321 kJ/mol
# GULP energy per Si atom -12389.749111 kJ/mol
# Density = 1.991912 g / cm^3
# Si number density = 19.964565 Si / 1000 Ang^3
#
#
#
# Elastic Constant Matrix: (Units=GPa)
#
#
# Indices 1 2 3 4 5 6 
#
# 1 78.5233 21.8190 50.0969 0.0000 0.0000 0.0000
# 2 21.8190 65.2815 44.6325 0.0000 0.0000 0.0000
# 3 50.0969 44.6325 94.3231 0.0000 0.0000 0.0000
# 4 0.0000 0.0000 0.0000 31.2421 0.0000 0.0000
# 5 0.0000 0.0000 0.0000 0.0000 31.8710 0.0000
# 6 0.0000 0.0000 0.0000 0.0000 0.0000 33.0098
#
#
#
# Elastic Compliance Matrix: (Units=1/GPa)
#
#
# Indices 1 2 3 4 5 6 
#
# 1 0.019292 0.000824 -0.010636 0.000000 0.000000 0.000000
# 2 0.000824 0.022679 -0.011169 0.000000 0.000000 0.000000
# 3 -0.010636 -0.011169 0.021536 0.000000 0.000000 0.000000
# 4 0.000000 0.000000 0.000000 0.032008 0.000000 0.000000
# 5 0.000000 0.000000 0.000000 0.000000 0.031376 0.000000
# 6 0.000000 0.000000 0.000000 0.000000 0.000000 0.030294
#
#
# Mechanical properties :
#
#
# Convention : Reuss Voigt Hill
#
# Bulk Modulus (GPa) = 46.41584 52.35831 49.38707
# Shear Modulus (GPa) = 24.23306 27.32988 25.78147
#
# Velocity S-wave (km/s) = 3.48775 3.70391 3.59745
# Velocity P-wave (km/s) = 6.28640 6.67641 6.48434
#
# Compressibility (1/GPa) = 0.02154437
#
# Stress axis : x y z
#
# Youngs Moduli (GPa) = 51.83526 44.09347 46.43384
#
# Poissons Ratio (x) = -0.03633 0.49388
# Poissons Ratio (y) = -0.04271 0.51862
# Poissons Ratio (z) = 0.55133 0.49248
#
# Static dielectric constant tensor:
#      x y z
#    x 4.181780 0.000000 0.000000 
#    y 0.000000 3.527270 0.000000 
#    z 0.000000 0.000000 3.734880 
# 
# 
# High freq. dielectric constant tensor:
#      x y z
#    x 1.772750 0.000000 0.000000 
#    y 0.000000 1.768740 0.000000 
#    z 0.000000 0.000000 1.782910 
# 
# From -- ./inp_files/12726.got.cif
#   From: 2010.03.12/outbox.cif.g09.slc.cpg/sg56_7_cif.got.tgz:12726.got - 2010.04.16 15:33:40.
