data_PCOD8228554
_publ_section_title
;
Structure prediction by ZEFSAII (Michael W. Deem and Ramdas Pophale) SiO2 
 PCOD8228554
Probable space group: P C C N
;
_chemical_formula_sum "Si O2"
_cell_formula_units_Z 60
_cell_length_a 8.546126
_cell_length_b 11.373414
_cell_length_c 28.695308
_cell_angle_alpha 90.000000
_cell_angle_beta 90.000000
_cell_angle_gamma 90.000000
_cell_volume 2789.144599
_symmetry_space_group_name_H-M "P C C N"
_symmetry_group_IT_number 56
_symmetry_cell_setting 'orthorhombic'
loop_
_space_group_symop_operation_xyz
x,y,z
1/2-x,1/2-y,z
1/2+x,-y,1/2-z
-x,1/2+y,1/2-z
-x,-y,-z
1/2+x,1/2+y,-z
1/2-x,y,1/2+z
x,1/2-y,1/2+z
loop_
_atom_site_type_symbol
_atom_site_label
_atom_site_fract_x
_atom_site_fract_y
_atom_site_fract_z
Si Si1 0.785003 0.026503 0.834084
Si Si2 0.393683 0.177872 0.194662
Si Si3 0.805853 0.121518 0.735609
Si Si4 0.949828 0.378099 0.548909
Si Si5 0.581765 0.111382 0.653322
Si Si6 0.750000 0.250000 0.397207
Si Si7 0.546195 0.321826 0.476594
Si Si8 0.251558 0.452668 0.506353
O O1 0.757411 0.039693 0.778494
O O2 0.737570 0.137104 0.864465
O O3 0.673763 0.913735 0.844072
O O4 0.964816 0.998534 0.844546
O O5 0.250000 0.250000 0.218517
O O6 0.504618 0.114074 0.232447
O O7 0.508070 0.267037 0.169269
O O8 0.750000 0.250000 0.750175
O O9 0.729863 0.080857 0.686216
O O10 0.876589 0.363143 0.599901
O O11 0.903980 0.261955 0.519424
O O12 0.868702 0.497864 0.531496
O O13 0.140465 0.395959 0.546889
O O14 0.592521 0.250522 0.429449
O O15 0.362621 0.354165 0.481976
O O16 0.644641 0.442077 0.473295
#
# Coordination Sequence:
#
# PCOD8228554 Si02
#       8
#     8   8   8   8   8   4   8   8
#     4  11  22  40  63  89 130 172 214 263 332 398
#     4   9  21  39  63  92 121 162 213 263 323 390
#     4  10  20  40  64  95 125 161 210 275 332 390
#     4  11  22  42  63  93 129 168 211 279 320 385
#     4  10  23  38  66  95 126 162 219 271 325 388
#     4  12  24  40  64  92 134 178 220 268 334 408
#     4  11  23  41  61  93 126 172 217 266 321 398
#     4  10  23  39  65  88 128 171 216 260 334 380
#
# _framework density 21.511970999999999
#
# number of rings (size 3 to 8) (size 9 to 14) (size 15 to 20)
#    0.000    1.600    2.000    2.000    1.867    9.600 
#    0.000    0.000    2.933    0.000    0.000    0.000 
#    0.000    0.000    0.000    0.000    0.000    0.000 
#
# Total GULP energy -743537.000727 kJ/mol
# GULP energy per Si atom -12392.283345 kJ/mol
# Density = 2.146301 g / cm^3
# Si number density = 21.511971 Si / 1000 Ang^3
#
#
#
# Elastic Constant Matrix: (Units=GPa)
#
#
# Indices 1 2 3 4 5 6 
#
# 1 112.3900 22.9979 37.0998 0.0000 0.0000 0.0000
# 2 22.9979 62.1363 24.9361 0.0000 0.0000 0.0000
# 3 37.0998 24.9361 128.1941 0.0000 0.0000 0.0000
# 4 0.0000 0.0000 0.0000 17.4616 0.0000 0.0000
# 5 0.0000 0.0000 0.0000 0.0000 26.2075 0.0000
# 6 0.0000 0.0000 0.0000 0.0000 0.0000 38.8054
#
#
#
# Elastic Compliance Matrix: (Units=1/GPa)
#
#
# Indices 1 2 3 4 5 6 
#
# 1 0.010277 -0.002831 -0.002423 0.000000 0.000000 0.000000
# 2 -0.002831 0.018236 -0.002728 0.000000 0.000000 0.000000
# 3 -0.002423 -0.002728 0.009033 0.000000 0.000000 0.000000
# 4 0.000000 0.000000 0.000000 0.057269 0.000000 0.000000
# 5 0.000000 0.000000 0.000000 0.000000 0.038157 0.000000
# 6 0.000000 0.000000 0.000000 0.000000 0.000000 0.025770
#
#
# Mechanical properties :
#
#
# Convention : Reuss Voigt Hill
#
# Bulk Modulus (GPa) = 46.33755 52.53198 49.43476
# Shear Modulus (GPa) = 27.48767 31.00732 29.24749
#
# Velocity S-wave (km/s) = 3.57849 3.80069 3.69126
# Velocity P-wave (km/s) = 6.21782 6.61311 6.41851
#
# Compressibility (1/GPa) = 0.02158077
#
# Stress axis : x y z
#
# Youngs Moduli (GPa) = 97.30571 54.83573 110.70923
#
# Poissons Ratio (x) = 0.15525 0.26830
# Poissons Ratio (y) = 0.27548 0.30201
# Poissons Ratio (z) = 0.23582 0.14959
#
# Static dielectric constant tensor:
#      x y z
#    x 4.307720 0.000000 0.000000 
#    y 0.000000 3.989360 0.000000 
#    z 0.000000 0.000000 3.734280 
# 
# 
# High freq. dielectric constant tensor:
#      x y z
#    x 1.850170 0.000000 0.000000 
#    y 0.000000 1.852930 0.000000 
#    z 0.000000 0.000000 1.820490 
# 
# From -- ./inp_files/22120.got.cif
#   From: 2010.03.12/outbox.cif.g09.slc.cpg/sg56_12_cif.got.tgz:22120.got - 2010.04.16 15:33:40.
