data_PCOD8228349
_publ_section_title
;
Structure prediction by ZEFSAII (Michael W. Deem and Ramdas Pophale) SiO2 
 PCOD8228349
Probable space group: P C C N
;
_chemical_formula_sum "Si O2"
_cell_formula_units_Z 60
_cell_length_a 23.558243
_cell_length_b 8.550210
_cell_length_c 16.034397
_cell_angle_alpha 90.000000
_cell_angle_beta 90.000000
_cell_angle_gamma 90.000000
_cell_volume 3229.775314
_symmetry_space_group_name_H-M "P C C N"
_symmetry_group_IT_number 56
_symmetry_cell_setting 'orthorhombic'
loop_
_space_group_symop_operation_xyz
x,y,z
1/2-x,1/2-y,z
1/2+x,-y,1/2-z
-x,1/2+y,1/2-z
-x,-y,-z
1/2+x,1/2+y,-z
1/2-x,y,1/2+z
x,1/2-y,1/2+z
loop_
_atom_site_type_symbol
_atom_site_label
_atom_site_fract_x
_atom_site_fract_y
_atom_site_fract_z
Si Si1 0.750000 0.250000 0.065966
Si Si2 0.170651 0.876295 0.805929
Si Si3 0.041552 0.646065 0.001333
Si Si4 0.038215 0.859499 0.165362
Si Si5 0.335242 0.634861 0.173418
Si Si6 0.729529 0.579709 0.327149
Si Si7 0.542036 0.342656 0.168282
Si Si8 0.834264 0.083303 0.454015
O O1 0.792941 0.133989 0.111526
O O2 0.713728 0.121182 0.019288
O O3 0.177229 0.704166 0.764763
O O4 0.105401 0.910547 0.826574
O O5 0.195933 0.017110 0.752406
O O6 0.029665 0.753873 0.082360
O O7 0.104258 0.569309 0.004229
O O8 0.033772 0.741818 0.915691
O O9 0.000000 0.500000 0.000000
O O10 0.101354 0.935599 0.168282
O O11 0.027072 0.756443 0.248596
O O12 0.996691 0.005171 0.162946
O O13 0.286675 0.514369 0.149320
O O14 0.333629 0.781871 0.113761
O O15 0.750000 0.750000 0.304789
O O16 0.685950 0.574494 0.405847
#
# Coordination Sequence:
#
# PCOD8228349 Si02
#       8
#     4   8   8   8   8   8   8   8
#     4  12  16  34  64  80 106 144 204 236 266 354
#     4  10  20  35  61  82 109 154 201 231 284 365
#     4  11  23  40  61  90 121 160 205 253 307 365
#     4  10  23  38  61  86 120 156 206 247 301 367
#     4   9  18  37  57  79 107 153 199 225 276 361
#     4  11  21  36  57  87 119 146 189 253 309 339
#     4  11  22  40  61  90 117 163 203 254 306 359
#     4  10  20  36  61  83 108 157 198 235 282 365
#
# _framework density 18.577144000000001
#
# number of rings (size 3 to 8) (size 9 to 14) (size 15 to 20)
#    0.000    1.600    4.000    2.800    0.000    2.133 
#    0.000    3.333    0.000    0.000    0.000    0.000 
#    0.000    0.000    0.000    0.000    0.000    0.000 
#
# Total GULP energy -743671.087696 kJ/mol
# GULP energy per Si atom -12394.518128 kJ/mol
# Density = 1.853486 g / cm^3
# Si number density = 18.577144 Si / 1000 Ang^3
#
#
#
# Elastic Constant Matrix: (Units=GPa)
#
#
# Indices 1 2 3 4 5 6 
#
# 1 119.2313 56.3496 30.2178 0.0000 0.0000 0.0000
# 2 56.3496 84.6909 33.0251 0.0000 0.0000 0.0000
# 3 30.2178 33.0251 110.3193 0.0000 0.0000 0.0000
# 4 0.0000 0.0000 0.0000 26.3656 0.0000 0.0000
# 5 0.0000 0.0000 0.0000 0.0000 32.6648 0.0000
# 6 0.0000 0.0000 0.0000 0.0000 0.0000 31.0304
#
#
#
# Elastic Compliance Matrix: (Units=1/GPa)
#
#
# Indices 1 2 3 4 5 6 
#
# 1 0.012339 -0.007803 -0.001044 0.000000 0.000000 0.000000
# 2 -0.007803 0.018302 -0.003342 0.000000 0.000000 0.000000
# 3 -0.001044 -0.003342 0.010351 0.000000 0.000000 0.000000
# 4 0.000000 0.000000 0.000000 0.037928 0.000000 0.000000
# 5 0.000000 0.000000 0.000000 0.000000 0.030614 0.000000
# 6 0.000000 0.000000 0.000000 0.000000 0.000000 0.032227
#
#
# Mechanical properties :
#
#
# Convention : Reuss Voigt Hill
#
# Bulk Modulus (GPa) = 60.18495 61.49183 60.83839
# Shear Modulus (GPa) = 29.12440 30.98876 30.05658
#
# Velocity S-wave (km/s) = 3.96378 4.08868 4.02672
# Velocity P-wave (km/s) = 7.30865 7.44731 7.37831
#
# Compressibility (1/GPa) = 0.01661545
#
# Stress axis : x y z
#
# Youngs Moduli (GPa) = 81.04131 54.63736 96.60962
#
# Poissons Ratio (x) = 0.42633 0.10086
# Poissons Ratio (y) = 0.63236 0.32284
# Poissons Ratio (z) = 0.08461 0.18258
#
# Static dielectric constant tensor:
#      x y z
#    x 3.786810 0.000000 0.000000 
#    y 0.000000 3.096480 0.000000 
#    z 0.000000 0.000000 3.786900 
# 
# 
# High freq. dielectric constant tensor:
#      x y z
#    x 1.743710 0.000000 0.000000 
#    y 0.000000 1.689080 0.000000 
#    z 0.000000 0.000000 1.734070 
# 
# From -- ./inp_files/13260.got.cif
#   From: 2010.03.12/outbox.cif.g09.slc.cpg/sg56_7_cif.got.tgz:13260.got - 2010.04.16 15:33:40.
