data_PCOD8228710
_publ_section_title
;
Structure prediction by ZEFSAII (Michael W. Deem and Ramdas Pophale) SiO2 
 PCOD8228710
Probable space group: P C C N
;
_chemical_formula_sum "Si O2"
_cell_formula_units_Z 48
_cell_length_a 21.817831
_cell_length_b 10.340440
_cell_length_c 9.072446
_cell_angle_alpha 90.000000
_cell_angle_beta 90.000000
_cell_angle_gamma 90.000000
_cell_volume 2046.798002
_symmetry_space_group_name_H-M "P C C N"
_symmetry_group_IT_number 56
_symmetry_cell_setting 'orthorhombic'
loop_
_space_group_symop_operation_xyz
x,y,z
1/2-x,1/2-y,z
1/2+x,-y,1/2-z
-x,1/2+y,1/2-z
-x,-y,-z
1/2+x,1/2+y,-z
1/2-x,y,1/2+z
x,1/2-y,1/2+z
loop_
_atom_site_type_symbol
_atom_site_label
_atom_site_fract_x
_atom_site_fract_y
_atom_site_fract_z
Si Si1 0.164132 0.471868 0.750000
Si Si2 0.939894 0.249999 0.000001
Si Si3 0.668128 0.822324 0.750001
Si Si4 0.414248 0.926945 0.249999
Si Si5 0.969956 0.079144 0.750000
Si Si6 0.250000 0.078384 0.500000
O O1 0.141377 0.322131 0.749999
O O2 0.102915 0.554764 0.750001
O O3 0.205114 0.506779 0.605119
O O4 0.205115 0.506778 0.894880
O O5 0.897885 0.156811 0.104278
O O6 0.983905 0.336923 0.103507
O O7 0.897885 0.343188 0.895724
O O8 0.983905 0.163075 0.896495
O O9 0.709258 0.831935 0.605178
O O10 0.617185 0.933965 0.750002
O O11 0.709259 0.831935 0.894822
O O12 0.487909 0.952363 0.249999
#
# Coordination Sequence:
#
# PCOD8228710 Si02
#       6
#     8   8   8   8   8   8
#     4  11  21  37  66  95 128 159 210 261 327 374
#     4  10  24  42  62  85 136 159 214 258 308 366
#     4  11  21  37  66  95 128 159 210 261 327 374
#     4  11  24  43  65  94 126 175 209 263 316 378
#     4  11  24  43  65  94 126 175 209 263 316 378
#     4  10  21  38  60  97 128 161 202 272 321 370
#
# _framework density 23.451266
#
# number of rings (size 3 to 8) (size 9 to 14) (size 15 to 20)
#    0.000    1.333    0.000    7.000    4.667    0.000 
#    0.000    0.000    0.000   70.000    0.000    0.000 
#    0.000    0.000    0.000    0.000    0.000    0.000 
#
# Total GULP energy -594905.996604 kJ/mol
# GULP energy per Si atom -12393.874929 kJ/mol
# Density = 2.339789 g / cm^3
# Si number density = 23.451266 Si / 1000 Ang^3
#
#
#
# Elastic Constant Matrix: (Units=GPa)
#
#
# Indices 1 2 3 4 5 6 
#
# 1 100.3154 42.5990 42.4647 0.0000 0.0000 0.0000
# 2 42.5990 97.8357 46.8048 0.0000 0.0000 0.0000
# 3 42.4647 46.8048 193.6952 0.0000 0.0000 0.0000
# 4 0.0000 0.0000 0.0000 1.6522 0.0000 0.0000
# 5 0.0000 0.0000 0.0000 0.0000 24.5991 0.0000
# 6 0.0000 0.0000 0.0000 0.0000 0.0000 29.7346
#
#
#
# Elastic Compliance Matrix: (Units=1/GPa)
#
#
# Indices 1 2 3 4 5 6 
#
# 1 0.012671 -0.004736 -0.001634 0.000000 0.000000 0.000000
# 2 -0.004736 0.013327 -0.002182 0.000000 0.000000 0.000000
# 3 -0.001634 -0.002182 0.006048 0.000000 0.000000 0.000000
# 4 0.000000 0.000000 0.000000 0.605268 0.000000 0.000000
# 5 0.000000 0.000000 0.000000 0.000000 0.040652 0.000000
# 6 0.000000 0.000000 0.000000 0.000000 0.000000 0.033631
#
#
# Mechanical properties :
#
#
# Convention : Reuss Voigt Hill
#
# Bulk Modulus (GPa) = 66.91843 72.84259 69.88051
# Shear Modulus (GPa) = 6.81494 28.52901 17.67198
#
# Velocity S-wave (km/s) = 1.70655 3.49165 2.74809
# Velocity P-wave (km/s) = 5.69913 6.88362 6.31919
#
# Compressibility (1/GPa) = 0.01494357
#
# Stress axis : x y z
#
# Youngs Moduli (GPa) = 78.91984 75.03484 165.33846
#
# Poissons Ratio (x) = 0.35534 0.27010
# Poissons Ratio (y) = 0.37374 0.36080
# Poissons Ratio (z) = 0.12892 0.16374
#
# Static dielectric constant tensor:
#      x y z
#    x 3.917110 0.000000 0.000000 
#    y 0.000000 3.917310 0.000000 
#    z 0.000000 0.000000 4.813000 
# 
# 
# High freq. dielectric constant tensor:
#      x y z
#    x 1.891290 0.000000 0.000000 
#    y 0.000000 1.915270 0.000000 
#    z 0.000000 0.000000 1.963740 
# 
# From -- ./inp_files/4747.got.cif
#   From: 2010.03.12/outbox.cif.g09.slc.cpg/sg56_3_cif.got.tgz:4747.got - 2010.04.16 15:33:40.
