data_PCOD8228817
_publ_section_title
;
Structure prediction by ZEFSAII (Michael W. Deem and Ramdas Pophale) SiO2 
 PCOD8228817
Probable space group: P C C N
;
_chemical_formula_sum "Si O2"
_cell_formula_units_Z 44
_cell_length_a 21.020678
_cell_length_b 5.088248
_cell_length_c 16.632689
_cell_angle_alpha 90.000000
_cell_angle_beta 90.000000
_cell_angle_gamma 90.000000
_cell_volume 1779.006182
_symmetry_space_group_name_H-M "P C C N"
_symmetry_group_IT_number 56
_symmetry_cell_setting 'orthorhombic'
loop_
_space_group_symop_operation_xyz
x,y,z
1/2-x,1/2-y,z
1/2+x,-y,1/2-z
-x,1/2+y,1/2-z
-x,-y,-z
1/2+x,1/2+y,-z
1/2-x,y,1/2+z
x,1/2-y,1/2+z
loop_
_atom_site_type_symbol
_atom_site_label
_atom_site_fract_x
_atom_site_fract_y
_atom_site_fract_z
Si Si1 0.180385 0.790532 0.465637
Si Si2 0.750000 0.750000 0.327086
Si Si3 0.802062 0.937005 0.174753
Si Si4 0.440896 0.236287 0.824766
Si Si5 0.861729 0.698659 0.449861
Si Si6 0.988698 0.764401 0.856252
O O1 0.250000 0.750000 0.506022
O O2 0.187503 0.717625 0.369969
O O3 0.132532 0.578893 0.504910
O O4 0.156177 0.083061 0.483344
O O5 0.776197 0.981244 0.266502
O O6 0.809291 0.662307 0.380619
O O7 0.750000 0.750000 0.127531
O O8 0.865874 0.766990 0.175611
O O9 0.475435 0.465203 0.875276
O O10 0.464199 0.240547 0.734024
O O11 0.459590 0.965913 0.869100
O O12 0.929596 0.777051 0.414932
#
# Coordination Sequence:
#
# PCOD8228817 Si02
#       6
#     8   4   8   8   8   8
#     4  12  25  43  67  96 148 177 219 276 370 401
#     4  10  22  44  74 104 136 170 252 282 338 404
#     4  10  23  45  68 104 136 180 226 290 344 411
#     4  10  21  40  65  97 133 174 229 282 342 396
#     4  12  23  47  67 105 132 185 225 290 333 417
#     4  10  21  40  66  96 132 178 225 287 334 399
#
# _framework density 24.732908999999999
#
# number of rings (size 3 to 8) (size 9 to 14) (size 15 to 20)
#    0.545    0.727    3.636    2.182    0.000    2.909 
#    3.273    5.455    0.000    0.000    0.000    0.000 
#    0.000    0.000    0.000    0.000    0.000    0.000 
#
# Total GULP energy -545412.546604 kJ/mol
# GULP energy per Si atom -12395.739696 kJ/mol
# Density = 2.467662 g / cm^3
# Si number density = 24.732909 Si / 1000 Ang^3
#
#
#
# Elastic Constant Matrix: (Units=GPa)
#
#
# Indices 1 2 3 4 5 6 
#
# 1 112.4333 17.8625 2.5687 0.0000 0.0000 0.0000
# 2 17.8625 107.5060 21.5829 0.0000 0.0000 0.0000
# 3 2.5687 21.5829 97.4755 0.0000 0.0000 0.0000
# 4 0.0000 0.0000 0.0000 29.2917 0.0000 0.0000
# 5 0.0000 0.0000 0.0000 0.0000 9.4012 0.0000
# 6 0.0000 0.0000 0.0000 0.0000 0.0000 32.8236
#
#
#
# Elastic Compliance Matrix: (Units=1/GPa)
#
#
# Indices 1 2 3 4 5 6 
#
# 1 0.009136 -0.001538 0.000100 0.000000 0.000000 0.000000
# 2 -0.001538 0.009993 -0.002172 0.000000 0.000000 0.000000
# 3 0.000100 -0.002172 0.010737 0.000000 0.000000 0.000000
# 4 0.000000 0.000000 0.000000 0.034139 0.000000 0.000000
# 5 0.000000 0.000000 0.000000 0.000000 0.106369 0.000000
# 6 0.000000 0.000000 0.000000 0.000000 0.000000 0.030466
#
#
# Mechanical properties :
#
#
# Convention : Reuss Voigt Hill
#
# Bulk Modulus (GPa) = 44.15776 44.60478 44.38127
# Shear Modulus (GPa) = 23.18987 32.66334 27.92661
#
# Velocity S-wave (km/s) = 3.06537 3.63801 3.36389
# Velocity P-wave (km/s) = 5.51555 5.97667 5.75073
#
# Compressibility (1/GPa) = 0.02264608
#
# Stress axis : x y z
#
# Youngs Moduli (GPa) = 109.45424 100.06550 93.13310
#
# Poissons Ratio (x) = 0.15391 -0.00929
# Poissons Ratio (y) = 0.16835 0.20230
# Poissons Ratio (z) = -0.01092 0.21736
#
# Static dielectric constant tensor:
#      x y z
#    x 4.663510 0.000000 0.000000 
#    y 0.000000 4.358160 0.000000 
#    z 0.000000 0.000000 4.421600 
# 
# 
# High freq. dielectric constant tensor:
#      x y z
#    x 2.000570 0.000000 0.000000 
#    y 0.000000 1.973680 0.000000 
#    z 0.000000 0.000000 1.978530 
# 
# From -- ./inp_files/16905.got.cif
#   From: 2010.03.12/outbox.cif.g09.slc.cpg/sg56_9_cif.got.tgz:16905.got - 2010.04.16 15:33:40.
