data_PCOD8228006
_publ_section_title
;
Structure prediction by ZEFSAII (Michael W. Deem and Ramdas Pophale) SiO2 
 PCOD8228006
Probable space group: P C C N
;
_chemical_formula_sum "Si O2"
_cell_formula_units_Z 36
_cell_length_a 8.834678
_cell_length_b 11.758132
_cell_length_c 18.045405
_cell_angle_alpha 90.000000
_cell_angle_beta 90.000000
_cell_angle_gamma 90.000000
_cell_volume 1874.544222
_symmetry_space_group_name_H-M "P C C N"
_symmetry_group_IT_number 56
_symmetry_cell_setting 'orthorhombic'
loop_
_space_group_symop_operation_xyz
x,y,z
1/2-x,1/2-y,z
1/2+x,-y,1/2-z
-x,1/2+y,1/2-z
-x,-y,-z
1/2+x,1/2+y,-z
1/2-x,y,1/2+z
x,1/2-y,1/2+z
loop_
_atom_site_type_symbol
_atom_site_label
_atom_site_fract_x
_atom_site_fract_y
_atom_site_fract_z
Si Si1 0.007896 0.131735 0.487857
Si Si2 0.978168 0.292990 0.296382
Si Si3 0.312593 0.598361 0.641407
Si Si4 0.250000 0.250000 0.392306
Si Si5 0.109879 0.164995 0.642837
O O1 0.161442 0.160279 0.443231
O O2 0.016086 0.194719 0.567602
O O3 0.859593 0.158443 0.437652
O O4 0.000000 0.000000 0.500000
O O5 0.858518 0.374388 0.337239
O O6 0.925101 0.160513 0.299747
O O7 0.134748 0.317186 0.338935
O O8 0.993828 0.323540 0.210358
O O9 0.329982 0.463631 0.640349
O O10 0.250000 0.250000 0.652573
#
# Coordination Sequence:
#
# PCOD8228006 Si02
#       5
#     8   8   8   4   8
#     4   9  19  37  59  83 119 157 198 254 302 358
#     4  10  21  38  60  86 120 161 197 246 307 368
#     4   9  22  40  59  86 126 159 197 252 309 358
#     4  10  18  36  60  78 116 164 198 234 316 360
#     4  11  21  35  64  92 117 156 210 254 296 361
#
# _framework density 19.204668000000002
#
# number of rings (size 3 to 8) (size 9 to 14) (size 15 to 20)
#    0.000    2.222    2.222    0.000    3.111    1.778 
#    0.000   13.333    4.889    0.000    0.000    0.000 
#    0.000    0.000    0.000    0.000    0.000    0.000 
#
# Total GULP energy -446026.129180 kJ/mol
# GULP energy per Si atom -12389.614699 kJ/mol
# Density = 1.916096 g / cm^3
# Si number density = 19.204668 Si / 1000 Ang^3
#
#
#
# Elastic Constant Matrix: (Units=GPa)
#
#
# Indices 1 2 3 4 5 6 
#
# 1 128.8888 36.0297 87.7482 0.0000 0.0000 0.0000
# 2 36.0297 91.9559 34.0922 0.0000 0.0000 0.0000
# 3 87.7482 34.0922 173.2101 0.0000 0.0000 0.0000
# 4 0.0000 0.0000 0.0000 27.0031 0.0000 0.0000
# 5 0.0000 0.0000 0.0000 0.0000 29.7151 0.0000
# 6 0.0000 0.0000 0.0000 0.0000 0.0000 28.1661
#
#
#
# Elastic Compliance Matrix: (Units=1/GPa)
#
#
# Indices 1 2 3 4 5 6 
#
# 1 0.012452 -0.002740 -0.005769 0.000000 0.000000 0.000000
# 2 -0.002740 0.012334 -0.001039 0.000000 0.000000 0.000000
# 3 -0.005769 -0.001039 0.008900 0.000000 0.000000 0.000000
# 4 0.000000 0.000000 0.000000 0.037033 0.000000 0.000000
# 5 0.000000 0.000000 0.000000 0.000000 0.033653 0.000000
# 6 0.000000 0.000000 0.000000 0.000000 0.000000 0.035504
#
#
# Mechanical properties :
#
#
# Convention : Reuss Voigt Hill
#
# Bulk Modulus (GPa) = 68.54315 78.86612 73.70463
# Shear Modulus (GPa) = 30.51835 32.72250 31.62042
#
# Velocity S-wave (km/s) = 3.99069 4.13229 4.06211
# Velocity P-wave (km/s) = 7.55000 7.99519 7.77578
#
# Compressibility (1/GPa) = 0.01458935
#
# Stress axis : x y z
#
# Youngs Moduli (GPa) = 80.30764 81.07823 112.35378
#
# Poissons Ratio (x) = 0.22216 0.64816
# Poissons Ratio (y) = 0.22005 0.11679
# Poissons Ratio (z) = 0.46329 0.08428
#
# Static dielectric constant tensor:
#      x y z
#    x 3.488070 0.000000 0.000000 
#    y 0.000000 3.406960 0.000000 
#    z 0.000000 0.000000 4.304820 
# 
# 
# High freq. dielectric constant tensor:
#      x y z
#    x 1.741610 0.000000 0.000000 
#    y 0.000000 1.734630 0.000000 
#    z 0.000000 0.000000 1.763110 
# 
# From -- ./inp_files/12040.got.cif
#   From: 2010.03.12/outbox.cif.g09.slc.cpg/sg56_7_cif.got.tgz:12040.got - 2010.04.16 15:33:40.
