data_PCOD8228574
_publ_section_title
;
Structure prediction by ZEFSAII (Michael W. Deem and Ramdas Pophale) SiO2 
 PCOD8228574
Probable space group: P C C N
;
_chemical_formula_sum "Si O2"
_cell_formula_units_Z 48
_cell_length_a 16.716934
_cell_length_b 14.772185
_cell_length_c 9.776853
_cell_angle_alpha 90.000000
_cell_angle_beta 90.000000
_cell_angle_gamma 90.000000
_cell_volume 2414.351238
_symmetry_space_group_name_H-M "P C C N"
_symmetry_group_IT_number 56
_symmetry_cell_setting 'orthorhombic'
loop_
_space_group_symop_operation_xyz
x,y,z
1/2-x,1/2-y,z
1/2+x,-y,1/2-z
-x,1/2+y,1/2-z
-x,-y,-z
1/2+x,1/2+y,-z
1/2-x,y,1/2+z
x,1/2-y,1/2+z
loop_
_atom_site_type_symbol
_atom_site_label
_atom_site_fract_x
_atom_site_fract_y
_atom_site_fract_z
Si Si1 0.619907 0.723736 0.750521
Si Si2 0.012992 0.246807 0.999253
Si Si3 0.748589 0.015890 0.516811
Si Si4 0.725124 0.895542 0.766956
Si Si5 0.859648 0.325220 0.094582
Si Si6 0.639689 0.333645 0.909872
O O1 0.564668 0.707296 0.619493
O O2 0.570297 0.703181 0.887375
O O3 0.652157 0.826198 0.752140
O O4 0.690970 0.652838 0.741258
O O5 0.955718 0.324436 0.066088
O O6 0.956502 0.167028 0.936394
O O7 0.714745 0.975304 0.657414
O O8 0.778106 0.935595 0.419057
O O9 0.824192 0.080040 0.544506
O O10 0.675437 0.068882 0.446143
O O11 0.841273 0.308715 0.253534
O O12 0.820103 0.242690 0.007915
#
# Coordination Sequence:
#
# PCOD8228574 Si02
#       6
#     8   8   8   8   8   8
#     4  11  22  46  64  87 126 168 226 245 308 364
#     4  10  20  40  70  88 120 174 204 256 304 384
#     4  12  23  41  62  98 132 154 212 253 319 370
#     4  11  26  40  65  92 124 174 205 270 296 361
#     4  10  22  40  66  97 126 165 197 255 321 374
#     4  10  22  40  66  97 126 165 197 255 321 374
#
# _framework density 19.881115999999999
#
# number of rings (size 3 to 8) (size 9 to 14) (size 15 to 20)
#    1.000    0.333    3.333    2.500    2.333    4.000 
#    0.000   10.000    0.000    0.000    0.000    0.000 
#    0.000    0.000    0.000    0.000    0.000    0.000 
#
# Total GULP energy -595187.257712 kJ/mol
# GULP energy per Si atom -12399.734536 kJ/mol
# Density = 1.983587 g / cm^3
# Si number density = 19.881116 Si / 1000 Ang^3
#
#
#
# Elastic Constant Matrix: (Units=GPa)
#
#
# Indices 1 2 3 4 5 6 
#
# 1 89.4784 25.6208 31.5453 0.0000 0.0000 0.0000
# 2 25.6208 77.4761 21.1582 0.0000 0.0000 0.0000
# 3 31.5453 21.1582 125.0269 0.0000 0.0000 0.0000
# 4 0.0000 0.0000 0.0000 31.5757 0.0000 0.0000
# 5 0.0000 0.0000 0.0000 0.0000 32.7269 0.0000
# 6 0.0000 0.0000 0.0000 0.0000 0.0000 13.6727
#
#
#
# Elastic Compliance Matrix: (Units=1/GPa)
#
#
# Indices 1 2 3 4 5 6 
#
# 1 0.013166 -0.003614 -0.002710 0.000000 0.000000 0.000000
# 2 -0.003614 0.014524 -0.001546 0.000000 0.000000 0.000000
# 3 -0.002710 -0.001546 0.008944 0.000000 0.000000 0.000000
# 4 0.000000 0.000000 0.000000 0.031670 0.000000 0.000000
# 5 0.000000 0.000000 0.000000 0.000000 0.030556 0.000000
# 6 0.000000 0.000000 0.000000 0.000000 0.000000 0.073138
#
#
# Mechanical properties :
#
#
# Convention : Reuss Voigt Hill
#
# Bulk Modulus (GPa) = 47.86109 49.84776 48.85442
# Shear Modulus (GPa) = 25.68004 29.83888 27.75946
#
# Velocity S-wave (km/s) = 3.59789 3.87830 3.74073
# Velocity P-wave (km/s) = 6.43317 6.72178 6.57906
#
# Compressibility (1/GPa) = 0.02089380
#
# Stress axis : x y z
#
# Youngs Moduli (GPa) = 75.95226 68.84921 111.80953
#
# Poissons Ratio (x) = 0.24881 0.30305
# Poissons Ratio (y) = 0.27447 0.17288
# Poissons Ratio (z) = 0.20586 0.10645
#
# Static dielectric constant tensor:
#      x y z
#    x 3.589060 0.000000 0.000000 
#    y 0.000000 3.335880 0.000000 
#    z 0.000000 0.000000 3.754620 
# 
# 
# High freq. dielectric constant tensor:
#      x y z
#    x 1.780200 0.000000 0.000000 
#    y 0.000000 1.750880 0.000000 
#    z 0.000000 0.000000 1.795700 
# 
# From -- ./inp_files/4008.got.cif
#   From: 2010.03.12/outbox.cif.g09.slc.cpg/sg56_3_cif.got.tgz:4008.got - 2010.04.16 15:33:40.
