data_PCOD8228166
_publ_section_title
;
Structure prediction by ZEFSAII (Michael W. Deem and Ramdas Pophale) SiO2 
 PCOD8228166
Probable space group: P C C N
;
_chemical_formula_sum "Si O2"
_cell_formula_units_Z 64
_cell_length_a 13.811364
_cell_length_b 8.391200
_cell_length_c 24.831111
_cell_angle_alpha 90.000000
_cell_angle_beta 90.000000
_cell_angle_gamma 90.000000
_cell_volume 2877.774732
_symmetry_space_group_name_H-M "P C C N"
_symmetry_group_IT_number 56
_symmetry_cell_setting 'orthorhombic'
loop_
_space_group_symop_operation_xyz
x,y,z
1/2-x,1/2-y,z
1/2+x,-y,1/2-z
-x,1/2+y,1/2-z
-x,-y,-z
1/2+x,1/2+y,-z
1/2-x,y,1/2+z
x,1/2-y,1/2+z
loop_
_atom_site_type_symbol
_atom_site_label
_atom_site_fract_x
_atom_site_fract_y
_atom_site_fract_z
Si Si1 0.547393 0.375091 0.272311
Si Si2 0.082940 0.626830 0.506047
Si Si3 0.145708 0.104647 0.867497
Si Si4 0.561343 0.086787 0.069542
Si Si5 0.354895 0.208260 0.251763
Si Si6 0.258923 0.422933 0.468341
Si Si7 0.536486 0.200731 0.892968
Si Si8 0.363715 0.734028 0.833212
O O1 0.431393 0.356595 0.257710
O O2 0.585384 0.558053 0.273425
O O3 0.572955 0.301201 0.331154
O O4 0.601175 0.264025 0.228663
O O5 0.041369 0.755562 0.463978
O O6 0.186566 0.554696 0.491662
O O7 0.000000 0.500000 0.500000
O O8 0.100306 0.691356 0.566951
O O9 0.182760 0.156797 0.809719
O O10 0.238884 0.099334 0.905001
O O11 0.070504 0.224650 0.894704
O O12 0.099108 0.928440 0.861664
O O13 0.596259 0.121841 0.130748
O O14 0.633954 0.991384 0.030000
O O15 0.467904 0.975629 0.080116
O O16 0.250000 0.250000 0.221990
O O17 0.250000 0.250000 0.498038
O O18 0.250000 0.750000 0.832923
#
# Coordination Sequence:
#
# PCOD8228166 Si02
#       8
#     8   8   8   8   8   8   8   8
#     4  10  24  40  62  98 133 182 223 264 337 409
#     4  12  23  41  60  92 127 161 205 265 327 386
#     4  10  19  36  60  93 127 158 203 269 340 373
#     4  12  22  37  67  97 121 163 215 273 331 384
#     4  10  22  39  65  97 137 174 224 284 331 393
#     4  12  21  37  62  98 121 153 206 270 338 383
#     4  11  23  40  62  89 134 170 209 260 323 408
#     4  11  20  36  63  97 134 169 222 281 330 386
#
# _framework density 22.239405000000001
#
# number of rings (size 3 to 8) (size 9 to 14) (size 15 to 20)
#    0.000    1.000    5.000    1.875    1.750    2.000 
#    0.000    1.250    0.000    6.750    0.000    0.875 
#    0.000    0.000    0.000    0.000    0.000    0.000 
#
# Total GULP energy -792876.544923 kJ/mol
# GULP energy per Si atom -12388.696014 kJ/mol
# Density = 2.218879 g / cm^3
# Si number density = 22.239405 Si / 1000 Ang^3
#
#
#
# Elastic Constant Matrix: (Units=GPa)
#
#
# Indices 1 2 3 4 5 6 
#
# 1 48.4192 35.6440 25.1817 0.0000 0.0000 0.0000
# 2 35.6440 123.5649 43.3850 0.0000 0.0000 0.0000
# 3 25.1817 43.3850 111.7670 0.0000 0.0000 0.0000
# 4 0.0000 0.0000 0.0000 24.9725 0.0000 0.0000
# 5 0.0000 0.0000 0.0000 0.0000 25.2756 0.0000
# 6 0.0000 0.0000 0.0000 0.0000 0.0000 36.7951
#
#
#
# Elastic Compliance Matrix: (Units=1/GPa)
#
#
# Indices 1 2 3 4 5 6 
#
# 1 0.027416 -0.006645 -0.003597 0.000000 0.000000 0.000000
# 2 -0.006645 0.010981 -0.002765 0.000000 0.000000 0.000000
# 3 -0.003597 -0.002765 0.010831 0.000000 0.000000 0.000000
# 4 0.000000 0.000000 0.000000 0.040044 0.000000 0.000000
# 5 0.000000 0.000000 0.000000 0.000000 0.039564 0.000000
# 6 0.000000 0.000000 0.000000 0.000000 0.000000 0.027178
#
#
# Mechanical properties :
#
#
# Convention : Reuss Voigt Hill
#
# Bulk Modulus (GPa) = 43.08157 54.68583 48.88370
# Shear Modulus (GPa) = 26.34817 29.37799 27.86308
#
# Velocity S-wave (km/s) = 3.44576 3.63848 3.54343
# Velocity P-wave (km/s) = 5.93673 6.50341 6.22652
#
# Compressibility (1/GPa) = 0.02321178
#
# Stress axis : x y z
#
# Youngs Moduli (GPa) = 36.47512 91.06833 92.32701
#
# Poissons Ratio (x) = 0.60519 0.33214
# Poissons Ratio (y) = 0.24239 0.25530
# Poissons Ratio (z) = 0.13121 0.25182
#
# Static dielectric constant tensor:
#      x y z
#    x 3.558220 0.000000 0.000000 
#    y 0.000000 5.461960 0.000000 
#    z 0.000000 0.000000 4.186330 
# 
# 
# High freq. dielectric constant tensor:
#      x y z
#    x 1.846850 0.000000 0.000000 
#    y 0.000000 1.896690 0.000000 
#    z 0.000000 0.000000 1.865470 
# 
# From -- ./inp_files/21174.got.cif
#   From: 2010.03.12/outbox.cif.g09.slc.cpg/sg56_11_cif.got.tgz:21174.got - 2010.04.16 15:33:40.
