data_PCOD8228929
_publ_section_title
;
Structure prediction by ZEFSAII (Michael W. Deem and Ramdas Pophale) SiO2 
 PCOD8228929
Probable space group: P C C N
;
_chemical_formula_sum "Si O2"
_cell_formula_units_Z 28
_cell_length_a 11.614566
_cell_length_b 7.652848
_cell_length_c 14.250081
_cell_angle_alpha 90.000000
_cell_angle_beta 90.000000
_cell_angle_gamma 90.000000
_cell_volume 1266.611441
_symmetry_space_group_name_H-M "P C C N"
_symmetry_group_IT_number 56
_symmetry_cell_setting 'orthorhombic'
loop_
_space_group_symop_operation_xyz
x,y,z
1/2-x,1/2-y,z
1/2+x,-y,1/2-z
-x,1/2+y,1/2-z
-x,-y,-z
1/2+x,1/2+y,-z
1/2-x,y,1/2+z
x,1/2-y,1/2+z
loop_
_atom_site_type_symbol
_atom_site_label
_atom_site_fract_x
_atom_site_fract_y
_atom_site_fract_z
Si Si1 0.250000 0.250000 0.203991
Si Si2 0.122795 0.774461 0.054975
Si Si3 0.162922 0.604889 0.253298
Si Si4 0.535807 0.849270 0.397612
O O1 0.242119 0.429841 0.261894
O O2 0.133130 0.273730 0.144836
O O3 0.250000 0.750000 0.011149
O O4 0.115465 0.659146 0.149673
O O5 0.104731 0.981014 0.068857
O O6 0.024387 0.729943 0.978298
O O7 0.250000 0.750000 0.291045
O O8 0.054822 0.585501 0.320577
#
# Coordination Sequence:
#
# PCOD8228929 Si02
#       4
#     4   8   8   8
#     4  12  24  40  70 100 130 178 226 268 336 410
#     4  10  21  45  66  95 137 173 219 286 327 396
#     4  11  23  45  68  98 139 172 222 284 330 400
#     4  11  23  42  70  98 135 179 223 269 346 396
#
# _framework density 22.106227000000001
#
# number of rings (size 3 to 8) (size 9 to 14) (size 15 to 20)
#    0.000    1.143    5.714    2.571    0.000    1.143 
#    0.000   10.000    0.000    0.000    0.000    0.000 
#    0.000    0.000    0.000    0.000    0.000    0.000 
#
# Total GULP energy -346922.516719 kJ/mol
# GULP energy per Si atom -12390.089883 kJ/mol
# Density = 2.205591 g / cm^3
# Si number density = 22.106227 Si / 1000 Ang^3
#
#
#
# Elastic Constant Matrix: (Units=GPa)
#
#
# Indices 1 2 3 4 5 6 
#
# 1 156.6768 43.9029 37.1927 0.0000 0.0000 0.0000
# 2 43.9029 114.2877 16.9290 0.0000 0.0000 0.0000
# 3 37.1927 16.9290 60.8771 0.0000 0.0000 0.0000
# 4 0.0000 0.0000 0.0000 -5.4334 0.0000 0.0000
# 5 0.0000 0.0000 0.0000 0.0000 -139.3061 0.0000
# 6 0.0000 0.0000 0.0000 0.0000 0.0000 47.1040
#
#
#
# Elastic Compliance Matrix: (Units=1/GPa)
#
#
# Indices 1 2 3 4 5 6 
#
# 1 0.008086 -0.002476 -0.004251 0.000000 0.000000 0.000000
# 2 -0.002476 0.009884 -0.001236 0.000000 0.000000 0.000000
# 3 -0.004251 -0.001236 0.019367 0.000000 0.000000 0.000000
# 4 0.000000 0.000000 0.000000 -0.184045 0.000000 0.000000
# 5 0.000000 0.000000 0.000000 0.000000 -0.007178 0.000000
# 6 0.000000 0.000000 0.000000 0.000000 0.000000 0.021230
#
#
# Mechanical properties :
#
#
# Convention : Reuss Voigt Hill
#
# Bulk Modulus (GPa) = 46.70580 58.65453 52.68017
# Shear Modulus (GPa) = -45.62324 -3.93930 -24.78127
#
# Velocity S-wave (km/s) = -4.54786 -1.33636 -3.35178
# Velocity P-wave (km/s) = 2.53053 4.92031 2.98378
#
# Compressibility (1/GPa) = 0.02141062
#
# Stress axis : x y z
#
# Youngs Moduli (GPa) = 123.67586 101.17198 51.63297
#
# Poissons Ratio (x) = 0.25053 0.21951
# Poissons Ratio (y) = 0.30626 0.06380
# Poissons Ratio (z) = 0.52578 0.12502
#
# Static dielectric constant tensor:
#      x y z
#    x 4.335480 0.000000 0.000000 
#    y 0.000000 3.742830 0.000000 
#    z 0.000000 0.000000 3.977820 
# 
# 
# High freq. dielectric constant tensor:
#      x y z
#    x 1.886440 0.000000 0.000000 
#    y 0.000000 1.871220 0.000000 
#    z 0.000000 0.000000 1.851330 
# 
# From -- ./inp_files/9971.got.cif
#   From: 2010.03.12/outbox.cif.g09.slc.cpg/sg56_5_cif.got.tgz:9971.got - 2010.04.16 15:33:40.
