data_PCOD8228057
_publ_section_title
;
Structure prediction by ZEFSAII (Michael W. Deem and Ramdas Pophale) SiO2 
 PCOD8228057
Probable space group: P C C N
;
_chemical_formula_sum "Si O2"
_cell_formula_units_Z 56
_cell_length_a 26.773379
_cell_length_b 15.503333
_cell_length_c 8.589915
_cell_angle_alpha 90.000000
_cell_angle_beta 90.000000
_cell_angle_gamma 90.000000
_cell_volume 3565.472800
_symmetry_space_group_name_H-M "P C C N"
_symmetry_group_IT_number 56
_symmetry_cell_setting 'orthorhombic'
loop_
_space_group_symop_operation_xyz
x,y,z
1/2-x,1/2-y,z
1/2+x,-y,1/2-z
-x,1/2+y,1/2-z
-x,-y,-z
1/2+x,1/2+y,-z
1/2-x,y,1/2+z
x,1/2-y,1/2+z
loop_
_atom_site_type_symbol
_atom_site_label
_atom_site_fract_x
_atom_site_fract_y
_atom_site_fract_z
Si Si1 0.242104 0.375529 0.805569
Si Si2 0.184308 0.289896 0.074733
Si Si3 0.978746 0.781676 0.608763
Si Si4 0.680431 0.587474 0.956591
Si Si5 0.488064 0.630964 0.905224
Si Si6 0.421374 0.343554 0.679193
Si Si7 0.074635 0.028091 0.947261
O O1 0.203378 0.319586 0.906536
O O2 0.270780 0.309341 0.692347
O O3 0.208068 0.441269 0.702869
O O4 0.281341 0.431947 0.902786
O O5 0.330268 0.310151 0.057704
O O6 0.136100 0.341822 0.131043
O O7 0.012532 0.837401 0.726098
O O8 0.013751 0.710266 0.526419
O O9 0.934295 0.737304 0.708546
O O10 0.955239 0.842737 0.475778
O O11 0.630146 0.534719 0.983883
O O12 0.439343 0.572533 0.934288
O O13 0.538242 0.575527 0.931366
O O14 0.430544 0.431082 0.775073
#
# Coordination Sequence:
#
# PCOD8228057 Si02
#       7
#     8   8   8   8   8   8   8
#     4  10  21  27  41  61  92 131 171 193 209 255
#     4  11  18  28  39  62  88 131 173 185 208 261
#     4   9  18  33  50  67  86 124 160 196 228 287
#     4  11  18  30  41  61  93 129 157 198 220 261
#     4   9  19  34  51  70  91 120 158 197 239 284
#     4  10  19  28  46  65  91 126 159 191 231 273
#     4  10  20  32  46  70  99 124 152 198 244 271
#
# _framework density 15.706192
#
# number of rings (size 3 to 8) (size 9 to 14) (size 15 to 20)
#    0.000    2.000    1.429    6.000    4.000    0.571 
#    0.000    0.000    0.000    0.000    0.000    0.000 
#    0.000    3.429    0.000    0.000    0.000    0.000 
#
# Total GULP energy -694188.449951 kJ/mol
# GULP energy per Si atom -12396.222321 kJ/mol
# Density = 1.567044 g / cm^3
# Si number density = 15.706192 Si / 1000 Ang^3
#
#
#
# Elastic Constant Matrix: (Units=GPa)
#
#
# Indices 1 2 3 4 5 6 
#
# 1 96.9539 41.6511 44.0448 0.0000 0.0000 0.0000
# 2 41.6511 53.5423 34.6672 0.0000 0.0000 0.0000
# 3 44.0448 34.6672 113.0259 0.0000 0.0000 0.0000
# 4 0.0000 0.0000 0.0000 13.7068 0.0000 0.0000
# 5 0.0000 0.0000 0.0000 0.0000 16.6209 0.0000
# 6 0.0000 0.0000 0.0000 0.0000 0.0000 23.6013
#
#
#
# Elastic Compliance Matrix: (Units=1/GPa)
#
#
# Indices 1 2 3 4 5 6 
#
# 1 0.016304 -0.010693 -0.003074 0.000000 0.000000 0.000000
# 2 -0.010693 0.030318 -0.005132 0.000000 0.000000 0.000000
# 3 -0.003074 -0.005132 0.011619 0.000000 0.000000 0.000000
# 4 0.000000 0.000000 0.000000 0.072957 0.000000 0.000000
# 5 0.000000 0.000000 0.000000 0.000000 0.060165 0.000000
# 6 0.000000 0.000000 0.000000 0.000000 0.000000 0.042371
#
#
# Mechanical properties :
#
#
# Convention : Reuss Voigt Hill
#
# Bulk Modulus (GPa) = 48.91482 56.02760 52.47121
# Shear Modulus (GPa) = 17.96322 20.32974 19.14648
#
# Velocity S-wave (km/s) = 3.38554 3.60165 3.49526
# Velocity P-wave (km/s) = 6.81863 7.28324 7.05476
#
# Compressibility (1/GPa) = 0.02044370
#
# Stress axis : x y z
#
# Youngs Moduli (GPa) = 61.33363 32.98376 86.06237
#
# Poissons Ratio (x) = 0.35270 0.26454
# Poissons Ratio (y) = 0.65584 0.44168
# Poissons Ratio (z) = 0.18853 0.16928
#
# Static dielectric constant tensor:
#      x y z
#    x 3.052340 0.000000 0.000000 
#    y 0.000000 2.595490 0.000000 
#    z 0.000000 0.000000 3.413550 
# 
# 
# High freq. dielectric constant tensor:
#      x y z
#    x 1.592780 0.000000 0.000000 
#    y 0.000000 1.538710 0.000000 
#    z 0.000000 0.000000 1.628650 
# 
# From -- ./inp_files/4841.got.cif
#   From: 2010.03.12/outbox.cif.g09.slc.cpg/sg56_3_cif.got.tgz:4841.got - 2010.04.16 15:33:40.
