data_PCOD8228575
_publ_section_title
;
Structure prediction by ZEFSAII (Michael W. Deem and Ramdas Pophale) SiO2 
 PCOD8228575
Probable space group: P C C N
;
_chemical_formula_sum "Si O2"
_cell_formula_units_Z 44
_cell_length_a 8.419841
_cell_length_b 28.076912
_cell_length_c 9.075294
_cell_angle_alpha 90.000000
_cell_angle_beta 90.000000
_cell_angle_gamma 90.000000
_cell_volume 2145.427951
_symmetry_space_group_name_H-M "P C C N"
_symmetry_group_IT_number 56
_symmetry_cell_setting 'orthorhombic'
loop_
_space_group_symop_operation_xyz
x,y,z
1/2-x,1/2-y,z
1/2+x,-y,1/2-z
-x,1/2+y,1/2-z
-x,-y,-z
1/2+x,1/2+y,-z
1/2-x,y,1/2+z
x,1/2-y,1/2+z
loop_
_atom_site_type_symbol
_atom_site_label
_atom_site_fract_x
_atom_site_fract_y
_atom_site_fract_z
Si Si1 0.873752 0.109081 0.684264
Si Si2 0.364159 0.813119 0.228689
Si Si3 0.393758 0.061637 0.399366
Si Si4 0.750000 0.250000 0.028130
Si Si5 0.440696 0.106949 0.893472
Si Si6 0.591683 0.457616 0.175340
O O1 0.797535 0.157839 0.741706
O O2 0.741121 0.073227 0.621191
O O3 0.957667 0.086583 0.824730
O O4 0.000137 0.119333 0.556524
O O5 0.379346 0.776851 0.366561
O O6 0.348474 0.786093 0.073489
O O7 0.515709 0.848611 0.215472
O O8 0.246531 0.097860 0.397267
O O9 0.442115 0.049084 0.566029
O O10 0.354129 0.012556 0.313443
O O11 0.532436 0.059948 0.835405
#
# Coordination Sequence:
#
# PCOD8228575 Si02
#       6
#     8   8   8   4   8   8
#     4  11  22  38  59  88 122 160 206 249 297 369
#     4  10  21  39  66  96 113 157 199 253 301 383
#     4  11  23  37  58  88 127 168 206 256 304 349
#     4  10  20  40  70  92 116 152 212 244 308 390
#     4  11  22  37  58  91 126 159 203 261 310 357
#     4  10  22  38  58  86 122 173 217 244 291 367
#
# _framework density 20.50873
#
# number of rings (size 3 to 8) (size 9 to 14) (size 15 to 20)
#    0.000    1.455    1.818    4.364    2.545    5.818 
#    0.000    0.000    0.000    6.545    0.000    0.000 
#    0.000    0.000    0.000    0.000    0.000    0.000 
#
# Total GULP energy -545658.437781 kJ/mol
# GULP energy per Si atom -12401.328131 kJ/mol
# Density = 2.046205 g / cm^3
# Si number density = 20.508730 Si / 1000 Ang^3
#
#
#
# Elastic Constant Matrix: (Units=GPa)
#
#
# Indices 1 2 3 4 5 6 
#
# 1 98.0293 47.6428 27.6924 0.0000 0.0000 0.0000
# 2 47.6428 113.5713 41.1697 0.0000 0.0000 0.0000
# 3 27.6924 41.1697 95.8190 0.0000 0.0000 0.0000
# 4 0.0000 0.0000 0.0000 34.2110 0.0000 0.0000
# 5 0.0000 0.0000 0.0000 0.0000 25.0673 0.0000
# 6 0.0000 0.0000 0.0000 0.0000 0.0000 27.8277
#
#
#
# Elastic Compliance Matrix: (Units=1/GPa)
#
#
# Indices 1 2 3 4 5 6 
#
# 1 0.013038 -0.004860 -0.001680 0.000000 0.000000 0.000000
# 2 -0.004860 0.012241 -0.003855 0.000000 0.000000 0.000000
# 3 -0.001680 -0.003855 0.012578 0.000000 0.000000 0.000000
# 4 0.000000 0.000000 0.000000 0.029230 0.000000 0.000000
# 5 0.000000 0.000000 0.000000 0.000000 0.039893 0.000000
# 6 0.000000 0.000000 0.000000 0.000000 0.000000 0.035935
#
#
# Mechanical properties :
#
#
# Convention : Reuss Voigt Hill
#
# Bulk Modulus (GPa) = 58.59208 60.04771 59.31989
# Shear Modulus (GPa) = 29.51687 30.14885 29.83286
#
# Velocity S-wave (km/s) = 3.79784 3.83828 3.81811
# Velocity P-wave (km/s) = 6.91830 6.99899 6.95876
#
# Compressibility (1/GPa) = 0.01706715
#
# Stress axis : x y z
#
# Youngs Moduli (GPa) = 76.70056 81.69007 79.50328
#
# Poissons Ratio (x) = 0.39705 0.13354
# Poissons Ratio (y) = 0.37280 0.30648
# Poissons Ratio (z) = 0.12883 0.31491
#
# Static dielectric constant tensor:
#      x y z
#    x 3.457930 0.000000 0.000000 
#    y 0.000000 3.916370 0.000000 
#    z 0.000000 0.000000 3.733510 
# 
# 
# High freq. dielectric constant tensor:
#      x y z
#    x 1.774460 0.000000 0.000000 
#    y 0.000000 1.804130 0.000000 
#    z 0.000000 0.000000 1.813220 
# 
# From -- ./inp_files/2179.got.cif
#   From: 2010.03.12/outbox.cif.g09.slc.cpg/sg56_2_cif.got.tgz:2179.got - 2010.04.16 15:33:40.
