data_PCOD8228904
_publ_section_title
;
Structure prediction by ZEFSAII (Michael W. Deem and Ramdas Pophale) SiO2 
 PCOD8228904
Probable space group: P C C N
;
_chemical_formula_sum "Si O2"
_cell_formula_units_Z 60
_cell_length_a 8.518523
_cell_length_b 23.397440
_cell_length_c 14.191172
_cell_angle_alpha 90.000000
_cell_angle_beta 90.000000
_cell_angle_gamma 90.000000
_cell_volume 2828.465634
_symmetry_space_group_name_H-M "P C C N"
_symmetry_group_IT_number 56
_symmetry_cell_setting 'orthorhombic'
loop_
_space_group_symop_operation_xyz
x,y,z
1/2-x,1/2-y,z
1/2+x,-y,1/2-z
-x,1/2+y,1/2-z
-x,-y,-z
1/2+x,1/2+y,-z
1/2-x,y,1/2+z
x,1/2-y,1/2+z
loop_
_atom_site_type_symbol
_atom_site_label
_atom_site_fract_x
_atom_site_fract_y
_atom_site_fract_z
Si Si1 0.123964 0.351596 0.827853
Si Si2 0.926296 0.565737 0.906614
Si Si3 0.298585 0.345088 0.010498
Si Si4 0.058031 0.348294 0.244530
Si Si5 0.941220 0.769493 0.838097
Si Si6 0.369541 0.648960 0.078702
Si Si7 0.611978 0.060361 0.907475
Si Si8 0.750000 0.250000 0.040846
O O1 0.287057 0.377574 0.789112
O O2 0.036824 0.308753 0.755406
O O3 0.006765 0.403813 0.843024
O O4 0.178726 0.322363 0.928073
O O5 0.771490 0.597489 0.944492
O O6 0.010259 0.605194 0.827889
O O7 0.875512 0.503804 0.866143
O O8 0.057340 0.557285 0.985118
O O9 0.317294 0.296161 0.088524
O O10 0.472893 0.362227 0.979133
O O11 0.126748 0.290918 0.196843
O O12 0.922177 0.329951 0.317496
O O13 0.102231 0.753185 0.890410
O O14 0.282388 0.589048 0.091872
O O15 0.253164 0.694633 0.028257
#
# Coordination Sequence:
#
# PCOD8228904 Si02
#       8
#     8   8   8   8   8   8   8   4
#     4  10  22  40  63  95 125 169 216 267 326 390
#     4  10  21  43  65  92 122 170 225 270 327 399
#     4   9  21  43  65  92 130 162 223 270 325 399
#     4  11  23  39  62  94 128 164 223 263 321 397
#     4  11  22  41  65  95 133 172 216 273 331 400
#     4  10  23  42  60  96 128 172 211 273 334 392
#     4  10  23  41  65  89 129 170 214 276 336 390
#     4  10  24  40  64  94 134 172 212 270 340 402
#
# _framework density 21.212913
#
# number of rings (size 3 to 8) (size 9 to 14) (size 15 to 20)
#    0.000    1.867    1.333    1.200    3.733    1.600 
#   16.800    0.000    0.000    0.000    0.000    0.000 
#    0.000    0.000    0.000    0.000    0.000    0.000 
#
# Total GULP energy -743675.697964 kJ/mol
# GULP energy per Si atom -12394.594966 kJ/mol
# Density = 2.116463 g / cm^3
# Si number density = 21.212913 Si / 1000 Ang^3
#
#
#
# Elastic Constant Matrix: (Units=GPa)
#
#
# Indices 1 2 3 4 5 6 
#
# 1 79.3258 43.5822 46.6088 0.0000 0.0000 0.0000
# 2 43.5822 146.1848 74.7002 0.0000 0.0000 0.0000
# 3 46.6088 74.7002 133.3277 0.0000 0.0000 0.0000
# 4 0.0000 0.0000 0.0000 31.7628 0.0000 0.0000
# 5 0.0000 0.0000 0.0000 0.0000 31.7028 0.0000
# 6 0.0000 0.0000 0.0000 0.0000 0.0000 31.3272
#
#
#
# Elastic Compliance Matrix: (Units=1/GPa)
#
#
# Indices 1 2 3 4 5 6 
#
# 1 0.016637 -0.002786 -0.004255 0.000000 0.000000 0.000000
# 2 -0.002786 0.010051 -0.004658 0.000000 0.000000 0.000000
# 3 -0.004255 -0.004658 0.011597 0.000000 0.000000 0.000000
# 4 0.000000 0.000000 0.000000 0.031483 0.000000 0.000000
# 5 0.000000 0.000000 0.000000 0.000000 0.031543 0.000000
# 6 0.000000 0.000000 0.000000 0.000000 0.000000 0.031921
#
#
# Mechanical properties :
#
#
# Convention : Reuss Voigt Hill
#
# Bulk Modulus (GPa) = 67.16559 76.51342 71.83950
# Shear Modulus (GPa) = 30.94200 31.88837 31.41519
#
# Velocity S-wave (km/s) = 3.82336 3.88139 3.85248
# Velocity P-wave (km/s) = 7.15696 7.49896 7.32996
#
# Compressibility (1/GPa) = 0.01488858
#
# Stress axis : x y z
#
# Youngs Moduli (GPa) = 60.10754 99.49098 86.22595
#
# Poissons Ratio (x) = 0.27713 0.36691
# Poissons Ratio (y) = 0.16743 0.40161
# Poissons Ratio (z) = 0.25577 0.46339
#
# Static dielectric constant tensor:
#      x y z
#    x 3.701130 0.000000 0.000000 
#    y 0.000000 3.804870 0.000000 
#    z 0.000000 0.000000 4.257960 
# 
# 
# High freq. dielectric constant tensor:
#      x y z
#    x 1.833910 0.000000 0.000000 
#    y 0.000000 1.816110 0.000000 
#    z 0.000000 0.000000 1.846640 
# 
# From -- ./inp_files/10984.got.cif
#   From: 2010.03.12/outbox.cif.g09.slc.cpg/sg56_6_cif.got.tgz:10984.got - 2010.04.16 15:33:40.
