data_PCOD8228650
_publ_section_title
;
Structure prediction by ZEFSAII (Michael W. Deem and Ramdas Pophale) SiO2 
 PCOD8228650
Probable space group: P C C N
;
_chemical_formula_sum "Si O2"
_cell_formula_units_Z 60
_cell_length_a 13.088902
_cell_length_b 20.292780
_cell_length_c 11.573549
_cell_angle_alpha 90.000000
_cell_angle_beta 90.000000
_cell_angle_gamma 90.000000
_cell_volume 3074.052766
_symmetry_space_group_name_H-M "P C C N"
_symmetry_group_IT_number 56
_symmetry_cell_setting 'orthorhombic'
loop_
_space_group_symop_operation_xyz
x,y,z
1/2-x,1/2-y,z
1/2+x,-y,1/2-z
-x,1/2+y,1/2-z
-x,-y,-z
1/2+x,1/2+y,-z
1/2-x,y,1/2+z
x,1/2-y,1/2+z
loop_
_atom_site_type_symbol
_atom_site_label
_atom_site_fract_x
_atom_site_fract_y
_atom_site_fract_z
Si Si1 0.250000 0.250000 0.950859
Si Si2 0.000460 0.608183 0.032877
Si Si3 0.435425 0.336051 0.697732
Si Si4 0.653593 0.501877 0.025039
Si Si5 0.211140 0.366398 0.609979
Si Si6 0.128344 0.991727 0.410701
Si Si7 0.470357 0.551482 0.170591
Si Si8 0.921269 0.693742 0.211227
O O1 0.167196 0.287933 0.877483
O O2 0.306046 0.303922 0.028150
O O3 0.090587 0.555334 0.016229
O O4 0.996642 0.652316 0.919092
O O5 0.894564 0.567137 0.051427
O O6 0.014197 0.658435 0.141038
O O7 0.318722 0.359898 0.678756
O O8 0.486479 0.375633 0.804261
O O9 0.453690 0.259542 0.723237
O O10 0.751037 0.477413 0.098756
O O11 0.564075 0.509341 0.118689
O O12 0.691463 0.566973 0.958665
O O13 0.618335 0.448903 0.927230
O O14 0.120676 0.361987 0.702963
O O15 0.070758 0.978962 0.290109
#
# Coordination Sequence:
#
# PCOD8228650 Si02
#       8
#     4   8   8   8   8   8   8   8
#     4  12  18  30  46  82 118 158 198 226 306 390
#     4  10  21  35  55  89 113 161 212 239 303 375
#     4  11  20  35  53  83 127 152 199 244 301 374
#     4  11  23  40  60  84 125 157 202 268 306 363
#     4  12  21  32  54  85 119 166 189 235 320 378
#     4  10  21  39  62  82 122 164 208 257 302 375
#     4  10  25  38  57  94 114 159 210 249 312 362
#     4  12  20  32  54  84 125 161 197 247 304 388
#
# _framework density 19.518207
#
# number of rings (size 3 to 8) (size 9 to 14) (size 15 to 20)
#    0.000    1.067    5.333    1.600    3.733    0.000 
#    0.000    0.000    0.000    0.800    0.000    3.733 
#    0.000    0.000    0.000    0.000    0.000    0.000 
#
# Total GULP energy -743609.130401 kJ/mol
# GULP energy per Si atom -12393.485507 kJ/mol
# Density = 1.947378 g / cm^3
# Si number density = 19.518207 Si / 1000 Ang^3
#
#
#
# Elastic Constant Matrix: (Units=GPa)
#
#
# Indices 1 2 3 4 5 6 
#
# 1 80.7939 24.2121 31.8897 0.0000 0.0000 0.0000
# 2 24.2121 77.7930 38.3772 0.0000 0.0000 0.0000
# 3 31.8897 38.3772 76.5604 0.0000 0.0000 0.0000
# 4 0.0000 0.0000 0.0000 44.7278 0.0000 0.0000
# 5 0.0000 0.0000 0.0000 0.0000 11.5821 0.0000
# 6 0.0000 0.0000 0.0000 0.0000 0.0000 23.5235
#
#
#
# Elastic Compliance Matrix: (Units=1/GPa)
#
#
# Indices 1 2 3 4 5 6 
#
# 1 0.015070 -0.002117 -0.005216 0.000000 0.000000 0.000000
# 2 -0.002117 0.017375 -0.007828 0.000000 0.000000 0.000000
# 3 -0.005216 -0.007828 0.019158 0.000000 0.000000 0.000000
# 4 0.000000 0.000000 0.000000 0.022357 0.000000 0.000000
# 5 0.000000 0.000000 0.000000 0.000000 0.086340 0.000000
# 6 0.000000 0.000000 0.000000 0.000000 0.000000 0.042511
#
#
# Mechanical properties :
#
#
# Convention : Reuss Voigt Hill
#
# Bulk Modulus (GPa) = 46.98880 47.12281 47.05580
# Shear Modulus (GPa) = 20.81360 25.34456 23.07908
#
# Velocity S-wave (km/s) = 3.26907 3.60739 3.44239
# Velocity P-wave (km/s) = 6.19481 6.44565 6.32148
#
# Compressibility (1/GPa) = 0.02128167
#
# Stress axis : x y z
#
# Youngs Moduli (GPa) = 66.35505 57.55328 52.19774
#
# Poissons Ratio (x) = 0.12186 0.27226
# Poissons Ratio (y) = 0.14050 0.40859
# Poissons Ratio (z) = 0.34610 0.45051
#
# Static dielectric constant tensor:
#      x y z
#    x 3.483430 0.000000 0.000000 
#    y 0.000000 3.191130 0.000000 
#    z 0.000000 0.000000 3.864760 
# 
# 
# High freq. dielectric constant tensor:
#      x y z
#    x 1.723570 0.000000 0.000000 
#    y 0.000000 1.752810 0.000000 
#    z 0.000000 0.000000 1.780870 
# 
# From -- ./inp_files/7348.got.cif
#   From: 2010.03.12/outbox.cif.g09.slc.cpg/sg56_4_cif.got.tgz:7348.got - 2010.04.16 15:33:40.
