data_PCOD8228167
_publ_section_title
;
Structure prediction by ZEFSAII (Michael W. Deem and Ramdas Pophale) SiO2 
 PCOD8228167
Probable space group: P C C N
;
_chemical_formula_sum "Si O2"
_cell_formula_units_Z 56
_cell_length_a 11.198500
_cell_length_b 11.427322
_cell_length_c 20.429185
_cell_angle_alpha 90.000000
_cell_angle_beta 90.000000
_cell_angle_gamma 90.000000
_cell_volume 2614.299626
_symmetry_space_group_name_H-M "P C C N"
_symmetry_group_IT_number 56
_symmetry_cell_setting 'orthorhombic'
loop_
_space_group_symop_operation_xyz
x,y,z
1/2-x,1/2-y,z
1/2+x,-y,1/2-z
-x,1/2+y,1/2-z
-x,-y,-z
1/2+x,1/2+y,-z
1/2-x,y,1/2+z
x,1/2-y,1/2+z
loop_
_atom_site_type_symbol
_atom_site_label
_atom_site_fract_x
_atom_site_fract_y
_atom_site_fract_z
Si Si1 0.690698 0.128153 0.439376
Si Si2 0.152932 0.844066 0.908813
Si Si3 0.019753 0.683863 0.830459
Si Si4 0.636783 0.469351 0.345570
Si Si5 0.969481 0.936351 0.147157
Si Si6 0.162876 0.517647 0.755587
Si Si7 0.939842 0.699387 0.201705
O O1 0.750000 0.250000 0.415015
O O2 0.678699 0.123924 0.516863
O O3 0.787242 0.035084 0.412779
O O4 0.561146 0.095593 0.411108
O O5 0.250000 0.750000 0.881791
O O6 0.033636 0.766730 0.894836
O O7 0.132541 0.967961 0.871054
O O8 0.138510 0.603881 0.816827
O O9 0.004836 0.767955 0.768836
O O10 0.906312 0.602461 0.843000
O O11 0.720570 0.443387 0.282947
O O12 0.531365 0.374669 0.343897
O O13 0.899222 0.815910 0.163403
O O14 0.042473 0.977345 0.210941
O O15 0.173436 0.383761 0.781613
#
# Coordination Sequence:
#
# PCOD8228167 Si02
#       7
#     8   8   8   8   8   8   8
#     4  10  20  40  65  91 111 168 220 256 300 374
#     4  11  24  39  60  91 123 167 216 253 309 366
#     4  10  22  35  58  95 125 160 196 263 317 373
#     4  10  21  39  63  91 123 159 211 255 315 386
#     4  10  19  37  63  90 125 161 211 257 304 381
#     4   9  20  34  62  93 124 164 196 260 321 386
#     4  10  19  36  60  94 128 156 203 250 334 376
#
# _framework density 21.420649999999998
#
# number of rings (size 3 to 8) (size 9 to 14) (size 15 to 20)
#    0.000    2.000    2.857    0.429    2.000    0.571 
#    0.000    4.286    0.000    0.000    7.429    0.000 
#    0.000    0.000    0.000    0.000    0.000    0.000 
#
# Total GULP energy -693740.038492 kJ/mol
# GULP energy per Si atom -12388.214973 kJ/mol
# Density = 2.137190 g / cm^3
# Si number density = 21.420650 Si / 1000 Ang^3
#
#
#
# Elastic Constant Matrix: (Units=GPa)
#
#
# Indices 1 2 3 4 5 6 
#
# 1 36.7521 19.8812 25.2329 0.0000 0.0000 0.0000
# 2 19.8812 127.3772 50.8255 0.0000 0.0000 0.0000
# 3 25.2329 50.8255 84.9481 0.0000 0.0000 0.0000
# 4 0.0000 0.0000 0.0000 32.8869 0.0000 0.0000
# 5 0.0000 0.0000 0.0000 0.0000 19.3352 0.0000
# 6 0.0000 0.0000 0.0000 0.0000 0.0000 33.7084
#
#
#
# Elastic Compliance Matrix: (Units=1/GPa)
#
#
# Indices 1 2 3 4 5 6 
#
# 1 0.034458 -0.001700 -0.009218 0.000000 0.000000 0.000000
# 2 -0.001700 0.010397 -0.005715 0.000000 0.000000 0.000000
# 3 -0.009218 -0.005715 0.017930 0.000000 0.000000 0.000000
# 4 0.000000 0.000000 0.000000 0.030407 0.000000 0.000000
# 5 0.000000 0.000000 0.000000 0.000000 0.051719 0.000000
# 6 0.000000 0.000000 0.000000 0.000000 0.000000 0.029666
#
#
# Mechanical properties :
#
#
# Convention : Reuss Voigt Hill
#
# Bulk Modulus (GPa) = 33.87894 48.99519 41.43706
# Shear Modulus (GPa) = 22.96915 27.39528 25.18221
#
# Velocity S-wave (km/s) = 3.27814 3.58008 3.43243
# Velocity P-wave (km/s) = 5.49350 6.32549 5.92412
#
# Compressibility (1/GPa) = 0.02951686
#
# Stress axis : x y z
#
# Youngs Moduli (GPa) = 29.02086 96.18535 55.77339
#
# Poissons Ratio (x) = 0.16352 0.51413
# Poissons Ratio (y) = 0.04934 0.31877
# Poissons Ratio (z) = 0.26752 0.54974
#
# Static dielectric constant tensor:
#      x y z
#    x 3.670740 0.000000 0.000000 
#    y 0.000000 4.269990 0.000000 
#    z 0.000000 0.000000 3.605260 
# 
# 
# High freq. dielectric constant tensor:
#      x y z
#    x 1.825710 0.000000 0.000000 
#    y 0.000000 1.860350 0.000000 
#    z 0.000000 0.000000 1.814660 
# 
# From -- ./inp_files/18749.got.cif
#   From: 2010.03.12/outbox.cif.g09.slc.cpg/sg56_10_cif.got.tgz:18749.got - 2010.04.16 15:33:40.
