data_PCOD8228948
_publ_section_title
;
Structure prediction by ZEFSAII (Michael W. Deem and Ramdas Pophale) SiO2 
 PCOD8228948
Probable space group: P C C N
;
_chemical_formula_sum "Si O2"
_cell_formula_units_Z 40
_cell_length_a 9.054642
_cell_length_b 8.340459
_cell_length_c 25.748902
_cell_angle_alpha 90.000000
_cell_angle_beta 90.000000
_cell_angle_gamma 90.000000
_cell_volume 1944.553741
_symmetry_space_group_name_H-M "P C C N"
_symmetry_group_IT_number 56
_symmetry_cell_setting 'orthorhombic'
loop_
_space_group_symop_operation_xyz
x,y,z
1/2-x,1/2-y,z
1/2+x,-y,1/2-z
-x,1/2+y,1/2-z
-x,-y,-z
1/2+x,1/2+y,-z
1/2-x,y,1/2+z
x,1/2-y,1/2+z
loop_
_atom_site_type_symbol
_atom_site_label
_atom_site_fract_x
_atom_site_fract_y
_atom_site_fract_z
Si Si1 0.250000 0.250000 0.843967
Si Si2 0.534118 0.829148 0.296444
Si Si3 0.480361 0.814986 0.415934
Si Si4 0.750000 0.750000 0.484400
Si Si5 0.690580 0.990464 0.070583
Si Si6 0.673516 0.949586 0.748731
O O1 0.161088 0.374800 0.880120
O O2 0.146832 0.147201 0.805444
O O3 0.518363 0.858186 0.357059
O O4 0.661351 0.944141 0.271481
O O5 0.568622 0.641473 0.289970
O O6 0.384106 0.872230 0.264398
O O7 0.627999 0.838938 0.449309
O O8 0.357190 0.942422 0.432783
O O9 0.425358 0.633506 0.424204
O O10 0.667257 0.615168 0.518903
#
# Coordination Sequence:
#
# PCOD8228948 Si02
#       6
#     4   8   8   4   8   8
#     4   9  18  39  54  84 112 155 202 225 278 362
#     4  10  22  37  60  87 120 159 194 243 282 353
#     4  11  22  39  61  91 117 155 202 241 300 350
#     4  11  22  41  60  90 122 143 202 259 292 346
#     4  10  22  37  66  81 115 165 192 239 304 360
#     4  10  22  37  58  86 121 158 195 237 292 337
#
# _framework density 20.570270000000001
#
# number of rings (size 3 to 8) (size 9 to 14) (size 15 to 20)
#    0.000    2.000    2.000    2.400    5.600    0.800 
#    0.000    0.000    0.000    0.000    0.000    0.000 
#    0.000    0.000    0.000    0.000    0.000    0.000 
#
# Total GULP energy -495667.702930 kJ/mol
# GULP energy per Si atom -12391.692573 kJ/mol
# Density = 2.052345 g / cm^3
# Si number density = 20.570270 Si / 1000 Ang^3
#
#
#
# Elastic Constant Matrix: (Units=GPa)
#
#
# Indices 1 2 3 4 5 6 
#
# 1 70.2530 13.1860 35.8751 0.0000 0.0000 0.0000
# 2 13.1860 42.4607 9.7790 0.0000 0.0000 0.0000
# 3 35.8751 9.7790 93.4365 0.0000 0.0000 0.0000
# 4 0.0000 0.0000 0.0000 18.7443 0.0000 0.0000
# 5 0.0000 0.0000 0.0000 0.0000 25.3121 0.0000
# 6 0.0000 0.0000 0.0000 0.0000 0.0000 36.9552
#
#
#
# Elastic Compliance Matrix: (Units=1/GPa)
#
#
# Indices 1 2 3 4 5 6 
#
# 1 0.018405 -0.004189 -0.006628 0.000000 0.000000 0.000000
# 2 -0.004189 0.025086 -0.001017 0.000000 0.000000 0.000000
# 3 -0.006628 -0.001017 0.013354 0.000000 0.000000 0.000000
# 4 0.000000 0.000000 0.000000 0.053350 0.000000 0.000000
# 5 0.000000 0.000000 0.000000 0.000000 0.039507 0.000000
# 6 0.000000 0.000000 0.000000 0.000000 0.000000 0.027060
#
#
# Mechanical properties :
#
#
# Convention : Reuss Voigt Hill
#
# Bulk Modulus (GPa) = 30.14188 35.98115 33.06152
# Shear Modulus (GPa) = 23.64183 26.02300 24.83241
#
# Velocity S-wave (km/s) = 3.39384 3.56065 3.47825
# Velocity P-wave (km/s) = 5.48110 5.86806 5.67788
#
# Compressibility (1/GPa) = 0.03317643
#
# Stress axis : x y z
#
# Youngs Moduli (GPa) = 54.33211 39.86228 74.88470
#
# Poissons Ratio (x) = 0.16699 0.49636
# Poissons Ratio (y) = 0.22761 0.07617
# Poissons Ratio (z) = 0.36013 0.04054
#
# Static dielectric constant tensor:
#      x y z
#    x 3.538230 0.000000 0.000000 
#    y 0.000000 3.789770 0.000000 
#    z 0.000000 0.000000 3.817440 
# 
# 
# High freq. dielectric constant tensor:
#      x y z
#    x 1.786500 0.000000 0.000000 
#    y 0.000000 1.801410 0.000000 
#    z 0.000000 0.000000 1.814650 
# 
# From -- ./inp_files/21991.got.cif
#   From: 2010.03.12/outbox.cif.g09.slc.cpg/sg56_11_cif.got.tgz:21991.got - 2010.04.16 15:33:40.
