data_PCOD8228231
_publ_section_title
;
Structure prediction by ZEFSAII (Michael W. Deem and Ramdas Pophale) SiO2 
 PCOD8228231
Probable space group: P C C N
;
_chemical_formula_sum "Si O2"
_cell_formula_units_Z 48
_cell_length_a 8.993579
_cell_length_b 17.385402
_cell_length_c 14.608156
_cell_angle_alpha 90.000000
_cell_angle_beta 90.000000
_cell_angle_gamma 90.000000
_cell_volume 2284.087248
_symmetry_space_group_name_H-M "P C C N"
_symmetry_group_IT_number 56
_symmetry_cell_setting 'orthorhombic'
loop_
_space_group_symop_operation_xyz
x,y,z
1/2-x,1/2-y,z
1/2+x,-y,1/2-z
-x,1/2+y,1/2-z
-x,-y,-z
1/2+x,1/2+y,-z
1/2-x,y,1/2+z
x,1/2-y,1/2+z
loop_
_atom_site_type_symbol
_atom_site_label
_atom_site_fract_x
_atom_site_fract_y
_atom_site_fract_z
Si Si1 0.415952 0.728155 0.901111
Si Si2 0.600263 0.431635 0.187007
Si Si3 0.880847 0.808112 0.069518
Si Si4 0.374551 0.187240 0.222449
Si Si5 0.333184 0.021505 0.476223
Si Si6 0.763871 0.975608 0.826384
O O1 0.250000 0.750000 0.925439
O O2 0.425343 0.658430 0.828284
O O3 0.494035 0.800161 0.850947
O O4 0.486635 0.705401 0.998278
O O5 0.708647 0.464466 0.106464
O O6 0.440709 0.474068 0.191303
O O7 0.689983 0.449645 0.279650
O O8 0.750000 0.750000 0.045778
O O9 0.935785 0.799577 0.174387
O O10 0.813478 0.892114 0.057642
O O11 0.250000 0.250000 0.198405
O O12 0.310230 0.102006 0.211435
O O13 0.230809 0.011861 0.565842
O O14 0.500000 0.000000 0.500000
#
# Coordination Sequence:
#
# PCOD8228231 Si02
#       6
#     8   8   8   8   8   8
#     4  12  26  42  62  99 141 172 221 275 335 401
#     4  11  24  42  64  98 128 177 219 272 340 393
#     4  11  22  41  70  94 124 179 227 268 336 400
#     4  11  22  43  70  92 124 177 228 273 324 401
#     4  10  19  39  66  87 125 171 210 266 330 396
#     4  11  22  41  70  94 129 168 223 271 335 397
#
# _framework density 21.014959999999999
#
# number of rings (size 3 to 8) (size 9 to 14) (size 15 to 20)
#    0.000    1.000    6.667    1.500    2.333    0.667 
#    3.000    0.833    0.000    0.000    0.000    0.000 
#    0.000    0.000    0.000    0.000    0.000    0.000 
#
# Total GULP energy -595171.853350 kJ/mol
# GULP energy per Si atom -12399.413611 kJ/mol
# Density = 2.096713 g / cm^3
# Si number density = 21.014960 Si / 1000 Ang^3
#
#
#
# Elastic Constant Matrix: (Units=GPa)
#
#
# Indices 1 2 3 4 5 6 
#
# 1 75.0469 18.5248 43.6463 0.0000 0.0000 0.0000
# 2 18.5248 69.8385 23.7498 0.0000 0.0000 0.0000
# 3 43.6463 23.7498 127.0038 0.0000 0.0000 0.0000
# 4 0.0000 0.0000 0.0000 35.1891 0.0000 0.0000
# 5 0.0000 0.0000 0.0000 0.0000 21.9395 0.0000
# 6 0.0000 0.0000 0.0000 0.0000 0.0000 29.6740
#
#
#
# Elastic Compliance Matrix: (Units=1/GPa)
#
#
# Indices 1 2 3 4 5 6 
#
# 1 0.017122 -0.002713 -0.005377 0.000000 0.000000 0.000000
# 2 -0.002713 0.015721 -0.002007 0.000000 0.000000 0.000000
# 3 -0.005377 -0.002007 0.010097 0.000000 0.000000 0.000000
# 4 0.000000 0.000000 0.000000 0.028418 0.000000 0.000000
# 5 0.000000 0.000000 0.000000 0.000000 0.045580 0.000000
# 6 0.000000 0.000000 0.000000 0.000000 0.000000 0.033700
#
#
# Mechanical properties :
#
#
# Convention : Reuss Voigt Hill
#
# Bulk Modulus (GPa) = 43.96542 49.30345 46.63444
# Shear Modulus (GPa) = 28.02479 29.75840 28.89159
#
# Velocity S-wave (km/s) = 3.65576 3.76714 3.71187
# Velocity P-wave (km/s) = 6.22783 6.51412 6.37259
#
# Compressibility (1/GPa) = 0.02274515
#
# Stress axis : x y z
#
# Youngs Moduli (GPa) = 58.40522 63.60884 99.03977
#
# Poissons Ratio (x) = 0.17258 0.53251
# Poissons Ratio (y) = 0.15846 0.19882
# Poissons Ratio (z) = 0.31403 0.12769
#
# Static dielectric constant tensor:
#      x y z
#    x 3.611780 0.000000 0.000000 
#    y 0.000000 3.821730 0.000000 
#    z 0.000000 0.000000 4.679880 
# 
# 
# High freq. dielectric constant tensor:
#      x y z
#    x 1.796350 0.000000 0.000000 
#    y 0.000000 1.825440 0.000000 
#    z 0.000000 0.000000 1.840090 
# 
# From -- ./inp_files/10627.got.cif
#   From: 2010.03.12/outbox.cif.g09.slc.cpg/sg56_6_cif.got.tgz:10627.got - 2010.04.16 15:33:40.
