data_PCOD8228199
_publ_section_title
;
Structure prediction by ZEFSAII (Michael W. Deem and Ramdas Pophale) SiO2 
 PCOD8228199
Probable space group: P C C N
;
_chemical_formula_sum "Si O2"
_cell_formula_units_Z 40
_cell_length_a 9.927493
_cell_length_b 8.836200
_cell_length_c 18.575416
_cell_angle_alpha 90.000000
_cell_angle_beta 90.000000
_cell_angle_gamma 90.000000
_cell_volume 1629.459893
_symmetry_space_group_name_H-M "P C C N"
_symmetry_group_IT_number 56
_symmetry_cell_setting 'orthorhombic'
loop_
_space_group_symop_operation_xyz
x,y,z
1/2-x,1/2-y,z
1/2+x,-y,1/2-z
-x,1/2+y,1/2-z
-x,-y,-z
1/2+x,1/2+y,-z
1/2-x,y,1/2+z
x,1/2-y,1/2+z
loop_
_atom_site_type_symbol
_atom_site_label
_atom_site_fract_x
_atom_site_fract_y
_atom_site_fract_z
Si Si1 0.440355 0.843200 0.972567
Si Si2 0.592168 0.749375 0.336778
Si Si3 0.769953 0.987390 0.628347
Si Si4 0.579416 0.443662 0.758749
Si Si5 0.019635 0.283177 0.385943
O O1 0.537924 0.755281 0.917865
O O2 0.299403 0.882933 0.931960
O O3 0.429656 0.732980 0.041836
O O4 0.500000 0.000000 0.000000
O O5 0.750000 0.750000 0.341188
O O6 0.543605 0.600418 0.294458
O O7 0.541941 0.896898 0.294710
O O8 0.783326 0.054745 0.710021
O O9 0.889032 0.862939 0.627856
O O10 0.622813 0.925434 0.610972
O O11 0.586685 0.316896 0.822007
#
# Coordination Sequence:
#
# PCOD8228199 Si02
#       5
#     8   8   8   8   8
#     4   9  21  38  66  96 132 175 221 279 330 410
#     4  11  24  42  68  97 132 178 224 274 343 399
#     4   9  19  37  63  96 127 174 216 270 340 393
#     4  11  21  39  65  96 132 170 227 275 327 406
#     4  10  19  37  68  89 130 174 221 266 342 398
#
# _framework density 24.548010999999999
#
# number of rings (size 3 to 8) (size 9 to 14) (size 15 to 20)
#    0.000    2.000    2.000    1.200    5.600    0.800 
#    0.000    9.000    4.400    0.000    0.000    0.000 
#    0.000    0.000    0.000    0.000    0.000    0.000 
#
# Total GULP energy -495665.981284 kJ/mol
# GULP energy per Si atom -12391.649532 kJ/mol
# Density = 2.449214 g / cm^3
# Si number density = 24.548011 Si / 1000 Ang^3
#
#
#
# Elastic Constant Matrix: (Units=GPa)
#
#
# Indices 1 2 3 4 5 6 
#
# 1 33.7272 18.3691 31.5386 0.0000 0.0000 0.0000
# 2 18.3691 54.9448 48.1714 0.0000 0.0000 0.0000
# 3 31.5386 48.1714 208.8899 0.0000 0.0000 0.0000
# 4 0.0000 0.0000 0.0000 56.3248 0.0000 0.0000
# 5 0.0000 0.0000 0.0000 0.0000 18.6310 0.0000
# 6 0.0000 0.0000 0.0000 0.0000 0.0000 32.8319
#
#
#
# Elastic Compliance Matrix: (Units=1/GPa)
#
#
# Indices 1 2 3 4 5 6 
#
# 1 0.038231 -0.009677 -0.003541 0.000000 0.000000 0.000000
# 2 -0.009677 0.025262 -0.004364 0.000000 0.000000 0.000000
# 3 -0.003541 -0.004364 0.006328 0.000000 0.000000 0.000000
# 4 0.000000 0.000000 0.000000 0.017754 0.000000 0.000000
# 5 0.000000 0.000000 0.000000 0.000000 0.053674 0.000000
# 6 0.000000 0.000000 0.000000 0.000000 0.000000 0.030458
#
#
# Mechanical properties :
#
#
# Convention : Reuss Voigt Hill
#
# Bulk Modulus (GPa) = 28.85461 54.85781 41.85621
# Shear Modulus (GPa) = 22.89123 34.85640 28.87382
#
# Velocity S-wave (km/s) = 3.05701 3.77228 3.43332
# Velocity P-wave (km/s) = 4.92345 6.43188 5.72754
#
# Compressibility (1/GPa) = 0.03465651
#
# Stress axis : x y z
#
# Youngs Moduli (GPa) = 26.15674 39.58547 158.02182
#
# Poissons Ratio (x) = 0.38308 0.55948
# Poissons Ratio (y) = 0.25313 0.68968
# Poissons Ratio (z) = 0.09261 0.17277
#
# Static dielectric constant tensor:
#      x y z
#    x 3.937890 0.000000 0.000000 
#    y 0.000000 5.031260 0.000000 
#    z 0.000000 0.000000 5.092070 
# 
# 
# High freq. dielectric constant tensor:
#      x y z
#    x 1.938620 0.000000 0.000000 
#    y 0.000000 1.981550 0.000000 
#    z 0.000000 0.000000 1.996770 
# 
# From -- ./inp_files/15391.got.cif
#   From: 2010.03.12/outbox.cif.g09.slc.cpg/sg56_8_cif.got.tgz:15391.got - 2010.04.16 15:33:40.
