data_PCOD8228348
_publ_section_title
;
Structure prediction by ZEFSAII (Michael W. Deem and Ramdas Pophale) SiO2 
 PCOD8228348
Probable space group: P C C N
;
_chemical_formula_sum "Si O2"
_cell_formula_units_Z 52
_cell_length_a 17.382124
_cell_length_b 15.476596
_cell_length_c 8.790269
_cell_angle_alpha 90.000000
_cell_angle_beta 90.000000
_cell_angle_gamma 90.000000
_cell_volume 2364.723979
_symmetry_space_group_name_H-M "P C C N"
_symmetry_group_IT_number 56
_symmetry_cell_setting 'orthorhombic'
loop_
_space_group_symop_operation_xyz
x,y,z
1/2-x,1/2-y,z
1/2+x,-y,1/2-z
-x,1/2+y,1/2-z
-x,-y,-z
1/2+x,1/2+y,-z
1/2-x,y,1/2+z
x,1/2-y,1/2+z
loop_
_atom_site_type_symbol
_atom_site_label
_atom_site_fract_x
_atom_site_fract_y
_atom_site_fract_z
Si Si1 0.250000 0.250000 0.397717
Si Si2 0.932631 0.533673 0.195163
Si Si3 0.413014 0.864376 0.194564
Si Si4 0.342306 0.469533 0.614766
Si Si5 0.975302 0.866776 0.248067
Si Si6 0.311040 0.368298 0.143520
Si Si7 0.035665 0.729430 0.474460
O O1 0.301058 0.314057 0.298039
O O2 0.189170 0.302488 0.502071
O O3 0.955369 0.435632 0.234398
O O4 0.891389 0.579686 0.339935
O O5 0.008374 0.586175 0.148500
O O6 0.874053 0.535080 0.055505
O O7 0.413050 0.833039 0.368737
O O8 0.343135 0.931208 0.172889
O O9 0.405323 0.783615 0.079949
O O10 0.392315 0.410349 0.729448
O O11 0.255504 0.438580 0.620129
O O12 0.982813 0.789770 0.369425
O O13 0.979123 0.827600 0.078994
#
# Coordination Sequence:
#
# PCOD8228348 Si02
#       7
#     4   8   8   8   8   8   8
#     4  10  24  40  52  90 112 158 184 236 260 368
#     4  11  21  40  58  86 114 161 187 240 279 357
#     4  10  21  37  63  86 119 143 199 233 295 334
#     4  11  21  40  58  86 114 161 187 240 279 357
#     4  10  21  37  63  86 119 143 199 233 295 334
#     4  11  24  38  60  77 124 150 194 221 294 328
#     4  10  20  35  60  96 110 151 180 256 286 335
#
# _framework density 21.989881
#
# number of rings (size 3 to 8) (size 9 to 14) (size 15 to 20)
#    0.000    1.538    4.615    0.923    0.000   12.308 
#    0.000    0.000    0.000    5.538    0.000    0.000 
#    0.000    0.000    0.000    0.000    0.000    0.000 
#
# Total GULP energy -644985.684537 kJ/mol
# GULP energy per Si atom -12403.570856 kJ/mol
# Density = 2.193983 g / cm^3
# Si number density = 21.989881 Si / 1000 Ang^3
#
#
#
# Elastic Constant Matrix: (Units=GPa)
#
#
# Indices 1 2 3 4 5 6 
#
# 1 40.8750 5.1736 -10.2585 0.0000 0.0000 0.0000
# 2 5.1736 90.7454 28.3604 0.0000 0.0000 0.0000
# 3 -10.2585 28.3604 104.1048 0.0000 0.0000 0.0000
# 4 0.0000 0.0000 0.0000 29.9812 0.0000 0.0000
# 5 0.0000 0.0000 0.0000 0.0000 16.6856 0.0000
# 6 0.0000 0.0000 0.0000 0.0000 0.0000 12.5913
#
#
#
# Elastic Compliance Matrix: (Units=1/GPa)
#
#
# Indices 1 2 3 4 5 6 
#
# 1 0.025576 -0.002455 0.003189 0.000000 0.000000 0.000000
# 2 -0.002455 0.012281 -0.003587 0.000000 0.000000 0.000000
# 3 0.003189 -0.003587 0.010897 0.000000 0.000000 0.000000
# 4 0.000000 0.000000 0.000000 0.033354 0.000000 0.000000
# 5 0.000000 0.000000 0.000000 0.000000 0.059932 0.000000
# 6 0.000000 0.000000 0.000000 0.000000 0.000000 0.079420
#
#
# Mechanical properties :
#
#
# Convention : Reuss Voigt Hill
#
# Bulk Modulus (GPa) = 23.23013 31.36401 27.29707
# Shear Modulus (GPa) = 20.70257 26.01494 23.35875
#
# Velocity S-wave (km/s) = 3.07165 3.44327 3.26275
# Velocity P-wave (km/s) = 4.81321 5.48653 5.16086
#
# Compressibility (1/GPa) = 0.04304754
#
# Stress axis : x y z
#
# Youngs Moduli (GPa) = 39.09935 81.42668 91.76625
#
# Poissons Ratio (x) = 0.19988 -0.29264
# Poissons Ratio (y) = 0.09598 0.32921
# Poissons Ratio (z) = -0.12469 0.29212
#
# Static dielectric constant tensor:
#      x y z
#    x 3.421050 0.000000 0.000000 
#    y 0.000000 4.422260 0.000000 
#    z 0.000000 0.000000 4.105860 
# 
# 
# High freq. dielectric constant tensor:
#      x y z
#    x 1.812590 0.000000 0.000000 
#    y 0.000000 1.881840 0.000000 
#    z 0.000000 0.000000 1.880110 
# 
# From -- ./inp_files/4442.got.cif
#   From: 2010.03.12/outbox.cif.g09.slc.cpg/sg56_3_cif.got.tgz:4442.got - 2010.04.16 15:33:40.
