data_PCOD8228705
_publ_section_title
;
Structure prediction by ZEFSAII (Michael W. Deem and Ramdas Pophale) SiO2 
 PCOD8228705
Probable space group: P C C N
;
_chemical_formula_sum "Si O2"
_cell_formula_units_Z 48
_cell_length_a 9.083272
_cell_length_b 26.325017
_cell_length_c 9.993325
_cell_angle_alpha 90.000000
_cell_angle_beta 90.000000
_cell_angle_gamma 90.000000
_cell_volume 2389.576790
_symmetry_space_group_name_H-M "P C C N"
_symmetry_group_IT_number 56
_symmetry_cell_setting 'orthorhombic'
loop_
_space_group_symop_operation_xyz
x,y,z
1/2-x,1/2-y,z
1/2+x,-y,1/2-z
-x,1/2+y,1/2-z
-x,-y,-z
1/2+x,1/2+y,-z
1/2-x,y,1/2+z
x,1/2-y,1/2+z
loop_
_atom_site_type_symbol
_atom_site_label
_atom_site_fract_x
_atom_site_fract_y
_atom_site_fract_z
Si Si1 0.322840 0.802603 0.611503
Si Si2 0.349550 0.858975 0.341457
Si Si3 0.360540 0.523970 0.830599
Si Si4 0.313035 0.355914 0.130531
Si Si5 0.804260 0.972007 0.901177
Si Si6 0.163692 0.199286 0.859903
O O1 0.250000 0.750000 0.565938
O O2 0.309356 0.842992 0.492221
O O3 0.242398 0.825009 0.740177
O O4 0.490674 0.790978 0.648492
O O5 0.308524 0.917790 0.324279
O O6 0.521705 0.850213 0.313942
O O7 0.534864 0.517277 0.842529
O O8 0.316540 0.495694 0.695747
O O9 0.280498 0.497585 0.955298
O O10 0.277971 0.412351 0.080670
O O11 0.201703 0.342972 0.249540
O O12 0.285800 0.318716 0.006012
O O13 0.250000 0.250000 0.821451
#
# Coordination Sequence:
#
# PCOD8228705 Si02
#       6
#     8   8   8   8   8   8
#     4  11  23  39  60  85 114 149 189 234 284 337
#     4  10  22  39  59  85 116 150 189 233 281 335
#     4  10  21  38  59  85 117 150 188 234 281 332
#     4  10  22  39  59  85 116 150 189 233 281 335
#     4  10  21  38  59  85 117 150 188 234 281 332
#     4  11  23  39  60  85 114 149 189 234 284 337
#
# _framework density 20.087240000000001
#
# number of rings (size 3 to 8) (size 9 to 14) (size 15 to 20)
#    0.000    1.667    0.000    4.000    0.000   10.000 
#    0.000    0.000    0.000    0.000    0.000    0.000 
#    0.000    0.000    0.000    0.000    0.000    0.000 
#
# Total GULP energy -595554.831185 kJ/mol
# GULP energy per Si atom -12407.392316 kJ/mol
# Density = 2.004152 g / cm^3
# Si number density = 20.087240 Si / 1000 Ang^3
#
#
#
# Elastic Constant Matrix: (Units=GPa)
#
#
# Indices 1 2 3 4 5 6 
#
# 1 56.6323 27.2578 22.4792 0.0000 0.0000 0.0000
# 2 27.2578 88.9621 11.3693 0.0000 0.0000 0.0000
# 3 22.4792 11.3693 61.3739 0.0000 0.0000 0.0000
# 4 0.0000 0.0000 0.0000 38.5353 0.0000 0.0000
# 5 0.0000 0.0000 0.0000 0.0000 31.7002 0.0000
# 6 0.0000 0.0000 0.0000 0.0000 0.0000 29.7838
#
#
#
# Elastic Compliance Matrix: (Units=1/GPa)
#
#
# Indices 1 2 3 4 5 6 
#
# 1 0.023664 -0.006292 -0.007502 0.000000 0.000000 0.000000
# 2 -0.006292 0.013186 -0.000138 0.000000 0.000000 0.000000
# 3 -0.007502 -0.000138 0.019067 0.000000 0.000000 0.000000
# 4 0.000000 0.000000 0.000000 0.025950 0.000000 0.000000
# 5 0.000000 0.000000 0.000000 0.000000 0.031546 0.000000
# 6 0.000000 0.000000 0.000000 0.000000 0.000000 0.033575
#
#
# Mechanical properties :
#
#
# Convention : Reuss Voigt Hill
#
# Bulk Modulus (GPa) = 35.64645 36.57566 36.11106
# Shear Modulus (GPa) = 27.14406 29.72801 28.43603
#
# Velocity S-wave (km/s) = 3.68000 3.85118 3.76656
# Velocity P-wave (km/s) = 5.98673 6.16631 6.07718
#
# Compressibility (1/GPa) = 0.02805329
#
# Stress axis : x y z
#
# Youngs Moduli (GPa) = 42.25867 75.83683 52.44718
#
# Poissons Ratio (x) = 0.47715 0.39344
# Poissons Ratio (y) = 0.26588 0.00725
# Poissons Ratio (z) = 0.31701 0.01048
#
# Static dielectric constant tensor:
#      x y z
#    x 3.599100 0.000000 0.000000 
#    y 0.000000 3.991540 0.000000 
#    z 0.000000 0.000000 3.702850 
# 
# 
# High freq. dielectric constant tensor:
#      x y z
#    x 1.780430 0.000000 0.000000 
#    y 0.000000 1.799810 0.000000 
#    z 0.000000 0.000000 1.792030 
# 
# From -- ./inp_files/2217.got.cif
#   From: 2010.03.12/outbox.cif.g09.slc.cpg/sg56_2_cif.got.tgz:2217.got - 2010.04.16 15:33:40.
