data_PCOD8228434
_publ_section_title
;
Structure prediction by ZEFSAII (Michael W. Deem and Ramdas Pophale) SiO2 
 PCOD8228434
Probable space group: P C C N
;
_chemical_formula_sum "Si O2"
_cell_formula_units_Z 64
_cell_length_a 17.274868
_cell_length_b 10.377643
_cell_length_c 18.418682
_cell_angle_alpha 90.000000
_cell_angle_beta 90.000000
_cell_angle_gamma 90.000000
_cell_volume 3301.961566
_symmetry_space_group_name_H-M "P C C N"
_symmetry_group_IT_number 56
_symmetry_cell_setting 'orthorhombic'
loop_
_space_group_symop_operation_xyz
x,y,z
1/2-x,1/2-y,z
1/2+x,-y,1/2-z
-x,1/2+y,1/2-z
-x,-y,-z
1/2+x,1/2+y,-z
1/2-x,y,1/2+z
x,1/2-y,1/2+z
loop_
_atom_site_type_symbol
_atom_site_label
_atom_site_fract_x
_atom_site_fract_y
_atom_site_fract_z
Si Si1 0.397731 0.669041 0.211859
Si Si2 0.700991 0.865346 0.652018
Si Si3 0.262785 0.601228 0.112514
Si Si4 0.962447 0.756852 0.614969
Si Si5 0.049147 0.380709 0.025226
Si Si6 0.270520 0.106775 0.003878
Si Si7 0.492965 0.536843 0.329670
Si Si8 0.147119 0.947845 0.730623
O O1 0.333061 0.589403 0.169001
O O2 0.465075 0.691443 0.153218
O O3 0.424164 0.592835 0.282236
O O4 0.361971 0.797213 0.247210
O O5 0.750000 0.750000 0.689520
O O6 0.614900 0.818359 0.634412
O O7 0.747008 0.907165 0.580029
O O8 0.697477 0.985837 0.706410
O O9 0.250000 0.750000 0.087117
O O10 0.277375 0.505829 0.044973
O O11 0.187590 0.543055 0.152193
O O12 0.971261 0.757624 0.526452
O O13 0.958231 0.905974 0.637980
O O14 0.138917 0.416478 0.015477
O O15 0.023270 0.360729 0.109205
O O16 0.000000 0.500000 0.000000
O O17 0.250000 0.250000 0.033281
O O18 0.563950 0.514238 0.274983
#
# Coordination Sequence:
#
# PCOD8228434 Si02
#       8
#     8   8   8   8   8   8   8   8
#     4  10  22  41  62  88 126 161 209 265 309 374
#     4  11  22  38  62  91 132 157 205 267 321 363
#     4  10  23  43  64  85 127 173 209 255 324 384
#     4  10  20  39  59  89 124 164 199 257 318 371
#     4  10  20  37  64  89 120 167 210 250 312 386
#     4  11  22  42  63  95 129 162 211 265 310 381
#     4  10  20  38  64  87 120 161 215 246 309 384
#     4  10  21  40  61  88 122 163 205 255 313 376
#
# _framework density 19.382418999999999
#
# number of rings (size 3 to 8) (size 9 to 14) (size 15 to 20)
#    0.000    1.750    5.000    0.000    3.500    0.500 
#    6.750    2.500    0.000    0.000    0.000    0.000 
#    0.000    0.000    0.000    0.000    0.000    0.000 
#
# Total GULP energy -793276.926894 kJ/mol
# GULP energy per Si atom -12394.951983 kJ/mol
# Density = 1.933830 g / cm^3
# Si number density = 19.382419 Si / 1000 Ang^3
#
#
#
# Elastic Constant Matrix: (Units=GPa)
#
#
# Indices 1 2 3 4 5 6 
#
# 1 81.6724 28.6482 18.8386 0.0000 0.0000 0.0000
# 2 28.6482 77.0893 48.4655 0.0000 0.0000 0.0000
# 3 18.8386 48.4655 87.4687 0.0000 0.0000 0.0000
# 4 0.0000 0.0000 0.0000 31.4583 0.0000 0.0000
# 5 0.0000 0.0000 0.0000 0.0000 27.8530 0.0000
# 6 0.0000 0.0000 0.0000 0.0000 0.0000 28.3458
#
#
#
# Elastic Compliance Matrix: (Units=1/GPa)
#
#
# Indices 1 2 3 4 5 6 
#
# 1 0.014082 -0.005105 -0.000204 0.000000 0.000000 0.000000
# 2 -0.005105 0.021757 -0.010956 0.000000 0.000000 0.000000
# 3 -0.000204 -0.010956 0.017547 0.000000 0.000000 0.000000
# 4 0.000000 0.000000 0.000000 0.031788 0.000000 0.000000
# 5 0.000000 0.000000 0.000000 0.000000 0.035903 0.000000
# 6 0.000000 0.000000 0.000000 0.000000 0.000000 0.035279
#
#
# Mechanical properties :
#
#
# Convention : Reuss Voigt Hill
#
# Bulk Modulus (GPa) = 47.94777 48.68167 48.31472
# Shear Modulus (GPa) = 25.53144 27.54996 26.54070
#
# Velocity S-wave (km/s) = 3.63333 3.77422 3.70444
# Velocity P-wave (km/s) = 6.51098 6.64559 6.57863
#
# Compressibility (1/GPa) = 0.02085603
#
# Stress axis : x y z
#
# Youngs Moduli (GPa) = 71.01404 45.96263 56.98913
#
# Poissons Ratio (x) = 0.23462 0.01165
# Poissons Ratio (y) = 0.36249 0.62436
# Poissons Ratio (z) = 0.01452 0.50356
#
# Static dielectric constant tensor:
#      x y z
#    x 3.647390 0.000000 0.000000 
#    y 0.000000 3.419870 0.000000 
#    z 0.000000 0.000000 3.859270 
# 
# 
# High freq. dielectric constant tensor:
#      x y z
#    x 1.768410 0.000000 0.000000 
#    y 0.000000 1.734140 0.000000 
#    z 0.000000 0.000000 1.753380 
# 
# From -- ./inp_files/16728.got.cif
#   From: 2010.03.12/outbox.cif.g09.slc.cpg/sg56_9_cif.got.tgz:16728.got - 2010.04.16 15:33:40.
