data_PCOD8228895
_publ_section_title
;
Structure prediction by ZEFSAII (Michael W. Deem and Ramdas Pophale) SiO2 
 PCOD8228895
Probable space group: P C C N
;
_chemical_formula_sum "Si O2"
_cell_formula_units_Z 48
_cell_length_a 8.383436
_cell_length_b 15.243304
_cell_length_c 17.854234
_cell_angle_alpha 90.000000
_cell_angle_beta 90.000000
_cell_angle_gamma 90.000000
_cell_volume 2281.615122
_symmetry_space_group_name_H-M "P C C N"
_symmetry_group_IT_number 56
_symmetry_cell_setting 'orthorhombic'
loop_
_space_group_symop_operation_xyz
x,y,z
1/2-x,1/2-y,z
1/2+x,-y,1/2-z
-x,1/2+y,1/2-z
-x,-y,-z
1/2+x,1/2+y,-z
1/2-x,y,1/2+z
x,1/2-y,1/2+z
loop_
_atom_site_type_symbol
_atom_site_label
_atom_site_fract_x
_atom_site_fract_y
_atom_site_fract_z
Si Si1 0.576155 0.917034 0.538307
Si Si2 0.572876 0.781753 0.243525
Si Si3 0.675436 0.558377 0.662739
Si Si4 0.157524 0.491659 0.189615
Si Si5 0.660636 0.659677 0.888683
Si Si6 0.345136 0.666077 0.157773
O O1 0.740180 0.943666 0.581424
O O2 0.595068 0.848128 0.471965
O O3 0.457789 0.871814 0.595125
O O4 0.500000 0.000000 0.500000
O O5 0.750000 0.750000 0.260917
O O6 0.587914 0.847685 0.173391
O O7 0.526042 0.832487 0.321763
O O8 0.452180 0.702361 0.227175
O O9 0.810553 0.543017 0.726214
O O10 0.531877 0.488354 0.671646
O O11 0.234668 0.427028 0.128730
O O12 0.225506 0.590863 0.185585
O O13 0.750000 0.750000 0.892255
O O14 0.250000 0.750000 0.125583
#
# Coordination Sequence:
#
# PCOD8228895 Si02
#       6
#     8   8   8   8   8   8
#     4  12  26  46  67  99 148 185 224 297 360 409
#     4  10  21  42  69  97 127 182 234 281 344 410
#     4  11  24  41  73  98 137 183 233 287 350 415
#     4  11  24  44  70 105 136 184 242 287 342 423
#     4  10  25  43  67  97 139 179 234 281 352 420
#     4  12  24  42  71 104 140 183 238 288 344 426
#
# _framework density 21.03773
#
# number of rings (size 3 to 8) (size 9 to 14) (size 15 to 20)
#    0.000    1.000    5.000    1.000    9.333    0.667 
#    3.000    0.833    0.000    0.000    0.000    0.000 
#    0.000    0.000    0.000    0.000    0.000    0.000 
#
# Total GULP energy -594768.652522 kJ/mol
# GULP energy per Si atom -12391.013594 kJ/mol
# Density = 2.098985 g / cm^3
# Si number density = 21.037730 Si / 1000 Ang^3
#
#
#
# Elastic Constant Matrix: (Units=GPa)
#
#
# Indices 1 2 3 4 5 6 
#
# 1 112.9099 32.9553 55.9316 0.0000 0.0000 0.0000
# 2 32.9553 119.5452 33.7351 0.0000 0.0000 0.0000
# 3 55.9316 33.7351 135.3413 0.0000 0.0000 0.0000
# 4 0.0000 0.0000 0.0000 41.0867 0.0000 0.0000
# 5 0.0000 0.0000 0.0000 0.0000 19.9265 0.0000
# 6 0.0000 0.0000 0.0000 0.0000 0.0000 38.4723
#
#
#
# Elastic Compliance Matrix: (Units=1/GPa)
#
#
# Indices 1 2 3 4 5 6 
#
# 1 0.011555 -0.001977 -0.004283 0.000000 0.000000 0.000000
# 2 -0.001977 0.009336 -0.001510 0.000000 0.000000 0.000000
# 3 -0.004283 -0.001510 0.009535 0.000000 0.000000 0.000000
# 4 0.000000 0.000000 0.000000 0.024339 0.000000 0.000000
# 5 0.000000 0.000000 0.000000 0.000000 0.050184 0.000000
# 6 0.000000 0.000000 0.000000 0.000000 0.000000 0.025993
#
#
# Mechanical properties :
#
#
# Convention : Reuss Voigt Hill
#
# Bulk Modulus (GPa) = 67.17254 68.11561 67.64407
# Shear Modulus (GPa) = 33.01563 36.24208 34.62886
#
# Velocity S-wave (km/s) = 3.96580 4.15507 4.06154
# Velocity P-wave (km/s) = 7.27798 7.44765 7.36331
#
# Compressibility (1/GPa) = 0.01488703
#
# Stress axis : x y z
#
# Youngs Moduli (GPa) = 86.54248 107.11026 104.87740
#
# Poissons Ratio (x) = 0.21175 0.44914
# Poissons Ratio (y) = 0.17109 0.15838
# Poissons Ratio (z) = 0.37062 0.16175
#
# Static dielectric constant tensor:
#      x y z
#    x 3.872190 0.000000 0.000000 
#    y 0.000000 4.142290 0.000000 
#    z 0.000000 0.000000 4.083640 
# 
# 
# High freq. dielectric constant tensor:
#      x y z
#    x 1.814510 0.000000 0.000000 
#    y 0.000000 1.844450 0.000000 
#    z 0.000000 0.000000 1.816930 
# 
# From -- ./inp_files/14837.got.cif
#   From: 2010.03.12/outbox.cif.g09.slc.cpg/sg56_8_cif.got.tgz:14837.got - 2010.04.16 15:33:40.
