data_PCOD8228066
_publ_section_title
;
Structure prediction by ZEFSAII (Michael W. Deem and Ramdas Pophale) SiO2 
 PCOD8228066
Probable space group: P C C N
;
_chemical_formula_sum "Si O2"
_cell_formula_units_Z 56
_cell_length_a 17.619530
_cell_length_b 6.175483
_cell_length_c 22.026941
_cell_angle_alpha 90.000000
_cell_angle_beta 90.000000
_cell_angle_gamma 90.000000
_cell_volume 2396.731802
_symmetry_space_group_name_H-M "P C C N"
_symmetry_group_IT_number 56
_symmetry_cell_setting 'orthorhombic'
loop_
_space_group_symop_operation_xyz
x,y,z
1/2-x,1/2-y,z
1/2+x,-y,1/2-z
-x,1/2+y,1/2-z
-x,-y,-z
1/2+x,1/2+y,-z
1/2-x,y,1/2+z
x,1/2-y,1/2+z
loop_
_atom_site_type_symbol
_atom_site_label
_atom_site_fract_x
_atom_site_fract_y
_atom_site_fract_z
Si Si1 0.944705 0.772930 0.435598
Si Si2 0.574553 0.882957 0.805279
Si Si3 0.353935 0.042137 0.311394
Si Si4 0.808626 0.468529 0.159276
Si Si5 0.504955 0.362508 0.874137
Si Si6 0.085853 0.479572 0.947235
Si Si7 0.919648 0.407625 0.257164
O O1 0.944925 0.518391 0.417838
O O2 0.914292 0.910861 0.377638
O O3 0.890083 0.846449 0.491724
O O4 0.031507 0.815126 0.459398
O O5 0.630119 0.021057 0.760083
O O6 0.596664 0.636319 0.788257
O O7 0.487509 0.928181 0.790033
O O8 0.327637 0.290540 0.317771
O O9 0.282193 0.911377 0.341407
O O10 0.433764 0.000137 0.346124
O O11 0.840132 0.447747 0.090544
O O12 0.851431 0.322356 0.211726
O O13 0.472752 0.163748 0.909508
O O14 0.556674 0.263777 0.817498
#
# Coordination Sequence:
#
# PCOD8228066 Si02
#       7
#     8   8   8   8   8   8   8
#     4  10  19  30  49  73  98 124 168 199 236 298
#     4   9  16  28  45  71  95 122 159 202 245 288
#     4   8  16  28  50  71  97 130 156 208 256 288
#     4   9  15  29  48  73  99 126 167 199 252 302
#     4   9  18  32  49  72  97 125 167 206 244 285
#     4  10  19  31  49  71  97 133 158 203 244 283
#     4   9  16  26  48  69  93 122 154 210 248 278
#
# _framework density 23.365151000000001
#
# number of rings (size 3 to 8) (size 9 to 14) (size 15 to 20)
#    0.000    2.857    1.429    1.286    0.000    0.000 
#    0.000    0.714    0.000   22.286    0.000    2.000 
#    0.000    0.000    0.000    0.000    0.000    0.000 
#
# Total GULP energy -693741.013377 kJ/mol
# GULP energy per Si atom -12388.232382 kJ/mol
# Density = 2.331197 g / cm^3
# Si number density = 23.365151 Si / 1000 Ang^3
#
#
#
# Elastic Constant Matrix: (Units=GPa)
#
#
# Indices 1 2 3 4 5 6 
#
# 1 90.5492 8.9643 52.0409 0.0000 0.0000 0.0000
# 2 8.9643 40.0729 23.3058 0.0000 0.0000 0.0000
# 3 52.0409 23.3058 159.5597 0.0000 0.0000 0.0000
# 4 0.0000 0.0000 0.0000 30.6249 0.0000 0.0000
# 5 0.0000 0.0000 0.0000 0.0000 33.8829 0.0000
# 6 0.0000 0.0000 0.0000 0.0000 0.0000 30.8268
#
#
#
# Elastic Compliance Matrix: (Units=1/GPa)
#
#
# Indices 1 2 3 4 5 6 
#
# 1 0.013601 -0.000506 -0.004362 0.000000 0.000000 0.000000
# 2 -0.000506 0.027290 -0.003821 0.000000 0.000000 0.000000
# 3 -0.004362 -0.003821 0.008248 0.000000 0.000000 0.000000
# 4 0.000000 0.000000 0.000000 0.032653 0.000000 0.000000
# 5 0.000000 0.000000 0.000000 0.000000 0.029513 0.000000
# 6 0.000000 0.000000 0.000000 0.000000 0.000000 0.032439
#
#
# Mechanical properties :
#
#
# Convention : Reuss Voigt Hill
#
# Bulk Modulus (GPa) = 31.48499 50.97821 41.23160
# Shear Modulus (GPa) = 29.11895 32.79162 30.95529
#
# Velocity S-wave (km/s) = 3.53406 3.75032 3.64380
# Velocity P-wave (km/s) = 5.49156 6.37327 5.94878
#
# Compressibility (1/GPa) = 0.03176117
#
# Stress axis : x y z
#
# Youngs Moduli (GPa) = 73.52522 36.64351 121.24028
#
# Poissons Ratio (x) = 0.01853 0.52886
# Poissons Ratio (y) = 0.03717 0.46328
# Poissons Ratio (z) = 0.32072 0.14002
#
# Static dielectric constant tensor:
#      x y z
#    x 4.495570 0.000000 0.000000 
#    y 0.000000 4.816950 0.000000 
#    z 0.000000 0.000000 4.609120 
# 
# 
# High freq. dielectric constant tensor:
#      x y z
#    x 1.864220 0.000000 0.000000 
#    y 0.000000 1.983560 0.000000 
#    z 0.000000 0.000000 1.925070 
# 
# From -- ./inp_files/18333.got.cif
#   From: 2010.03.12/outbox.cif.g09.slc.cpg/sg56_10_cif.got.tgz:18333.got - 2010.04.16 15:33:40.
