data_PCOD8228937
_publ_section_title
;
Structure prediction by ZEFSAII (Michael W. Deem and Ramdas Pophale) SiO2 
 PCOD8228937
Probable space group: P C C N
;
_chemical_formula_sum "Si O2"
_cell_formula_units_Z 48
_cell_length_a 5.938113
_cell_length_b 14.745006
_cell_length_c 26.608037
_cell_angle_alpha 90.000000
_cell_angle_beta 90.000000
_cell_angle_gamma 90.000000
_cell_volume 2329.733514
_symmetry_space_group_name_H-M "P C C N"
_symmetry_group_IT_number 56
_symmetry_cell_setting 'orthorhombic'
loop_
_space_group_symop_operation_xyz
x,y,z
1/2-x,1/2-y,z
1/2+x,-y,1/2-z
-x,1/2+y,1/2-z
-x,-y,-z
1/2+x,1/2+y,-z
1/2-x,y,1/2+z
x,1/2-y,1/2+z
loop_
_atom_site_type_symbol
_atom_site_label
_atom_site_fract_x
_atom_site_fract_y
_atom_site_fract_z
Si Si1 0.362756 0.154118 0.705309
Si Si2 0.410116 0.132162 0.298962
Si Si3 0.508642 0.574916 0.043102
Si Si4 0.250000 0.750000 0.255576
Si Si5 0.750000 0.250000 0.439399
Si Si6 0.279946 0.992078 0.642408
Si Si7 0.894027 0.626968 0.109905
O O1 0.250000 0.250000 0.695635
O O2 0.262583 0.103310 0.754859
O O3 0.635023 0.169857 0.710797
O O4 0.295525 0.097872 0.655632
O O5 0.545700 0.219487 0.279816
O O6 0.590198 0.054165 0.310836
O O7 0.285243 0.162282 0.349764
O O8 0.367333 0.667592 0.028751
O O9 0.402095 0.525869 0.090494
O O10 0.766397 0.599091 0.057980
O O11 0.500000 0.500000 0.000000
O O12 0.563210 0.291795 0.402614
O O13 0.023601 0.957917 0.635684
#
# Coordination Sequence:
#
# PCOD8228937 Si02
#       7
#     8   8   8   4   4   8   8
#     4  10  23  38  54  82 123 168 208 255 304 373
#     4  10  22  33  58  86 121 161 206 253 305 361
#     4  10  23  43  64  93 125 160 209 266 322 380
#     4  10  22  37  53  84 122 166 207 246 307 364
#     4  10  22  39  65  94 126 160 205 270 327 374
#     4  10  23  38  60  88 119 164 206 258 310 373
#     4  10  22  39  62  92 122 158 209 258 316 371
#
# _framework density 20.603214000000001
#
# number of rings (size 3 to 8) (size 9 to 14) (size 15 to 20)
#    0.000    2.000    0.000    1.500    4.667   26.667 
#    0.000    4.167    0.000    0.000    0.000    0.000 
#    0.000    0.000    0.000    0.000    0.000    0.000 
#
# Total GULP energy -594890.132575 kJ/mol
# GULP energy per Si atom -12393.544429 kJ/mol
# Density = 2.055632 g / cm^3
# Si number density = 20.603214 Si / 1000 Ang^3
#
#
#
# Elastic Constant Matrix: (Units=GPa)
#
#
# Indices 1 2 3 4 5 6 
#
# 1 132.5706 54.4213 38.9173 0.0000 0.0000 0.0000
# 2 54.4213 129.1350 61.1722 0.0000 0.0000 0.0000
# 3 38.9173 61.1722 74.5321 0.0000 0.0000 0.0000
# 4 0.0000 0.0000 0.0000 32.6821 0.0000 0.0000
# 5 0.0000 0.0000 0.0000 0.0000 19.2836 0.0000
# 6 0.0000 0.0000 0.0000 0.0000 0.0000 32.8804
#
#
#
# Elastic Compliance Matrix: (Units=1/GPa)
#
#
# Indices 1 2 3 4 5 6 
#
# 1 0.009448 -0.002691 -0.002725 0.000000 0.000000 0.000000
# 2 -0.002691 0.013436 -0.009623 0.000000 0.000000 0.000000
# 3 -0.002725 -0.009623 0.022738 0.000000 0.000000 0.000000
# 4 0.000000 0.000000 0.000000 0.030598 0.000000 0.000000
# 5 0.000000 0.000000 0.000000 0.000000 0.051858 0.000000
# 6 0.000000 0.000000 0.000000 0.000000 0.000000 0.030413
#
#
# Mechanical properties :
#
#
# Convention : Reuss Voigt Hill
#
# Bulk Modulus (GPa) = 64.32931 71.69549 68.01240
# Shear Modulus (GPa) = 25.80673 29.08434 27.44554
#
# Velocity S-wave (km/s) = 3.54299 3.76126 3.65375
# Velocity P-wave (km/s) = 6.93021 7.33052 7.13317
#
# Compressibility (1/GPa) = 0.01554501
#
# Stress axis : x y z
#
# Youngs Moduli (GPa) = 105.84708 74.42594 43.98014
#
# Poissons Ratio (x) = 0.20027 0.11983
# Poissons Ratio (y) = 0.28482 0.42321
# Poissons Ratio (z) = 0.28839 0.71618
#
# Static dielectric constant tensor:
#      x y z
#    x 4.517350 0.000000 0.000000 
#    y 0.000000 3.819880 0.000000 
#    z 0.000000 0.000000 3.411220 
# 
# 
# High freq. dielectric constant tensor:
#      x y z
#    x 1.827560 0.000000 0.000000 
#    y 0.000000 1.801090 0.000000 
#    z 0.000000 0.000000 1.765080 
# 
# From -- ./inp_files/21733.got.cif
#   From: 2010.03.12/outbox.cif.g09.slc.cpg/sg56_11_cif.got.tgz:21733.got - 2010.04.16 15:33:40.
