data_PCOD8228658
_publ_section_title
;
Structure prediction by ZEFSAII (Michael W. Deem and Ramdas Pophale) SiO2 
 PCOD8228658
Probable space group: P C C N
;
_chemical_formula_sum "Si O2"
_cell_formula_units_Z 40
_cell_length_a 8.534544
_cell_length_b 21.668499
_cell_length_c 9.046812
_cell_angle_alpha 90.000000
_cell_angle_beta 90.000000
_cell_angle_gamma 90.000000
_cell_volume 1673.033802
_symmetry_space_group_name_H-M "P C C N"
_symmetry_group_IT_number 56
_symmetry_cell_setting 'orthorhombic'
loop_
_space_group_symop_operation_xyz
x,y,z
1/2-x,1/2-y,z
1/2+x,-y,1/2-z
-x,1/2+y,1/2-z
-x,-y,-z
1/2+x,1/2+y,-z
1/2-x,y,1/2+z
x,1/2-y,1/2+z
loop_
_atom_site_type_symbol
_atom_site_label
_atom_site_fract_x
_atom_site_fract_y
_atom_site_fract_z
Si Si1 0.600255 0.039812 0.391891
Si Si2 0.600195 0.540175 0.391188
Si Si3 0.554571 0.828699 0.985359
Si Si4 0.819907 0.172149 0.998806
Si Si5 0.012305 0.744502 0.243313
O O1 0.503037 0.058394 0.248780
O O2 0.637191 0.101089 0.481569
O O3 0.500000 0.000000 0.500000
O O4 0.749250 0.998964 0.342463
O O5 0.500000 0.500000 0.500000
O O6 0.639346 0.604949 0.473020
O O7 0.366139 0.828144 0.989965
O O8 0.601005 0.787032 0.844100
O O9 0.603836 0.796932 0.140405
O O10 0.885870 0.198685 0.152817
O O11 0.877138 0.212707 0.860272
#
# Coordination Sequence:
#
# PCOD8228658 Si02
#       5
#     8   8   8   8   8
#     4  12  28  47  71 104 141 191 240 292 361 430
#     4  12  26  45  70 102 144 190 236 294 354 423
#     4  11  20  36  65 100 141 181 235 287 348 406
#     4  11  20  38  64 104 141 178 238 292 340 413
#     4  10  21  35  64 105 142 185 234 293 344 411
#
# _framework density 23.908662
#
# number of rings (size 3 to 8) (size 9 to 14) (size 15 to 20)
#    0.000    0.800    4.000    6.000    2.800    0.000 
#    0.000    0.000    0.000    7.200    0.000    0.000 
#    0.000    0.000    0.000    0.000    0.000    0.000 
#
# Total GULP energy -495887.390672 kJ/mol
# GULP energy per Si atom -12397.184767 kJ/mol
# Density = 2.385425 g / cm^3
# Si number density = 23.908662 Si / 1000 Ang^3
#
#
#
# Elastic Constant Matrix: (Units=GPa)
#
#
# Indices 1 2 3 4 5 6 
#
# 1 41.0895 27.1262 9.4807 0.0000 0.0000 0.0000
# 2 27.1262 210.1911 62.6973 0.0000 0.0000 0.0000
# 3 9.4807 62.6973 142.1541 0.0000 0.0000 0.0000
# 4 0.0000 0.0000 0.0000 45.9818 0.0000 0.0000
# 5 0.0000 0.0000 0.0000 0.0000 19.8897 0.0000
# 6 0.0000 0.0000 0.0000 0.0000 0.0000 24.3573
#
#
#
# Elastic Compliance Matrix: (Units=1/GPa)
#
#
# Indices 1 2 3 4 5 6 
#
# 1 0.026615 -0.003345 -0.000300 0.000000 0.000000 0.000000
# 2 -0.003345 0.005899 -0.002379 0.000000 0.000000 0.000000
# 3 -0.000300 -0.002379 0.008104 0.000000 0.000000 0.000000
# 4 0.000000 0.000000 0.000000 0.021748 0.000000 0.000000
# 5 0.000000 0.000000 0.000000 0.000000 0.050277 0.000000
# 6 0.000000 0.000000 0.000000 0.000000 0.000000 0.041055
#
#
# Mechanical properties :
#
#
# Convention : Reuss Voigt Hill
#
# Bulk Modulus (GPa) = 35.00143 65.78256 50.39199
# Shear Modulus (GPa) = 28.52771 37.65446 33.09108
#
# Velocity S-wave (km/s) = 3.45801 3.97284 3.72434
# Velocity P-wave (km/s) = 5.53310 6.97270 6.29419
#
# Compressibility (1/GPa) = 0.02857026
#
# Stress axis : x y z
#
# Youngs Moduli (GPa) = 37.57309 169.52560 123.40094
#
# Poissons Ratio (x) = 0.56714 0.03696
# Poissons Ratio (y) = 0.12570 0.29352
# Poissons Ratio (z) = 0.01125 0.40323
#
# Static dielectric constant tensor:
#      x y z
#    x 3.795530 0.000000 0.000000 
#    y 0.000000 4.040530 0.000000 
#    z 0.000000 0.000000 4.650140 
# 
# 
# High freq. dielectric constant tensor:
#      x y z
#    x 1.916830 0.000000 0.000000 
#    y 0.000000 1.972590 0.000000 
#    z 0.000000 0.000000 1.971220 
# 
# From -- ./inp_files/2071.got.cif
#   From: 2010.03.12/outbox.cif.g09.slc.cpg/sg56_2_cif.got.tgz:2071.got - 2010.04.16 15:33:40.
