data_PCOD8228071
_publ_section_title
;
Structure prediction by ZEFSAII (Michael W. Deem and Ramdas Pophale) SiO2 
 PCOD8228071
Probable space group: P C C N
;
_chemical_formula_sum "Si O2"
_cell_formula_units_Z 64
_cell_length_a 19.541898
_cell_length_b 11.961656
_cell_length_c 14.940369
_cell_angle_alpha 90.000000
_cell_angle_beta 90.000000
_cell_angle_gamma 90.000000
_cell_volume 3492.362969
_symmetry_space_group_name_H-M "P C C N"
_symmetry_group_IT_number 56
_symmetry_cell_setting 'orthorhombic'
loop_
_space_group_symop_operation_xyz
x,y,z
1/2-x,1/2-y,z
1/2+x,-y,1/2-z
-x,1/2+y,1/2-z
-x,-y,-z
1/2+x,1/2+y,-z
1/2-x,y,1/2+z
x,1/2-y,1/2+z
loop_
_atom_site_type_symbol
_atom_site_label
_atom_site_fract_x
_atom_site_fract_y
_atom_site_fract_z
Si Si1 0.068765 0.500504 0.442923
Si Si2 0.604254 0.726009 0.003676
Si Si3 0.435853 0.708731 0.685216
Si Si4 0.907328 0.856461 0.679311
Si Si5 0.916903 0.969640 0.261005
Si Si6 0.557944 0.239983 0.514009
Si Si7 0.941375 0.395121 0.173144
Si Si8 0.170769 0.274527 0.179817
O O1 0.121121 0.406281 0.480588
O O2 0.054386 0.466273 0.340254
O O3 0.095960 0.627446 0.450111
O O4 0.000000 0.500000 0.500000
O O5 0.523857 0.731646 0.983411
O O6 0.649415 0.773360 0.923672
O O7 0.623779 0.799896 0.090329
O O8 0.515980 0.685305 0.694035
O O9 0.396138 0.596244 0.713993
O O10 0.413864 0.736720 0.584598
O O11 0.416361 0.813081 0.747814
O O12 0.866972 0.823745 0.767865
O O13 0.900204 0.989582 0.675135
O O14 0.849721 0.893577 0.275631
O O15 0.977404 0.920150 0.322800
O O16 0.578202 0.341116 0.578373
O O17 0.250000 0.250000 0.189260
#
# Coordination Sequence:
#
# PCOD8228071 Si02
#       8
#     8   8   8   8   8   8   8   8
#     4  10  19  32  55  83 119 149 179 226 295 354
#     4  10  20  36  52  81 115 149 187 226 278 340
#     4  10  20  32  56  89 119 147 173 229 300 342
#     4  10  22  35  56  82 117 149 184 235 284 342
#     4  11  20  36  55  80 122 154 185 236 279 348
#     4  10  19  31  53  89 116 144 172 219 296 361
#     4  11  19  32  56  86 119 143 175 229 301 342
#     4  12  25  40  57  79 113 161 201 234 274 327
#
# _framework density 18.325700000000001
#
# number of rings (size 3 to 8) (size 9 to 14) (size 15 to 20)
#    0.000    1.500    5.000    1.500    8.750    2.000 
#    0.000    0.000    0.000    0.750    0.000    1.750 
#    0.000    0.000    0.000    0.000    0.000    0.000 
#
# Total GULP energy -793467.570032 kJ/mol
# GULP energy per Si atom -12397.930782 kJ/mol
# Density = 1.828399 g / cm^3
# Si number density = 18.325700 Si / 1000 Ang^3
#
#
#
# Elastic Constant Matrix: (Units=GPa)
#
#
# Indices 1 2 3 4 5 6 
#
# 1 37.6108 24.5484 18.0690 0.0000 0.0000 0.0000
# 2 24.5484 158.8691 51.9808 0.0000 0.0000 0.0000
# 3 18.0690 51.9808 118.0148 0.0000 0.0000 0.0000
# 4 0.0000 0.0000 0.0000 36.9653 0.0000 0.0000
# 5 0.0000 0.0000 0.0000 0.0000 11.3000 0.0000
# 6 0.0000 0.0000 0.0000 0.0000 0.0000 12.3758
#
#
#
# Elastic Compliance Matrix: (Units=1/GPa)
#
#
# Indices 1 2 3 4 5 6 
#
# 1 0.030469 -0.003717 -0.003028 0.000000 0.000000 0.000000
# 2 -0.003717 0.007808 -0.002870 0.000000 0.000000 0.000000
# 3 -0.003028 -0.002870 0.010201 0.000000 0.000000 0.000000
# 4 0.000000 0.000000 0.000000 0.027052 0.000000 0.000000
# 5 0.000000 0.000000 0.000000 0.000000 0.088496 0.000000
# 6 0.000000 0.000000 0.000000 0.000000 0.000000 0.080803
#
#
# Mechanical properties :
#
#
# Convention : Reuss Voigt Hill
#
# Bulk Modulus (GPa) = 34.19030 55.96568 45.07799
# Shear Modulus (GPa) = 18.26094 26.78799 22.52447
#
# Velocity S-wave (km/s) = 3.16011 3.82746 3.50968
# Velocity P-wave (km/s) = 5.65797 7.08084 6.40901
#
# Compressibility (1/GPa) = 0.02924806
#
# Stress axis : x y z
#
# Youngs Moduli (GPa) = 32.82024 128.07514 98.02820
#
# Poissons Ratio (x) = 0.47611 0.29680
# Poissons Ratio (y) = 0.12201 0.28133
# Poissons Ratio (z) = 0.09937 0.36756
#
# Static dielectric constant tensor:
#      x y z
#    x 2.713370 0.000000 0.000000 
#    y 0.000000 4.053340 0.000000 
#    z 0.000000 0.000000 3.572330 
# 
# 
# High freq. dielectric constant tensor:
#      x y z
#    x 1.621370 0.000000 0.000000 
#    y 0.000000 1.736440 0.000000 
#    z 0.000000 0.000000 1.731120 
# 
# From -- ./inp_files/12845.got.cif
#   From: 2010.03.12/outbox.cif.g09.slc.cpg/sg56_7_cif.got.tgz:12845.got - 2010.04.16 15:33:40.
