data_PCOD8228622
_publ_section_title
;
Structure prediction by ZEFSAII (Michael W. Deem and Ramdas Pophale) SiO2 
 PCOD8228622
Probable space group: P C C N
;
_chemical_formula_sum "Si O2"
_cell_formula_units_Z 64
_cell_length_a 14.301523
_cell_length_b 8.904583
_cell_length_c 24.486307
_cell_angle_alpha 90.000000
_cell_angle_beta 90.000000
_cell_angle_gamma 90.000000
_cell_volume 3118.309124
_symmetry_space_group_name_H-M "P C C N"
_symmetry_group_IT_number 56
_symmetry_cell_setting 'orthorhombic'
loop_
_space_group_symop_operation_xyz
x,y,z
1/2-x,1/2-y,z
1/2+x,-y,1/2-z
-x,1/2+y,1/2-z
-x,-y,-z
1/2+x,1/2+y,-z
1/2-x,y,1/2+z
x,1/2-y,1/2+z
loop_
_atom_site_type_symbol
_atom_site_label
_atom_site_fract_x
_atom_site_fract_y
_atom_site_fract_z
Si Si1 0.124969 0.379273 0.310463
Si Si2 0.030792 0.850145 0.528667
Si Si3 0.837712 0.340435 0.872397
Si Si4 0.248680 0.087978 0.705130
Si Si5 0.415897 0.865373 0.717777
Si Si6 0.348027 0.187423 0.916229
Si Si7 0.644883 0.292951 0.176821
Si Si8 0.349005 0.667447 0.431201
O O1 0.196261 0.369224 0.260775
O O2 0.138006 0.239606 0.352758
O O3 0.145446 0.533710 0.341478
O O4 0.023358 0.407061 0.285074
O O5 0.096398 0.897010 0.579241
O O6 0.091926 0.766235 0.482400
O O7 0.939497 0.756357 0.549256
O O8 0.000000 0.000000 0.500000
O O9 0.750000 0.250000 0.897761
O O10 0.807809 0.477894 0.834225
O O11 0.894192 0.222014 0.837142
O O12 0.250000 0.250000 0.674217
O O13 0.349418 0.013921 0.721080
O O14 0.409449 0.752121 0.768719
O O15 0.250000 0.250000 0.939475
O O16 0.340009 0.010881 0.926511
O O17 0.750000 0.250000 0.190263
O O18 0.599208 0.209187 0.125195
O O19 0.250000 0.750000 0.432842
#
# Coordination Sequence:
#
# PCOD8228622 Si02
#       8
#     8   8   8   8   8   8   8   8
#     4  12  24  39  65  95 135 171 217 270 328 401
#     4  10  22  43  69  96 125 177 231 272 336 393
#     4  10  20  44  69  87 133 177 219 272 335 399
#     4  11  25  39  61 102 137 172 220 263 328 402
#     4  11  23  41  64  97 130 184 213 268 340 401
#     4  11  23  42  66  97 131 172 219 281 335 387
#     4  11  21  41  62  92 136 170 219 269 327 397
#     4  10  23  41  69  97 130 176 224 274 336 399
#
# _framework density 20.523944
#
# number of rings (size 3 to 8) (size 9 to 14) (size 15 to 20)
#    0.000    1.250    3.750    2.625    3.500    2.000 
#    0.000    5.000    2.750    0.000    0.000    0.000 
#    0.000    0.000    0.000    0.000    0.000    0.000 
#
# Total GULP energy -792908.501950 kJ/mol
# GULP energy per Si atom -12389.195343 kJ/mol
# Density = 2.047723 g / cm^3
# Si number density = 20.523944 Si / 1000 Ang^3
#
#
#
# Elastic Constant Matrix: (Units=GPa)
#
#
# Indices 1 2 3 4 5 6 
#
# 1 128.4399 37.0770 60.8233 0.0000 0.0000 0.0000
# 2 37.0770 98.5863 25.2851 0.0000 0.0000 0.0000
# 3 60.8233 25.2851 119.7500 0.0000 0.0000 0.0000
# 4 0.0000 0.0000 0.0000 27.8868 0.0000 0.0000
# 5 0.0000 0.0000 0.0000 0.0000 29.5763 0.0000
# 6 0.0000 0.0000 0.0000 0.0000 0.0000 22.9645
#
#
#
# Elastic Compliance Matrix: (Units=1/GPa)
#
#
# Indices 1 2 3 4 5 6 
#
# 1 0.010959 -0.002848 -0.004965 0.000000 0.000000 0.000000
# 2 -0.002848 0.011464 -0.000974 0.000000 0.000000 0.000000
# 3 -0.004965 -0.000974 0.011078 0.000000 0.000000 0.000000
# 4 0.000000 0.000000 0.000000 0.035859 0.000000 0.000000
# 5 0.000000 0.000000 0.000000 0.000000 0.033811 0.000000
# 6 0.000000 0.000000 0.000000 0.000000 0.000000 0.043545
#
#
# Mechanical properties :
#
#
# Convention : Reuss Voigt Hill
#
# Bulk Modulus (GPa) = 62.78518 65.90521 64.34519
# Shear Modulus (GPa) = 29.48101 30.99158 30.23630
#
# Velocity S-wave (km/s) = 3.79413 3.89011 3.84242
# Velocity P-wave (km/s) = 7.06056 7.23591 7.14877
#
# Compressibility (1/GPa) = 0.01592733
#
# Stress axis : x y z
#
# Youngs Moduli (GPa) = 91.24837 87.22673 90.26741
#
# Poissons Ratio (x) = 0.24844 0.44817
# Poissons Ratio (y) = 0.25989 0.08793
# Poissons Ratio (z) = 0.45304 0.08496
#
# Static dielectric constant tensor:
#      x y z
#    x 4.238190 0.000000 0.000000 
#    y 0.000000 3.911090 0.000000 
#    z 0.000000 0.000000 4.169470 
# 
# 
# High freq. dielectric constant tensor:
#      x y z
#    x 1.814670 0.000000 0.000000 
#    y 0.000000 1.798190 0.000000 
#    z 0.000000 0.000000 1.799380 
# 
# From -- ./inp_files/21157.got.cif
#   From: 2010.03.12/outbox.cif.g09.slc.cpg/sg56_11_cif.got.tgz:21157.got - 2010.04.16 15:33:40.
