data_PCOD8228811
_publ_section_title
;
Structure prediction by ZEFSAII (Michael W. Deem and Ramdas Pophale) SiO2 
 PCOD8228811
Probable space group: P C C N
;
_chemical_formula_sum "Si O2"
_cell_formula_units_Z 48
_cell_length_a 29.007712
_cell_length_b 8.685184
_cell_length_c 9.377524
_cell_angle_alpha 90.000000
_cell_angle_beta 90.000000
_cell_angle_gamma 90.000000
_cell_volume 2362.548229
_symmetry_space_group_name_H-M "P C C N"
_symmetry_group_IT_number 56
_symmetry_cell_setting 'orthorhombic'
loop_
_space_group_symop_operation_xyz
x,y,z
1/2-x,1/2-y,z
1/2+x,-y,1/2-z
-x,1/2+y,1/2-z
-x,-y,-z
1/2+x,1/2+y,-z
1/2-x,y,1/2+z
x,1/2-y,1/2+z
loop_
_atom_site_type_symbol
_atom_site_label
_atom_site_fract_x
_atom_site_fract_y
_atom_site_fract_z
Si Si1 0.379267 0.604746 0.531228
Si Si2 0.888466 0.092646 0.792871
Si Si3 0.790834 0.919722 0.465983
Si Si4 0.798637 0.897651 0.807321
Si Si5 0.965842 0.564973 0.885534
Si Si6 0.517695 0.924899 0.358115
O O1 0.393175 0.756845 0.613113
O O2 0.383523 0.649089 0.367364
O O3 0.327494 0.552821 0.566339
O O4 0.413007 0.462804 0.569839
O O5 0.844486 0.992927 0.839060
O O6 0.934002 0.992214 0.807392
O O7 0.787542 0.886022 0.636927
O O8 0.742711 0.978209 0.397293
O O9 0.805846 0.769660 0.376684
O O10 0.975919 0.743486 0.865882
O O11 0.975878 0.466098 0.745746
O O12 0.000000 0.500000 0.000000
O O13 0.500000 0.000000 0.500000
#
# Coordination Sequence:
#
# PCOD8228811 Si02
#       6
#     8   8   8   8   8   8
#     4  11  25  42  64  92 129 167 213 267 316 388
#     4  11  25  43  63  93 128 168 214 262 324 380
#     4  10  21  40  64  94 126 164 212 264 321 384
#     4  10  21  40  65  93 127 164 212 264 321 385
#     4  12  24  45  66  94 132 165 219 262 319 386
#     4  12  26  43  68  96 128 173 212 268 323 379
#
# _framework density 20.317046000000001
#
# number of rings (size 3 to 8) (size 9 to 14) (size 15 to 20)
#    0.000    1.000    1.667    6.000    2.333    3.333 
#    0.000    3.333    0.000    0.000    0.000    0.000 
#    0.000    0.000    0.000    0.000    0.000    0.000 
#
# Total GULP energy -595142.903721 kJ/mol
# GULP energy per Si atom -12398.810494 kJ/mol
# Density = 2.027080 g / cm^3
# Si number density = 20.317046 Si / 1000 Ang^3
#
#
#
# Elastic Constant Matrix: (Units=GPa)
#
#
# Indices 1 2 3 4 5 6 
#
# 1 97.5511 14.2831 16.6604 0.0000 0.0000 0.0000
# 2 14.2831 83.8147 7.2306 0.0000 0.0000 0.0000
# 3 16.6604 7.2306 96.2861 0.0000 0.0000 0.0000
# 4 0.0000 0.0000 0.0000 29.0669 0.0000 0.0000
# 5 0.0000 0.0000 0.0000 0.0000 35.5151 0.0000
# 6 0.0000 0.0000 0.0000 0.0000 0.0000 37.1012
#
#
#
# Elastic Compliance Matrix: (Units=1/GPa)
#
#
# Indices 1 2 3 4 5 6 
#
# 1 0.010796 -0.001690 -0.001741 0.000000 0.000000 0.000000
# 2 -0.001690 0.012273 -0.000629 0.000000 0.000000 0.000000
# 3 -0.001741 -0.000629 0.010734 0.000000 0.000000 0.000000
# 4 0.000000 0.000000 0.000000 0.034403 0.000000 0.000000
# 5 0.000000 0.000000 0.000000 0.000000 0.028157 0.000000
# 6 0.000000 0.000000 0.000000 0.000000 0.000000 0.026953
#
#
# Mechanical properties :
#
#
# Convention : Reuss Voigt Hill
#
# Bulk Modulus (GPa) = 38.93573 39.33335 39.13454
# Shear Modulus (GPa) = 35.71476 36.30181 36.00829
#
# Velocity S-wave (km/s) = 4.19725 4.23160 4.21446
# Velocity P-wave (km/s) = 6.53413 6.57853 6.55637
#
# Compressibility (1/GPa) = 0.02568335
#
# Stress axis : x y z
#
# Youngs Moduli (GPa) = 92.62883 81.47768 93.15980
#
# Poissons Ratio (x) = 0.13766 0.16220
# Poissons Ratio (y) = 0.15650 0.05863
# Poissons Ratio (z) = 0.16128 0.05128
#
# Static dielectric constant tensor:
#      x y z
#    x 3.692360 0.000000 0.000000 
#    y 0.000000 3.567380 0.000000 
#    z 0.000000 0.000000 3.808670 
# 
# 
# High freq. dielectric constant tensor:
#      x y z
#    x 1.811950 0.000000 0.000000 
#    y 0.000000 1.791780 0.000000 
#    z 0.000000 0.000000 1.813380 
# 
# From -- ./inp_files/5128.got.cif
#   From: 2010.03.12/outbox.cif.g09.slc.cpg/sg56_3_cif.got.tgz:5128.got - 2010.04.16 15:33:40.
