data_PCOD8228636
_publ_section_title
;
Structure prediction by ZEFSAII (Michael W. Deem and Ramdas Pophale) SiO2 
 PCOD8228636
Probable space group: P C C N
;
_chemical_formula_sum "Si O2"
_cell_formula_units_Z 48
_cell_length_a 14.930306
_cell_length_b 9.587133
_cell_length_c 18.497648
_cell_angle_alpha 90.000000
_cell_angle_beta 90.000000
_cell_angle_gamma 90.000000
_cell_volume 2647.731680
_symmetry_space_group_name_H-M "P C C N"
_symmetry_group_IT_number 56
_symmetry_cell_setting 'orthorhombic'
loop_
_space_group_symop_operation_xyz
x,y,z
1/2-x,1/2-y,z
1/2+x,-y,1/2-z
-x,1/2+y,1/2-z
-x,-y,-z
1/2+x,1/2+y,-z
1/2-x,y,1/2+z
x,1/2-y,1/2+z
loop_
_atom_site_type_symbol
_atom_site_label
_atom_site_fract_x
_atom_site_fract_y
_atom_site_fract_z
Si Si1 0.602409 0.123540 0.191576
Si Si2 0.897704 0.057166 0.172158
Si Si3 0.102409 0.123540 0.691576
Si Si4 0.397704 0.442834 0.172158
Si Si5 0.758077 0.589109 0.930405
Si Si6 0.758077 0.089109 0.569595
O O1 0.617142 0.287802 0.203305
O O2 0.500000 0.087447 0.171902
O O3 0.663137 0.065893 0.127202
O O4 0.631156 0.050138 0.265785
O O5 0.835367 0.033350 0.102610
O O6 0.000000 0.032956 0.147522
O O7 0.868844 0.949862 0.234215
O O8 0.117142 0.287802 0.703305
O O9 0.163137 0.065893 0.627202
O O10 0.335367 0.466650 0.102610
O O11 0.750000 0.750000 0.953257
O O12 0.783125 0.500000 0.000000
O O13 0.750000 0.250000 0.546743
#
# Coordination Sequence:
#
# PCOD8228636 Si02
#       6
#     8   8   8   8   8   8
#     4   9  18  33  52  73  96 123 158 199 239 280
#     4   9  18  33  52  73  96 123 158 199 239 280
#     4   9  18  33  52  73  96 123 158 199 239 280
#     4   9  18  33  52  73  96 123 158 199 239 280
#     4  10  21  34  48  70 100 130 159 194 236 282
#     4  10  21  34  48  70 100 130 159 194 236 282
#
# _framework density 18.128726
#
# number of rings (size 3 to 8) (size 9 to 14) (size 15 to 20)
#    0.000    2.667    0.000    1.000    0.000    4.000 
#    0.000    0.000    0.000    0.000    0.000    0.000 
#    0.000    0.000    0.000    0.000    0.000    0.000 
#
# Total GULP energy -595346.430565 kJ/mol
# GULP energy per Si atom -12403.050637 kJ/mol
# Density = 1.808746 g / cm^3
# Si number density = 18.128726 Si / 1000 Ang^3
#
#
#
# Elastic Constant Matrix: (Units=GPa)
#
#
# Indices 1 2 3 4 5 6 
#
# 1 54.7032 7.4838 8.7667 0.0000 0.0000 0.0000
# 2 7.4838 33.3180 15.3075 0.0000 0.0000 0.0000
# 3 8.7667 15.3075 46.0552 0.0000 0.0000 0.0000
# 4 0.0000 0.0000 0.0000 35.5306 0.0000 0.0000
# 5 0.0000 0.0000 0.0000 0.0000 21.8432 0.0000
# 6 0.0000 0.0000 0.0000 0.0000 0.0000 20.4065
#
#
#
# Elastic Compliance Matrix: (Units=1/GPa)
#
#
# Indices 1 2 3 4 5 6 
#
# 1 0.019122 -0.003096 -0.002611 0.000000 0.000000 0.000000
# 2 -0.003096 0.035924 -0.011351 0.000000 0.000000 0.000000
# 3 -0.002611 -0.011351 0.025983 0.000000 0.000000 0.000000
# 4 0.000000 0.000000 0.000000 0.028145 0.000000 0.000000
# 5 0.000000 0.000000 0.000000 0.000000 0.045781 0.000000
# 6 0.000000 0.000000 0.000000 0.000000 0.000000 0.049004
#
#
# Mechanical properties :
#
#
# Convention : Reuss Voigt Hill
#
# Bulk Modulus (GPa) = 21.31553 21.91026 21.61290
# Shear Modulus (GPa) = 19.70733 22.39060 21.04897
#
# Velocity S-wave (km/s) = 3.30066 3.51820 3.41116
# Velocity P-wave (km/s) = 5.12925 5.34937 5.24047
#
# Compressibility (1/GPa) = 0.04691415
#
# Stress axis : x y z
#
# Youngs Moduli (GPa) = 52.29462 27.83637 38.48690
#
# Poissons Ratio (x) = 0.08617 0.10049
# Poissons Ratio (y) = 0.16188 0.43686
# Poissons Ratio (z) = 0.13655 0.31597
#
# Static dielectric constant tensor:
#      x y z
#    x 3.572130 0.000000 0.000000 
#    y 0.000000 3.335260 0.000000 
#    z 0.000000 0.000000 3.095140 
# 
# 
# High freq. dielectric constant tensor:
#      x y z
#    x 1.718610 0.000000 0.000000 
#    y 0.000000 1.699760 0.000000 
#    z 0.000000 0.000000 1.684040 
# 
# From -- ./inp_files/16171.got.cif
#   From: 2010.03.12/outbox.cif.g09.slc.cpg/sg56_9_cif.got.tgz:16171.got - 2010.04.16 15:33:40.
