data_PCOD8228217
_publ_section_title
;
Structure prediction by ZEFSAII (Michael W. Deem and Ramdas Pophale) SiO2 
 PCOD8228217
Probable space group: P C C N
;
_chemical_formula_sum "Si O2"
_cell_formula_units_Z 44
_cell_length_a 11.747928
_cell_length_b 7.929366
_cell_length_c 21.460829
_cell_angle_alpha 90.000000
_cell_angle_beta 90.000000
_cell_angle_gamma 90.000000
_cell_volume 1999.153928
_symmetry_space_group_name_H-M "P C C N"
_symmetry_group_IT_number 56
_symmetry_cell_setting 'orthorhombic'
loop_
_space_group_symop_operation_xyz
x,y,z
1/2-x,1/2-y,z
1/2+x,-y,1/2-z
-x,1/2+y,1/2-z
-x,-y,-z
1/2+x,1/2+y,-z
1/2-x,y,1/2+z
x,1/2-y,1/2+z
loop_
_atom_site_type_symbol
_atom_site_label
_atom_site_fract_x
_atom_site_fract_y
_atom_site_fract_z
Si Si1 0.750000 0.750000 0.505724
Si Si2 0.673354 0.096695 0.501938
Si Si3 0.510036 0.830925 0.040926
Si Si4 0.008466 0.073740 0.328629
Si Si5 0.136414 0.339415 0.254355
Si Si6 0.748217 0.435547 0.143603
O O1 0.790474 0.580672 0.466986
O O2 0.855822 0.796455 0.549901
O O3 0.750000 0.250000 0.476211
O O4 0.544520 0.163724 0.491520
O O5 0.695207 0.063330 0.574774
O O6 0.452365 0.846718 0.109113
O O7 0.500000 0.000000 0.000000
O O8 0.039616 0.207662 0.275279
O O9 0.120648 0.986393 0.355479
O O10 0.916015 0.946163 0.301494
O O11 0.250000 0.250000 0.227883
O O12 0.168683 0.447875 0.314540
O O13 0.750000 0.250000 0.172790
#
# Coordination Sequence:
#
# PCOD8228217 Si02
#       6
#     4   8   8   8   8   8
#     4  12  22  42  68  96 136 188 230 274 344 408
#     4  11  22  41  67 104 138 186 230 279 344 419
#     4  12  24  43  70 103 142 184 235 289 349 428
#     4  11  22  42  69  95 140 177 229 293 341 418
#     4  10  23  41  68 103 132 176 233 284 349 408
#     4  10  19  38  69  97 134 175 234 274 338 424
#
# _framework density 22.009311
#
# number of rings (size 3 to 8) (size 9 to 14) (size 15 to 20)
#    0.000    1.091    3.636    3.818    2.545    0.000 
#    1.636    4.545    0.000    0.000    0.000    0.000 
#    0.000    0.000    0.000    0.000    0.000    0.000 
#
# Total GULP energy -545283.877843 kJ/mol
# GULP energy per Si atom -12392.815406 kJ/mol
# Density = 2.195922 g / cm^3
# Si number density = 22.009311 Si / 1000 Ang^3
#
#
#
# Elastic Constant Matrix: (Units=GPa)
#
#
# Indices 1 2 3 4 5 6 
#
# 1 125.6148 60.4971 67.5372 0.0000 0.0000 0.0000
# 2 60.4971 174.8043 36.3297 0.0000 0.0000 0.0000
# 3 67.5372 36.3297 89.1913 0.0000 0.0000 0.0000
# 4 0.0000 0.0000 0.0000 -13.4152 0.0000 0.0000
# 5 0.0000 0.0000 0.0000 0.0000 7.7669 0.0000
# 6 0.0000 0.0000 0.0000 0.0000 0.0000 49.9819
#
#
#
# Elastic Compliance Matrix: (Units=1/GPa)
#
#
# Indices 1 2 3 4 5 6 
#
# 1 0.014777 -0.003046 -0.009948 0.000000 0.000000 0.000000
# 2 -0.003046 0.006878 -0.000495 0.000000 0.000000 0.000000
# 3 -0.009948 -0.000495 0.018946 0.000000 0.000000 0.000000
# 4 0.000000 0.000000 0.000000 -0.074543 0.000000 0.000000
# 5 0.000000 0.000000 0.000000 0.000000 0.128751 0.000000
# 6 0.000000 0.000000 0.000000 0.000000 0.000000 0.020007
#
#
# Mechanical properties :
#
#
# Convention : Reuss Voigt Hill
#
# Bulk Modulus (GPa) = 73.41024 79.81537 76.61281
# Shear Modulus (GPa) = 34.16777 23.88317 29.02547
#
# Velocity S-wave (km/s) = 3.94435 3.29772 3.63544
# Velocity P-wave (km/s) = 7.36006 7.13043 7.24616
#
# Compressibility (1/GPa) = 0.01362208
#
# Stress axis : x y z
#
# Youngs Moduli (GPa) = 67.67363 145.39490 52.78045
#
# Poissons Ratio (x) = 0.44294 0.52508
# Poissons Ratio (y) = 0.20616 0.02611
# Poissons Ratio (z) = 0.67324 0.07192
#
# Static dielectric constant tensor:
#      x y z
#    x 4.616450 0.000000 0.000000 
#    y 0.000000 4.952140 0.000000 
#    z 0.000000 0.000000 3.505170 
# 
# 
# High freq. dielectric constant tensor:
#      x y z
#    x 1.870660 0.000000 0.000000 
#    y 0.000000 1.895180 0.000000 
#    z 0.000000 0.000000 1.826320 
# 
# From -- ./inp_files/20843.got.cif
#   From: 2010.03.12/outbox.cif.g09.slc.cpg/sg56_11_cif.got.tgz:20843.got - 2010.04.16 15:33:40.
