data_PCOD8228143
_publ_section_title
;
Structure prediction by ZEFSAII (Michael W. Deem and Ramdas Pophale) SiO2 
 PCOD8228143
Probable space group: P C C N
;
_chemical_formula_sum "Si O2"
_cell_formula_units_Z 64
_cell_length_a 8.752933
_cell_length_b 11.872921
_cell_length_c 30.152154
_cell_angle_alpha 90.000000
_cell_angle_beta 90.000000
_cell_angle_gamma 90.000000
_cell_volume 3133.498743
_symmetry_space_group_name_H-M "P C C N"
_symmetry_group_IT_number 56
_symmetry_cell_setting 'orthorhombic'
loop_
_space_group_symop_operation_xyz
x,y,z
1/2-x,1/2-y,z
1/2+x,-y,1/2-z
-x,1/2+y,1/2-z
-x,-y,-z
1/2+x,1/2+y,-z
1/2-x,y,1/2+z
x,1/2-y,1/2+z
loop_
_atom_site_type_symbol
_atom_site_label
_atom_site_fract_x
_atom_site_fract_y
_atom_site_fract_z
Si Si1 0.527366 0.495482 0.893602
Si Si2 0.297517 0.371200 0.646375
Si Si3 0.949221 0.591844 0.697025
Si Si4 0.724788 0.381698 0.061141
Si Si5 0.757761 0.992172 0.271167
Si Si6 0.499939 0.020569 0.901687
Si Si7 0.905331 0.185586 0.325394
Si Si8 0.236239 0.879924 0.042266
O O1 0.679453 0.534553 0.869282
O O2 0.429159 0.436444 0.854984
O O3 0.436715 0.597828 0.915386
O O4 0.579960 0.412561 0.932604
O O5 0.250000 0.250000 0.629731
O O6 0.302786 0.382378 0.699417
O O7 0.454653 0.404462 0.623097
O O8 0.794228 0.549220 0.721107
O O9 0.081030 0.525044 0.723987
O O10 0.980119 0.725973 0.698242
O O11 0.750000 0.250000 0.071675
O O12 0.836868 0.480852 0.079433
O O13 0.714062 0.404551 0.009246
O O14 0.860339 0.097324 0.287328
O O15 0.506689 0.124464 0.866430
O O16 0.613796 0.051311 0.942049
O O17 0.750000 0.250000 0.342713
O O18 0.250000 0.750000 0.052275
#
# Coordination Sequence:
#
# PCOD8228143 Si02
#       8
#     8   8   8   8   8   8   8   8
#     4  10  21  37  56  80 112 151 191 231 285 344
#     4   9  18  34  55  76 106 149 190 226 274 341
#     4  10  20  36  56  79 110 145 187 234 280 331
#     4  11  23  37  55  85 119 147 184 241 295 338
#     4   9  20  34  53  81 108 142 186 231 278 329
#     4  10  19  35  60  86 111 146 193 234 281 341
#     4   9  18  37  60  81 111 150 189 230 279 335
#     4  10  20  38  62  82 110 152 192 233 288 349
#
# _framework density 20.424454999999998
#
# number of rings (size 3 to 8) (size 9 to 14) (size 15 to 20)
#    0.000    2.250    0.000    4.875    0.000    4.000 
#    0.000    5.625    0.000    7.500    0.000    0.000 
#    0.000    0.000    0.000    0.000    0.000    0.000 
#
# Total GULP energy -793025.622557 kJ/mol
# GULP energy per Si atom -12391.025352 kJ/mol
# Density = 2.037797 g / cm^3
# Si number density = 20.424455 Si / 1000 Ang^3
#
#
#
# Elastic Constant Matrix: (Units=GPa)
#
#
# Indices 1 2 3 4 5 6 
#
# 1 48.6271 22.6144 38.2488 0.0000 0.0000 0.0000
# 2 22.6144 100.7991 47.2438 0.0000 0.0000 0.0000
# 3 38.2488 47.2438 89.2136 0.0000 0.0000 0.0000
# 4 0.0000 0.0000 0.0000 18.0519 0.0000 0.0000
# 5 0.0000 0.0000 0.0000 0.0000 29.5214 0.0000
# 6 0.0000 0.0000 0.0000 0.0000 0.0000 33.1545
#
#
#
# Elastic Compliance Matrix: (Units=1/GPa)
#
#
# Indices 1 2 3 4 5 6 
#
# 1 0.031099 -0.000968 -0.012821 0.000000 0.000000 0.000000
# 2 -0.000968 0.013226 -0.006589 0.000000 0.000000 0.000000
# 3 -0.012821 -0.006589 0.020195 0.000000 0.000000 0.000000
# 4 0.000000 0.000000 0.000000 0.055396 0.000000 0.000000
# 5 0.000000 0.000000 0.000000 0.000000 0.033874 0.000000
# 6 0.000000 0.000000 0.000000 0.000000 0.000000 0.030162
#
#
# Mechanical properties :
#
#
# Convention : Reuss Voigt Hill
#
# Bulk Modulus (GPa) = 42.07890 50.53932 46.30911
# Shear Modulus (GPa) = 21.49349 24.84774 23.17062
#
# Velocity S-wave (km/s) = 3.24750 3.49172 3.37182
# Velocity P-wave (km/s) = 5.89140 6.40737 6.15479
#
# Compressibility (1/GPa) = 0.02376488
#
# Stress axis : x y z
#
# Youngs Moduli (GPa) = 32.15511 75.60805 49.51766
#
# Poissons Ratio (x) = 0.07321 0.63484
# Poissons Ratio (y) = 0.03113 0.32627
# Poissons Ratio (z) = 0.41225 0.49817
#
# Static dielectric constant tensor:
#      x y z
#    x 3.469930 0.000000 0.000000 
#    y 0.000000 3.709450 0.000000 
#    z 0.000000 0.000000 3.778000 
# 
# 
# High freq. dielectric constant tensor:
#      x y z
#    x 1.778490 0.000000 0.000000 
#    y 0.000000 1.801340 0.000000 
#    z 0.000000 0.000000 1.801970 
# 
# From -- ./inp_files/23385.got.cif
#   From: 2010.03.12/outbox.cif.g09.slc.cpg/sg56_12_cif.got.tgz:23385.got - 2010.04.16 15:33:40.
