data_PCOD8228319
_publ_section_title
;
Structure prediction by ZEFSAII (Michael W. Deem and Ramdas Pophale) SiO2 
 PCOD8228319
Probable space group: P C C N
;
_chemical_formula_sum "Si O2"
_cell_formula_units_Z 64
_cell_length_a 14.255489
_cell_length_b 8.764288
_cell_length_c 28.325228
_cell_angle_alpha 90.000000
_cell_angle_beta 90.000000
_cell_angle_gamma 90.000000
_cell_volume 3538.931643
_symmetry_space_group_name_H-M "P C C N"
_symmetry_group_IT_number 56
_symmetry_cell_setting 'orthorhombic'
loop_
_space_group_symop_operation_xyz
x,y,z
1/2-x,1/2-y,z
1/2+x,-y,1/2-z
-x,1/2+y,1/2-z
-x,-y,-z
1/2+x,1/2+y,-z
1/2-x,y,1/2+z
x,1/2-y,1/2+z
loop_
_atom_site_type_symbol
_atom_site_label
_atom_site_fract_x
_atom_site_fract_y
_atom_site_fract_z
Si Si1 0.602274 0.568870 0.753964
Si Si2 0.601225 0.571400 0.500082
Si Si3 0.250000 0.427971 0.077790
Si Si4 0.750000 0.929660 0.678096
Si Si5 0.750000 0.429891 0.821491
Si Si6 0.750000 0.932401 0.073498
Si Si7 0.397726 0.431130 0.746036
Si Si8 0.601225 0.571400 0.000082
O O1 0.657615 0.519330 0.706643
O O2 0.656131 0.501388 0.799066
O O3 0.500000 0.500000 0.750000
O O4 0.597677 0.750000 0.759680
O O5 0.500000 0.500000 0.500000
O O6 0.657587 0.530872 0.452459
O O7 0.658000 0.509335 0.545651
O O8 0.589457 0.750000 0.504544
O O9 0.250000 0.250000 0.092104
O O10 0.250000 0.534055 0.123327
O O11 0.342413 0.469128 0.047541
O O12 0.750000 0.750000 0.672363
O O13 0.750000 0.004520 0.626063
O O14 0.657615 0.980670 0.706643
O O15 0.750000 0.250000 0.813139
O O16 0.843869 0.501388 0.799066
O O17 0.750000 0.750000 0.074397
O O18 0.842000 0.990664 0.045651
O O19 0.500000 0.500000 0.000000
#
# Coordination Sequence:
#
# PCOD8228319 Si02
#       8
#     8   8   8   8   8   8   8   8
#     4  10  20  35  54  78 108 140 172 214 264 317
#     4   9  18  32  52  75 102 134 167 206 255 306
#     4   9  19  36  52  72 106 143 173 211 265 317
#     4   8  16  31  52  75 100 131 169 208 248 297
#     4  11  22  36  55  78 102 137 183 227 268 313
#     4   8  15  31  51  71  96 129 165 200 241 297
#     4  10  20  35  54  78 108 140 172 214 264 317
#     4   9  18  32  52  75 102 134 167 206 255 306
#
# _framework density 18.084555000000002
#
# number of rings (size 3 to 8) (size 9 to 14) (size 15 to 20)
#    0.000    2.750    0.000    4.125    0.000    3.000 
#    0.000    4.375    0.000    7.500    0.000    0.000 
#    0.000    0.000    0.000    0.000    0.000    0.000 
#
# Total GULP energy -793436.047564 kJ/mol
# GULP energy per Si atom -12397.438243 kJ/mol
# Density = 1.804339 g / cm^3
# Si number density = 18.084555 Si / 1000 Ang^3
#
#
#
# Elastic Constant Matrix: (Units=GPa)
#
#
# Indices 1 2 3 4 5 6 
#
# 1 190.7418 51.7376 83.1834 0.0000 0.0000 0.0000
# 2 51.7376 70.4700 45.1606 0.0000 0.0000 0.0000
# 3 83.1834 45.1606 154.2918 0.0000 0.0000 0.0000
# 4 0.0000 0.0000 0.0000 21.0545 0.0000 0.0000
# 5 0.0000 0.0000 0.0000 0.0000 14.0946 0.0000
# 6 0.0000 0.0000 0.0000 0.0000 0.0000 36.7398
#
#
#
# Elastic Compliance Matrix: (Units=1/GPa)
#
#
# Indices 1 2 3 4 5 6 
#
# 1 0.007531 -0.003603 -0.003005 0.000000 0.000000 0.000000
# 2 -0.003603 0.019190 -0.003675 0.000000 0.000000 0.000000
# 3 -0.003005 -0.003675 0.009177 0.000000 0.000000 0.000000
# 4 0.000000 0.000000 0.000000 0.047496 0.000000 0.000000
# 5 0.000000 0.000000 0.000000 0.000000 0.070949 0.000000
# 6 0.000000 0.000000 0.000000 0.000000 0.000000 0.027218
#
#
# Mechanical properties :
#
#
# Convention : Reuss Voigt Hill
#
# Bulk Modulus (GPa) = 65.22120 86.18521 75.70320
# Shear Modulus (GPa) = 24.12689 30.07259 27.09974
#
# Velocity S-wave (km/s) = 3.65652 4.08228 3.87525
# Velocity P-wave (km/s) = 7.34641 8.36542 7.87242
#
# Compressibility (1/GPa) = 0.01533244
#
# Stress axis : x y z
#
# Youngs Moduli (GPa) = 132.79126 52.10950 108.96682
#
# Poissons Ratio (x) = 0.18774 0.32750
# Poissons Ratio (y) = 0.47842 0.40041
# Poissons Ratio (z) = 0.39910 0.19148
#
# Static dielectric constant tensor:
#      x y z
#    x 3.122760 0.000000 0.000000 
#    y 0.000000 3.100040 0.000000 
#    z 0.000000 0.000000 3.857980 
# 
# 
# High freq. dielectric constant tensor:
#      x y z
#    x 1.706370 0.000000 0.000000 
#    y 0.000000 1.679990 0.000000 
#    z 0.000000 0.000000 1.706810 
# 
# From -- ./inp_files/23509.got.cif
#   From: 2010.03.12/outbox.cif.g09.slc.cpg/sg56_12_cif.got.tgz:23509.got - 2010.04.16 15:33:40.
