data_PCOD8228210
_publ_section_title
;
Structure prediction by ZEFSAII (Michael W. Deem and Ramdas Pophale) SiO2 
 PCOD8228210
Probable space group: P C C N
;
_chemical_formula_sum "Si O2"
_cell_formula_units_Z 60
_cell_length_a 18.540789
_cell_length_b 8.408779
_cell_length_c 18.037917
_cell_angle_alpha 90.000000
_cell_angle_beta 90.000000
_cell_angle_gamma 90.000000
_cell_volume 2812.208614
_symmetry_space_group_name_H-M "P C C N"
_symmetry_group_IT_number 56
_symmetry_cell_setting 'orthorhombic'
loop_
_space_group_symop_operation_xyz
x,y,z
1/2-x,1/2-y,z
1/2+x,-y,1/2-z
-x,1/2+y,1/2-z
-x,-y,-z
1/2+x,1/2+y,-z
1/2-x,y,1/2+z
x,1/2-y,1/2+z
loop_
_atom_site_type_symbol
_atom_site_label
_atom_site_fract_x
_atom_site_fract_y
_atom_site_fract_z
Si Si1 0.419333 0.133711 0.381685
Si Si2 0.750000 0.250000 0.212028
Si Si3 0.874789 0.405526 0.137972
Si Si4 0.006076 0.104370 0.296167
Si Si5 0.111856 0.387252 0.126267
Si Si6 0.175401 0.346553 0.974108
Si Si7 0.489086 0.830529 0.374880
Si Si8 0.296963 0.403344 0.765375
O O1 0.478123 0.226021 0.332494
O O2 0.390211 0.231657 0.451464
O O3 0.354117 0.071220 0.330813
O O4 0.464610 0.988626 0.417295
O O5 0.824186 0.266047 0.168066
O O6 0.743201 0.425655 0.251666
O O7 0.917292 0.508801 0.200632
O O8 0.822583 0.514964 0.087657
O O9 0.937976 0.312248 0.094952
O O10 0.978505 0.134808 0.213431
O O11 0.943251 0.021665 0.344819
O O12 0.169003 0.347415 0.188881
O O13 0.070654 0.221235 0.109557
O O14 0.155253 0.431889 0.051686
O O15 0.250000 0.250000 0.978880
O O16 0.250000 0.250000 0.791414
#
# Coordination Sequence:
#
# PCOD8228210 Si02
#       8
#     8   4   8   8   8   8   8   8
#     4  11  20  38  67  94 125 169 220 271 327 396
#     4  12  22  38  68 102 126 170 242 272 318 396
#     4  10  22  37  64  92 128 170 213 275 324 388
#     4  10  19  38  65  97 128 164 210 278 341 386
#     4  11  24  42  63  91 138 172 211 276 344 392
#     4  11  25  44  62  88 132 181 222 264 330 405
#     4  11  20  38  66  98 125 157 216 280 330 387
#     4  12  23  40  66  99 131 176 226 279 330 390
#
# _framework density 21.335543000000001
#
# number of rings (size 3 to 8) (size 9 to 14) (size 15 to 20)
#    0.000    1.067    4.000    4.000    0.000    5.333 
#    0.000    0.667    0.000    0.000    0.000    0.000 
#    0.000    0.000    0.000    0.000    0.000    0.000 
#
# Total GULP energy -743337.646859 kJ/mol
# GULP energy per Si atom -12388.960781 kJ/mol
# Density = 2.128698 g / cm^3
# Si number density = 21.335543 Si / 1000 Ang^3
#
#
#
# Elastic Constant Matrix: (Units=GPa)
#
#
# Indices 1 2 3 4 5 6 
#
# 1 77.0931 33.4170 19.9608 0.0000 0.0000 0.0000
# 2 33.4170 122.6879 -2.0975 0.0000 0.0000 0.0000
# 3 19.9608 -2.0975 49.3955 0.0000 0.0000 0.0000
# 4 0.0000 0.0000 0.0000 9.4360 0.0000 0.0000
# 5 0.0000 0.0000 0.0000 0.0000 22.2149 0.0000
# 6 0.0000 0.0000 0.0000 0.0000 0.0000 35.1720
#
#
#
# Elastic Compliance Matrix: (Units=1/GPa)
#
#
# Indices 1 2 3 4 5 6 
#
# 1 0.016821 -0.004701 -0.006997 0.000000 0.000000 0.000000
# 2 -0.004701 0.009471 0.002302 0.000000 0.000000 0.000000
# 3 -0.006997 0.002302 0.023170 0.000000 0.000000 0.000000
# 4 0.000000 0.000000 0.000000 0.105977 0.000000 0.000000
# 5 0.000000 0.000000 0.000000 0.000000 0.045015 0.000000
# 6 0.000000 0.000000 0.000000 0.000000 0.000000 0.028432
#
#
# Mechanical properties :
#
#
# Convention : Reuss Voigt Hill
#
# Bulk Modulus (GPa) = 32.60628 39.08190 35.84409
# Shear Modulus (GPa) = 19.38735 26.55765 22.97250
#
# Velocity S-wave (km/s) = 3.01772 3.53194 3.28491
# Velocity P-wave (km/s) = 5.24003 5.91526 5.58786
#
# Compressibility (1/GPa) = 0.03066894
#
# Stress axis : x y z
#
# Youngs Moduli (GPa) = 59.45041 105.59007 43.15932
#
# Poissons Ratio (x) = 0.49639 0.30198
# Poissons Ratio (y) = 0.27949 -0.09935
# Poissons Ratio (z) = 0.41597 -0.24306
#
# Static dielectric constant tensor:
#      x y z
#    x 3.957660 0.000000 0.000000 
#    y 0.000000 4.214280 0.000000 
#    z 0.000000 0.000000 3.481070 
# 
# 
# High freq. dielectric constant tensor:
#      x y z
#    x 1.846410 0.000000 0.000000 
#    y 0.000000 1.851810 0.000000 
#    z 0.000000 0.000000 1.795960 
# 
# From -- ./inp_files/16666.got.cif
#   From: 2010.03.12/outbox.cif.g09.slc.cpg/sg56_9_cif.got.tgz:16666.got - 2010.04.16 15:33:40.
