data_PCOD8228885
_publ_section_title
;
Structure prediction by ZEFSAII (Michael W. Deem and Ramdas Pophale) SiO2 
 PCOD8228885
Probable space group: P C C N
;
_chemical_formula_sum "Si O2"
_cell_formula_units_Z 56
_cell_length_a 11.271462
_cell_length_b 16.430427
_cell_length_c 13.911777
_cell_angle_alpha 90.000000
_cell_angle_beta 90.000000
_cell_angle_gamma 90.000000
_cell_volume 2576.390617
_symmetry_space_group_name_H-M "P C C N"
_symmetry_group_IT_number 56
_symmetry_cell_setting 'orthorhombic'
loop_
_space_group_symop_operation_xyz
x,y,z
1/2-x,1/2-y,z
1/2+x,-y,1/2-z
-x,1/2+y,1/2-z
-x,-y,-z
1/2+x,1/2+y,-z
1/2-x,y,1/2+z
x,1/2-y,1/2+z
loop_
_atom_site_type_symbol
_atom_site_label
_atom_site_fract_x
_atom_site_fract_y
_atom_site_fract_z
Si Si1 0.981698 0.885467 0.168166
Si Si2 0.014978 0.174474 0.615358
Si Si3 0.752899 0.341431 0.123122
Si Si4 0.876184 0.956177 0.507882
Si Si5 0.841152 0.516858 0.389329
Si Si6 0.995648 0.341676 0.533938
Si Si7 0.751781 0.983421 0.192291
O O1 0.879176 0.951816 0.161847
O O2 0.981986 0.840704 0.270259
O O3 0.102678 0.933130 0.147152
O O4 0.971843 0.822922 0.078079
O O5 0.883733 0.151014 0.574285
O O6 0.044204 0.269015 0.599819
O O7 0.113561 0.126986 0.553206
O O8 0.750000 0.250000 0.172315
O O9 0.646973 0.349842 0.045804
O O10 0.742561 0.417353 0.196710
O O11 0.762795 0.004798 0.465445
O O12 0.848337 0.947025 0.620555
O O13 0.000000 0.000000 0.500000
O O14 0.780290 0.555421 0.294991
O O15 0.939776 0.575638 0.434553
#
# Coordination Sequence:
#
# PCOD8228885 Si02
#       7
#     8   8   8   8   8   8   8
#     4  12  23  45  70  99 130 182 229 277 331 407
#     4  11  25  45  65  99 140 172 223 283 336 399
#     4  10  21  42  66  96 133 168 218 281 330 391
#     4  12  24  41  67  99 135 175 217 279 337 398
#     4  12  24  41  70 101 130 179 226 277 337 407
#     4  11  25  44  69  96 136 177 225 277 337 402
#     4  12  23  42  69 100 131 174 228 273 332 401
#
# _framework density 21.735835000000002
#
# number of rings (size 3 to 8) (size 9 to 14) (size 15 to 20)
#    0.000    0.571    7.143    1.286    0.000    1.714 
#    0.000    9.286    0.000    0.000    0.000    0.000 
#    0.000    0.000    0.000    0.000    0.000    0.000 
#
# Total GULP energy -693954.412673 kJ/mol
# GULP energy per Si atom -12392.043083 kJ/mol
# Density = 2.168636 g / cm^3
# Si number density = 21.735835 Si / 1000 Ang^3
#
#
#
# Elastic Constant Matrix: (Units=GPa)
#
#
# Indices 1 2 3 4 5 6 
#
# 1 97.5709 31.1328 25.0737 0.0000 0.0000 0.0000
# 2 31.1328 101.5377 46.8247 0.0000 0.0000 0.0000
# 3 25.0737 46.8247 112.3767 0.0000 0.0000 0.0000
# 4 0.0000 0.0000 0.0000 26.5257 0.0000 0.0000
# 5 0.0000 0.0000 0.0000 0.0000 31.6909 0.0000
# 6 0.0000 0.0000 0.0000 0.0000 0.0000 29.9937
#
#
#
# Elastic Compliance Matrix: (Units=1/GPa)
#
#
# Indices 1 2 3 4 5 6 
#
# 1 0.011526 -0.002907 -0.001361 0.000000 0.000000 0.000000
# 2 -0.002907 0.012924 -0.004737 0.000000 0.000000 0.000000
# 3 -0.001361 -0.004737 0.011176 0.000000 0.000000 0.000000
# 4 0.000000 0.000000 0.000000 0.037699 0.000000 0.000000
# 5 0.000000 0.000000 0.000000 0.000000 0.031555 0.000000
# 6 0.000000 0.000000 0.000000 0.000000 0.000000 0.033340
#
#
# Mechanical properties :
#
#
# Convention : Reuss Voigt Hill
#
# Bulk Modulus (GPa) = 56.75908 57.50532 57.13220
# Shear Modulus (GPa) = 30.84499 31.53899 31.19199
#
# Velocity S-wave (km/s) = 3.77116 3.81335 3.79231
# Velocity P-wave (km/s) = 6.71804 6.77516 6.74666
#
# Compressibility (1/GPa) = 0.01761833
#
# Stress axis : x y z
#
# Youngs Moduli (GPa) = 86.76010 77.37493 89.47851
#
# Poissons Ratio (x) = 0.22490 0.12175
# Poissons Ratio (y) = 0.25218 0.42383
# Poissons Ratio (z) = 0.11805 0.36650
#
# Static dielectric constant tensor:
#      x y z
#    x 4.262250 0.000000 0.000000 
#    y 0.000000 3.961500 0.000000 
#    z 0.000000 0.000000 4.299280 
# 
# 
# High freq. dielectric constant tensor:
#      x y z
#    x 1.872710 0.000000 0.000000 
#    y 0.000000 1.837570 0.000000 
#    z 0.000000 0.000000 1.848820 
# 
# From -- ./inp_files/11684.got.cif
#   From: 2010.03.12/outbox.cif.g09.slc.cpg/sg56_6_cif.got.tgz:11684.got - 2010.04.16 15:33:40.
