data_PCOD8228045
_publ_section_title
;
Structure prediction by ZEFSAII (Michael W. Deem and Ramdas Pophale) SiO2 
 PCOD8228045
Probable space group: P C C N
;
_chemical_formula_sum "Si O2"
_cell_formula_units_Z 52
_cell_length_a 11.380778
_cell_length_b 8.333987
_cell_length_c 29.792105
_cell_angle_alpha 90.000000
_cell_angle_beta 90.000000
_cell_angle_gamma 90.000000
_cell_volume 2825.699407
_symmetry_space_group_name_H-M "P C C N"
_symmetry_group_IT_number 56
_symmetry_cell_setting 'orthorhombic'
loop_
_space_group_symop_operation_xyz
x,y,z
1/2-x,1/2-y,z
1/2+x,-y,1/2-z
-x,1/2+y,1/2-z
-x,-y,-z
1/2+x,1/2+y,-z
1/2-x,y,1/2+z
x,1/2-y,1/2+z
loop_
_atom_site_type_symbol
_atom_site_label
_atom_site_fract_x
_atom_site_fract_y
_atom_site_fract_z
Si Si1 0.424845 0.055285 0.139141
Si Si2 0.380485 0.803913 0.382409
Si Si3 0.954938 0.533495 0.450715
Si Si4 0.984958 0.500323 0.691355
Si Si5 0.617230 0.705746 0.268673
Si Si6 0.884553 0.206098 0.879070
Si Si7 0.750000 0.750000 0.920620
O O1 0.542793 0.147809 0.127248
O O2 0.394251 0.076360 0.191512
O O3 0.313503 0.119151 0.110793
O O4 0.455184 0.871289 0.127891
O O5 0.250000 0.750000 0.394012
O O6 0.433158 0.895599 0.424961
O O7 0.382558 0.920165 0.338928
O O8 0.913316 0.367028 0.427915
O O9 0.845625 0.658500 0.451266
O O10 0.000000 0.500000 0.500000
O O11 0.046120 0.366398 0.721346
O O12 0.082887 0.575359 0.658539
O O13 0.930592 0.634977 0.722498
O O14 0.750000 0.750000 0.259874
O O15 0.750000 0.250000 0.873538
#
# Coordination Sequence:
#
# PCOD8228045 Si02
#       7
#     8   8   8   8   8   8   4
#     4  10  19  36  63  85 113 158 202 233 297 351
#     4   9  21  41  58  77 121 162 189 237 303 350
#     4  10  22  40  62  92 119 147 198 248 293 362
#     4  10  23  35  53  86 115 153 202 242 295 349
#     4  11  21  36  56  83 119 153 200 254 285 339
#     4  11  20  37  62  87 114 154 200 245 302 358
#     4  10  18  40  62  86 118 156 186 246 296 348
#
# _framework density 18.402524
#
# number of rings (size 3 to 8) (size 9 to 14) (size 15 to 20)
#    0.000    1.846    2.308    2.769    0.000    4.308 
#    2.769    4.615    0.000    0.000    0.000    0.000 
#    0.000    0.000    0.000    0.000    0.000    0.000 
#
# Total GULP energy -644914.083762 kJ/mol
# GULP energy per Si atom -12402.193918 kJ/mol
# Density = 1.836064 g / cm^3
# Si number density = 18.402524 Si / 1000 Ang^3
#
#
#
# Elastic Constant Matrix: (Units=GPa)
#
#
# Indices 1 2 3 4 5 6 
#
# 1 116.6237 31.4108 46.7008 0.0000 0.0000 0.0000
# 2 31.4108 111.0438 44.1383 0.0000 0.0000 0.0000
# 3 46.7008 44.1383 111.0834 0.0000 0.0000 0.0000
# 4 0.0000 0.0000 0.0000 27.4248 0.0000 0.0000
# 5 0.0000 0.0000 0.0000 0.0000 22.0974 0.0000
# 6 0.0000 0.0000 0.0000 0.0000 0.0000 22.3916
#
#
#
# Elastic Compliance Matrix: (Units=1/GPa)
#
#
# Indices 1 2 3 4 5 6 
#
# 1 0.010502 -0.001444 -0.003841 0.000000 0.000000 0.000000
# 2 -0.001444 0.010893 -0.003721 0.000000 0.000000 0.000000
# 3 -0.003841 -0.003721 0.012096 0.000000 0.000000 0.000000
# 4 0.000000 0.000000 0.000000 0.036463 0.000000 0.000000
# 5 0.000000 0.000000 0.000000 0.000000 0.045254 0.000000
# 6 0.000000 0.000000 0.000000 0.000000 0.000000 0.044660
#
#
# Mechanical properties :
#
#
# Convention : Reuss Voigt Hill
#
# Bulk Modulus (GPa) = 64.60898 64.80563 64.70730
# Shear Modulus (GPa) = 27.31650 28.81617 28.06634
#
# Velocity S-wave (km/s) = 3.85696 3.96142 3.90953
# Velocity P-wave (km/s) = 7.41753 7.49772 7.45773
#
# Compressibility (1/GPa) = 0.01547772
#
# Stress axis : x y z
#
# Youngs Moduli (GPa) = 95.22291 91.80204 82.67299
#
# Poissons Ratio (x) = 0.13253 0.31758
# Poissons Ratio (y) = 0.13747 0.30765
# Poissons Ratio (z) = 0.36579 0.34162
#
# Static dielectric constant tensor:
#      x y z
#    x 3.291280 0.000000 0.000000 
#    y 0.000000 3.766970 0.000000 
#    z 0.000000 0.000000 3.259080 
# 
# 
# High freq. dielectric constant tensor:
#      x y z
#    x 1.711480 0.000000 0.000000 
#    y 0.000000 1.726450 0.000000 
#    z 0.000000 0.000000 1.703780 
# 
# From -- ./inp_files/22288.got.cif
#   From: 2010.03.12/outbox.cif.g09.slc.cpg/sg56_12_cif.got.tgz:22288.got - 2010.04.16 15:33:40.
