data_PCOD8228620
_publ_section_title
;
Structure prediction by ZEFSAII (Michael W. Deem and Ramdas Pophale) SiO2 
 PCOD8228620
Probable space group: P C C N
;
_chemical_formula_sum "Si O2"
_cell_formula_units_Z 56
_cell_length_a 21.645958
_cell_length_b 8.761193
_cell_length_c 13.872938
_cell_angle_alpha 90.000000
_cell_angle_beta 90.000000
_cell_angle_gamma 90.000000
_cell_volume 2630.925221
_symmetry_space_group_name_H-M "P C C N"
_symmetry_group_IT_number 56
_symmetry_cell_setting 'orthorhombic'
loop_
_space_group_symop_operation_xyz
x,y,z
1/2-x,1/2-y,z
1/2+x,-y,1/2-z
-x,1/2+y,1/2-z
-x,-y,-z
1/2+x,1/2+y,-z
1/2-x,y,1/2+z
x,1/2-y,1/2+z
loop_
_atom_site_type_symbol
_atom_site_label
_atom_site_fract_x
_atom_site_fract_y
_atom_site_fract_z
Si Si1 0.250000 0.250000 0.767362
Si Si2 0.444506 0.607502 0.793538
Si Si3 0.662001 0.503678 0.685756
Si Si4 0.022184 0.759148 0.998127
Si Si5 0.750000 0.250000 0.250749
Si Si6 0.333360 0.498690 0.684322
Si Si7 0.058138 0.586512 0.683801
Si Si8 0.412556 0.048641 0.003816
O O1 0.197918 0.336928 0.829058
O O2 0.281511 0.374763 0.701665
O O3 0.383716 0.504410 0.772031
O O4 0.441238 0.741524 0.717768
O O5 0.503892 0.508368 0.765957
O O6 0.448618 0.681224 0.898938
O O7 0.710656 0.363406 0.681326
O O8 0.623340 0.493614 0.787487
O O9 0.612902 0.502238 0.600483
O O10 0.040607 0.898389 0.070335
O O11 0.948880 0.713394 0.992273
O O12 0.047513 0.597255 0.035438
O O13 0.702196 0.339154 0.319953
O O14 0.358929 0.445638 0.582125
#
# Coordination Sequence:
#
# PCOD8228620 Si02
#       8
#     4   8   8   8   4   8   8   8
#     4  10  28  44  66  94 128 184 224 270 328 386
#     4  12  24  41  68  98 134 174 212 276 335 399
#     4  11  23  44  67  94 131 175 223 276 328 389
#     4  11  23  40  60 109 133 169 217 264 346 405
#     4  10  20  44  66  90 124 180 232 262 332 390
#     4  11  23  44  67  94 131 175 223 276 328 389
#     4  12  24  41  68  98 134 174 212 276 335 399
#     4  11  22  40  68  98 137 169 220 279 324 400
#
# _framework density 21.285288000000001
#
# number of rings (size 3 to 8) (size 9 to 14) (size 15 to 20)
#    0.000    0.857    4.286    2.143    6.000    1.143 
#    0.000    5.714    0.000    0.000    0.000    0.000 
#    0.000    0.000    0.000    0.000    0.000    0.000 
#
# Total GULP energy -693964.664396 kJ/mol
# GULP energy per Si atom -12392.226150 kJ/mol
# Density = 2.123684 g / cm^3
# Si number density = 21.285288 Si / 1000 Ang^3
#
#
#
# Elastic Constant Matrix: (Units=GPa)
#
#
# Indices 1 2 3 4 5 6 
#
# 1 113.4058 37.3525 31.9402 0.0000 0.0000 0.0000
# 2 37.3525 73.9007 13.0853 0.0000 0.0000 0.0000
# 3 31.9402 13.0853 91.9654 0.0000 0.0000 0.0000
# 4 0.0000 0.0000 0.0000 12.6251 0.0000 0.0000
# 5 0.0000 0.0000 0.0000 0.0000 22.7348 0.0000
# 6 0.0000 0.0000 0.0000 0.0000 0.0000 41.7380
#
#
#
# Elastic Compliance Matrix: (Units=1/GPa)
#
#
# Indices 1 2 3 4 5 6 
#
# 1 0.011445 -0.005212 -0.003233 0.000000 0.000000 0.000000
# 2 -0.005212 0.016255 -0.000503 0.000000 0.000000 0.000000
# 3 -0.003233 -0.000503 0.012068 0.000000 0.000000 0.000000
# 4 0.000000 0.000000 0.000000 0.079207 0.000000 0.000000
# 5 0.000000 0.000000 0.000000 0.000000 0.043985 0.000000
# 6 0.000000 0.000000 0.000000 0.000000 0.000000 0.023959
#
#
# Mechanical properties :
#
#
# Convention : Reuss Voigt Hill
#
# Bulk Modulus (GPa) = 45.72064 49.33642 47.52853
# Shear Modulus (GPa) = 23.57293 28.54586 26.05940
#
# Velocity S-wave (km/s) = 3.33149 3.66609 3.50278
# Velocity P-wave (km/s) = 6.02702 6.41477 6.22391
#
# Compressibility (1/GPa) = 0.02187196
#
# Stress axis : x y z
#
# Youngs Moduli (GPa) = 87.37139 61.51857 82.86278
#
# Poissons Ratio (x) = 0.32066 0.26793
# Poissons Ratio (y) = 0.45542 0.04164
# Poissons Ratio (z) = 0.28251 0.03092
#
# Static dielectric constant tensor:
#      x y z
#    x 4.385570 0.000000 0.000000 
#    y 0.000000 4.133870 0.000000 
#    z 0.000000 0.000000 3.570040 
# 
# 
# High freq. dielectric constant tensor:
#      x y z
#    x 1.847270 0.000000 0.000000 
#    y 0.000000 1.846150 0.000000 
#    z 0.000000 0.000000 1.811780 
# 
# From -- ./inp_files/13097.got.cif
#   From: 2010.03.12/outbox.cif.g09.slc.cpg/sg56_7_cif.got.tgz:13097.got - 2010.04.16 15:33:40.
