data_PCOD8228334
_publ_section_title
;
Structure prediction by ZEFSAII (Michael W. Deem and Ramdas Pophale) SiO2 
 PCOD8228334
Probable space group: P C C N
;
_chemical_formula_sum "Si O2"
_cell_formula_units_Z 64
_cell_length_a 8.455737
_cell_length_b 24.202338
_cell_length_c 14.115337
_cell_angle_alpha 90.000000
_cell_angle_beta 90.000000
_cell_angle_gamma 90.000000
_cell_volume 2888.684025
_symmetry_space_group_name_H-M "P C C N"
_symmetry_group_IT_number 56
_symmetry_cell_setting 'orthorhombic'
loop_
_space_group_symop_operation_xyz
x,y,z
1/2-x,1/2-y,z
1/2+x,-y,1/2-z
-x,1/2+y,1/2-z
-x,-y,-z
1/2+x,1/2+y,-z
1/2-x,y,1/2+z
x,1/2-y,1/2+z
loop_
_atom_site_type_symbol
_atom_site_label
_atom_site_fract_x
_atom_site_fract_y
_atom_site_fract_z
Si Si1 0.864798 0.294538 0.862568
Si Si2 0.137693 0.431682 0.978582
Si Si3 0.689968 0.450009 0.578081
Si Si4 0.331073 0.155664 0.817459
Si Si5 0.113973 0.877517 0.052278
Si Si6 0.762583 0.938452 0.821189
Si Si7 0.889123 0.716822 0.554424
Si Si8 0.941378 0.044262 0.771918
O O1 0.750000 0.250000 0.809838
O O2 0.764320 0.341424 0.915706
O O3 0.995487 0.319380 0.791146
O O4 0.967233 0.259888 0.938563
O O5 0.248074 0.424027 0.069194
O O6 0.956212 0.438048 0.008576
O O7 0.208230 0.483599 0.919980
O O8 0.149173 0.378663 0.913819
O O9 0.840188 0.418466 0.533406
O O10 0.670708 0.431378 0.687634
O O11 0.287078 0.120170 0.727540
O O12 0.196223 0.200785 0.844015
O O13 0.052953 0.912160 0.142865
O O14 0.968354 0.839511 0.013777
O O15 0.608159 0.966728 0.777475
O O16 0.899525 0.983386 0.809120
O O17 0.750000 0.750000 0.494943
#
# Coordination Sequence:
#
# PCOD8228334 Si02
#       8
#     8   8   8   8   8   8   8   8
#     4   9  20  36  65  88 110 157 215 250 306 367
#     4  10  20  35  57  87 127 167 198 235 305 375
#     4  10  20  35  57  87 128 165 200 240 293 381
#     4  11  19  38  62  88 124 162 198 254 319 351
#     4  11  19  38  62  90 120 164 202 253 311 364
#     4  11  23  37  57  89 129 168 200 245 299 377
#     4   9  20  38  61  88 114 153 208 261 307 361
#     4  11  23  37  57  89 130 163 203 241 301 374
#
# _framework density 22.155417
#
# number of rings (size 3 to 8) (size 9 to 14) (size 15 to 20)
#    0.000    1.750    5.000    0.000    1.750    0.000 
#    2.250    1.875    0.000   22.500    0.000    0.000 
#    0.000    0.000    0.000    0.000    0.000    0.000 
#
# Total GULP energy -792955.633849 kJ/mol
# GULP energy per Si atom -12389.931779 kJ/mol
# Density = 2.210499 g / cm^3
# Si number density = 22.155417 Si / 1000 Ang^3
#
#
#
# Elastic Constant Matrix: (Units=GPa)
#
#
# Indices 1 2 3 4 5 6 
#
# 1 57.9354 10.5301 -8.0365 0.0000 0.0000 0.0000
# 2 10.5301 85.8279 8.8194 0.0000 0.0000 0.0000
# 3 -8.0365 8.8194 57.2976 0.0000 0.0000 0.0000
# 4 0.0000 0.0000 0.0000 10.1256 0.0000 0.0000
# 5 0.0000 0.0000 0.0000 0.0000 21.6181 0.0000
# 6 0.0000 0.0000 0.0000 0.0000 0.0000 58.0586
#
#
#
# Elastic Compliance Matrix: (Units=1/GPa)
#
#
# Indices 1 2 3 4 5 6 
#
# 1 0.018126 -0.002525 0.002931 0.000000 0.000000 0.000000
# 2 -0.002525 0.012190 -0.002231 0.000000 0.000000 0.000000
# 3 0.002931 -0.002231 0.018207 0.000000 0.000000 0.000000
# 4 0.000000 0.000000 0.000000 0.098760 0.000000 0.000000
# 5 0.000000 0.000000 0.000000 0.000000 0.046258 0.000000
# 6 0.000000 0.000000 0.000000 0.000000 0.000000 0.017224
#
#
# Mechanical properties :
#
#
# Convention : Reuss Voigt Hill
#
# Bulk Modulus (GPa) = 22.28444 24.85411 23.56927
# Shear Modulus (GPa) = 21.79863 30.61032 26.20447
#
# Velocity S-wave (km/s) = 3.14011 3.72104 3.44285
# Velocity P-wave (km/s) = 4.81946 5.45014 5.14447
#
# Compressibility (1/GPa) = 0.04487437
#
# Stress axis : x y z
#
# Youngs Moduli (GPa) = 55.16906 82.03301 54.92348
#
# Poissons Ratio (x) = 0.20714 -0.16098
# Poissons Ratio (y) = 0.13930 0.12251
# Poissons Ratio (z) = -0.16170 0.18298
#
# Static dielectric constant tensor:
#      x y z
#    x 4.350800 0.000000 0.000000 
#    y 0.000000 4.249560 0.000000 
#    z 0.000000 0.000000 3.549900 
# 
# 
# High freq. dielectric constant tensor:
#      x y z
#    x 1.890740 0.000000 0.000000 
#    y 0.000000 1.887780 0.000000 
#    z 0.000000 0.000000 1.821340 
# 
# From -- ./inp_files/11050.got.cif
#   From: 2010.03.12/outbox.cif.g09.slc.cpg/sg56_6_cif.got.tgz:11050.got - 2010.04.16 15:33:40.
