data_PCOD8228618
_publ_section_title
;
Structure prediction by ZEFSAII (Michael W. Deem and Ramdas Pophale) SiO2 
 PCOD8228618
Probable space group: P C C N
;
_chemical_formula_sum "Si O2"
_cell_formula_units_Z 40
_cell_length_a 8.773033
_cell_length_b 10.578630
_cell_length_c 21.718874
_cell_angle_alpha 90.000000
_cell_angle_beta 90.000000
_cell_angle_gamma 90.000000
_cell_volume 2015.656374
_symmetry_space_group_name_H-M "P C C N"
_symmetry_group_IT_number 56
_symmetry_cell_setting 'orthorhombic'
loop_
_space_group_symop_operation_xyz
x,y,z
1/2-x,1/2-y,z
1/2+x,-y,1/2-z
-x,1/2+y,1/2-z
-x,-y,-z
1/2+x,1/2+y,-z
1/2-x,y,1/2+z
x,1/2-y,1/2+z
loop_
_atom_site_type_symbol
_atom_site_label
_atom_site_fract_x
_atom_site_fract_y
_atom_site_fract_z
Si Si1 0.551167 0.503061 0.669054
Si Si2 0.925988 0.773183 0.127572
Si Si3 0.185996 0.112960 0.756528
Si Si4 0.912524 0.107337 0.537569
Si Si5 0.075724 0.633691 0.509619
O O1 0.500828 0.640153 0.646020
O O2 0.401899 0.440725 0.698151
O O3 0.683026 0.515243 0.720882
O O4 0.605985 0.421959 0.609937
O O5 0.750000 0.750000 0.104451
O O6 0.926157 0.867869 0.185475
O O7 0.040470 0.834143 0.079879
O O8 0.250000 0.250000 0.737252
O O9 0.989898 0.247317 0.530807
O O10 0.752306 0.116343 0.503327
O O11 0.000000 0.000000 0.500000
O O12 0.000000 0.500000 0.500000
#
# Coordination Sequence:
#
# PCOD8228618 Si02
#       5
#     8   8   8   8   8
#     4  10  20  44  65  88 131 164 210 272 310 379
#     4   9  19  40  67  88 125 164 213 263 315 382
#     4   9  21  41  63  92 119 165 213 258 320 373
#     4  11  24  42  62  97 131 162 218 267 315 386
#     4  11  23  41  65  95 126 175 207 254 334 379
#
# _framework density 19.844653000000001
#
# number of rings (size 3 to 8) (size 9 to 14) (size 15 to 20)
#    0.000    2.400    2.000    2.400    0.000    1.600 
#   25.200    0.000    0.000    0.000    0.000    0.000 
#    0.000    0.000    0.000    0.000    0.000    0.000 
#
# Total GULP energy -495618.618946 kJ/mol
# GULP energy per Si atom -12390.465474 kJ/mol
# Density = 1.979949 g / cm^3
# Si number density = 19.844653 Si / 1000 Ang^3
#
#
#
# Elastic Constant Matrix: (Units=GPa)
#
#
# Indices 1 2 3 4 5 6 
#
# 1 88.7949 64.1863 76.2225 0.0000 0.0000 0.0000
# 2 64.1863 146.6395 59.2711 0.0000 0.0000 0.0000
# 3 76.2225 59.2711 118.2969 0.0000 0.0000 0.0000
# 4 0.0000 0.0000 0.0000 29.6918 0.0000 0.0000
# 5 0.0000 0.0000 0.0000 0.0000 44.9466 0.0000
# 6 0.0000 0.0000 0.0000 0.0000 0.0000 32.7249
#
#
#
# Elastic Compliance Matrix: (Units=1/GPa)
#
#
# Indices 1 2 3 4 5 6 
#
# 1 0.029496 -0.006557 -0.015720 0.000000 0.000000 0.000000
# 2 -0.006557 0.010009 -0.000790 0.000000 0.000000 0.000000
# 3 -0.015720 -0.000790 0.018978 0.000000 0.000000 0.000000
# 4 0.000000 0.000000 0.000000 0.033679 0.000000 0.000000
# 5 0.000000 0.000000 0.000000 0.000000 0.022249 0.000000
# 6 0.000000 0.000000 0.000000 0.000000 0.000000 0.030558
#
#
# Mechanical properties :
#
#
# Convention : Reuss Voigt Hill
#
# Bulk Modulus (GPa) = 80.97753 83.67679 82.32716
# Shear Modulus (GPa) = 25.61247 31.74275 28.67761
#
# Velocity S-wave (km/s) = 3.59646 4.00379 3.80558
# Velocity P-wave (km/s) = 7.62498 7.97692 7.80293
#
# Compressibility (1/GPa) = 0.01234910
#
# Stress axis : x y z
#
# Youngs Moduli (GPa) = 33.90343 99.91249 52.69291
#
# Poissons Ratio (x) = 0.65510 0.82832
# Poissons Ratio (y) = 0.22230 0.04163
# Poissons Ratio (z) = 0.53295 0.07893
#
# Static dielectric constant tensor:
#      x y z
#    x 3.305810 0.000000 0.000000 
#    y 0.000000 4.102740 0.000000 
#    z 0.000000 0.000000 3.453160 
# 
# 
# High freq. dielectric constant tensor:
#      x y z
#    x 1.755980 0.000000 0.000000 
#    y 0.000000 1.791160 0.000000 
#    z 0.000000 0.000000 1.770600 
# 
# From -- ./inp_files/17986.got.cif
#   From: 2010.03.12/outbox.cif.g09.slc.cpg/sg56_9_cif.got.tgz:17986.got - 2010.04.16 15:33:40.
