data_PCOD8228382
_publ_section_title
;
Structure prediction by ZEFSAII (Michael W. Deem and Ramdas Pophale) SiO2 
 PCOD8228382
Probable space group: P C C N
;
_chemical_formula_sum "Si O2"
_cell_formula_units_Z 48
_cell_length_a 8.159530
_cell_length_b 17.940281
_cell_length_c 16.272190
_cell_angle_alpha 90.000000
_cell_angle_beta 90.000000
_cell_angle_gamma 90.000000
_cell_volume 2381.992508
_symmetry_space_group_name_H-M "P C C N"
_symmetry_group_IT_number 56
_symmetry_cell_setting 'orthorhombic'
loop_
_space_group_symop_operation_xyz
x,y,z
1/2-x,1/2-y,z
1/2+x,-y,1/2-z
-x,1/2+y,1/2-z
-x,-y,-z
1/2+x,1/2+y,-z
1/2-x,y,1/2+z
x,1/2-y,1/2+z
loop_
_atom_site_type_symbol
_atom_site_label
_atom_site_fract_x
_atom_site_fract_y
_atom_site_fract_z
Si Si1 0.567339 0.082666 0.626507
Si Si2 0.156313 0.947197 0.493469
Si Si3 0.535925 0.680792 0.560033
Si Si4 0.883097 0.058533 0.859540
Si Si5 0.343837 0.672068 0.723925
Si Si6 0.099447 0.151684 0.969989
O O1 0.743928 0.052782 0.592530
O O2 0.579832 0.152779 0.687718
O O3 0.454503 0.109261 0.551553
O O4 0.478813 0.014147 0.674719
O O5 0.275568 0.973029 0.565668
O O6 0.103308 0.861543 0.508538
O O7 0.000000 0.000000 0.500000
O O8 0.486890 0.679518 0.656184
O O9 0.546285 0.762847 0.523274
O O10 0.708371 0.639729 0.546080
O O11 0.774393 0.100970 0.792244
O O12 0.013098 0.118717 0.890351
O O13 0.250000 0.750000 0.728863
#
# Coordination Sequence:
#
# PCOD8228382 Si02
#       6
#     8   8   8   8   8   8
#     4  11  24  37  65  95 126 162 210 278 307 374
#     4  10  20  36  62  92 122 161 213 257 309 375
#     4  10  21  38  65  87 122 175 202 255 320 388
#     4  10  21  39  61  86 123 166 204 253 317 381
#     4  11  24  42  62  92 131 172 208 258 329 389
#     4  10  20  40  64  91 123 159 221 258 310 372
#
# _framework density 20.151197
#
# number of rings (size 3 to 8) (size 9 to 14) (size 15 to 20)
#    0.000    1.667    1.667    4.000    2.333    4.000 
#    0.000    5.000    0.000    0.000    0.000    0.000 
#    0.000    0.000    0.000    0.000    0.000    0.000 
#
# Total GULP energy -595087.441509 kJ/mol
# GULP energy per Si atom -12397.655031 kJ/mol
# Density = 2.010533 g / cm^3
# Si number density = 20.151197 Si / 1000 Ang^3
#
#
#
# Elastic Constant Matrix: (Units=GPa)
#
#
# Indices 1 2 3 4 5 6 
#
# 1 106.9036 47.9630 29.1693 0.0000 0.0000 0.0000
# 2 47.9630 70.5780 30.2420 0.0000 0.0000 0.0000
# 3 29.1693 30.2420 56.6550 0.0000 0.0000 0.0000
# 4 0.0000 0.0000 0.0000 24.0924 0.0000 0.0000
# 5 0.0000 0.0000 0.0000 0.0000 20.9472 0.0000
# 6 0.0000 0.0000 0.0000 0.0000 0.0000 43.9715
#
#
#
# Elastic Compliance Matrix: (Units=1/GPa)
#
#
# Indices 1 2 3 4 5 6 
#
# 1 0.013772 -0.008195 -0.002716 0.000000 0.000000 0.000000
# 2 -0.008195 0.023247 -0.008190 0.000000 0.000000 0.000000
# 3 -0.002716 -0.008190 0.023421 0.000000 0.000000 0.000000
# 4 0.000000 0.000000 0.000000 0.041507 0.000000 0.000000
# 5 0.000000 0.000000 0.000000 0.000000 0.047739 0.000000
# 6 0.000000 0.000000 0.000000 0.000000 0.000000 0.022742
#
#
# Mechanical properties :
#
#
# Convention : Reuss Voigt Hill
#
# Bulk Modulus (GPa) = 44.96861 49.87612 47.42236
# Shear Modulus (GPa) = 22.93119 26.25303 24.59211
#
# Velocity S-wave (km/s) = 3.37702 3.61335 3.49718
# Velocity P-wave (km/s) = 6.12942 6.49716 6.31597
#
# Compressibility (1/GPa) = 0.02223774
#
# Stress axis : x y z
#
# Youngs Moduli (GPa) = 72.60970 43.01564 42.69725
#
# Poissons Ratio (x) = 0.35253 0.11597
# Poissons Ratio (y) = 0.59507 0.34968
# Poissons Ratio (z) = 0.19721 0.35229
#
# Static dielectric constant tensor:
#      x y z
#    x 3.934300 0.000000 0.000000 
#    y 0.000000 3.743900 0.000000 
#    z 0.000000 0.000000 3.334970 
# 
# 
# High freq. dielectric constant tensor:
#      x y z
#    x 1.798590 0.000000 0.000000 
#    y 0.000000 1.805550 0.000000 
#    z 0.000000 0.000000 1.757010 
# 
# From -- ./inp_files/14978.got.cif
#   From: 2010.03.12/outbox.cif.g09.slc.cpg/sg56_8_cif.got.tgz:14978.got - 2010.04.16 15:33:40.
