data_PCOD8228050
_publ_section_title
;
Structure prediction by ZEFSAII (Michael W. Deem and Ramdas Pophale) SiO2 
 PCOD8228050
Probable space group: P C C N
;
_chemical_formula_sum "Si O2"
_cell_formula_units_Z 48
_cell_length_a 4.998564
_cell_length_b 15.348684
_cell_length_c 25.177143
_cell_angle_alpha 90.000000
_cell_angle_beta 90.000000
_cell_angle_gamma 90.000000
_cell_volume 1931.625138
_symmetry_space_group_name_H-M "P C C N"
_symmetry_group_IT_number 56
_symmetry_cell_setting 'orthorhombic'
loop_
_space_group_symop_operation_xyz
x,y,z
1/2-x,1/2-y,z
1/2+x,-y,1/2-z
-x,1/2+y,1/2-z
-x,-y,-z
1/2+x,1/2+y,-z
1/2-x,y,1/2+z
x,1/2-y,1/2+z
loop_
_atom_site_type_symbol
_atom_site_label
_atom_site_fract_x
_atom_site_fract_y
_atom_site_fract_z
Si Si1 0.634312 0.967258 0.848119
Si Si2 0.750000 0.750000 0.320909
Si Si3 0.083478 0.107564 0.754050
Si Si4 0.138161 0.136080 0.358196
Si Si5 0.750000 0.250000 0.522303
Si Si6 0.250000 0.750000 0.703791
Si Si7 0.365018 0.642027 0.880985
Si Si8 0.250000 0.250000 0.449319
O O1 0.605175 0.980399 0.782503
O O2 0.417218 0.890838 0.857782
O O3 0.915862 0.934967 0.872244
O O4 0.575537 0.060924 0.874059
O O5 0.725923 0.832623 0.282318
O O6 0.484323 0.766124 0.357281
O O7 0.169096 0.090217 0.814693
O O8 0.811500 0.165376 0.759428
O O9 0.292592 0.165011 0.411331
O O10 0.999331 0.223304 0.333738
O O11 0.818130 0.336141 0.556944
O O12 0.502789 0.270892 0.484788
#
# Coordination Sequence:
#
# PCOD8228050 Si02
#       8
#     8   4   8   8   4   4   8   4
#     4  11  28  42  72 105 155 183 227 292 369 411
#     4  10  18  40  68 106 136 184 232 288 342 408
#     4  11  22  38  65  99 141 193 231 276 336 419
#     4  12  27  44  64 106 148 194 238 284 341 441
#     4  12  25  49  82 100 130 178 249 311 372 424
#     4  12  21  41  66  92 148 194 253 271 322 408
#     4  11  24  47  71 109 135 176 240 311 359 429
#     4  12  26  48  74 104 132 194 242 300 358 430
#
# _framework density 24.849540999999999
#
# number of rings (size 3 to 8) (size 9 to 14) (size 15 to 20)
#    0.000    0.667    3.333    5.000    7.000    0.000 
#    0.000    5.000    0.000    0.000    0.000    0.000 
#    0.000    0.000    0.000    0.000    0.000    0.000 
#
# Total GULP energy -594646.073579 kJ/mol
# GULP energy per Si atom -12388.459866 kJ/mol
# Density = 2.479298 g / cm^3
# Si number density = 24.849541 Si / 1000 Ang^3
#
#
#
# Elastic Constant Matrix: (Units=GPa)
#
#
# Indices 1 2 3 4 5 6 
#
# 1 93.7567 -12.0994 48.8515 0.0000 0.0000 0.0000
# 2 -12.0994 73.1739 28.4602 0.0000 0.0000 0.0000
# 3 48.8515 28.4602 160.2684 0.0000 0.0000 0.0000
# 4 0.0000 0.0000 0.0000 28.5001 0.0000 0.0000
# 5 0.0000 0.0000 0.0000 0.0000 47.6591 0.0000
# 6 0.0000 0.0000 0.0000 0.0000 0.0000 27.4943
#
#
#
# Elastic Compliance Matrix: (Units=1/GPa)
#
#
# Indices 1 2 3 4 5 6 
#
# 1 0.013787 0.004205 -0.004949 0.000000 0.000000 0.000000
# 2 0.004205 0.015962 -0.004116 0.000000 0.000000 0.000000
# 3 -0.004949 -0.004116 0.008479 0.000000 0.000000 0.000000
# 4 0.000000 0.000000 0.000000 0.035088 0.000000 0.000000
# 5 0.000000 0.000000 0.000000 0.000000 0.020982 0.000000
# 6 0.000000 0.000000 0.000000 0.000000 0.000000 0.036371
#
#
# Mechanical properties :
#
#
# Convention : Reuss Voigt Hill
#
# Bulk Modulus (GPa) = 35.07886 50.84706 42.96296
# Shear Modulus (GPa) = 33.35705 38.19648 35.77676
#
# Velocity S-wave (km/s) = 3.66780 3.92485 3.79850
# Velocity P-wave (km/s) = 5.66429 6.40669 6.04689
#
# Compressibility (1/GPa) = 0.02850720
#
# Stress axis : x y z
#
# Youngs Moduli (GPa) = 72.53076 62.64780 117.93807
#
# Poissons Ratio (x) = -0.26341 0.58369
# Poissons Ratio (y) = -0.30497 0.48545
# Poissons Ratio (z) = 0.35897 0.25787
#
# Static dielectric constant tensor:
#      x y z
#    x 4.400460 0.000000 0.000000 
#    y 0.000000 4.788070 0.000000 
#    z 0.000000 0.000000 4.509840 
# 
# 
# High freq. dielectric constant tensor:
#      x y z
#    x 2.002760 0.000000 0.000000 
#    y 0.000000 1.994660 0.000000 
#    z 0.000000 0.000000 1.966930 
# 
# From -- ./inp_files/20092.got.cif
#   From: 2010.03.12/outbox.cif.g09.slc.cpg/sg56_11_cif.got.tgz:20092.got - 2010.04.16 15:33:40.
