data_PCOD8228451
_publ_section_title
;
Structure prediction by ZEFSAII (Michael W. Deem and Ramdas Pophale) SiO2 
 PCOD8228451
Probable space group: P C C N
;
_chemical_formula_sum "Si O2"
_cell_formula_units_Z 48
_cell_length_a 8.991700
_cell_length_b 15.338830
_cell_length_c 17.845892
_cell_angle_alpha 90.000000
_cell_angle_beta 90.000000
_cell_angle_gamma 90.000000
_cell_volume 2461.343931
_symmetry_space_group_name_H-M "P C C N"
_symmetry_group_IT_number 56
_symmetry_cell_setting 'orthorhombic'
loop_
_space_group_symop_operation_xyz
x,y,z
1/2-x,1/2-y,z
1/2+x,-y,1/2-z
-x,1/2+y,1/2-z
-x,-y,-z
1/2+x,1/2+y,-z
1/2-x,y,1/2+z
x,1/2-y,1/2+z
loop_
_atom_site_type_symbol
_atom_site_label
_atom_site_fract_x
_atom_site_fract_y
_atom_site_fract_z
Si Si1 0.924499 0.755705 0.188816
Si Si2 0.574143 0.247634 0.468114
Si Si3 0.101171 0.420122 0.219784
Si Si4 0.556009 0.915552 0.279517
Si Si5 0.848666 0.836991 0.432436
Si Si6 0.052698 0.081563 0.046377
O O1 0.750000 0.750000 0.167315
O O2 0.960170 0.851954 0.219336
O O3 0.972024 0.682246 0.249165
O O4 0.028749 0.745189 0.117716
O O5 0.750000 0.250000 0.476313
O O6 0.482337 0.324562 0.509100
O O7 0.529376 0.159933 0.507567
O O8 0.273447 0.438728 0.229467
O O9 0.070184 0.374818 0.140322
O O10 0.025879 0.513900 0.227996
O O11 0.505384 0.922611 0.366157
O O12 0.750000 0.750000 0.413142
O O13 0.731089 0.908217 0.463093
O O14 0.000000 0.000000 0.000000
#
# Coordination Sequence:
#
# PCOD8228451 Si02
#       6
#     8   8   8   8   8   8
#     4  10  20  38  59  80 114 156 192 230 286 349
#     4  11  23  37  57  85 113 149 194 241 289 337
#     4  10  20  38  60  84 114 149 189 237 287 341
#     4  10  22  36  59  89 114 149 194 233 284 346
#     4   9  19  39  61  81 114 157 192 230 285 351
#     4  10  20  38  61  85 114 152 193 233 284 348
#
# _framework density 19.501541
#
# number of rings (size 3 to 8) (size 9 to 14) (size 15 to 20)
#    0.000    2.000    0.000    6.000    0.000    6.667 
#    0.000    3.333    0.000    0.000    0.000    0.000 
#    0.000    0.000    0.000    0.000    0.000    0.000 
#
# Total GULP energy -595028.516485 kJ/mol
# GULP energy per Si atom -12396.427427 kJ/mol
# Density = 1.945715 g / cm^3
# Si number density = 19.501541 Si / 1000 Ang^3
#
#
#
# Elastic Constant Matrix: (Units=GPa)
#
#
# Indices 1 2 3 4 5 6 
#
# 1 79.6719 20.9373 52.1154 0.0000 0.0000 0.0000
# 2 20.9373 68.0557 33.6102 0.0000 0.0000 0.0000
# 3 52.1154 33.6102 125.3320 0.0000 0.0000 0.0000
# 4 0.0000 0.0000 0.0000 28.0416 0.0000 0.0000
# 5 0.0000 0.0000 0.0000 0.0000 13.5494 0.0000
# 6 0.0000 0.0000 0.0000 0.0000 0.0000 28.2315
#
#
#
# Elastic Compliance Matrix: (Units=1/GPa)
#
#
# Indices 1 2 3 4 5 6 
#
# 1 0.017488 -0.002062 -0.006719 0.000000 0.000000 0.000000
# 2 -0.002062 0.017180 -0.003750 0.000000 0.000000 0.000000
# 3 -0.006719 -0.003750 0.011778 0.000000 0.000000 0.000000
# 4 0.000000 0.000000 0.000000 0.035661 0.000000 0.000000
# 5 0.000000 0.000000 0.000000 0.000000 0.073804 0.000000
# 6 0.000000 0.000000 0.000000 0.000000 0.000000 0.035421
#
#
# Mechanical properties :
#
#
# Convention : Reuss Voigt Hill
#
# Bulk Modulus (GPa) = 46.76135 54.04281 50.40208
# Shear Modulus (GPa) = 22.36901 25.05762 23.71332
#
# Velocity S-wave (km/s) = 3.39047 3.58845 3.49086
# Velocity P-wave (km/s) = 6.27355 6.70384 6.49226
#
# Compressibility (1/GPa) = 0.02138518
#
# Stress axis : x y z
#
# Youngs Moduli (GPa) = 57.18056 58.20691 84.90203
#
# Poissons Ratio (x) = 0.12002 0.57046
# Poissons Ratio (y) = 0.11791 0.31836
# Poissons Ratio (z) = 0.38420 0.21826
#
# Static dielectric constant tensor:
#      x y z
#    x 3.745750 0.000000 0.000000 
#    y 0.000000 3.705330 0.000000 
#    z 0.000000 0.000000 3.481770 
# 
# 
# High freq. dielectric constant tensor:
#      x y z
#    x 1.747710 0.000000 0.000000 
#    y 0.000000 1.762590 0.000000 
#    z 0.000000 0.000000 1.769650 
# 
# From -- ./inp_files/14762.got.cif
#   From: 2010.03.12/outbox.cif.g09.slc.cpg/sg56_8_cif.got.tgz:14762.got - 2010.04.16 15:33:40.
