data_PCOD8228019
_publ_section_title
;
Structure prediction by ZEFSAII (Michael W. Deem and Ramdas Pophale) SiO2 
 PCOD8228019
Probable space group: P C C N
;
_chemical_formula_sum "Si O2"
_cell_formula_units_Z 48
_cell_length_a 13.038517
_cell_length_b 11.494683
_cell_length_c 18.759149
_cell_angle_alpha 90.000000
_cell_angle_beta 90.000000
_cell_angle_gamma 90.000000
_cell_volume 2811.501563
_symmetry_space_group_name_H-M "P C C N"
_symmetry_group_IT_number 56
_symmetry_cell_setting 'orthorhombic'
loop_
_space_group_symop_operation_xyz
x,y,z
1/2-x,1/2-y,z
1/2+x,-y,1/2-z
-x,1/2+y,1/2-z
-x,-y,-z
1/2+x,1/2+y,-z
1/2-x,y,1/2+z
x,1/2-y,1/2+z
loop_
_atom_site_type_symbol
_atom_site_label
_atom_site_fract_x
_atom_site_fract_y
_atom_site_fract_z
Si Si1 0.135755 0.225322 0.734596
Si Si2 0.502464 0.659917 0.132396
Si Si3 0.315982 0.416534 0.597886
Si Si4 0.917433 0.901493 0.873304
Si Si5 0.462353 0.264661 0.510419
Si Si6 0.350208 0.680616 0.570743
O O1 0.250000 0.250000 0.762961
O O2 0.135996 0.131907 0.670806
O O3 0.084551 0.345293 0.705857
O O4 0.070625 0.173352 0.798282
O O5 0.460550 0.529729 0.129638
O O6 0.403788 0.745768 0.134903
O O7 0.568777 0.692242 0.061435
O O8 0.196174 0.386793 0.592718
O O9 0.374911 0.358577 0.530850
O O10 0.325021 0.554401 0.599803
O O11 0.987248 0.825656 0.926240
O O12 0.570661 0.330052 0.495736
O O13 0.250000 0.750000 0.544728
#
# Coordination Sequence:
#
# PCOD8228019 Si02
#       6
#     8   8   8   8   8   8
#     4   9  21  35  54  79 109 142 184 223 268 318
#     4  10  21  32  55  81 107 140 182 220 271 315
#     4  10  18  37  57  77 109 144 179 220 267 328
#     4  10  19  37  56  80 108 144 176 226 269 324
#     4   9  20  32  56  80 104 142 182 215 274 313
#     4  10  20  34  52  82 107 137 181 220 273 319
#
# _framework density 17.072728999999999
#
# number of rings (size 3 to 8) (size 9 to 14) (size 15 to 20)
#    1.000    1.333    1.667    2.500    2.333    1.333 
#    0.000    0.000    0.000    4.000    0.000    0.000 
#    0.000    0.000    0.000    0.000    0.000    0.000 
#
# Total GULP energy -594828.241617 kJ/mol
# GULP energy per Si atom -12392.255034 kJ/mol
# Density = 1.703387 g / cm^3
# Si number density = 17.072729 Si / 1000 Ang^3
#
#
#
# Elastic Constant Matrix: (Units=GPa)
#
#
# Indices 1 2 3 4 5 6 
#
# 1 78.6750 21.6760 41.9885 0.0000 0.0000 0.0000
# 2 21.6760 102.0532 23.0581 0.0000 0.0000 0.0000
# 3 41.9885 23.0581 74.8582 0.0000 0.0000 0.0000
# 4 0.0000 0.0000 0.0000 19.5104 0.0000 0.0000
# 5 0.0000 0.0000 0.0000 0.0000 22.5931 0.0000
# 6 0.0000 0.0000 0.0000 0.0000 0.0000 32.3377
#
#
#
# Elastic Compliance Matrix: (Units=1/GPa)
#
#
# Indices 1 2 3 4 5 6 
#
# 1 0.018410 -0.001695 -0.009804 0.000000 0.000000 0.000000
# 2 -0.001695 0.010688 -0.002341 0.000000 0.000000 0.000000
# 3 -0.009804 -0.002341 0.019579 0.000000 0.000000 0.000000
# 4 0.000000 0.000000 0.000000 0.051255 0.000000 0.000000
# 5 0.000000 0.000000 0.000000 0.000000 0.044261 0.000000
# 6 0.000000 0.000000 0.000000 0.000000 0.000000 0.030924
#
#
# Mechanical properties :
#
#
# Convention : Reuss Voigt Hill
#
# Bulk Modulus (GPa) = 47.62884 47.67016 47.64950
# Shear Modulus (GPa) = 23.83266 26.14583 24.98924
#
# Velocity S-wave (km/s) = 3.74029 3.91760 3.82998
# Velocity P-wave (km/s) = 6.82724 6.96031 6.89410
#
# Compressibility (1/GPa) = 0.02099568
#
# Stress axis : x y z
#
# Youngs Moduli (GPa) = 54.31840 93.56422 51.07512
#
# Poissons Ratio (x) = 0.15860 0.50075
# Poissons Ratio (y) = 0.09207 0.11958
# Poissons Ratio (z) = 0.53255 0.21907
#
# Static dielectric constant tensor:
#      x y z
#    x 3.141360 0.000000 0.000000 
#    y 0.000000 3.247150 0.000000 
#    z 0.000000 0.000000 2.976980 
# 
# 
# High freq. dielectric constant tensor:
#      x y z
#    x 1.651430 0.000000 0.000000 
#    y 0.000000 1.672600 0.000000 
#    z 0.000000 0.000000 1.638510 
# 
# From -- ./inp_files/18674.got.cif
#   From: 2010.03.12/outbox.cif.g09.slc.cpg/sg56_10_cif.got.tgz:18674.got - 2010.04.16 15:33:40.
