data_PCOD8228165
_publ_section_title
;
Structure prediction by ZEFSAII (Michael W. Deem and Ramdas Pophale) SiO2 
 PCOD8228165
Probable space group: P C C N
;
_chemical_formula_sum "Si O2"
_cell_formula_units_Z 60
_cell_length_a 13.292934
_cell_length_b 9.063184
_cell_length_c 22.752837
_cell_angle_alpha 90.000000
_cell_angle_beta 90.000000
_cell_angle_gamma 90.000000
_cell_volume 2741.177770
_symmetry_space_group_name_H-M "P C C N"
_symmetry_group_IT_number 56
_symmetry_cell_setting 'orthorhombic'
loop_
_space_group_symop_operation_xyz
x,y,z
1/2-x,1/2-y,z
1/2+x,-y,1/2-z
-x,1/2+y,1/2-z
-x,-y,-z
1/2+x,1/2+y,-z
1/2-x,y,1/2+z
x,1/2-y,1/2+z
loop_
_atom_site_type_symbol
_atom_site_label
_atom_site_fract_x
_atom_site_fract_y
_atom_site_fract_z
Si Si1 0.750000 0.250000 0.651998
Si Si2 0.051512 0.981080 0.061209
Si Si3 0.183780 0.469633 0.161412
Si Si4 0.702995 0.529397 0.583140
Si Si5 0.098509 0.147055 0.166443
Si Si6 0.725280 0.081508 0.959849
Si Si7 0.603621 0.682384 0.123183
Si Si8 0.405832 0.554034 0.780303
O O1 0.692566 0.371109 0.613093
O O2 0.835689 0.325722 0.689829
O O3 0.031234 0.111200 0.108231
O O4 0.168785 0.991520 0.052353
O O5 0.005828 0.834028 0.092300
O O6 0.000000 0.000000 0.000000
O O7 0.131363 0.312817 0.159606
O O8 0.303225 0.456586 0.174501
O O9 0.161885 0.556412 0.100109
O O10 0.129131 0.556424 0.213143
O O11 0.672363 0.503575 0.514547
O O12 0.817270 0.588511 0.584165
O O13 0.632820 0.644912 0.619432
O O14 0.021495 0.112314 0.219801
O O15 0.750000 0.250000 0.975387
O O16 0.604963 0.609930 0.189075
#
# Coordination Sequence:
#
# PCOD8228165 Si02
#       8
#     4   8   8   8   8   8   8   8
#     4  10  22  38  60  90 130 172 212 276 330 378
#     4  10  19  37  64  89 124 163 209 261 319 398
#     4  10  23  42  66  93 128 171 219 274 332 404
#     4  10  19  36  60  91 126 162 212 263 325 384
#     4   9  22  41  65  95 124 167 221 271 332 395
#     4  11  23  38  59  90 135 170 206 265 333 389
#     4   9  20  36  64  92 114 166 219 261 316 387
#     4  10  22  43  65  92 129 169 220 276 331 397
#
# _framework density 21.888400000000001
#
# number of rings (size 3 to 8) (size 9 to 14) (size 15 to 20)
#    0.000    2.133    2.000    0.000    2.800    6.400 
#    7.200    0.667    0.000    0.000    0.000    0.000 
#    0.000    0.000    0.000    0.000    0.000    0.000 
#
# Total GULP energy -743447.156861 kJ/mol
# GULP energy per Si atom -12390.785948 kJ/mol
# Density = 2.183858 g / cm^3
# Si number density = 21.888400 Si / 1000 Ang^3
#
#
#
# Elastic Constant Matrix: (Units=GPa)
#
#
# Indices 1 2 3 4 5 6 
#
# 1 70.8342 20.9978 26.0882 0.0000 0.0000 0.0000
# 2 20.9978 107.1862 29.7378 0.0000 0.0000 0.0000
# 3 26.0882 29.7378 113.5448 0.0000 0.0000 0.0000
# 4 0.0000 0.0000 0.0000 19.3982 0.0000 0.0000
# 5 0.0000 0.0000 0.0000 0.0000 -203.3887 0.0000
# 6 0.0000 0.0000 0.0000 0.0000 0.0000 29.4094
#
#
#
# Elastic Compliance Matrix: (Units=1/GPa)
#
#
# Indices 1 2 3 4 5 6 
#
# 1 0.015918 -0.002269 -0.003063 0.000000 0.000000 0.000000
# 2 -0.002269 0.010384 -0.002198 0.000000 0.000000 0.000000
# 3 -0.003063 -0.002198 0.010087 0.000000 0.000000 0.000000
# 4 0.000000 0.000000 0.000000 0.051551 0.000000 0.000000
# 5 0.000000 0.000000 0.000000 0.000000 -0.004917 0.000000
# 6 0.000000 0.000000 0.000000 0.000000 0.000000 0.034003
#
#
# Mechanical properties :
#
#
# Convention : Reuss Voigt Hill
#
# Bulk Modulus (GPa) = 46.88569 49.46810 48.17689
# Shear Modulus (GPa) = 35.92063 -16.60016 9.66024
#
# Velocity S-wave (km/s) = 4.05542 -2.75689 2.10309
# Velocity P-wave (km/s) = 6.58752 3.53769 5.28728
#
# Compressibility (1/GPa) = 0.02132847
#
# Stress axis : x y z
#
# Youngs Moduli (GPa) = 62.82141 96.30317 99.14078
#
# Poissons Ratio (x) = 0.21846 0.30369
# Poissons Ratio (y) = 0.14251 0.21795
# Poissons Ratio (z) = 0.19244 0.21171
#
# Static dielectric constant tensor:
#      x y z
#    x 3.974420 0.000000 0.000000 
#    y 0.000000 3.880450 0.000000 
#    z 0.000000 0.000000 4.609140 
# 
# 
# High freq. dielectric constant tensor:
#      x y z
#    x 1.852920 0.000000 0.000000 
#    y 0.000000 1.849800 0.000000 
#    z 0.000000 0.000000 1.863890 
# 
# From -- ./inp_files/21140.got.cif
#   From: 2010.03.12/outbox.cif.g09.slc.cpg/sg56_11_cif.got.tgz:21140.got - 2010.04.16 15:33:40.
