data_PCOD8228312
_publ_section_title
;
Structure prediction by ZEFSAII (Michael W. Deem and Ramdas Pophale) SiO2 
 PCOD8228312
Probable space group: P C C N
;
_chemical_formula_sum "Si O2"
_cell_formula_units_Z 48
_cell_length_a 8.236652
_cell_length_b 28.195921
_cell_length_c 9.418547
_cell_angle_alpha 90.000000
_cell_angle_beta 90.000000
_cell_angle_gamma 90.000000
_cell_volume 2187.363253
_symmetry_space_group_name_H-M "P C C N"
_symmetry_group_IT_number 56
_symmetry_cell_setting 'orthorhombic'
loop_
_space_group_symop_operation_xyz
x,y,z
1/2-x,1/2-y,z
1/2+x,-y,1/2-z
-x,1/2+y,1/2-z
-x,-y,-z
1/2+x,1/2+y,-z
1/2-x,y,1/2+z
x,1/2-y,1/2+z
loop_
_atom_site_type_symbol
_atom_site_label
_atom_site_fract_x
_atom_site_fract_y
_atom_site_fract_z
Si Si1 0.077468 0.292060 0.415559
Si Si2 0.433458 0.102676 0.025637
Si Si3 0.941663 0.606826 0.505864
Si Si4 0.565261 0.457472 0.764850
Si Si5 0.917028 0.793178 0.418503
Si Si6 0.933456 0.439282 0.754514
O O1 0.989417 0.342805 0.435378
O O2 0.100738 0.280658 0.248716
O O3 0.983491 0.248338 0.495942
O O4 0.244220 0.296376 0.503491
O O5 0.555824 0.079541 0.914064
O O6 0.250605 0.103106 0.966876
O O7 0.438479 0.069796 0.164183
O O8 0.499466 0.155354 0.064186
O O9 0.034582 0.563122 0.578915
O O10 0.986596 0.602057 0.340802
O O11 0.747786 0.448186 0.713468
O O12 0.537200 0.513212 0.763586
#
# Coordination Sequence:
#
# PCOD8228312 Si02
#       6
#     8   8   8   8   8   8
#     4  10  20  34  61  95 132 164 212 265 316 375
#     4  11  23  40  65  96 129 166 215 265 316 376
#     4  11  23  40  65  96 129 166 215 265 316 376
#     4  12  24  46  61  96 127 167 220 257 327 382
#     4  10  20  34  61  95 132 164 212 265 316 375
#     4  12  26  40  69  88 129 173 208 271 317 386
#
# _framework density 21.944229
#
# number of rings (size 3 to 8) (size 9 to 14) (size 15 to 20)
#    0.000    1.000    1.667    7.000    9.333    0.000 
#    0.000    0.000    0.000    6.000    0.000    0.000 
#    0.000    0.000    0.000    0.000    0.000    0.000 
#
# Total GULP energy -595101.348599 kJ/mol
# GULP energy per Si atom -12397.944762 kJ/mol
# Density = 2.189428 g / cm^3
# Si number density = 21.944229 Si / 1000 Ang^3
#
#
#
# Elastic Constant Matrix: (Units=GPa)
#
#
# Indices 1 2 3 4 5 6 
#
# 1 55.8906 24.9211 21.3135 0.0000 0.0000 0.0000
# 2 24.9211 139.4274 54.6091 0.0000 0.0000 0.0000
# 3 21.3135 54.6091 124.7186 0.0000 0.0000 0.0000
# 4 0.0000 0.0000 0.0000 47.9925 0.0000 0.0000
# 5 0.0000 0.0000 0.0000 0.0000 28.6855 0.0000
# 6 0.0000 0.0000 0.0000 0.0000 0.0000 19.0221
#
#
#
# Elastic Compliance Matrix: (Units=1/GPa)
#
#
# Indices 1 2 3 4 5 6 
#
# 1 0.019942 -0.002691 -0.002230 0.000000 0.000000 0.000000
# 2 -0.002691 0.009020 -0.003490 0.000000 0.000000 0.000000
# 3 -0.002230 -0.003490 0.009927 0.000000 0.000000 0.000000
# 4 0.000000 0.000000 0.000000 0.020837 0.000000 0.000000
# 5 0.000000 0.000000 0.000000 0.000000 0.034861 0.000000
# 6 0.000000 0.000000 0.000000 0.000000 0.000000 0.052570
#
#
# Mechanical properties :
#
#
# Convention : Reuss Voigt Hill
#
# Bulk Modulus (GPa) = 45.31340 57.96933 51.64137
# Shear Modulus (GPa) = 29.18274 33.75288 31.46781
#
# Velocity S-wave (km/s) = 3.65068 3.92614 3.79091
# Velocity P-wave (km/s) = 6.20195 6.85761 6.53800
#
# Compressibility (1/GPa) = 0.02206853
#
# Stress axis : x y z
#
# Youngs Moduli (GPa) = 50.14453 110.86523 100.73523
#
# Poissons Ratio (x) = 0.29836 0.22460
# Poissons Ratio (y) = 0.13495 0.35152
# Poissons Ratio (z) = 0.11180 0.38687
#
# Static dielectric constant tensor:
#      x y z
#    x 3.352800 0.000000 0.000000 
#    y 0.000000 5.055220 0.000000 
#    z 0.000000 0.000000 3.945110 
# 
# 
# High freq. dielectric constant tensor:
#      x y z
#    x 1.813140 0.000000 0.000000 
#    y 0.000000 1.888030 0.000000 
#    z 0.000000 0.000000 1.878640 
# 
# From -- ./inp_files/2246.got.cif
#   From: 2010.03.12/outbox.cif.g09.slc.cpg/sg56_2_cif.got.tgz:2246.got - 2010.04.16 15:33:40.
