data_PCOD8228092
_publ_section_title
;
Structure prediction by ZEFSAII (Michael W. Deem and Ramdas Pophale) SiO2 
 PCOD8228092
Probable space group: P C C N
;
_chemical_formula_sum "Si O2"
_cell_formula_units_Z 40
_cell_length_a 8.925891
_cell_length_b 9.863043
_cell_length_c 22.995174
_cell_angle_alpha 90.000000
_cell_angle_beta 90.000000
_cell_angle_gamma 90.000000
_cell_volume 2024.413411
_symmetry_space_group_name_H-M "P C C N"
_symmetry_group_IT_number 56
_symmetry_cell_setting 'orthorhombic'
loop_
_space_group_symop_operation_xyz
x,y,z
1/2-x,1/2-y,z
1/2+x,-y,1/2-z
-x,1/2+y,1/2-z
-x,-y,-z
1/2+x,1/2+y,-z
1/2-x,y,1/2+z
x,1/2-y,1/2+z
loop_
_atom_site_type_symbol
_atom_site_label
_atom_site_fract_x
_atom_site_fract_y
_atom_site_fract_z
Si Si1 0.578472 0.287100 0.509662
Si Si2 0.426467 0.513377 0.583413
Si Si3 0.056946 0.128597 0.201948
Si Si4 0.600696 0.567452 0.287312
Si Si5 0.361770 0.127463 0.577051
O O1 0.750000 0.250000 0.518147
O O2 0.538293 0.401919 0.557075
O O3 0.537403 0.339579 0.444532
O O4 0.468831 0.159221 0.522159
O O5 0.439859 0.510797 0.652762
O O6 0.252178 0.493847 0.562193
O O7 0.018951 0.286188 0.215910
O O8 0.224047 0.090271 0.220259
O O9 0.034935 0.099733 0.133217
O O10 0.944658 0.030244 0.235122
O O11 0.250000 0.250000 0.595958
#
# Coordination Sequence:
#
# PCOD8228092 Si02
#       5
#     8   8   8   8   8
#     4  10  19  32  59  84 106 141 197 229 269 337
#     4   9  19  38  56  77 116 151 177 235 287 335
#     4  10  19  37  59  85 110 154 187 229 280 342
#     4  10  20  38  60  83 116 149 190 229 288 336
#     4   9  16  37  60  73 114 155 176 218 297 336
#
# _framework density 19.758808999999999
#
# number of rings (size 3 to 8) (size 9 to 14) (size 15 to 20)
#    0.000    2.400    6.000    0.000    0.000    3.200 
#    7.200    0.000   22.000    0.000    0.000    0.000 
#    0.000    0.000    0.000    0.000    0.000    0.000 
#
# Total GULP energy -495756.413333 kJ/mol
# GULP energy per Si atom -12393.910333 kJ/mol
# Density = 1.971384 g / cm^3
# Si number density = 19.758809 Si / 1000 Ang^3
#
#
#
# Elastic Constant Matrix: (Units=GPa)
#
#
# Indices 1 2 3 4 5 6 
#
# 1 56.8043 32.1015 36.7387 0.0000 0.0000 0.0000
# 2 32.1015 74.0920 53.6972 0.0000 0.0000 0.0000
# 3 36.7387 53.6972 108.2523 0.0000 0.0000 0.0000
# 4 0.0000 0.0000 0.0000 30.8919 0.0000 0.0000
# 5 0.0000 0.0000 0.0000 0.0000 25.7622 0.0000
# 6 0.0000 0.0000 0.0000 0.0000 0.0000 26.0359
#
#
#
# Elastic Compliance Matrix: (Units=1/GPa)
#
#
# Indices 1 2 3 4 5 6 
#
# 1 0.024828 -0.007260 -0.004825 0.000000 0.000000 0.000000
# 2 -0.007260 0.023195 -0.009042 0.000000 0.000000 0.000000
# 3 -0.004825 -0.009042 0.015360 0.000000 0.000000 0.000000
# 4 0.000000 0.000000 0.000000 0.032371 0.000000 0.000000
# 5 0.000000 0.000000 0.000000 0.000000 0.038817 0.000000
# 6 0.000000 0.000000 0.000000 0.000000 0.000000 0.038408
#
#
# Mechanical properties :
#
#
# Convention : Reuss Voigt Hill
#
# Bulk Modulus (GPa) = 47.32690 53.80259 50.56475
# Shear Modulus (GPa) = 22.49459 24.31207 23.40333
#
# Velocity S-wave (km/s) = 3.37777 3.51157 3.44532
# Velocity P-wave (km/s) = 6.26232 6.61289 6.43999
#
# Compressibility (1/GPa) = 0.02112963
#
# Stress axis : x y z
#
# Youngs Moduli (GPa) = 40.27761 43.11224 65.10397
#
# Poissons Ratio (x) = 0.31301 0.31410
# Poissons Ratio (y) = 0.29243 0.58865
# Poissons Ratio (z) = 0.19432 0.38981
#
# Static dielectric constant tensor:
#      x y z
#    x 3.505230 0.000000 0.000000 
#    y 0.000000 3.712450 0.000000 
#    z 0.000000 0.000000 3.500940 
# 
# 
# High freq. dielectric constant tensor:
#      x y z
#    x 1.756970 0.000000 0.000000 
#    y 0.000000 1.758330 0.000000 
#    z 0.000000 0.000000 1.762110 
# 
# From -- ./inp_files/18004.got.cif
#   From: 2010.03.12/outbox.cif.g09.slc.cpg/sg56_10_cif.got.tgz:18004.got - 2010.04.16 15:33:40.
