data_PCOD8228351
_publ_section_title
;
Structure prediction by ZEFSAII (Michael W. Deem and Ramdas Pophale) SiO2 
 PCOD8228351
Probable space group: P C C N
;
_chemical_formula_sum "Si O2"
_cell_formula_units_Z 48
_cell_length_a 8.634380
_cell_length_b 27.083530
_cell_length_c 9.513936
_cell_angle_alpha 90.000000
_cell_angle_beta 90.000000
_cell_angle_gamma 90.000000
_cell_volume 2224.829079
_symmetry_space_group_name_H-M "P C C N"
_symmetry_group_IT_number 56
_symmetry_cell_setting 'orthorhombic'
loop_
_space_group_symop_operation_xyz
x,y,z
1/2-x,1/2-y,z
1/2+x,-y,1/2-z
-x,1/2+y,1/2-z
-x,-y,-z
1/2+x,1/2+y,-z
1/2-x,y,1/2+z
x,1/2-y,1/2+z
loop_
_atom_site_type_symbol
_atom_site_label
_atom_site_fract_x
_atom_site_fract_y
_atom_site_fract_z
Si Si1 0.110700 0.059879 0.616810
Si Si2 0.426639 0.291985 0.850950
Si Si3 0.608132 0.053151 0.871173
Si Si4 0.420062 0.604925 0.148341
Si Si5 0.439518 0.404503 0.136332
Si Si6 0.893820 0.702426 0.315182
O O1 0.262819 0.091845 0.581930
O O2 0.971877 0.073806 0.511500
O O3 0.047136 0.073449 0.768701
O O4 0.162417 0.002828 0.606733
O O5 0.386132 0.284400 0.016631
O O6 0.549389 0.336536 0.831199
O O7 0.275888 0.301728 0.754697
O O8 0.494400 0.241956 0.777340
O O9 0.744799 0.089048 0.816710
O O10 0.475475 0.053836 0.751548
O O11 0.441941 0.587889 0.989330
O O12 0.471742 0.350721 0.203079
#
# Coordination Sequence:
#
# PCOD8228351 Si02
#       6
#     8   8   8   8   8   8
#     4  11  23  41  64  90 124 169 216 263 317 385
#     4  10  20  36  61  91 123 158 205 264 311 372
#     4  11  25  40  62  92 127 167 210 268 326 379
#     4  11  23  40  61  92 128 164 208 266 328 377
#     4  11  23  40  63  91 121 167 214 257 315 388
#     4  10  20  35  61  92 118 158 208 255 309 369
#
# _framework density 21.574691999999999
#
# number of rings (size 3 to 8) (size 9 to 14) (size 15 to 20)
#    0.000    1.333    1.667    5.000    2.333    6.667 
#    0.000    0.833    0.000    4.000    0.000    0.000 
#    0.000    0.000    0.000    0.000    0.000    0.000 
#
# Total GULP energy -594912.779627 kJ/mol
# GULP energy per Si atom -12394.016242 kJ/mol
# Density = 2.152559 g / cm^3
# Si number density = 21.574692 Si / 1000 Ang^3
#
#
#
# Elastic Constant Matrix: (Units=GPa)
#
#
# Indices 1 2 3 4 5 6 
#
# 1 79.5975 38.7668 16.5049 0.0000 0.0000 0.0000
# 2 38.7668 87.0136 40.6475 0.0000 0.0000 0.0000
# 3 16.5049 40.6475 107.2929 0.0000 0.0000 0.0000
# 4 0.0000 0.0000 0.0000 35.7175 0.0000 0.0000
# 5 0.0000 0.0000 0.0000 0.0000 28.9760 0.0000
# 6 0.0000 0.0000 0.0000 0.0000 0.0000 33.3812
#
#
#
# Elastic Compliance Matrix: (Units=1/GPa)
#
#
# Indices 1 2 3 4 5 6 
#
# 1 0.016052 -0.007288 0.000292 0.000000 0.000000 0.000000
# 2 -0.007288 0.017273 -0.005423 0.000000 0.000000 0.000000
# 3 0.000292 -0.005423 0.011330 0.000000 0.000000 0.000000
# 4 0.000000 0.000000 0.000000 0.027997 0.000000 0.000000
# 5 0.000000 0.000000 0.000000 0.000000 0.034511 0.000000
# 6 0.000000 0.000000 0.000000 0.000000 0.000000 0.029957
#
#
# Mechanical properties :
#
#
# Convention : Reuss Voigt Hill
#
# Bulk Modulus (GPa) = 50.46199 51.74915 51.10557
# Shear Modulus (GPa) = 29.66242 31.48058 30.57150
#
# Velocity S-wave (km/s) = 3.71195 3.82402 3.76840
# Velocity P-wave (km/s) = 6.46619 6.59815 6.53250
#
# Compressibility (1/GPa) = 0.01981690
#
# Stress axis : x y z
#
# Youngs Moduli (GPa) = 62.29674 57.89546 88.26344
#
# Poissons Ratio (x) = 0.42194 -0.02575
# Poissons Ratio (y) = 0.45401 0.47861
# Poissons Ratio (z) = -0.01817 0.31394
#
# Static dielectric constant tensor:
#      x y z
#    x 3.503750 0.000000 0.000000 
#    y 0.000000 4.264340 0.000000 
#    z 0.000000 0.000000 4.004670 
# 
# 
# High freq. dielectric constant tensor:
#      x y z
#    x 1.820710 0.000000 0.000000 
#    y 0.000000 1.854600 0.000000 
#    z 0.000000 0.000000 1.862350 
# 
# From -- ./inp_files/2244.got.cif
#   From: 2010.03.12/outbox.cif.g09.slc.cpg/sg56_2_cif.got.tgz:2244.got - 2010.04.16 15:33:40.
