data_PCOD8228802
_publ_section_title
;
Structure prediction by ZEFSAII (Michael W. Deem and Ramdas Pophale) SiO2 
 PCOD8228802
Probable space group: P C C N
;
_chemical_formula_sum "Si O2"
_cell_formula_units_Z 56
_cell_length_a 13.995604
_cell_length_b 21.084532
_cell_length_c 8.774966
_cell_angle_alpha 90.000000
_cell_angle_beta 90.000000
_cell_angle_gamma 90.000000
_cell_volume 2589.411389
_symmetry_space_group_name_H-M "P C C N"
_symmetry_group_IT_number 56
_symmetry_cell_setting 'orthorhombic'
loop_
_space_group_symop_operation_xyz
x,y,z
1/2-x,1/2-y,z
1/2+x,-y,1/2-z
-x,1/2+y,1/2-z
-x,-y,-z
1/2+x,1/2+y,-z
1/2-x,y,1/2+z
x,1/2-y,1/2+z
loop_
_atom_site_type_symbol
_atom_site_label
_atom_site_fract_x
_atom_site_fract_y
_atom_site_fract_z
Si Si1 0.125383 0.503440 0.394395
Si Si2 0.750000 0.750000 0.457878
Si Si3 0.173931 0.133872 0.376374
Si Si4 0.270999 0.048606 0.128571
Si Si5 0.445616 0.292272 0.170654
Si Si6 0.118522 0.700107 0.741273
Si Si7 0.750000 0.250000 0.017324
Si Si8 0.019048 0.894089 0.054520
O O1 0.178970 0.504545 0.232790
O O2 0.189633 0.488391 0.539680
O O3 0.082547 0.573029 0.422269
O O4 0.049308 0.447281 0.377826
O O5 0.754839 0.812317 0.562051
O O6 0.847183 0.746654 0.357057
O O7 0.227023 0.104193 0.231066
O O8 0.156311 0.081100 0.507223
O O9 0.073094 0.162923 0.319073
O O10 0.533728 0.247232 0.209580
O O11 0.466605 0.334063 0.020958
O O12 0.166276 0.720353 0.581942
O O13 0.199379 0.697493 0.872676
O O14 0.077230 0.630549 0.703104
#
# Coordination Sequence:
#
# PCOD8228802 Si02
#       8
#     8   4   8   8   8   8   4   8
#     4  10  23  42  67  90 130 179 222 277 332 386
#     4  12  24  36  62 108 144 184 202 252 358 422
#     4  11  21  36  60  92 142 169 215 262 316 416
#     4  10  21  40  62  91 124 180 223 264 323 394
#     4  12  23  40  64 104 139 175 215 274 337 419
#     4  11  24  44  68  93 129 171 221 281 340 392
#     4  10  24  46  66  92 124 172 226 284 334 384
#     4  11  23  43  66  95 134 172 225 281 334 397
#
# _framework density 21.626535000000001
#
# number of rings (size 3 to 8) (size 9 to 14) (size 15 to 20)
#    0.000    1.143    4.286    2.143    2.000    1.143 
#    0.000    0.714    0.000    0.000    0.000    0.000 
#    0.000    0.000    0.000    0.000    0.000    0.000 
#
# Total GULP energy -694237.737984 kJ/mol
# GULP energy per Si atom -12397.102464 kJ/mol
# Density = 2.157731 g / cm^3
# Si number density = 21.626535 Si / 1000 Ang^3
#
#
#
# Elastic Constant Matrix: (Units=GPa)
#
#
# Indices 1 2 3 4 5 6 
#
# 1 98.0934 23.1972 35.7538 0.0000 0.0000 0.0000
# 2 23.1972 53.4976 11.9696 0.0000 0.0000 0.0000
# 3 35.7538 11.9696 102.3769 0.0000 0.0000 0.0000
# 4 0.0000 0.0000 0.0000 19.8855 0.0000 0.0000
# 5 0.0000 0.0000 0.0000 0.0000 35.7709 0.0000
# 6 0.0000 0.0000 0.0000 0.0000 0.0000 26.6374
#
#
#
# Elastic Compliance Matrix: (Units=1/GPa)
#
#
# Indices 1 2 3 4 5 6 
#
# 1 0.012712 -0.004640 -0.003897 0.000000 0.000000 0.000000
# 2 -0.004640 0.020888 -0.000822 0.000000 0.000000 0.000000
# 3 -0.003897 -0.000822 0.011225 0.000000 0.000000 0.000000
# 4 0.000000 0.000000 0.000000 0.050288 0.000000 0.000000
# 5 0.000000 0.000000 0.000000 0.000000 0.027956 0.000000
# 6 0.000000 0.000000 0.000000 0.000000 0.000000 0.037541
#
#
# Mechanical properties :
#
#
# Convention : Reuss Voigt Hill
#
# Bulk Modulus (GPa) = 38.30315 43.97879 41.14097
# Shear Modulus (GPa) = 26.59147 28.66192 27.62669
#
# Velocity S-wave (km/s) = 3.51034 3.64443 3.57801
# Velocity P-wave (km/s) = 5.84633 6.17162 6.01118
#
# Compressibility (1/GPa) = 0.02610751
#
# Stress axis : x y z
#
# Youngs Moduli (GPa) = 78.66520 47.87369 89.08786
#
# Poissons Ratio (x) = 0.22214 0.34718
# Poissons Ratio (y) = 0.36502 0.07320
# Poissons Ratio (z) = 0.30656 0.03934
#
# Static dielectric constant tensor:
#      x y z
#    x 4.041990 0.000000 0.000000 
#    y 0.000000 3.770570 0.000000 
#    z 0.000000 0.000000 4.082290 
# 
# 
# High freq. dielectric constant tensor:
#      x y z
#    x 1.845580 0.000000 0.000000 
#    y 0.000000 1.831100 0.000000 
#    z 0.000000 0.000000 1.860950 
# 
# From -- ./inp_files/3621.got.cif
#   From: 2010.03.12/outbox.cif.g09.slc.cpg/sg56_2_cif.got.tgz:3621.got - 2010.04.16 15:33:40.
