data_PCOD8228036
_publ_section_title
;
Structure prediction by ZEFSAII (Michael W. Deem and Ramdas Pophale) SiO2 
 PCOD8228036
Probable space group: P C C N
;
_chemical_formula_sum "Si O2"
_cell_formula_units_Z 52
_cell_length_a 9.941444
_cell_length_b 15.770342
_cell_length_c 14.518434
_cell_angle_alpha 90.000000
_cell_angle_beta 90.000000
_cell_angle_gamma 90.000000
_cell_volume 2276.199674
_symmetry_space_group_name_H-M "P C C N"
_symmetry_group_IT_number 56
_symmetry_cell_setting 'orthorhombic'
loop_
_space_group_symop_operation_xyz
x,y,z
1/2-x,1/2-y,z
1/2+x,-y,1/2-z
-x,1/2+y,1/2-z
-x,-y,-z
1/2+x,1/2+y,-z
1/2-x,y,1/2+z
x,1/2-y,1/2+z
loop_
_atom_site_type_symbol
_atom_site_label
_atom_site_fract_x
_atom_site_fract_y
_atom_site_fract_z
Si Si1 0.918762 0.340417 0.365170
Si Si2 0.263252 0.400866 0.550391
Si Si3 0.816257 0.039118 0.313364
Si Si4 0.177543 0.050295 0.868154
Si Si5 0.446946 0.880656 0.433682
Si Si6 0.250000 0.250000 0.171352
Si Si7 0.487147 0.818390 0.247062
O O1 0.795060 0.389329 0.321955
O O2 0.901746 0.331359 0.474987
O O3 0.917985 0.247787 0.320853
O O4 0.056585 0.387617 0.341227
O O5 0.333533 0.483139 0.595123
O O6 0.283781 0.402344 0.438173
O O7 0.322517 0.317224 0.601558
O O8 0.104117 0.403282 0.568156
O O9 0.959207 0.086246 0.292796
O O10 0.763539 0.979063 0.229584
O O11 0.129566 0.969607 0.927509
O O12 0.416061 0.818251 0.347904
O O13 0.354582 0.297300 0.239432
#
# Coordination Sequence:
#
# PCOD8228036 Si02
#       7
#     8   8   8   8   8   4   8
#     4  11  19  39  63  94 123 170 215 269 336 405
#     4  10  18  38  64  92 120 172 222 278 323 394
#     4  11  21  36  64  97 131 164 221 276 333 400
#     4  10  19  36  65  92 119 168 217 267 342 393
#     4   9  18  38  63  87 122 166 219 264 336 398
#     4  10  22  42  64  88 138 170 230 276 330 410
#     4  10  23  38  59  98 128 175 216 273 330 399
#
# _framework density 22.845094
#
# number of rings (size 3 to 8) (size 9 to 14) (size 15 to 20)
#    0.000    1.846    3.077    2.308    0.000    0.000 
#    2.769   18.462    0.000    1.846    0.000    0.000 
#    0.000    0.000    0.000    0.000    0.000    0.000 
#
# Total GULP energy -644470.428833 kJ/mol
# GULP energy per Si atom -12393.662093 kJ/mol
# Density = 2.279310 g / cm^3
# Si number density = 22.845094 Si / 1000 Ang^3
#
#
#
# Elastic Constant Matrix: (Units=GPa)
#
#
# Indices 1 2 3 4 5 6 
#
# 1 41.6256 14.0874 18.8896 0.0000 0.0000 0.0000
# 2 14.0874 96.9709 37.0943 0.0000 0.0000 0.0000
# 3 18.8896 37.0943 108.4288 0.0000 0.0000 0.0000
# 4 0.0000 0.0000 0.0000 44.1320 0.0000 0.0000
# 5 0.0000 0.0000 0.0000 0.0000 28.5622 0.0000
# 6 0.0000 0.0000 0.0000 0.0000 0.0000 31.7930
#
#
#
# Elastic Compliance Matrix: (Units=1/GPa)
#
#
# Indices 1 2 3 4 5 6 
#
# 1 0.026564 -0.002403 -0.003806 0.000000 0.000000 0.000000
# 2 -0.002403 0.012083 -0.003715 0.000000 0.000000 0.000000
# 3 -0.003806 -0.003715 0.011156 0.000000 0.000000 0.000000
# 4 0.000000 0.000000 0.000000 0.022659 0.000000 0.000000
# 5 0.000000 0.000000 0.000000 0.000000 0.035011 0.000000
# 6 0.000000 0.000000 0.000000 0.000000 0.000000 0.031453
#
#
# Mechanical properties :
#
#
# Convention : Reuss Voigt Hill
#
# Bulk Modulus (GPa) = 33.38279 43.01865 38.20072
# Shear Modulus (GPa) = 29.62793 32.69438 31.16115
#
# Velocity S-wave (km/s) = 3.60516 3.78714 3.69727
# Velocity P-wave (km/s) = 5.65456 6.16398 5.91476
#
# Compressibility (1/GPa) = 0.02995555
#
# Stress axis : x y z
#
# Youngs Moduli (GPa) = 37.64499 82.76400 89.63393
#
# Poissons Ratio (x) = 0.19891 0.34111
# Poissons Ratio (y) = 0.09047 0.33298
# Poissons Ratio (z) = 0.14326 0.30745
#
# Static dielectric constant tensor:
#      x y z
#    x 3.650910 0.000000 0.000000 
#    y 0.000000 4.255930 0.000000 
#    z 0.000000 0.000000 4.524060 
# 
# 
# High freq. dielectric constant tensor:
#      x y z
#    x 1.853880 0.000000 0.000000 
#    y 0.000000 1.906290 0.000000 
#    z 0.000000 0.000000 1.918430 
# 
# From -- ./inp_files/11792.got.cif
#   From: 2010.03.12/outbox.cif.g09.slc.cpg/sg56_6_cif.got.tgz:11792.got - 2010.04.16 15:33:40.
