data_PCOD8228238
_publ_section_title
;
Structure prediction by ZEFSAII (Michael W. Deem and Ramdas Pophale) SiO2 
 PCOD8228238
Probable space group: P C C N
;
_chemical_formula_sum "Si O2"
_cell_formula_units_Z 32
_cell_length_a 13.457018
_cell_length_b 7.603341
_cell_length_c 13.695759
_cell_angle_alpha 90.000000
_cell_angle_beta 90.000000
_cell_angle_gamma 90.000000
_cell_volume 1401.326733
_symmetry_space_group_name_H-M "P C C N"
_symmetry_group_IT_number 56
_symmetry_cell_setting 'orthorhombic'
loop_
_space_group_symop_operation_xyz
x,y,z
1/2-x,1/2-y,z
1/2+x,-y,1/2-z
-x,1/2+y,1/2-z
-x,-y,-z
1/2+x,1/2+y,-z
1/2-x,y,1/2+z
x,1/2-y,1/2+z
loop_
_atom_site_type_symbol
_atom_site_label
_atom_site_fract_x
_atom_site_fract_y
_atom_site_fract_z
Si Si1 0.362839 0.110691 0.324654
Si Si2 0.192619 0.566574 0.715566
Si Si3 0.982671 0.248688 0.195241
Si Si4 0.092532 0.388687 0.535190
O O1 0.428408 0.264271 0.275382
O O2 0.344906 0.161007 0.438524
O O3 0.256068 0.081227 0.273476
O O4 0.426513 0.935166 0.308216
O O5 0.250000 0.750000 0.700785
O O6 0.094608 0.597364 0.781425
O O7 0.163784 0.497534 0.608267
O O8 0.042978 0.277880 0.092596
O O9 0.000000 0.500000 0.500000
#
# Coordination Sequence:
#
# PCOD8228238 Si02
#       4
#     8   8   8   8
#     4  10  22  40  65  89 128 163 210 256 315 372
#     4  10  21  38  65  94 122 167 211 253 308 385
#     4  10  19  40  62  91 124 166 200 263 308 366
#     4  10  20  39  66  85 128 167 197 260 319 359
#
# _framework density 22.835501000000001
#
# number of rings (size 3 to 8) (size 9 to 14) (size 15 to 20)
#    0.000    2.000    5.000    0.000    0.000    6.000 
#    0.000    6.250    0.000    0.000    0.000    0.000 
#    0.000    0.000    0.000    0.000    0.000    0.000 
#
# Total GULP energy -396417.980143 kJ/mol
# GULP energy per Si atom -12388.061879 kJ/mol
# Density = 2.278353 g / cm^3
# Si number density = 22.835501 Si / 1000 Ang^3
#
#
#
# Elastic Constant Matrix: (Units=GPa)
#
#
# Indices 1 2 3 4 5 6 
#
# 1 150.7677 21.4745 81.0483 0.0000 0.0000 0.0000
# 2 21.4745 30.1680 37.3805 0.0000 0.0000 0.0000
# 3 81.0483 37.3805 216.3671 0.0000 0.0000 0.0000
# 4 0.0000 0.0000 0.0000 27.4030 0.0000 0.0000
# 5 0.0000 0.0000 0.0000 0.0000 49.5569 0.0000
# 6 0.0000 0.0000 0.0000 0.0000 0.0000 17.7827
#
#
#
# Elastic Compliance Matrix: (Units=1/GPa)
#
#
# Indices 1 2 3 4 5 6 
#
# 1 0.008471 -0.002670 -0.002712 0.000000 0.000000 0.000000
# 2 -0.002670 0.043018 -0.006432 0.000000 0.000000 0.000000
# 3 -0.002712 -0.006432 0.006749 0.000000 0.000000 0.000000
# 4 0.000000 0.000000 0.000000 0.036492 0.000000 0.000000
# 5 0.000000 0.000000 0.000000 0.000000 0.020179 0.000000
# 6 0.000000 0.000000 0.000000 0.000000 0.000000 0.056235
#
#
# Mechanical properties :
#
#
# Convention : Reuss Voigt Hill
#
# Bulk Modulus (GPa) = 28.89292 75.23439 52.06365
# Shear Modulus (GPa) = 24.23580 36.10850 30.17215
#
# Velocity S-wave (km/s) = 3.26133 3.98080 3.63889
# Velocity P-wave (km/s) = 5.18283 7.35845 6.36430
#
# Compressibility (1/GPa) = 0.03461056
#
# Stress axis : x y z
#
# Youngs Moduli (GPa) = 118.05320 23.24625 148.17455
#
# Poissons Ratio (x) = 0.06206 0.40182
# Poissons Ratio (y) = 0.31515 0.95305
# Poissons Ratio (z) = 0.32014 0.14952
#
# Static dielectric constant tensor:
#      x y z
#    x 4.642110 0.000000 0.000000 
#    y 0.000000 4.582460 0.000000 
#    z 0.000000 0.000000 5.093020 
# 
# 
# High freq. dielectric constant tensor:
#      x y z
#    x 1.930000 0.000000 0.000000 
#    y 0.000000 1.886480 0.000000 
#    z 0.000000 0.000000 1.899540 
# 
# From -- ./inp_files/5970.got.cif
#   From: 2010.03.12/outbox.cif.g09.slc.cpg/sg56_3_cif.got.tgz:5970.got - 2010.04.16 15:33:40.
