data_PCOD8228816
_publ_section_title
;
Structure prediction by ZEFSAII (Michael W. Deem and Ramdas Pophale) SiO2 
 PCOD8228816
Probable space group: P C C N
;
_chemical_formula_sum "Si O2"
_cell_formula_units_Z 60
_cell_length_a 8.447288
_cell_length_b 13.459386
_cell_length_c 25.224261
_cell_angle_alpha 90.000000
_cell_angle_beta 90.000000
_cell_angle_gamma 90.000000
_cell_volume 2867.880170
_symmetry_space_group_name_H-M "P C C N"
_symmetry_group_IT_number 56
_symmetry_cell_setting 'orthorhombic'
loop_
_space_group_symop_operation_xyz
x,y,z
1/2-x,1/2-y,z
1/2+x,-y,1/2-z
-x,1/2+y,1/2-z
-x,-y,-z
1/2+x,1/2+y,-z
1/2-x,y,1/2+z
x,1/2-y,1/2+z
loop_
_atom_site_type_symbol
_atom_site_label
_atom_site_fract_x
_atom_site_fract_y
_atom_site_fract_z
Si Si1 0.982497 0.581430 0.596761
Si Si2 0.750000 0.250000 0.106042
Si Si3 0.421810 0.286637 0.367456
Si Si4 0.175386 0.079542 0.461510
Si Si5 0.926693 0.086482 0.171117
Si Si6 0.240414 0.029095 0.136231
Si Si7 0.504249 0.613398 0.437178
Si Si8 0.659364 0.355600 0.287208
O O1 0.026556 0.692854 0.614023
O O2 0.865322 0.583638 0.546277
O O3 0.893477 0.523098 0.645834
O O4 0.148093 0.522740 0.585488
O O5 0.811352 0.161428 0.141715
O O6 0.900223 0.288071 0.071906
O O7 0.250000 0.250000 0.351347
O O8 0.417944 0.363796 0.415388
O O9 0.493635 0.335794 0.315635
O O10 0.135673 0.132513 0.517477
O O11 0.118111 0.966783 0.459704
O O12 0.879651 0.091415 0.232089
O O13 0.116338 0.109331 0.161928
O O14 0.403261 0.079445 0.116881
O O15 0.252144 0.939281 0.178537
O O16 0.750000 0.250000 0.280289
#
# Coordination Sequence:
#
# PCOD8228816 Si02
#       8
#     8   4   8   8   8   8   8   8
#     4   9  20  44  60  98 133 168 217 275 331 388
#     4  12  24  48  64  86 144 170 224 284 328 420
#     4  10  21  40  65  96 136 166 219 280 327 399
#     4  10  21  42  69  96 129 174 219 271 343 401
#     4  10  24  43  63  93 131 182 214 276 337 388
#     4  10  23  41  65  94 133 168 222 280 325 408
#     4  11  23  43  69  98 127 179 221 275 347 405
#     4  12  21  41  69 100 130 178 224 271 341 402
#
# _framework density 20.921377
#
# number of rings (size 3 to 8) (size 9 to 14) (size 15 to 20)
#    0.800    0.800    4.667    0.000    0.000    4.267 
#   18.000    0.000    0.000    0.000    0.000    0.000 
#    0.000    0.000    0.000    0.000    0.000    0.000 
#
# Total GULP energy -743333.913184 kJ/mol
# GULP energy per Si atom -12388.898553 kJ/mol
# Density = 2.087376 g / cm^3
# Si number density = 20.921377 Si / 1000 Ang^3
#
#
#
# Elastic Constant Matrix: (Units=GPa)
#
#
# Indices 1 2 3 4 5 6 
#
# 1 82.1487 15.9409 29.1770 0.0000 0.0000 0.0000
# 2 15.9409 57.2119 18.3231 0.0000 0.0000 0.0000
# 3 29.1770 18.3231 89.8120 0.0000 0.0000 0.0000
# 4 0.0000 0.0000 0.0000 19.5502 0.0000 0.0000
# 5 0.0000 0.0000 0.0000 0.0000 28.5344 0.0000
# 6 0.0000 0.0000 0.0000 0.0000 0.0000 40.0944
#
#
#
# Elastic Compliance Matrix: (Units=1/GPa)
#
#
# Indices 1 2 3 4 5 6 
#
# 1 0.014123 -0.002638 -0.004050 0.000000 0.000000 0.000000
# 2 -0.002638 0.019194 -0.003059 0.000000 0.000000 0.000000
# 3 -0.004050 -0.003059 0.013074 0.000000 0.000000 0.000000
# 4 0.000000 0.000000 0.000000 0.051150 0.000000 0.000000
# 5 0.000000 0.000000 0.000000 0.000000 0.035045 0.000000
# 6 0.000000 0.000000 0.000000 0.000000 0.000000 0.024941
#
#
# Mechanical properties :
#
#
# Convention : Reuss Voigt Hill
#
# Bulk Modulus (GPa) = 37.17844 39.56164 38.37004
# Shear Modulus (GPa) = 26.88351 28.68458 27.78405
#
# Velocity S-wave (km/s) = 3.58855 3.70681 3.64816
# Velocity P-wave (km/s) = 5.91434 6.10502 6.01043
#
# Compressibility (1/GPa) = 0.02689731
#
# Stress axis : x y z
#
# Youngs Moduli (GPa) = 70.80439 52.10085 76.48698
#
# Poissons Ratio (x) = 0.13745 0.30977
# Poissons Ratio (y) = 0.18679 0.23396
# Poissons Ratio (z) = 0.28676 0.15936
#
# Static dielectric constant tensor:
#      x y z
#    x 3.775580 0.000000 0.000000 
#    y 0.000000 3.860790 0.000000 
#    z 0.000000 0.000000 3.621990 
# 
# 
# High freq. dielectric constant tensor:
#      x y z
#    x 1.822060 0.000000 0.000000 
#    y 0.000000 1.818480 0.000000 
#    z 0.000000 0.000000 1.799760 
# 
# From -- ./inp_files/20621.got.cif
#   From: 2010.03.12/outbox.cif.g09.slc.cpg/sg56_11_cif.got.tgz:20621.got - 2010.04.16 15:33:40.
