data_PCOD8228240
_publ_section_title
;
Structure prediction by ZEFSAII (Michael W. Deem and Ramdas Pophale) SiO2 
 PCOD8228240
Probable space group: P C C N
;
_chemical_formula_sum "Si O2"
_cell_formula_units_Z 44
_cell_length_a 8.896166
_cell_length_b 9.955324
_cell_length_c 22.243256
_cell_angle_alpha 90.000000
_cell_angle_beta 90.000000
_cell_angle_gamma 90.000000
_cell_volume 1969.956504
_symmetry_space_group_name_H-M "P C C N"
_symmetry_group_IT_number 56
_symmetry_cell_setting 'orthorhombic'
loop_
_space_group_symop_operation_xyz
x,y,z
1/2-x,1/2-y,z
1/2+x,-y,1/2-z
-x,1/2+y,1/2-z
-x,-y,-z
1/2+x,1/2+y,-z
1/2-x,y,1/2+z
x,1/2-y,1/2+z
loop_
_atom_site_type_symbol
_atom_site_label
_atom_site_fract_x
_atom_site_fract_y
_atom_site_fract_z
Si Si1 0.664780 0.060529 0.044998
Si Si2 0.085926 0.214479 0.485680
Si Si3 0.653548 0.120181 0.428881
Si Si4 0.561533 0.325841 0.246263
Si Si5 0.134669 0.939839 0.202332
Si Si6 0.250000 0.750000 0.858718
O O1 0.529584 0.169245 0.037693
O O2 0.764411 0.046202 0.984248
O O3 0.756592 0.114805 0.101334
O O4 0.600439 0.913385 0.059651
O O5 0.250000 0.250000 0.512057
O O6 0.015680 0.339331 0.449286
O O7 0.750000 0.250000 0.410827
O O8 0.641617 0.028300 0.369343
O O9 0.423798 0.428571 0.238023
O O10 0.529745 0.194812 0.288436
O O11 0.700802 0.411390 0.271786
O O12 0.601643 0.260087 0.181865
#
# Coordination Sequence:
#
# PCOD8228240 Si02
#       6
#     8   8   8   8   8   4
#     4  10  21  40  59  87 134 156 199 251 307 369
#     4  10  22  35  57  95 119 163 202 244 299 365
#     4  10  19  40  64  84 123 171 196 249 307 371
#     4  10  24  41  67  88 125 160 208 265 311 367
#     4  10  22  45  62  93 119 168 213 256 316 363
#     4  10  20  40  62  88 118 166 196 250 314 360
#
# _framework density 22.335518
#
# number of rings (size 3 to 8) (size 9 to 14) (size 15 to 20)
#    0.000    2.182    4.545    0.000    2.545    5.818 
#    6.545    0.000    0.000    0.000    0.000    0.000 
#    0.000    0.000    0.000    0.000    0.000    0.000 
#
# Total GULP energy -545239.304290 kJ/mol
# GULP energy per Si atom -12391.802370 kJ/mol
# Density = 2.228468 g / cm^3
# Si number density = 22.335518 Si / 1000 Ang^3
#
#
#
# Elastic Constant Matrix: (Units=GPa)
#
#
# Indices 1 2 3 4 5 6 
#
# 1 75.2945 7.2110 27.4906 0.0000 0.0000 0.0000
# 2 7.2110 57.1166 12.2421 0.0000 0.0000 0.0000
# 3 27.4906 12.2421 99.3568 0.0000 0.0000 0.0000
# 4 0.0000 0.0000 0.0000 10.9470 0.0000 0.0000
# 5 0.0000 0.0000 0.0000 0.0000 10.8265 0.0000
# 6 0.0000 0.0000 0.0000 0.0000 0.0000 39.1468
#
#
#
# Elastic Compliance Matrix: (Units=1/GPa)
#
#
# Indices 1 2 3 4 5 6 
#
# 1 0.014831 -0.001020 -0.003978 0.000000 0.000000 0.000000
# 2 -0.001020 0.018053 -0.001942 0.000000 0.000000 0.000000
# 3 -0.003978 -0.001942 0.011405 0.000000 0.000000 0.000000
# 4 0.000000 0.000000 0.000000 0.091349 0.000000 0.000000
# 5 0.000000 0.000000 0.000000 0.000000 0.092366 0.000000
# 6 0.000000 0.000000 0.000000 0.000000 0.000000 0.025545
#
#
# Mechanical properties :
#
#
# Convention : Reuss Voigt Hill
#
# Bulk Modulus (GPa) = 32.88496 36.18392 34.53444
# Shear Modulus (GPa) = 18.01378 24.50569 21.25974
#
# Velocity S-wave (km/s) = 2.84299 3.31594 3.08853
# Velocity P-wave (km/s) = 5.05291 5.55841 5.31168
#
# Compressibility (1/GPa) = 0.03040903
#
# Stress axis : x y z
#
# Youngs Moduli (GPa) = 67.42531 55.39224 87.68336
#
# Poissons Ratio (x) = 0.05649 0.34880
# Poissons Ratio (y) = 0.06876 0.17030
# Poissons Ratio (z) = 0.26821 0.10758
#
# Static dielectric constant tensor:
#      x y z
#    x 3.921430 0.000000 0.000000 
#    y 0.000000 4.023910 0.000000 
#    z 0.000000 0.000000 3.867760 
# 
# 
# High freq. dielectric constant tensor:
#      x y z
#    x 1.863630 0.000000 0.000000 
#    y 0.000000 1.874860 0.000000 
#    z 0.000000 0.000000 1.861930 
# 
# From -- ./inp_files/20441.got.cif
#   From: 2010.03.12/outbox.cif.g09.slc.cpg/sg56_11_cif.got.tgz:20441.got - 2010.04.16 15:33:40.
