data_PCOD8228003
_publ_section_title
;
Structure prediction by ZEFSAII (Michael W. Deem and Ramdas Pophale) SiO2 
 PCOD8228003
Probable space group: P C C N
;
_chemical_formula_sum "Si O2"
_cell_formula_units_Z 48
_cell_length_a 9.114801
_cell_length_b 12.115751
_cell_length_c 20.151384
_cell_angle_alpha 90.000000
_cell_angle_beta 90.000000
_cell_angle_gamma 90.000000
_cell_volume 2225.370924
_symmetry_space_group_name_H-M "P C C N"
_symmetry_group_IT_number 56
_symmetry_cell_setting 'orthorhombic'
loop_
_space_group_symop_operation_xyz
x,y,z
1/2-x,1/2-y,z
1/2+x,-y,1/2-z
-x,1/2+y,1/2-z
-x,-y,-z
1/2+x,1/2+y,-z
1/2-x,y,1/2+z
x,1/2-y,1/2+z
loop_
_atom_site_type_symbol
_atom_site_label
_atom_site_fract_x
_atom_site_fract_y
_atom_site_fract_z
Si Si1 0.250000 0.250000 0.315804
Si Si2 0.992492 0.900753 0.237825
Si Si3 0.250000 0.750000 0.200744
Si Si4 0.367691 0.372205 0.438304
Si Si5 0.102394 0.958912 0.640124
Si Si6 0.415021 0.496330 0.106225
Si Si7 0.940758 0.646839 0.509687
O O1 0.349296 0.175492 0.267722
O O2 0.351444 0.323271 0.363647
O O3 0.139275 0.825484 0.244458
O O4 0.999189 0.982705 0.174415
O O5 0.981139 0.980415 0.300374
O O6 0.347569 0.833354 0.156610
O O7 0.494496 0.462480 0.424989
O O8 0.211877 0.414093 0.466049
O O9 0.426859 0.277973 0.488228
O O10 0.244815 0.028204 0.619987
O O11 0.476870 0.390590 0.065644
O O12 0.433274 0.605027 0.059690
#
# Coordination Sequence:
#
# PCOD8228003 Si02
#       7
#     4   8   4   8   8   8   8
#     4  10  18  36  56  90 116 168 210 248 314 384
#     4  11  22  37  62  91 127 167 212 261 325 392
#     4  10  22  38  54  90 126 160 212 258 310 390
#     4  10  18  37  60  84 118 166 204 251 319 369
#     4  11  23  36  63  93 125 163 208 262 325 392
#     4  10  20  36  57  92 111 154 212 257 305 366
#     4   9  19  36  62  79 114 155 210 256 294 377
#
# _framework density 21.569438000000002
#
# number of rings (size 3 to 8) (size 9 to 14) (size 15 to 20)
#    0.000    2.000    5.000    1.000    4.667    0.667 
#    0.000    5.000    0.000    4.000    0.000    0.000 
#    0.000    0.000    0.000    0.000    0.000    0.000 
#
# Total GULP energy -594846.734872 kJ/mol
# GULP energy per Si atom -12392.640310 kJ/mol
# Density = 2.152034 g / cm^3
# Si number density = 21.569438 Si / 1000 Ang^3
#
#
#
# Elastic Constant Matrix: (Units=GPa)
#
#
# Indices 1 2 3 4 5 6 
#
# 1 85.1300 18.1488 32.8541 0.0000 0.0000 0.0000
# 2 18.1488 59.2426 36.9749 0.0000 0.0000 0.0000
# 3 32.8541 36.9749 92.2122 0.0000 0.0000 0.0000
# 4 0.0000 0.0000 0.0000 27.6007 0.0000 0.0000
# 5 0.0000 0.0000 0.0000 0.0000 20.7628 0.0000
# 6 0.0000 0.0000 0.0000 0.0000 0.0000 28.0229
#
#
#
# Elastic Compliance Matrix: (Units=1/GPa)
#
#
# Indices 1 2 3 4 5 6 
#
# 1 0.013724 -0.001537 -0.004273 0.000000 0.000000 0.000000
# 2 -0.001537 0.022686 -0.008549 0.000000 0.000000 0.000000
# 3 -0.004273 -0.008549 0.015795 0.000000 0.000000 0.000000
# 4 0.000000 0.000000 0.000000 0.036231 0.000000 0.000000
# 5 0.000000 0.000000 0.000000 0.000000 0.048163 0.000000
# 6 0.000000 0.000000 0.000000 0.000000 0.000000 0.035685
#
#
# Mechanical properties :
#
#
# Convention : Reuss Voigt Hill
#
# Bulk Modulus (GPa) = 42.57822 45.83782 44.20802
# Shear Modulus (GPa) = 23.94273 25.18439 24.56356
#
# Velocity S-wave (km/s) = 3.33533 3.42072 3.37829
# Velocity P-wave (km/s) = 5.88349 6.07447 5.97974
#
# Compressibility (1/GPa) = 0.02348619
#
# Stress axis : x y z
#
# Youngs Moduli (GPa) = 72.86719 44.07936 63.31115
#
# Poissons Ratio (x) = 0.06776 0.27054
# Poissons Ratio (y) = 0.11201 0.54125
# Poissons Ratio (z) = 0.31138 0.37684
#
# Static dielectric constant tensor:
#      x y z
#    x 4.167920 0.000000 0.000000 
#    y 0.000000 3.661470 0.000000 
#    z 0.000000 0.000000 3.615290 
# 
# 
# High freq. dielectric constant tensor:
#      x y z
#    x 1.858320 0.000000 0.000000 
#    y 0.000000 1.818720 0.000000 
#    z 0.000000 0.000000 1.824340 
# 
# From -- ./inp_files/14876.got.cif
#   From: 2010.03.12/outbox.cif.g09.slc.cpg/sg56_8_cif.got.tgz:14876.got - 2010.04.16 15:33:40.
