data_PCOD8228372
_publ_section_title
;
Structure prediction by ZEFSAII (Michael W. Deem and Ramdas Pophale) SiO2 
 PCOD8228372
Probable space group: P C C N
;
_chemical_formula_sum "Si O2"
_cell_formula_units_Z 36
_cell_length_a 9.257816
_cell_length_b 9.820426
_cell_length_c 19.428909
_cell_angle_alpha 90.000000
_cell_angle_beta 90.000000
_cell_angle_gamma 90.000000
_cell_volume 1766.392803
_symmetry_space_group_name_H-M "P C C N"
_symmetry_group_IT_number 56
_symmetry_cell_setting 'orthorhombic'
loop_
_space_group_symop_operation_xyz
x,y,z
1/2-x,1/2-y,z
1/2+x,-y,1/2-z
-x,1/2+y,1/2-z
-x,-y,-z
1/2+x,1/2+y,-z
1/2-x,y,1/2+z
x,1/2-y,1/2+z
loop_
_atom_site_type_symbol
_atom_site_label
_atom_site_fract_x
_atom_site_fract_y
_atom_site_fract_z
Si Si1 0.253050 0.549213 0.847655
Si Si2 0.327006 0.880494 0.003197
Si Si3 0.750000 0.750000 0.706549
Si Si4 0.869868 0.842674 0.450205
Si Si5 0.508300 0.244055 0.187929
O O1 0.235910 0.585883 0.927874
O O2 0.253442 0.386656 0.839321
O O3 0.402549 0.614988 0.820365
O O4 0.119810 0.617225 0.805505
O O5 0.250000 0.750000 0.035733
O O6 0.495836 0.845832 0.001499
O O7 0.304714 0.004565 0.056165
O O8 0.600306 0.746514 0.748465
O O9 0.750000 0.750000 0.486616
O O10 0.906182 0.779146 0.377168
#
# Coordination Sequence:
#
# PCOD8228372 Si02
#       5
#     8   8   4   8   8
#     4  10  21  39  59  82 118 152 188 235 292 337
#     4  10  20  39  59  81 117 152 185 233 292 342
#     4  12  22  34  64  86 108 152 202 232 276 346
#     4  10  20  36  61  84 111 149 189 236 284 340
#     4  10  20  41  58  81 118 152 184 241 290 329
#
# _framework density 20.380517999999999
#
# number of rings (size 3 to 8) (size 9 to 14) (size 15 to 20)
#    0.000    1.778    5.556    1.333    1.556    0.889 
#    0.000    0.000    4.889    0.000    0.000    0.000 
#    0.000    0.000    0.000    0.000    0.000    0.000 
#
# Total GULP energy -446242.651651 kJ/mol
# GULP energy per Si atom -12395.629213 kJ/mol
# Density = 2.033413 g / cm^3
# Si number density = 20.380518 Si / 1000 Ang^3
#
#
#
# Elastic Constant Matrix: (Units=GPa)
#
#
# Indices 1 2 3 4 5 6 
#
# 1 108.8986 69.2895 18.8795 0.0000 0.0000 0.0000
# 2 69.2895 190.1417 13.7958 0.0000 0.0000 0.0000
# 3 18.8795 13.7958 18.0764 0.0000 0.0000 0.0000
# 4 0.0000 0.0000 0.0000 35.9711 0.0000 0.0000
# 5 0.0000 0.0000 0.0000 0.0000 -19.6902 0.0000
# 6 0.0000 0.0000 0.0000 0.0000 0.0000 34.9205
#
#
#
# Elastic Compliance Matrix: (Units=1/GPa)
#
#
# Indices 1 2 3 4 5 6 
#
# 1 0.013810 -0.004220 -0.011203 0.000000 0.000000 0.000000
# 2 -0.004220 0.006857 -0.000826 0.000000 0.000000 0.000000
# 3 -0.011203 -0.000826 0.067652 0.000000 0.000000 0.000000
# 4 0.000000 0.000000 0.000000 0.027800 0.000000 0.000000
# 5 0.000000 0.000000 0.000000 0.000000 -0.050787 0.000000
# 6 0.000000 0.000000 0.000000 0.000000 0.000000 0.028636
#
#
# Mechanical properties :
#
#
# Convention : Reuss Voigt Hill
#
# Bulk Modulus (GPa) = 17.91427 57.89401 37.90414
# Shear Modulus (GPa) = 34.46534 24.58376 29.52455
#
# Velocity S-wave (km/s) = 4.11675 3.47686 3.81026
# Velocity P-wave (km/s) = 5.60409 6.67730 6.16409
#
# Compressibility (1/GPa) = 0.05582142
#
# Stress axis : x y z
#
# Youngs Moduli (GPa) = 72.41151 145.83977 14.78151
#
# Poissons Ratio (x) = 0.61539 0.16560
# Poissons Ratio (y) = 0.30555 0.01221
# Poissons Ratio (z) = 0.81123 0.12046
#
# Static dielectric constant tensor:
#      x y z
#    x 3.934340 0.000000 0.000000 
#    y 0.000000 4.009510 0.000000 
#    z 0.000000 0.000000 3.219390 
# 
# 
# High freq. dielectric constant tensor:
#      x y z
#    x 1.813050 0.000000 0.000000 
#    y 0.000000 1.810740 0.000000 
#    z 0.000000 0.000000 1.752680 
# 
# From -- ./inp_files/17851.got.cif
#   From: 2010.03.12/outbox.cif.g09.slc.cpg/sg56_9_cif.got.tgz:17851.got - 2010.04.16 15:33:40.
