data_PCOD8228133
_publ_section_title
;
Structure prediction by ZEFSAII (Michael W. Deem and Ramdas Pophale) SiO2 
 PCOD8228133
Probable space group: P C C N
;
_chemical_formula_sum "Si O2"
_cell_formula_units_Z 64
_cell_length_a 31.103378
_cell_length_b 17.623754
_cell_length_c 5.422900
_cell_angle_alpha 90.000000
_cell_angle_beta 90.000000
_cell_angle_gamma 90.000000
_cell_volume 2972.607550
_symmetry_space_group_name_H-M "P C C N"
_symmetry_group_IT_number 56
_symmetry_cell_setting 'orthorhombic'
loop_
_space_group_symop_operation_xyz
x,y,z
1/2-x,1/2-y,z
1/2+x,-y,1/2-z
-x,1/2+y,1/2-z
-x,-y,-z
1/2+x,1/2+y,-z
1/2-x,y,1/2+z
x,1/2-y,1/2+z
loop_
_atom_site_type_symbol
_atom_site_label
_atom_site_fract_x
_atom_site_fract_y
_atom_site_fract_z
Si Si1 0.797504 0.718933 0.377317
Si Si2 0.064630 0.942765 0.481812
Si Si3 0.739175 0.092781 0.865600
Si Si4 0.941741 0.284928 0.196040
Si Si5 0.962726 0.774682 0.868051
Si Si6 0.155167 0.989835 0.635404
Si Si7 0.514775 0.560873 0.805703
Si Si8 0.308427 0.456056 0.133997
O O1 0.750000 0.750000 0.397203
O O2 0.821175 0.752507 0.130934
O O3 0.791551 0.628883 0.366182
O O4 0.069490 0.874667 0.284036
O O5 0.026902 0.912007 0.657052
O O6 0.107474 0.955927 0.638823
O O7 0.051261 0.022911 0.363462
O O8 0.749528 0.139305 0.116304
O O9 0.688634 0.079148 0.862378
O O10 0.767730 0.014148 0.868582
O O11 0.920982 0.248418 0.443152
O O12 0.992745 0.269088 0.193387
O O13 0.938113 0.762900 0.603726
O O14 0.966437 0.863829 0.930377
O O15 0.161893 0.035948 0.889486
O O16 0.162754 0.035522 0.380712
O O17 0.500000 0.500000 0.000000
#
# Coordination Sequence:
#
# PCOD8228133 Si02
#       8
#     8   8   8   8   8   8   8   8
#     4  10  21  28  51  83 101 139 200 253 274 340
#     4  11  24  37  57  95 117 154 198 246 308 355
#     4   8  16  29  52  71 101 142 176 211 283 330
#     4  10  19  35  58  84 115 147 181 245 292 347
#     4  10  19  36  58  84 105 150 186 244 290 343
#     4  10  22  34  55  78 116 147 177 239 296 341
#     4  11  23  37  62  85 121 152 205 251 297 366
#     4  10  20  36  54  79 113 146 186 238 300 338
#
# _framework density 21.529919
#
# number of rings (size 3 to 8) (size 9 to 14) (size 15 to 20)
#    0.000    2.000    2.500    2.250   14.000    0.000 
#    0.000    0.000    0.000    4.500    0.000    0.000 
#    0.000   27.000    0.000    0.000    0.000    0.000 
#
# Total GULP energy -792909.741702 kJ/mol
# GULP energy per Si atom -12389.214714 kJ/mol
# Density = 2.148092 g / cm^3
# Si number density = 21.529919 Si / 1000 Ang^3
#
#
#
# Elastic Constant Matrix: (Units=GPa)
#
#
# Indices 1 2 3 4 5 6 
#
# 1 38.7760 24.6371 10.2360 0.0000 0.0000 0.0000
# 2 24.6371 60.5254 13.4937 0.0000 0.0000 0.0000
# 3 10.2360 13.4937 190.2517 0.0000 0.0000 0.0000
# 4 0.0000 0.0000 0.0000 29.9977 0.0000 0.0000
# 5 0.0000 0.0000 0.0000 0.0000 6.3625 0.0000
# 6 0.0000 0.0000 0.0000 0.0000 0.0000 12.8390
#
#
#
# Elastic Compliance Matrix: (Units=1/GPa)
#
#
# Indices 1 2 3 4 5 6 
#
# 1 0.034932 -0.014022 -0.000885 0.000000 0.000000 0.000000
# 2 -0.014022 0.022416 -0.000835 0.000000 0.000000 0.000000
# 3 -0.000885 -0.000835 0.005363 0.000000 0.000000 0.000000
# 4 0.000000 0.000000 0.000000 0.033336 0.000000 0.000000
# 5 0.000000 0.000000 0.000000 0.000000 0.157171 0.000000
# 6 0.000000 0.000000 0.000000 0.000000 0.000000 0.077888
#
#
# Mechanical properties :
#
#
# Convention : Reuss Voigt Hill
#
# Bulk Modulus (GPa) = 32.02425 42.92075 37.47250
# Shear Modulus (GPa) = 13.40487 25.91893 19.66190
#
# Velocity S-wave (km/s) = 2.49793 3.47343 3.02526
# Velocity P-wave (km/s) = 4.81935 6.00541 5.44477
#
# Compressibility (1/GPa) = 0.03122633
#
# Stress axis : x y z
#
# Youngs Moduli (GPa) = 28.62722 44.61115 186.46072
#
# Poissons Ratio (x) = 0.62553 0.16500
# Poissons Ratio (y) = 0.40141 0.15578
# Poissons Ratio (z) = 0.02533 0.03727
#
# Static dielectric constant tensor:
#      x y z
#    x 3.314800 0.000000 0.000000 
#    y 0.000000 3.705250 0.000000 
#    z 0.000000 0.000000 7.578780 
# 
# 
# High freq. dielectric constant tensor:
#      x y z
#    x 1.788990 0.000000 0.000000 
#    y 0.000000 1.817310 0.000000 
#    z 0.000000 0.000000 1.882720 
# 
# From -- ./inp_files/1375.got.cif
#   From: 2010.03.12/outbox.cif.g09.slc.cpg/sg56_1_cif.got.tgz:1375.got - 2010.04.16 15:33:40.
