data_PCOD8228366
_publ_section_title
;
Structure prediction by ZEFSAII (Michael W. Deem and Ramdas Pophale) SiO2 
 PCOD8228366
Probable space group: P C C N
;
_chemical_formula_sum "Si O2"
_cell_formula_units_Z 52
_cell_length_a 8.265042
_cell_length_b 16.705932
_cell_length_c 17.259710
_cell_angle_alpha 90.000000
_cell_angle_beta 90.000000
_cell_angle_gamma 90.000000
_cell_volume 2383.138422
_symmetry_space_group_name_H-M "P C C N"
_symmetry_group_IT_number 56
_symmetry_cell_setting 'orthorhombic'
loop_
_space_group_symop_operation_xyz
x,y,z
1/2-x,1/2-y,z
1/2+x,-y,1/2-z
-x,1/2+y,1/2-z
-x,-y,-z
1/2+x,1/2+y,-z
1/2-x,y,1/2+z
x,1/2-y,1/2+z
loop_
_atom_site_type_symbol
_atom_site_label
_atom_site_fract_x
_atom_site_fract_y
_atom_site_fract_z
Si Si1 0.079166 0.203936 0.642132
Si Si2 0.277049 0.923115 0.460588
Si Si3 0.126427 0.041807 0.075055
Si Si4 0.750000 0.250000 0.094695
Si Si5 0.386447 0.460563 0.356744
Si Si6 0.187557 0.336200 0.979465
Si Si7 0.341644 0.448472 0.717568
O O1 0.250000 0.250000 0.654649
O O2 0.068804 0.172445 0.553133
O O3 0.060330 0.134603 0.706562
O O4 0.911779 0.254285 0.649144
O O5 0.434648 0.959100 0.417068
O O6 0.258460 0.827868 0.460295
O O7 0.291492 0.957287 0.548283
O O8 0.127377 0.963408 0.414603
O O9 0.191967 0.061213 0.159233
O O10 0.163890 0.109611 0.009924
O O11 0.404126 0.379553 0.407838
O O12 0.544307 0.475780 0.303425
O O13 0.226191 0.455029 0.303718
O O14 0.250000 0.250000 0.950104
#
# Coordination Sequence:
#
# PCOD8228366 Si02
#       7
#     8   8   8   4   8   8   8
#     4  10  22  39  63  96 125 157 202 261 319 373
#     4  10  20  36  59  92 118 156 195 257 311 368
#     4   9  20  37  60  87 123 152 196 254 312 368
#     4  12  20  34  66  96 124 154 208 260 320 378
#     4  11  23  37  60  82 120 163 205 248 301 373
#     4   9  19  37  61  89 115 152 199 247 315 370
#     4  11  22  39  57  87 119 167 208 249 305 375
#
# _framework density 21.819966000000001
#
# number of rings (size 3 to 8) (size 9 to 14) (size 15 to 20)
#    0.000    1.846    1.538    3.692    2.154    2.462 
#    0.000    0.000    0.000    0.923    0.000    0.000 
#    0.000    0.000    0.000    0.000    0.000    0.000 
#
# Total GULP energy -644376.539853 kJ/mol
# GULP energy per Si atom -12391.856536 kJ/mol
# Density = 2.177030 g / cm^3
# Si number density = 21.819966 Si / 1000 Ang^3
#
#
#
# Elastic Constant Matrix: (Units=GPa)
#
#
# Indices 1 2 3 4 5 6 
#
# 1 80.5410 6.3638 7.1779 0.0000 0.0000 0.0000
# 2 6.3638 134.1387 27.5562 0.0000 0.0000 0.0000
# 3 7.1779 27.5562 55.8480 0.0000 0.0000 0.0000
# 4 0.0000 0.0000 0.0000 18.3062 0.0000 0.0000
# 5 0.0000 0.0000 0.0000 0.0000 17.8512 0.0000
# 6 0.0000 0.0000 0.0000 0.0000 0.0000 27.4041
#
#
#
# Elastic Compliance Matrix: (Units=1/GPa)
#
#
# Indices 1 2 3 4 5 6 
#
# 1 0.012570 -0.000294 -0.001470 0.000000 0.000000 0.000000
# 2 -0.000294 0.008303 -0.004059 0.000000 0.000000 0.000000
# 3 -0.001470 -0.004059 0.020097 0.000000 0.000000 0.000000
# 4 0.000000 0.000000 0.000000 0.054626 0.000000 0.000000
# 5 0.000000 0.000000 0.000000 0.000000 0.056019 0.000000
# 6 0.000000 0.000000 0.000000 0.000000 0.000000 0.036491
#
#
# Mechanical properties :
#
#
# Convention : Reuss Voigt Hill
#
# Bulk Modulus (GPa) = 34.10247 39.19149 36.64698
# Shear Modulus (GPa) = 23.86318 28.00763 25.93540
#
# Velocity S-wave (km/s) = 3.31061 3.58659 3.45136
# Velocity P-wave (km/s) = 5.50241 5.92890 5.71963
#
# Compressibility (1/GPa) = 0.02932339
#
# Stress axis : x y z
#
# Youngs Moduli (GPa) = 79.55241 120.44199 49.75756
#
# Poissons Ratio (x) = 0.03545 0.07316
# Poissons Ratio (y) = 0.02341 0.20196
# Poissons Ratio (z) = 0.11697 0.48886
#
# Static dielectric constant tensor:
#      x y z
#    x 4.006410 0.000000 0.000000 
#    y 0.000000 4.025480 0.000000 
#    z 0.000000 0.000000 3.661520 
# 
# 
# High freq. dielectric constant tensor:
#      x y z
#    x 1.866410 0.000000 0.000000 
#    y 0.000000 1.855080 0.000000 
#    z 0.000000 0.000000 1.819240 
# 
# From -- ./inp_files/15067.got.cif
#   From: 2010.03.12/outbox.cif.g09.slc.cpg/sg56_8_cif.got.tgz:15067.got - 2010.04.16 15:33:40.
