data_PCOD8228808
_publ_section_title
;
Structure prediction by ZEFSAII (Michael W. Deem and Ramdas Pophale) SiO2 
 PCOD8228808
Probable space group: P C C N
;
_chemical_formula_sum "Si O2"
_cell_formula_units_Z 36
_cell_length_a 7.620623
_cell_length_b 15.030952
_cell_length_c 14.533978
_cell_angle_alpha 90.000000
_cell_angle_beta 90.000000
_cell_angle_gamma 90.000000
_cell_volume 1664.797686
_symmetry_space_group_name_H-M "P C C N"
_symmetry_group_IT_number 56
_symmetry_cell_setting 'orthorhombic'
loop_
_space_group_symop_operation_xyz
x,y,z
1/2-x,1/2-y,z
1/2+x,-y,1/2-z
-x,1/2+y,1/2-z
-x,-y,-z
1/2+x,1/2+y,-z
1/2-x,y,1/2+z
x,1/2-y,1/2+z
loop_
_atom_site_type_symbol
_atom_site_label
_atom_site_fract_x
_atom_site_fract_y
_atom_site_fract_z
Si Si1 0.354764 0.085827 0.404374
Si Si2 0.750000 0.250000 0.180624
Si Si3 0.395675 0.172741 0.216607
Si Si4 0.461802 0.101958 0.017997
Si Si5 0.841963 0.118317 0.036196
O O1 0.352568 0.101711 0.295897
O O2 0.184032 0.135403 0.446374
O O3 0.522279 0.130845 0.453509
O O4 0.348400 0.981342 0.424279
O O5 0.597254 0.202503 0.239296
O O6 0.876133 0.183849 0.121256
O O7 0.250000 0.250000 0.217459
O O8 0.389028 0.119543 0.120667
O O9 0.648302 0.149407 0.001145
O O10 0.500000 0.000000 0.000000
#
# Coordination Sequence:
#
# PCOD8228808 Si02
#       5
#     8   4   8   8   8
#     4  10  21  40  63  95 121 166 213 258 317 380
#     4  10  22  42  58  90 130 170 206 264 314 370
#     4  11  24  40  63  96 130 166 212 266 320 378
#     4   9  20  43  61  88 123 166 208 258 318 377
#     4   9  20  41  63  85 127 168 208 261 316 375
#
# _framework density 21.624248999999999
#
# number of rings (size 3 to 8) (size 9 to 14) (size 15 to 20)
#    0.000    2.222    0.000    1.333    0.000    7.111 
#   48.000    0.000    0.000    0.000    0.000    0.000 
#    0.000    0.000    0.000    0.000    0.000    0.000 
#
# Total GULP energy -446096.910632 kJ/mol
# GULP energy per Si atom -12391.580851 kJ/mol
# Density = 2.157503 g / cm^3
# Si number density = 21.624249 Si / 1000 Ang^3
#
#
#
# Elastic Constant Matrix: (Units=GPa)
#
#
# Indices 1 2 3 4 5 6 
#
# 1 121.3425 29.7033 63.5001 0.0000 0.0000 0.0000
# 2 29.7033 46.3219 30.9430 0.0000 0.0000 0.0000
# 3 63.5001 30.9430 110.6577 0.0000 0.0000 0.0000
# 4 0.0000 0.0000 0.0000 25.2533 0.0000 0.0000
# 5 0.0000 0.0000 0.0000 0.0000 28.1465 0.0000
# 6 0.0000 0.0000 0.0000 0.0000 0.0000 25.9802
#
#
#
# Elastic Compliance Matrix: (Units=1/GPa)
#
#
# Indices 1 2 3 4 5 6 
#
# 1 0.012328 -0.003910 -0.005981 0.000000 0.000000 0.000000
# 2 -0.003910 0.027787 -0.005526 0.000000 0.000000 0.000000
# 3 -0.005981 -0.005526 0.014014 0.000000 0.000000 0.000000
# 4 0.000000 0.000000 0.000000 0.039599 0.000000 0.000000
# 5 0.000000 0.000000 0.000000 0.000000 0.035528 0.000000
# 6 0.000000 0.000000 0.000000 0.000000 0.000000 0.038491
#
#
# Mechanical properties :
#
#
# Convention : Reuss Voigt Hill
#
# Bulk Modulus (GPa) = 42.92810 58.51275 50.72042
# Shear Modulus (GPa) = 24.23100 26.15437 25.19269
#
# Velocity S-wave (km/s) = 3.35109 3.48155 3.41694
# Velocity P-wave (km/s) = 5.90491 6.57869 6.25089
#
# Compressibility (1/GPa) = 0.02329477
#
# Stress axis : x y z
#
# Youngs Moduli (GPa) = 81.11438 35.98827 71.35503
#
# Poissons Ratio (x) = 0.14071 0.42679
# Poissons Ratio (y) = 0.31715 0.39433
# Poissons Ratio (z) = 0.48516 0.19888
#
# Static dielectric constant tensor:
#      x y z
#    x 4.407170 0.000000 0.000000 
#    y 0.000000 3.974120 0.000000 
#    z 0.000000 0.000000 3.745660 
# 
# 
# High freq. dielectric constant tensor:
#      x y z
#    x 1.873820 0.000000 0.000000 
#    y 0.000000 1.845950 0.000000 
#    z 0.000000 0.000000 1.829790 
# 
# From -- ./inp_files/10290.got.cif
#   From: 2010.03.12/outbox.cif.g09.slc.cpg/sg56_6_cif.got.tgz:10290.got - 2010.04.16 15:33:40.
