data_PCOD8228016
_publ_section_title
;
Structure prediction by ZEFSAII (Michael W. Deem and Ramdas Pophale) SiO2 
 PCOD8228016
Probable space group: P C C N
;
_chemical_formula_sum "Si O2"
_cell_formula_units_Z 52
_cell_length_a 18.598782
_cell_length_b 14.033275
_cell_length_c 9.692950
_cell_angle_alpha 90.000000
_cell_angle_beta 90.000000
_cell_angle_gamma 90.000000
_cell_volume 2529.877615
_symmetry_space_group_name_H-M "P C C N"
_symmetry_group_IT_number 56
_symmetry_cell_setting 'orthorhombic'
loop_
_space_group_symop_operation_xyz
x,y,z
1/2-x,1/2-y,z
1/2+x,-y,1/2-z
-x,1/2+y,1/2-z
-x,-y,-z
1/2+x,1/2+y,-z
1/2-x,y,1/2+z
x,1/2-y,1/2+z
loop_
_atom_site_type_symbol
_atom_site_label
_atom_site_fract_x
_atom_site_fract_y
_atom_site_fract_z
Si Si1 0.922589 0.752063 0.161789
Si Si2 0.829926 0.916295 0.057213
Si Si3 0.750000 0.250000 0.114858
Si Si4 0.625704 0.376318 0.019541
Si Si5 0.692780 0.595639 0.735727
Si Si6 0.636973 0.107276 0.210913
Si Si7 0.518345 0.278242 0.582130
O O1 0.895528 0.843854 0.076962
O O2 0.858035 0.680332 0.188570
O O3 0.955102 0.783395 0.307071
O O4 0.984780 0.704692 0.068629
O O5 0.770331 0.886615 0.168963
O O6 0.799206 0.909941 0.901450
O O7 0.859130 0.022128 0.090705
O O8 0.704412 0.178974 0.210558
O O9 0.697575 0.312466 0.019637
O O10 0.601859 0.391430 0.862022
O O11 0.559954 0.323290 0.096069
O O12 0.662190 0.498179 0.671951
O O13 0.575889 0.137257 0.102196
#
# Coordination Sequence:
#
# PCOD8228016 Si02
#       7
#     8   8   4   8   8   8   8
#     4  12  25  44  65  92 132 177 217 262 314 389
#     4  11  25  44  68  96 128 174 218 268 321 380
#     4  10  18  36  64  98 128 166 202 274 310 390
#     4  10  21  40  66  96 129 168 212 263 328 384
#     4  11  25  44  67  97 127 172 219 269 321 378
#     4  10  21  40  65  96 131 162 217 265 324 383
#     4  11  24  43  66  97 129 174 213 263 326 382
#
# _framework density 20.554352000000002
#
# number of rings (size 3 to 8) (size 9 to 14) (size 15 to 20)
#    0.000    1.231    4.615    0.923    2.154    3.692 
#    2.769    0.000    0.000    0.000    0.000    0.000 
#    0.000    0.000    0.000    0.000    0.000    0.000 
#
# Total GULP energy -645012.909005 kJ/mol
# GULP energy per Si atom -12404.094404 kJ/mol
# Density = 2.050757 g / cm^3
# Si number density = 20.554352 Si / 1000 Ang^3
#
#
#
# Elastic Constant Matrix: (Units=GPa)
#
#
# Indices 1 2 3 4 5 6 
#
# 1 71.8359 22.6222 19.2058 0.0000 0.0000 0.0000
# 2 22.6222 95.4849 12.2608 0.0000 0.0000 0.0000
# 3 19.2058 12.2608 65.4101 0.0000 0.0000 0.0000
# 4 0.0000 0.0000 0.0000 27.3414 0.0000 0.0000
# 5 0.0000 0.0000 0.0000 0.0000 32.6600 0.0000
# 6 0.0000 0.0000 0.0000 0.0000 0.0000 27.3541
#
#
#
# Elastic Compliance Matrix: (Units=1/GPa)
#
#
# Indices 1 2 3 4 5 6 
#
# 1 0.016048 -0.003276 -0.004098 0.000000 0.000000 0.000000
# 2 -0.003276 0.011400 -0.001175 0.000000 0.000000 0.000000
# 3 -0.004098 -0.001175 0.016712 0.000000 0.000000 0.000000
# 4 0.000000 0.000000 0.000000 0.036575 0.000000 0.000000
# 5 0.000000 0.000000 0.000000 0.000000 0.030619 0.000000
# 6 0.000000 0.000000 0.000000 0.000000 0.000000 0.036558
#
#
# Mechanical properties :
#
#
# Convention : Reuss Voigt Hill
#
# Bulk Modulus (GPa) = 36.95247 37.87871 37.41559
# Shear Modulus (GPa) = 28.73097 29.38056 29.05577
#
# Velocity S-wave (km/s) = 3.74278 3.78485 3.76387
# Velocity P-wave (km/s) = 6.05762 6.12933 6.09358
#
# Compressibility (1/GPa) = 0.02706179
#
# Stress axis : x y z
#
# Youngs Moduli (GPa) = 62.31374 87.72050 59.83852
#
# Poissons Ratio (x) = 0.28736 0.24521
# Poissons Ratio (y) = 0.20413 0.07031
# Poissons Ratio (z) = 0.25536 0.10307
#
# Static dielectric constant tensor:
#      x y z
#    x 3.721580 0.000000 0.000000 
#    y 0.000000 3.799570 0.000000 
#    z 0.000000 0.000000 3.532440 
# 
# 
# High freq. dielectric constant tensor:
#      x y z
#    x 1.810080 0.000000 0.000000 
#    y 0.000000 1.806980 0.000000 
#    z 0.000000 0.000000 1.797430 
# 
# From -- ./inp_files/3534.got.cif
#   From: 2010.03.12/outbox.cif.g09.slc.cpg/sg56_2_cif.got.tgz:3534.got - 2010.04.16 15:33:40.
