data_PCOD8228651
_publ_section_title
;
Structure prediction by ZEFSAII (Michael W. Deem and Ramdas Pophale) SiO2 
 PCOD8228651
Probable space group: P C C N
;
_chemical_formula_sum "Si O2"
_cell_formula_units_Z 52
_cell_length_a 6.347726
_cell_length_b 20.648613
_cell_length_c 19.053166
_cell_angle_alpha 90.000000
_cell_angle_beta 90.000000
_cell_angle_gamma 90.000000
_cell_volume 2497.331574
_symmetry_space_group_name_H-M "P C C N"
_symmetry_group_IT_number 56
_symmetry_cell_setting 'orthorhombic'
loop_
_space_group_symop_operation_xyz
x,y,z
1/2-x,1/2-y,z
1/2+x,-y,1/2-z
-x,1/2+y,1/2-z
-x,-y,-z
1/2+x,1/2+y,-z
1/2-x,y,1/2+z
x,1/2-y,1/2+z
loop_
_atom_site_type_symbol
_atom_site_label
_atom_site_fract_x
_atom_site_fract_y
_atom_site_fract_z
Si Si1 0.209496 0.044189 0.300495
Si Si2 0.931489 0.355284 0.116344
Si Si3 0.750000 0.750000 0.920230
Si Si4 0.669770 0.402980 0.242291
Si Si5 0.112117 0.908431 0.125831
Si Si6 0.121670 0.811619 0.002761
Si Si7 0.428066 0.006622 0.079653
O O1 0.419365 0.079740 0.322174
O O2 0.085664 0.090458 0.243964
O O3 0.245085 0.976480 0.261713
O O4 0.086377 0.034476 0.373133
O O5 0.770320 0.358340 0.182158
O O6 0.094385 0.295442 0.126328
O O7 0.071899 0.419188 0.105496
O O8 0.779341 0.347626 0.050055
O O9 0.601153 0.705565 0.968012
O O10 0.723665 0.375968 0.319868
O O11 0.056868 0.858038 0.065710
O O12 0.195951 0.975381 0.090185
O O13 0.250000 0.750000 0.031945
O O14 0.500000 0.000000 0.000000
#
# Coordination Sequence:
#
# PCOD8228651 Si02
#       7
#     8   8   4   8   8   8   8
#     4  10  21  35  57  91 135 167 199 257 332 392
#     4  10  22  42  65  94 128 173 215 275 321 392
#     4  10  24  42  66  88 128 172 228 266 328 374
#     4  10  21  39  60  92 132 166 210 258 326 394
#     4  11  22  38  65  95 132 169 207 267 332 392
#     4  10  23  43  63  90 129 169 216 271 322 382
#     4  10  21  36  60  98 131 155 208 264 331 397
#
# _framework density 20.822223999999999
#
# number of rings (size 3 to 8) (size 9 to 14) (size 15 to 20)
#    0.000    1.846    3.077    0.000    2.154    5.538 
#    0.000    3.077    0.000    0.000    0.000    0.000 
#    0.000    0.000    0.000    0.000    0.000    0.000 
#
# Total GULP energy -644415.795663 kJ/mol
# GULP energy per Si atom -12392.611455 kJ/mol
# Density = 2.077483 g / cm^3
# Si number density = 20.822224 Si / 1000 Ang^3
#
#
#
# Elastic Constant Matrix: (Units=GPa)
#
#
# Indices 1 2 3 4 5 6 
#
# 1 112.9954 40.7100 33.5720 0.0000 0.0000 0.0000
# 2 40.7100 85.7462 38.9966 0.0000 0.0000 0.0000
# 3 33.5720 38.9966 97.5384 0.0000 0.0000 0.0000
# 4 0.0000 0.0000 0.0000 15.5051 0.0000 0.0000
# 5 0.0000 0.0000 0.0000 0.0000 37.5501 0.0000
# 6 0.0000 0.0000 0.0000 0.0000 0.0000 27.0067
#
#
#
# Elastic Compliance Matrix: (Units=1/GPa)
#
#
# Indices 1 2 3 4 5 6 
#
# 1 0.011010 -0.004282 -0.002077 0.000000 0.000000 0.000000
# 2 -0.004282 0.015920 -0.004891 0.000000 0.000000 0.000000
# 3 -0.002077 -0.004891 0.012923 0.000000 0.000000 0.000000
# 4 0.000000 0.000000 0.000000 0.064495 0.000000 0.000000
# 5 0.000000 0.000000 0.000000 0.000000 0.026631 0.000000
# 6 0.000000 0.000000 0.000000 0.000000 0.000000 0.037028
#
#
# Mechanical properties :
#
#
# Convention : Reuss Voigt Hill
#
# Bulk Modulus (GPa) = 57.63301 58.09302 57.86301
# Shear Modulus (GPa) = 25.47230 28.21249 26.84239
#
# Velocity S-wave (km/s) = 3.50140 3.68492 3.59433
# Velocity P-wave (km/s) = 6.63966 6.78712 6.71379
#
# Compressibility (1/GPa) = 0.01735117
#
# Stress axis : x y z
#
# Youngs Moduli (GPa) = 90.82636 62.81463 77.38250
#
# Poissons Ratio (x) = 0.26900 0.16075
# Poissons Ratio (y) = 0.38896 0.37847
# Poissons Ratio (z) = 0.18868 0.30722
#
# Static dielectric constant tensor:
#      x y z
#    x 4.093530 0.000000 0.000000 
#    y 0.000000 3.693770 0.000000 
#    z 0.000000 0.000000 3.768860 
# 
# 
# High freq. dielectric constant tensor:
#      x y z
#    x 1.827510 0.000000 0.000000 
#    y 0.000000 1.788470 0.000000 
#    z 0.000000 0.000000 1.818510 
# 
# From -- ./inp_files/17567.got.cif
#   From: 2010.03.12/outbox.cif.g09.slc.cpg/sg56_9_cif.got.tgz:17567.got - 2010.04.16 15:33:40.
