data_PCOD8228320
_publ_section_title
;
Structure prediction by ZEFSAII (Michael W. Deem and Ramdas Pophale) SiO2 
 PCOD8228320
Probable space group: P C C N
;
_chemical_formula_sum "Si O2"
_cell_formula_units_Z 52
_cell_length_a 20.893549
_cell_length_b 4.993508
_cell_length_c 21.577254
_cell_angle_alpha 90.000000
_cell_angle_beta 90.000000
_cell_angle_gamma 90.000000
_cell_volume 2251.200310
_symmetry_space_group_name_H-M "P C C N"
_symmetry_group_IT_number 56
_symmetry_cell_setting 'orthorhombic'
loop_
_space_group_symop_operation_xyz
x,y,z
1/2-x,1/2-y,z
1/2+x,-y,1/2-z
-x,1/2+y,1/2-z
-x,-y,-z
1/2+x,1/2+y,-z
1/2-x,y,1/2+z
x,1/2-y,1/2+z
loop_
_atom_site_type_symbol
_atom_site_label
_atom_site_fract_x
_atom_site_fract_y
_atom_site_fract_z
Si Si1 0.086762 0.774852 0.749879
Si Si2 0.250000 0.750000 0.080657
Si Si3 0.965750 0.068780 0.565374
Si Si4 0.690400 0.900720 0.815441
Si Si5 0.088666 0.303444 0.599587
Si Si6 0.123312 0.711525 0.027628
Si Si7 0.457131 0.229876 0.819294
O O1 0.157409 0.857390 0.723278
O O2 0.069250 0.977528 0.805018
O O3 0.033045 0.795812 0.696074
O O4 0.086265 0.478991 0.779240
O O5 0.225437 0.510233 0.123316
O O6 0.194072 0.835651 0.033360
O O7 0.902280 0.230584 0.543313
O O8 0.945711 0.815686 0.607217
O O9 0.013656 0.234615 0.610652
O O10 0.000000 0.000000 0.500000
O O11 0.750000 0.750000 0.779803
O O12 0.631739 0.702375 0.837307
O O13 0.082305 0.603791 0.574059
O O14 0.118860 0.096137 0.550231
#
# Coordination Sequence:
#
# PCOD8228320 Si02
#       7
#     8   4   8   8   8   8   8
#     4  10  23  39  63  87 123 161 204 261 312 365
#     4  10  22  36  58  92 126 156 210 266 302 374
#     4  10  21  39  64  94 126 165 204 255 318 379
#     4  11  21  37  62  91 121 163 209 262 314 367
#     4  10  20  35  54  91 121 150 201 248 297 368
#     4  10  21  34  55  85 123 159 195 248 314 354
#     4  10  22  41  60  92 122 158 206 258 313 372
#
# _framework density 23.098787999999999
#
# number of rings (size 3 to 8) (size 9 to 14) (size 15 to 20)
#    0.000    1.846    3.077    0.462    2.154    4.923 
#    0.000    0.000    3.385    0.000    0.000    0.000 
#    0.000    0.000    0.000    0.000    0.000    0.000 
#
# Total GULP energy -644201.384405 kJ/mol
# GULP energy per Si atom -12388.488162 kJ/mol
# Density = 2.304621 g / cm^3
# Si number density = 23.098788 Si / 1000 Ang^3
#
#
#
# Elastic Constant Matrix: (Units=GPa)
#
#
# Indices 1 2 3 4 5 6 
#
# 1 112.8230 -6.2222 10.0972 0.0000 0.0000 0.0000
# 2 -6.2222 42.1023 -3.3493 0.0000 0.0000 0.0000
# 3 10.0972 -3.3493 70.4468 0.0000 0.0000 0.0000
# 4 0.0000 0.0000 0.0000 11.3623 0.0000 0.0000
# 5 0.0000 0.0000 0.0000 0.0000 22.3103 0.0000
# 6 0.0000 0.0000 0.0000 0.0000 0.0000 24.6310
#
#
#
# Elastic Compliance Matrix: (Units=1/GPa)
#
#
# Indices 1 2 3 4 5 6 
#
# 1 0.009042 0.001238 -0.001237 0.000000 0.000000 0.000000
# 2 0.001238 0.024011 0.000964 0.000000 0.000000 0.000000
# 3 -0.001237 0.000964 0.014418 0.000000 0.000000 0.000000
# 4 0.000000 0.000000 0.000000 0.088011 0.000000 0.000000
# 5 0.000000 0.000000 0.000000 0.000000 0.044822 0.000000
# 6 0.000000 0.000000 0.000000 0.000000 0.000000 0.040599
#
#
# Mechanical properties :
#
#
# Convention : Reuss Voigt Hill
#
# Bulk Modulus (GPa) = 20.24217 25.15817 22.70017
# Shear Modulus (GPa) = 21.23668 26.65048 23.94358
#
# Velocity S-wave (km/s) = 3.03543 3.40039 3.22308
# Velocity P-wave (km/s) = 4.58992 5.13148 4.86824
#
# Compressibility (1/GPa) = 0.04940182
#
# Stress axis : x y z
#
# Youngs Moduli (GPa) = 110.58964 41.64702 69.35643
#
# Poissons Ratio (x) = -0.05156 0.08581
# Poissons Ratio (y) = -0.13690 -0.06687
# Poissons Ratio (z) = 0.13682 -0.04015
#
# Static dielectric constant tensor:
#      x y z
#    x 5.066390 0.000000 0.000000 
#    y 0.000000 4.175030 0.000000 
#    z 0.000000 0.000000 4.014780 
# 
# 
# High freq. dielectric constant tensor:
#      x y z
#    x 1.902900 0.000000 0.000000 
#    y 0.000000 1.918250 0.000000 
#    z 0.000000 0.000000 1.875920 
# 
# From -- ./inp_files/19475.got.cif
#   From: 2010.03.12/outbox.cif.g09.slc.cpg/sg56_10_cif.got.tgz:19475.got - 2010.04.16 15:33:40.
