data_PCOD8228074
_publ_section_title
;
Structure prediction by ZEFSAII (Michael W. Deem and Ramdas Pophale) SiO2 
 PCOD8228074
Probable space group: P C C N
;
_chemical_formula_sum "Si O2"
_cell_formula_units_Z 64
_cell_length_a 22.168256
_cell_length_b 27.076831
_cell_length_c 5.389651
_cell_angle_alpha 90.000000
_cell_angle_beta 90.000000
_cell_angle_gamma 90.000000
_cell_volume 3235.117108
_symmetry_space_group_name_H-M "P C C N"
_symmetry_group_IT_number 56
_symmetry_cell_setting 'orthorhombic'
loop_
_space_group_symop_operation_xyz
x,y,z
1/2-x,1/2-y,z
1/2+x,-y,1/2-z
-x,1/2+y,1/2-z
-x,-y,-z
1/2+x,1/2+y,-z
1/2-x,y,1/2+z
x,1/2-y,1/2+z
loop_
_atom_site_type_symbol
_atom_site_label
_atom_site_fract_x
_atom_site_fract_y
_atom_site_fract_z
Si Si1 0.019546 0.046901 0.753925
Si Si2 0.783600 0.016410 0.501397
Si Si3 0.581627 0.043232 0.889090
Si Si4 0.717390 0.600407 0.537451
Si Si5 0.517630 0.127431 0.643971
Si Si6 0.927690 0.728408 0.808584
Si Si7 0.914444 0.629182 0.006808
Si Si8 0.060084 0.732537 0.404607
O O1 0.955815 0.030396 0.637475
O O2 0.062505 0.074717 0.558339
O O3 0.009106 0.085542 0.968966
O O4 0.057636 0.996764 0.821881
O O5 0.757664 0.034251 0.768184
O O6 0.848423 0.040205 0.450974
O O7 0.789442 0.958023 0.518284
O O8 0.566951 0.099562 0.814507
O O9 0.759056 0.617932 0.767208
O O10 0.653647 0.625088 0.599886
O O11 0.551285 0.174555 0.525451
O O12 0.459862 0.150482 0.784520
O O13 0.896714 0.752192 0.564110
O O14 0.918519 0.669187 0.784148
O O15 0.998499 0.740179 0.819774
O O16 0.094599 0.759238 0.637291
#
# Coordination Sequence:
#
# PCOD8228074 Si02
#       8
#     8   8   8   8   8   8   8   8
#     4  10  21  35  53  83 124 153 186 234 301 357
#     4  10  22  40  62  78 110 161 204 242 277 330
#     4  10  22  37  51  89 122 154 194 237 294 354
#     4  10  23  39  55  79 103 144 203 255 281 332
#     4  11  22  32  59  86 118 160 181 239 298 368
#     4  10  19  32  52  80 104 140 189 232 286 356
#     4  11  21  34  58  79 108 152 194 240 300 348
#     4  10  19  35  53  81 115 146 192 227 282 355
#
# _framework density 19.782900000000001
#
# number of rings (size 3 to 8) (size 9 to 14) (size 15 to 20)
#    0.000    1.750    3.750    1.875    5.250    1.000 
#    0.000    0.000    0.000    2.250    0.000    0.000 
#    0.000    3.000    0.000    0.000    0.000    0.000 
#
# Total GULP energy -792897.228183 kJ/mol
# GULP energy per Si atom -12389.019190 kJ/mol
# Density = 1.973787 g / cm^3
# Si number density = 19.782900 Si / 1000 Ang^3
#
#
#
# Elastic Constant Matrix: (Units=GPa)
#
#
# Indices 1 2 3 4 5 6 
#
# 1 88.6493 21.4443 19.7428 0.0000 0.0000 0.0000
# 2 21.4443 82.6787 19.1724 0.0000 0.0000 0.0000
# 3 19.7428 19.1724 113.1159 0.0000 0.0000 0.0000
# 4 0.0000 0.0000 0.0000 12.0814 0.0000 0.0000
# 5 0.0000 0.0000 0.0000 0.0000 10.7933 0.0000
# 6 0.0000 0.0000 0.0000 0.0000 0.0000 12.1867
#
#
#
# Elastic Compliance Matrix: (Units=1/GPa)
#
#
# Indices 1 2 3 4 5 6 
#
# 1 0.012334 -0.002810 -0.001676 0.000000 0.000000 0.000000
# 2 -0.002810 0.013230 -0.001752 0.000000 0.000000 0.000000
# 3 -0.001676 -0.001752 0.009430 0.000000 0.000000 0.000000
# 4 0.000000 0.000000 0.000000 0.082772 0.000000 0.000000
# 5 0.000000 0.000000 0.000000 0.000000 0.092650 0.000000
# 6 0.000000 0.000000 0.000000 0.000000 0.000000 0.082057
#
#
# Mechanical properties :
#
#
# Convention : Reuss Voigt Hill
#
# Bulk Modulus (GPa) = 44.41142 45.01809 44.71476
# Shear Modulus (GPa) = 16.00230 21.95124 18.97677
#
# Velocity S-wave (km/s) = 2.84719 3.33469 3.10054
# Velocity P-wave (km/s) = 5.77121 6.13452 5.95563
#
# Compressibility (1/GPa) = 0.02251673
#
# Stress axis : x y z
#
# Youngs Moduli (GPa) = 81.07986 75.58495 106.04437
#
# Poissons Ratio (x) = 0.21241 0.17777
# Poissons Ratio (y) = 0.22785 0.18578
# Poissons Ratio (z) = 0.13592 0.13242
#
# Static dielectric constant tensor:
#      x y z
#    x 3.176560 0.000000 0.000000 
#    y 0.000000 3.759850 0.000000 
#    z 0.000000 0.000000 4.166310 
# 
# 
# High freq. dielectric constant tensor:
#      x y z
#    x 1.712120 0.000000 0.000000 
#    y 0.000000 1.770310 0.000000 
#    z 0.000000 0.000000 1.783760 
# 
# From -- ./inp_files/962.got.cif
#   From: 2010.03.12/outbox.cif.g09.slc.cpg/sg56_1_cif.got.tgz:962.got - 2010.04.16 15:33:40.
