data_PCOD8228490
_publ_section_title
;
Structure prediction by ZEFSAII (Michael W. Deem and Ramdas Pophale) SiO2 
 PCOD8228490
Probable space group: P C C N
;
_chemical_formula_sum "Si O2"
_cell_formula_units_Z 56
_cell_length_a 12.860930
_cell_length_b 15.145920
_cell_length_c 13.030951
_cell_angle_alpha 90.000000
_cell_angle_beta 90.000000
_cell_angle_gamma 90.000000
_cell_volume 2538.306984
_symmetry_space_group_name_H-M "P C C N"
_symmetry_group_IT_number 56
_symmetry_cell_setting 'orthorhombic'
loop_
_space_group_symop_operation_xyz
x,y,z
1/2-x,1/2-y,z
1/2+x,-y,1/2-z
-x,1/2+y,1/2-z
-x,-y,-z
1/2+x,1/2+y,-z
1/2-x,y,1/2+z
x,1/2-y,1/2+z
loop_
_atom_site_type_symbol
_atom_site_label
_atom_site_fract_x
_atom_site_fract_y
_atom_site_fract_z
Si Si1 0.205454 0.549918 0.134330
Si Si2 0.484985 0.612101 0.744365
Si Si3 0.466321 0.226943 0.938035
Si Si4 0.292897 0.096470 0.993001
Si Si5 0.677030 0.330079 0.543109
Si Si6 0.552833 0.593484 0.970757
Si Si7 0.652851 0.484947 0.690174
O O1 0.147818 0.470178 0.072059
O O2 0.306260 0.514946 0.193403
O O3 0.135893 0.595924 0.221972
O O4 0.240265 0.619949 0.047201
O O5 0.525930 0.697230 0.680831
O O6 0.537198 0.522927 0.700751
O O7 0.503334 0.628244 0.864324
O O8 0.470662 0.333092 0.942108
O O9 0.357799 0.188071 0.986766
O O10 0.563251 0.190958 0.001361
O O11 0.177041 0.097513 0.039269
O O12 0.282511 0.053307 0.880272
O O13 0.750000 0.250000 0.577921
O O14 0.656553 0.387376 0.644257
O O15 0.500000 0.500000 0.000000
#
# Coordination Sequence:
#
# PCOD8228490 Si02
#       7
#     8   8   8   8   8   8   8
#     4  10  20  38  64  91 128 170 216 269 330 407
#     4  10  22  43  65  95 127 175 222 262 344 415
#     4  10  24  45  64  91 135 175 220 271 339 419
#     4  10  21  42  66  94 129 173 216 274 336 402
#     4  10  23  38  61  94 132 170 219 277 335 402
#     4  12  25  43  68 101 135 166 226 293 337 392
#     4  10  20  39  65  92 123 169 215 264 330 397
#
# _framework density 22.061948999999998
#
# number of rings (size 3 to 8) (size 9 to 14) (size 15 to 20)
#    0.000    1.714    1.429    2.143    6.000    4.000 
#   10.286    1.429    0.000    0.000    0.000    0.000 
#    0.000    0.000    0.000    0.000    0.000    0.000 
#
# Total GULP energy -693989.576911 kJ/mol
# GULP energy per Si atom -12392.671016 kJ/mol
# Density = 2.201174 g / cm^3
# Si number density = 22.061949 Si / 1000 Ang^3
#
#
#
# Elastic Constant Matrix: (Units=GPa)
#
#
# Indices 1 2 3 4 5 6 
#
# 1 58.5035 26.3930 14.6684 0.0000 0.0000 0.0000
# 2 26.3930 146.5291 50.3516 0.0000 0.0000 0.0000
# 3 14.6684 50.3516 96.1655 0.0000 0.0000 0.0000
# 4 0.0000 0.0000 0.0000 30.7938 0.0000 0.0000
# 5 0.0000 0.0000 0.0000 0.0000 30.3313 0.0000
# 6 0.0000 0.0000 0.0000 0.0000 0.0000 30.9339
#
#
#
# Elastic Compliance Matrix: (Units=1/GPa)
#
#
# Indices 1 2 3 4 5 6 
#
# 1 0.018743 -0.002919 -0.001331 0.000000 0.000000 0.000000
# 2 -0.002919 0.008776 -0.004150 0.000000 0.000000 0.000000
# 3 -0.001331 -0.004150 0.012775 0.000000 0.000000 0.000000
# 4 0.000000 0.000000 0.000000 0.032474 0.000000 0.000000
# 5 0.000000 0.000000 0.000000 0.000000 0.032969 0.000000
# 6 0.000000 0.000000 0.000000 0.000000 0.000000 0.032327
#
#
# Mechanical properties :
#
#
# Convention : Reuss Voigt Hill
#
# Bulk Modulus (GPa) = 42.56168 53.78046 48.17107
# Shear Modulus (GPa) = 30.73223 32.39748 31.56486
#
# Velocity S-wave (km/s) = 3.73634 3.83623 3.78661
# Velocity P-wave (km/s) = 6.16015 6.63718 6.40311
#
# Compressibility (1/GPa) = 0.02349532
#
# Stress axis : x y z
#
# Youngs Moduli (GPa) = 53.35211 113.94195 78.28004
#
# Poissons Ratio (x) = 0.33258 0.10417
# Poissons Ratio (y) = 0.15572 0.32487
# Poissons Ratio (z) = 0.07100 0.47286
#
# Static dielectric constant tensor:
#      x y z
#    x 3.839290 0.000000 0.000000 
#    y 0.000000 4.120420 0.000000 
#    z 0.000000 0.000000 3.954820 
# 
# 
# High freq. dielectric constant tensor:
#      x y z
#    x 1.864620 0.000000 0.000000 
#    y 0.000000 1.862470 0.000000 
#    z 0.000000 0.000000 1.869940 
# 
# From -- ./inp_files/7882.got.cif
#   From: 2010.03.12/outbox.cif.g09.slc.cpg/sg56_4_cif.got.tgz:7882.got - 2010.04.16 15:33:40.
