data_PCOD8228362
_publ_section_title
;
Structure prediction by ZEFSAII (Michael W. Deem and Ramdas Pophale) SiO2 
 PCOD8228362
Probable space group: P C C N
;
_chemical_formula_sum "Si O2"
_cell_formula_units_Z 60
_cell_length_a 7.853243
_cell_length_b 22.972353
_cell_length_c 16.133060
_cell_angle_alpha 90.000000
_cell_angle_beta 90.000000
_cell_angle_gamma 90.000000
_cell_volume 2910.524544
_symmetry_space_group_name_H-M "P C C N"
_symmetry_group_IT_number 56
_symmetry_cell_setting 'orthorhombic'
loop_
_space_group_symop_operation_xyz
x,y,z
1/2-x,1/2-y,z
1/2+x,-y,1/2-z
-x,1/2+y,1/2-z
-x,-y,-z
1/2+x,1/2+y,-z
1/2-x,y,1/2+z
x,1/2-y,1/2+z
loop_
_atom_site_type_symbol
_atom_site_label
_atom_site_fract_x
_atom_site_fract_y
_atom_site_fract_z
Si Si1 0.048835 0.845489 0.205375
Si Si2 0.661112 0.552425 0.823051
Si Si3 0.666378 0.477221 0.080680
Si Si4 0.211686 0.560885 0.598765
Si Si5 0.750000 0.250000 0.371333
Si Si6 0.766465 0.598521 0.153380
Si Si7 0.035801 0.851003 0.546184
Si Si8 0.023759 0.898095 0.374419
O O1 0.847884 0.854310 0.202073
O O2 0.110180 0.867626 0.294938
O O3 0.110267 0.882600 0.126694
O O4 0.114081 0.780367 0.189717
O O5 0.483765 0.559474 0.873554
O O6 0.714654 0.484244 0.824819
O O7 0.621337 0.570755 0.728222
O O8 0.826205 0.584129 0.862452
O O9 0.664631 0.545510 0.107766
O O10 0.853421 0.451963 0.102330
O O11 0.631586 0.471803 0.981665
O O12 0.395254 0.585414 0.574443
O O13 0.854690 0.204826 0.427555
O O14 0.854103 0.643494 0.090032
O O15 0.023298 0.849708 0.447057
#
# Coordination Sequence:
#
# PCOD8228362 Si02
#       8
#     8   8   8   8   4   8   8   8
#     4  10  22  40  62  89 117 160 207 261 301 367
#     4  11  22  34  59  92 133 166 197 238 303 372
#     4  11  22  35  60  94 131 174 193 240 300 382
#     4  10  20  36  57  89 128 164 206 227 305 368
#     4  10  24  44  68  82 110 166 208 268 332 348
#     4  11  23  35  60  94 128 163 206 247 303 369
#     4  10  23  41  64  86 121 161 208 263 305 363
#     4  10  23  40  61  95 128 157 206 247 308 373
#
# _framework density 20.614841999999999
#
# number of rings (size 3 to 8) (size 9 to 14) (size 15 to 20)
#    0.000    1.600    1.333    2.800    9.333    3.200 
#    0.000    0.000    0.000    1.600    0.000    0.000 
#    0.000    0.000    0.000    0.000    0.000    0.000 
#
# Total GULP energy -743295.611959 kJ/mol
# GULP energy per Si atom -12388.260199 kJ/mol
# Density = 2.056792 g / cm^3
# Si number density = 20.614842 Si / 1000 Ang^3
#
#
#
# Elastic Constant Matrix: (Units=GPa)
#
#
# Indices 1 2 3 4 5 6 
#
# 1 76.6917 32.9959 31.4208 0.0000 0.0000 0.0000
# 2 32.9959 99.6325 47.0841 0.0000 0.0000 0.0000
# 3 31.4208 47.0841 115.6271 0.0000 0.0000 0.0000
# 4 0.0000 0.0000 0.0000 25.1932 0.0000 0.0000
# 5 0.0000 0.0000 0.0000 0.0000 21.7298 0.0000
# 6 0.0000 0.0000 0.0000 0.0000 0.0000 31.5403
#
#
#
# Elastic Compliance Matrix: (Units=1/GPa)
#
#
# Indices 1 2 3 4 5 6 
#
# 1 0.015853 -0.003980 -0.002687 0.000000 0.000000 0.000000
# 2 -0.003980 0.013428 -0.004386 0.000000 0.000000 0.000000
# 3 -0.002687 -0.004386 0.011165 0.000000 0.000000 0.000000
# 4 0.000000 0.000000 0.000000 0.039693 0.000000 0.000000
# 5 0.000000 0.000000 0.000000 0.000000 0.046020 0.000000
# 6 0.000000 0.000000 0.000000 0.000000 0.000000 0.031705
#
#
# Mechanical properties :
#
#
# Convention : Reuss Voigt Hill
#
# Bulk Modulus (GPa) = 54.53111 57.21698 55.87405
# Shear Modulus (GPa) = 26.86964 27.72269 27.29617
#
# Velocity S-wave (km/s) = 3.61420 3.67112 3.64277
# Velocity P-wave (km/s) = 6.62769 6.76646 6.69744
#
# Compressibility (1/GPa) = 0.01833816
#
# Stress axis : x y z
#
# Youngs Moduli (GPa) = 63.08141 74.47172 89.56688
#
# Poissons Ratio (x) = 0.29641 0.24067
# Poissons Ratio (y) = 0.25107 0.39287
# Poissons Ratio (z) = 0.16950 0.32666
#
# Static dielectric constant tensor:
#      x y z
#    x 3.849860 0.000000 0.000000 
#    y 0.000000 3.522230 0.000000 
#    z 0.000000 0.000000 3.918690 
# 
# 
# High freq. dielectric constant tensor:
#      x y z
#    x 1.816980 0.000000 0.000000 
#    y 0.000000 1.770350 0.000000 
#    z 0.000000 0.000000 1.818590 
# 
# From -- ./inp_files/10995.got.cif
#   From: 2010.03.12/outbox.cif.g09.slc.cpg/sg56_6_cif.got.tgz:10995.got - 2010.04.16 15:33:40.
