data_PCOD8228140
_publ_section_title
;
Structure prediction by ZEFSAII (Michael W. Deem and Ramdas Pophale) SiO2 
 PCOD8228140
Probable space group: P C C N
;
_chemical_formula_sum "Si O2"
_cell_formula_units_Z 56
_cell_length_a 9.485182
_cell_length_b 14.856455
_cell_length_c 20.197382
_cell_angle_alpha 90.000000
_cell_angle_beta 90.000000
_cell_angle_gamma 90.000000
_cell_volume 2846.137908
_symmetry_space_group_name_H-M "P C C N"
_symmetry_group_IT_number 56
_symmetry_cell_setting 'orthorhombic'
loop_
_space_group_symop_operation_xyz
x,y,z
1/2-x,1/2-y,z
1/2+x,-y,1/2-z
-x,1/2+y,1/2-z
-x,-y,-z
1/2+x,1/2+y,-z
1/2-x,y,1/2+z
x,1/2-y,1/2+z
loop_
_atom_site_type_symbol
_atom_site_label
_atom_site_fract_x
_atom_site_fract_y
_atom_site_fract_z
Si Si1 0.590626 0.688397 0.907278
Si Si2 0.144311 0.453354 0.772931
Si Si3 0.110489 0.364259 0.032197
Si Si4 0.594294 0.762818 0.258441
Si Si5 0.078525 0.981248 0.931950
Si Si6 0.612979 0.506928 0.578002
Si Si7 0.957330 0.916114 0.198224
O O1 0.738018 0.643323 0.930641
O O2 0.541432 0.764831 0.960583
O O3 0.595682 0.743710 0.838321
O O4 0.477671 0.610129 0.899244
O O5 0.050798 0.363448 0.762052
O O6 0.109751 0.488782 0.844380
O O7 0.312613 0.441209 0.762668
O O8 0.090591 0.525107 0.719873
O O9 0.021476 0.446158 0.062374
O O10 0.115966 0.392414 0.954758
O O11 0.750000 0.750000 0.229821
O O12 0.502705 0.686600 0.219909
O O13 0.242038 0.961534 0.947353
O O14 0.062575 0.065792 0.880755
O O15 0.000000 0.000000 0.000000
#
# Coordination Sequence:
#
# PCOD8228140 Si02
#       7
#     8   8   8   8   8   8   8
#     4  11  20  36  64  86 113 162 207 239 299 388
#     4  10  21  36  58  84 117 150 196 245 308 353
#     4  10  21  37  60  86 114 153 206 245 299 360
#     4  10  19  35  59  87 112 155 205 238 293 364
#     4  11  22  38  59  90 124 161 200 252 324 370
#     4  10  22  38  56  90 118 154 194 262 300 359
#     4  10  22  38  59  87 121 156 200 259 298 368
#
# _framework density 19.675785000000001
#
# number of rings (size 3 to 8) (size 9 to 14) (size 15 to 20)
#    0.000    1.714    4.286    0.857    2.000    1.714 
#    5.143    0.714    0.000    0.000    0.000    0.000 
#    0.000    0.000    0.000    0.000    0.000    0.000 
#
# Total GULP energy -693778.533800 kJ/mol
# GULP energy per Si atom -12388.902389 kJ/mol
# Density = 1.963100 g / cm^3
# Si number density = 19.675785 Si / 1000 Ang^3
#
#
#
# Elastic Constant Matrix: (Units=GPa)
#
#
# Indices 1 2 3 4 5 6 
#
# 1 49.4681 28.4602 19.7289 0.0000 0.0000 0.0000
# 2 28.4602 110.9584 17.0030 0.0000 0.0000 0.0000
# 3 19.7289 17.0030 63.2997 0.0000 0.0000 0.0000
# 4 0.0000 0.0000 0.0000 36.7634 0.0000 0.0000
# 5 0.0000 0.0000 0.0000 0.0000 21.0899 0.0000
# 6 0.0000 0.0000 0.0000 0.0000 0.0000 30.3632
#
#
#
# Elastic Compliance Matrix: (Units=1/GPa)
#
#
# Indices 1 2 3 4 5 6 
#
# 1 0.026125 -0.005687 -0.006615 0.000000 0.000000 0.000000
# 2 -0.005687 0.010637 -0.001085 0.000000 0.000000 0.000000
# 3 -0.006615 -0.001085 0.018151 0.000000 0.000000 0.000000
# 4 0.000000 0.000000 0.000000 0.027201 0.000000 0.000000
# 5 0.000000 0.000000 0.000000 0.000000 0.047416 0.000000
# 6 0.000000 0.000000 0.000000 0.000000 0.000000 0.032935
#
#
# Mechanical properties :
#
#
# Convention : Reuss Voigt Hill
#
# Bulk Modulus (GPa) = 35.53704 39.34562 37.44133
# Shear Modulus (GPa) = 25.17382 28.21225 26.69303
#
# Velocity S-wave (km/s) = 3.58079 3.79074 3.68726
# Velocity P-wave (km/s) = 5.93268 6.26099 6.09904
#
# Compressibility (1/GPa) = 0.02813965
#
# Stress axis : x y z
#
# Youngs Moduli (GPa) = 38.27710 94.00818 55.09358
#
# Poissons Ratio (x) = 0.53466 0.36444
# Poissons Ratio (y) = 0.21769 0.05976
# Poissons Ratio (z) = 0.25320 0.10197
#
# Static dielectric constant tensor:
#      x y z
#    x 3.653150 0.000000 0.000000 
#    y 0.000000 3.944340 0.000000 
#    z 0.000000 0.000000 3.660540 
# 
# 
# High freq. dielectric constant tensor:
#      x y z
#    x 1.746020 0.000000 0.000000 
#    y 0.000000 1.768330 0.000000 
#    z 0.000000 0.000000 1.768380 
# 
# From -- ./inp_files/18229.got.cif
#   From: 2010.03.12/outbox.cif.g09.slc.cpg/sg56_10_cif.got.tgz:18229.got - 2010.04.16 15:33:40.
