data_PCOD8228075
_publ_section_title
;
Structure prediction by ZEFSAII (Michael W. Deem and Ramdas Pophale) SiO2 
 PCOD8228075
Probable space group: P C C N
;
_chemical_formula_sum "Si O2"
_cell_formula_units_Z 64
_cell_length_a 22.841936
_cell_length_b 13.909841
_cell_length_c 10.066775
_cell_angle_alpha 90.000000
_cell_angle_beta 90.000000
_cell_angle_gamma 90.000000
_cell_volume 3198.493246
_symmetry_space_group_name_H-M "P C C N"
_symmetry_group_IT_number 56
_symmetry_cell_setting 'orthorhombic'
loop_
_space_group_symop_operation_xyz
x,y,z
1/2-x,1/2-y,z
1/2+x,-y,1/2-z
-x,1/2+y,1/2-z
-x,-y,-z
1/2+x,1/2+y,-z
1/2-x,y,1/2+z
x,1/2-y,1/2+z
loop_
_atom_site_type_symbol
_atom_site_label
_atom_site_fract_x
_atom_site_fract_y
_atom_site_fract_z
Si Si1 0.004505 0.141053 0.856321
Si Si2 0.182092 0.138926 0.605398
Si Si3 0.072361 0.640654 0.393024
Si Si4 0.317908 0.361074 0.105398
Si Si5 0.495495 0.358947 0.356320
Si Si6 0.873433 0.547619 0.643047
Si Si7 0.072361 0.640653 0.893024
Si Si8 0.126568 0.452381 0.856953
O O1 0.059729 0.075076 0.888268
O O2 0.027145 0.250000 0.866308
O O3 0.979470 0.118436 0.710984
O O4 0.952901 0.122214 0.960860
O O5 0.162630 0.250000 0.609091
O O6 0.250000 0.127937 0.640221
O O7 0.144072 0.079455 0.709851
O O8 0.170885 0.096673 0.459564
O O9 0.020530 0.618436 0.289016
O O10 0.127346 0.568748 0.369189
O O11 0.095382 0.750000 0.375913
O O12 0.355928 0.420546 0.209851
O O13 0.329115 0.403328 0.959564
O O14 0.547099 0.377786 0.460860
O O15 0.440271 0.424924 0.388268
O O16 0.127346 0.568748 0.869190
#
# Coordination Sequence:
#
# PCOD8228075 Si02
#       8
#     8   8   8   8   8   8   8   8
#     4  10  19  32  52  82 116 147 179 216 263 322
#     4  11  24  40  58  82 108 136 179 234 283 324
#     4  10  21  35  53  82 118 148 179 218 259 316
#     4  11  24  40  58  82 108 136 179 234 283 324
#     4  10  19  32  52  82 116 147 179 216 263 322
#     4  12  21  36  60  81 109 149 184 217 271 327
#     4  10  21  35  53  82 118 148 179 218 259 316
#     4  12  21  36  60  81 109 149 184 217 271 327
#
# _framework density 20.009422000000001
#
# number of rings (size 3 to 8) (size 9 to 14) (size 15 to 20)
#    0.000    1.250    0.000    7.500    0.000    4.000 
#    0.000    0.000    0.000    4.500    0.000    0.000 
#    0.000    0.000    0.000    0.000    0.000    0.000 
#
# Total GULP energy -793977.467346 kJ/mol
# GULP energy per Si atom -12405.897927 kJ/mol
# Density = 1.996388 g / cm^3
# Si number density = 20.009422 Si / 1000 Ang^3
#
#
#
# Elastic Constant Matrix: (Units=GPa)
#
#
# Indices 1 2 3 4 5 6 
#
# 1 48.8350 44.6302 7.8632 0.0000 0.0000 0.0000
# 2 44.6302 114.9955 17.7565 0.0000 0.0000 0.0000
# 3 7.8632 17.7565 80.4497 0.0000 0.0000 0.0000
# 4 0.0000 0.0000 0.0000 31.3053 0.0000 0.0000
# 5 0.0000 0.0000 0.0000 0.0000 13.1475 0.0000
# 6 0.0000 0.0000 0.0000 0.0000 0.0000 22.9588
#
#
#
# Elastic Compliance Matrix: (Units=1/GPa)
#
#
# Indices 1 2 3 4 5 6 
#
# 1 0.031744 -0.012259 -0.000397 0.000000 0.000000 0.000000
# 2 -0.012259 0.013737 -0.001834 0.000000 0.000000 0.000000
# 3 -0.000397 -0.001834 0.012874 0.000000 0.000000 0.000000
# 4 0.000000 0.000000 0.000000 0.031944 0.000000 0.000000
# 5 0.000000 0.000000 0.000000 0.000000 0.076060 0.000000
# 6 0.000000 0.000000 0.000000 0.000000 0.000000 0.043556
#
#
# Mechanical properties :
#
#
# Convention : Reuss Voigt Hill
#
# Bulk Modulus (GPa) = 34.04168 42.75333 38.39751
# Shear Modulus (GPa) = 20.10570 25.08433 22.59502
#
# Velocity S-wave (km/s) = 3.17332 3.54450 3.36403
# Velocity P-wave (km/s) = 5.52054 6.17772 5.85835
#
# Compressibility (1/GPa) = 0.02937575
#
# Stress axis : x y z
#
# Youngs Moduli (GPa) = 31.50166 72.79696 77.67796
#
# Poissons Ratio (x) = 0.89240 0.03084
# Poissons Ratio (y) = 0.38617 0.14244
# Poissons Ratio (z) = 0.01251 0.13349
#
# Static dielectric constant tensor:
#      x y z
#    x 3.213830 0.000000 0.000000 
#    y 0.000000 4.027190 0.000000 
#    z 0.000000 0.000000 3.685230 
# 
# 
# High freq. dielectric constant tensor:
#      x y z
#    x 1.739730 0.000000 0.000000 
#    y 0.000000 1.795520 0.000000 
#    z 0.000000 0.000000 1.799190 
# 
# From -- ./inp_files/4825.got.cif
#   From: 2010.03.12/outbox.cif.g09.slc.cpg/sg56_3_cif.got.tgz:4825.got - 2010.04.16 15:33:40.
