data_PCOD8228535
_publ_section_title
;
Structure prediction by ZEFSAII (Michael W. Deem and Ramdas Pophale) SiO2 
 PCOD8228535
Probable space group: P C C N
;
_chemical_formula_sum "Si O2"
_cell_formula_units_Z 48
_cell_length_a 12.988202
_cell_length_b 11.879181
_cell_length_c 17.018712
_cell_angle_alpha 90.000000
_cell_angle_beta 90.000000
_cell_angle_gamma 90.000000
_cell_volume 2625.803501
_symmetry_space_group_name_H-M "P C C N"
_symmetry_group_IT_number 56
_symmetry_cell_setting 'orthorhombic'
loop_
_space_group_symop_operation_xyz
x,y,z
1/2-x,1/2-y,z
1/2+x,-y,1/2-z
-x,1/2+y,1/2-z
-x,-y,-z
1/2+x,1/2+y,-z
1/2-x,y,1/2+z
x,1/2-y,1/2+z
loop_
_atom_site_type_symbol
_atom_site_label
_atom_site_fract_x
_atom_site_fract_y
_atom_site_fract_z
Si Si1 0.179441 0.644863 0.103730
Si Si2 0.413447 0.257303 0.646289
Si Si3 0.757619 0.925593 0.832152
Si Si4 0.605020 0.304399 0.236389
Si Si5 0.440634 0.599399 0.456213
Si Si6 0.300787 0.577766 0.307646
O O1 0.250000 0.750000 0.120740
O O2 0.241345 0.527405 0.106526
O O3 0.099858 0.641028 0.176841
O O4 0.126413 0.663861 0.020570
O O5 0.335472 0.157746 0.622011
O O6 0.349443 0.359692 0.685278
O O7 0.489306 0.194772 0.706096
O O8 0.478056 0.308562 0.574056
O O9 0.800393 0.967079 0.747485
O O10 0.682541 0.378150 0.180338
O O11 0.641516 0.175203 0.240559
O O12 0.500000 0.500000 0.500000
O O13 0.362789 0.553953 0.388490
#
# Coordination Sequence:
#
# PCOD8228535 Si02
#       6
#     8   8   8   8   8   8
#     4  11  21  39  62  84 118 158 193 240 298 350
#     4  10  22  36  60  87 117 152 198 242 297 345
#     4  10  20  40  59  82 117 156 194 247 286 350
#     4   9  18  36  59  87 111 153 202 239 277 358
#     4  11  23  37  61  90 121 158 190 243 306 361
#     4   9  19  36  58  86 113 153 197 239 286 344
#
# _framework density 18.280118000000002
#
# number of rings (size 3 to 8) (size 9 to 14) (size 15 to 20)
#    0.000    2.000    5.000    0.000    7.000    1.333 
#    0.000    2.500    0.000    0.000    0.000    0.000 
#    0.000    0.000    0.000    0.000    0.000    0.000 
#
# Total GULP energy -594795.717013 kJ/mol
# GULP energy per Si atom -12391.577438 kJ/mol
# Density = 1.823851 g / cm^3
# Si number density = 18.280118 Si / 1000 Ang^3
#
#
#
# Elastic Constant Matrix: (Units=GPa)
#
#
# Indices 1 2 3 4 5 6 
#
# 1 105.3314 48.5196 53.8199 0.0000 0.0000 0.0000
# 2 48.5196 104.2355 40.5153 0.0000 0.0000 0.0000
# 3 53.8199 40.5153 123.1135 0.0000 0.0000 0.0000
# 4 0.0000 0.0000 0.0000 24.4785 0.0000 0.0000
# 5 0.0000 0.0000 0.0000 0.0000 26.7401 0.0000
# 6 0.0000 0.0000 0.0000 0.0000 0.0000 27.0338
#
#
#
# Elastic Compliance Matrix: (Units=1/GPa)
#
#
# Indices 1 2 3 4 5 6 
#
# 1 0.014013 -0.004749 -0.004563 0.000000 0.000000 0.000000
# 2 -0.004749 0.012610 -0.002074 0.000000 0.000000 0.000000
# 3 -0.004563 -0.002074 0.010800 0.000000 0.000000 0.000000
# 4 0.000000 0.000000 0.000000 0.040852 0.000000 0.000000
# 5 0.000000 0.000000 0.000000 0.000000 0.037397 0.000000
# 6 0.000000 0.000000 0.000000 0.000000 0.000000 0.036991
#
#
# Mechanical properties :
#
#
# Convention : Reuss Voigt Hill
#
# Bulk Modulus (GPa) = 68.25361 68.71000 68.48180
# Shear Modulus (GPa) = 27.72870 28.30554 28.01712
#
# Velocity S-wave (km/s) = 3.89894 3.93928 3.91916
# Velocity P-wave (km/s) = 7.59524 7.63934 7.61732
#
# Compressibility (1/GPa) = 0.01465124
#
# Stress axis : x y z
#
# Youngs Moduli (GPa) = 71.36247 79.29975 92.59451
#
# Poissons Ratio (x) = 0.37661 0.42250
# Poissons Ratio (y) = 0.33891 0.19202
# Poissons Ratio (z) = 0.32562 0.16445
#
# Static dielectric constant tensor:
#      x y z
#    x 3.735630 0.000000 0.000000 
#    y 0.000000 3.388410 0.000000 
#    z 0.000000 0.000000 3.521990 
# 
# 
# High freq. dielectric constant tensor:
#      x y z
#    x 1.714270 0.000000 0.000000 
#    y 0.000000 1.712180 0.000000 
#    z 0.000000 0.000000 1.684940 
# 
# From -- ./inp_files/15616.got.cif
#   From: 2010.03.12/outbox.cif.g09.slc.cpg/sg56_8_cif.got.tgz:15616.got - 2010.04.16 15:33:40.
