data_PCOD8228163
_publ_section_title
;
Structure prediction by ZEFSAII (Michael W. Deem and Ramdas Pophale) SiO2 
 PCOD8228163
Probable space group: P C C N
;
_chemical_formula_sum "Si O2"
_cell_formula_units_Z 64
_cell_length_a 17.784693
_cell_length_b 8.731351
_cell_length_c 22.673526
_cell_angle_alpha 90.000000
_cell_angle_beta 90.000000
_cell_angle_gamma 90.000000
_cell_volume 3520.844813
_symmetry_space_group_name_H-M "P C C N"
_symmetry_group_IT_number 56
_symmetry_cell_setting 'orthorhombic'
loop_
_space_group_symop_operation_xyz
x,y,z
1/2-x,1/2-y,z
1/2+x,-y,1/2-z
-x,1/2+y,1/2-z
-x,-y,-z
1/2+x,1/2+y,-z
1/2-x,y,1/2+z
x,1/2-y,1/2+z
loop_
_atom_site_type_symbol
_atom_site_label
_atom_site_fract_x
_atom_site_fract_y
_atom_site_fract_z
Si Si1 0.669238 0.824498 0.955643
Si Si2 0.954726 0.166290 0.182614
Si Si3 0.070220 0.113574 0.648650
Si Si4 0.044160 0.360437 0.879945
Si Si5 0.467931 0.156588 0.273175
Si Si6 0.060249 0.116883 0.974309
Si Si7 0.662629 0.114803 0.591585
Si Si8 0.671760 0.054898 0.061600
O O1 0.750000 0.750000 0.952106
O O2 0.645387 0.876249 0.890174
O O3 0.607100 0.701308 0.975033
O O4 0.674135 0.970539 0.998833
O O5 0.870199 0.152980 0.156967
O O6 0.010496 0.248107 0.134966
O O7 0.957018 0.268040 0.242973
O O8 0.990629 0.000144 0.195023
O O9 0.090629 0.121644 0.718936
O O10 0.031077 0.953969 0.632316
O O11 0.068652 0.270611 0.820756
O O12 0.022382 0.245719 0.933059
O O13 0.113353 0.470679 0.895746
O O14 0.117706 0.025792 0.934111
O O15 0.000000 0.000000 0.000000
O O16 0.748338 0.058062 0.595550
O O17 0.650791 0.266660 0.551146
#
# Coordination Sequence:
#
# PCOD8228163 Si02
#       8
#     8   8   8   8   8   8   8   8
#     4  11  23  41  56  82 128 158 190 247 308 368
#     4  10  19  36  61  88 117 146 203 245 297 347
#     4  10  21  37  59  83 116 155 198 239 295 356
#     4  11  21  37  61  88 118 154 200 252 301 355
#     4  10  19  36  60  86 115 153 195 255 293 345
#     4  11  24  35  60  92 114 153 206 246 302 363
#     4  11  20  38  58  87 118 154 197 252 304 357
#     4  10  23  37  58  84 122 157 193 250 312 354
#
# _framework density 18.177455999999999
#
# number of rings (size 3 to 8) (size 9 to 14) (size 15 to 20)
#    0.750    0.750    5.000    0.750    1.750    1.000 
#    0.000    1.250    0.000    0.000    0.000    0.000 
#    0.000    0.000    0.000    0.000    0.000    0.000 
#
# Total GULP energy -792987.112417 kJ/mol
# GULP energy per Si atom -12390.423632 kJ/mol
# Density = 1.813608 g / cm^3
# Si number density = 18.177456 Si / 1000 Ang^3
#
#
#
# Elastic Constant Matrix: (Units=GPa)
#
#
# Indices 1 2 3 4 5 6 
#
# 1 42.0424 22.5389 35.2479 0.0000 0.0000 0.0000
# 2 22.5389 102.7676 30.7462 0.0000 0.0000 0.0000
# 3 35.2479 30.7462 89.7348 0.0000 0.0000 0.0000
# 4 0.0000 0.0000 0.0000 26.3194 0.0000 0.0000
# 5 0.0000 0.0000 0.0000 0.0000 20.1823 0.0000
# 6 0.0000 0.0000 0.0000 0.0000 0.0000 26.9650
#
#
#
# Elastic Compliance Matrix: (Units=1/GPa)
#
#
# Indices 1 2 3 4 5 6 
#
# 1 0.037023 -0.004199 -0.013104 0.000000 0.000000 0.000000
# 2 -0.004199 0.011318 -0.002229 0.000000 0.000000 0.000000
# 3 -0.013104 -0.002229 0.017055 0.000000 0.000000 0.000000
# 4 0.000000 0.000000 0.000000 0.037995 0.000000 0.000000
# 5 0.000000 0.000000 0.000000 0.000000 0.049548 0.000000
# 6 0.000000 0.000000 0.000000 0.000000 0.000000 0.037085
#
#
# Mechanical properties :
#
#
# Convention : Reuss Voigt Hill
#
# Bulk Modulus (GPa) = 37.97580 45.73454 41.85517
# Shear Modulus (GPa) = 21.02029 24.42745 22.72387
#
# Velocity S-wave (km/s) = 3.40427 3.66981 3.53953
# Velocity P-wave (km/s) = 6.03234 6.57049 6.30716
#
# Compressibility (1/GPa) = 0.02633256
#
# Stress axis : x y z
#
# Youngs Moduli (GPa) = 27.01032 88.35132 58.63491
#
# Poissons Ratio (x) = 0.37103 0.76834
# Poissons Ratio (y) = 0.11343 0.13067
# Poissons Ratio (z) = 0.35394 0.19689
#
# Static dielectric constant tensor:
#      x y z
#    x 3.189830 0.000000 0.000000 
#    y 0.000000 3.641740 0.000000 
#    z 0.000000 0.000000 3.389460 
# 
# 
# High freq. dielectric constant tensor:
#      x y z
#    x 1.668630 0.000000 0.000000 
#    y 0.000000 1.729960 0.000000 
#    z 0.000000 0.000000 1.697940 
# 
# From -- ./inp_files/21282.got.cif
#   From: 2010.03.12/outbox.cif.g09.slc.cpg/sg56_11_cif.got.tgz:21282.got - 2010.04.16 15:33:40.
