data_PCOD8228687
_publ_section_title
;
Structure prediction by ZEFSAII (Michael W. Deem and Ramdas Pophale) SiO2 
 PCOD8228687
Probable space group: P C C N
;
_chemical_formula_sum "Si O2"
_cell_formula_units_Z 64
_cell_length_a 24.637761
_cell_length_b 14.229301
_cell_length_c 9.499622
_cell_angle_alpha 90.000000
_cell_angle_beta 90.000000
_cell_angle_gamma 90.000000
_cell_volume 3330.359595
_symmetry_space_group_name_H-M "P C C N"
_symmetry_group_IT_number 56
_symmetry_cell_setting 'orthorhombic'
loop_
_space_group_symop_operation_xyz
x,y,z
1/2-x,1/2-y,z
1/2+x,-y,1/2-z
-x,1/2+y,1/2-z
-x,-y,-z
1/2+x,1/2+y,-z
1/2-x,y,1/2+z
x,1/2-y,1/2+z
loop_
_atom_site_type_symbol
_atom_site_label
_atom_site_fract_x
_atom_site_fract_y
_atom_site_fract_z
Si Si1 0.380608 0.859093 0.323723
Si Si2 0.214251 0.499162 0.294538
Si Si3 0.814985 0.488219 0.017205
Si Si4 0.635388 0.657231 0.142088
Si Si5 0.960622 0.525995 0.626120
Si Si6 0.500574 0.903729 0.918958
Si Si7 0.609655 0.186192 0.986678
Si Si8 0.115004 0.335352 0.033450
O O1 0.323218 0.911749 0.329410
O O2 0.378102 0.789029 0.454201
O O3 0.390984 0.801162 0.181076
O O4 0.430167 0.932085 0.325557
O O5 0.274786 0.510106 0.351132
O O6 0.218490 0.492893 0.125771
O O7 0.189345 0.406093 0.367602
O O8 0.843486 0.387444 0.024860
O O9 0.861250 0.567398 0.027043
O O10 0.584247 0.601309 0.076898
O O11 0.628053 0.682228 0.304615
O O12 0.642192 0.752108 0.054850
O O13 0.994083 0.572045 0.753856
O O14 0.000000 0.500000 0.500000
O O15 0.549984 0.840706 0.979257
O O16 0.446809 0.845411 0.946243
O O17 0.500000 0.000000 0.000000
#
# Coordination Sequence:
#
# PCOD8228687 Si02
#       8
#     8   8   8   8   8   8   8   8
#     4  10  23  40  58  84 121 152 195 246 290 346
#     4   9  21  42  60  80 117 151 191 250 292 345
#     4  10  21  41  62  83 114 155 195 241 300 346
#     4   9  21  39  56  85 118 151 192 238 291 344
#     4  10  22  39  56  84 122 158 193 238 285 345
#     4  11  20  39  60  82 122 160 189 236 290 346
#     4  11  23  39  61  89 118 157 200 239 295 353
#     4  10  21  37  60  86 119 153 191 238 290 352
#
# _framework density 19.217144999999999
#
# number of rings (size 3 to 8) (size 9 to 14) (size 15 to 20)
#    0.000    2.000    2.500    1.500    3.500    5.000 
#    2.250    5.000    0.000    0.000    0.000    0.000 
#    0.000    0.000    0.000    0.000    0.000    0.000 
#
# Total GULP energy -793612.922009 kJ/mol
# GULP energy per Si atom -12400.201906 kJ/mol
# Density = 1.917341 g / cm^3
# Si number density = 19.217145 Si / 1000 Ang^3
#
#
#
# Elastic Constant Matrix: (Units=GPa)
#
#
# Indices 1 2 3 4 5 6 
#
# 1 78.4338 -1.3447 30.3896 0.0000 0.0000 0.0000
# 2 -1.3447 75.1392 23.7527 0.0000 0.0000 0.0000
# 3 30.3896 23.7527 60.8298 0.0000 0.0000 0.0000
# 4 0.0000 0.0000 0.0000 38.8691 0.0000 0.0000
# 5 0.0000 0.0000 0.0000 0.0000 30.3094 0.0000
# 6 0.0000 0.0000 0.0000 0.0000 0.0000 18.1641
#
#
#
# Elastic Compliance Matrix: (Units=1/GPa)
#
#
# Indices 1 2 3 4 5 6 
#
# 1 0.016501 0.003310 -0.009536 0.000000 0.000000 0.000000
# 2 0.003310 0.015847 -0.007841 0.000000 0.000000 0.000000
# 3 -0.009536 -0.007841 0.024265 0.000000 0.000000 0.000000
# 4 0.000000 0.000000 0.000000 0.025727 0.000000 0.000000
# 5 0.000000 0.000000 0.000000 0.000000 0.032993 0.000000
# 6 0.000000 0.000000 0.000000 0.000000 0.000000 0.055054
#
#
# Mechanical properties :
#
#
# Convention : Reuss Voigt Hill
#
# Bulk Modulus (GPa) = 35.11500 35.55533 35.33516
# Shear Modulus (GPa) = 24.03672 28.24219 26.13946
#
# Velocity S-wave (km/s) = 3.54050 3.83774 3.69211
# Velocity P-wave (km/s) = 5.91827 6.17897 6.05003
#
# Compressibility (1/GPa) = 0.02847786
#
# Stress axis : x y z
#
# Youngs Moduli (GPa) = 60.60176 63.10498 41.21118
#
# Poissons Ratio (x) = -0.20887 0.39299
# Poissons Ratio (y) = -0.20058 0.32315
# Poissons Ratio (z) = 0.57791 0.49482
#
# Static dielectric constant tensor:
#      x y z
#    x 4.622590 0.000000 0.000000 
#    y 0.000000 3.377080 0.000000 
#    z 0.000000 0.000000 2.859280 
# 
# 
# High freq. dielectric constant tensor:
#      x y z
#    x 1.746530 0.000000 0.000000 
#    y 0.000000 1.751320 0.000000 
#    z 0.000000 0.000000 1.746450 
# 
# From -- ./inp_files/3695.got.cif
#   From: 2010.03.12/outbox.cif.g09.slc.cpg/sg56_2_cif.got.tgz:3695.got - 2010.04.16 15:33:40.
