data_PCOD8228936
_publ_section_title
;
Structure prediction by ZEFSAII (Michael W. Deem and Ramdas Pophale) SiO2 
 PCOD8228936
Probable space group: P C C N
;
_chemical_formula_sum "Si O2"
_cell_formula_units_Z 36
_cell_length_a 12.899347
_cell_length_b 7.500907
_cell_length_c 14.478098
_cell_angle_alpha 90.000000
_cell_angle_beta 90.000000
_cell_angle_gamma 90.000000
_cell_volume 1400.854465
_symmetry_space_group_name_H-M "P C C N"
_symmetry_group_IT_number 56
_symmetry_cell_setting 'orthorhombic'
loop_
_space_group_symop_operation_xyz
x,y,z
1/2-x,1/2-y,z
1/2+x,-y,1/2-z
-x,1/2+y,1/2-z
-x,-y,-z
1/2+x,1/2+y,-z
1/2-x,y,1/2+z
x,1/2-y,1/2+z
loop_
_atom_site_type_symbol
_atom_site_label
_atom_site_fract_x
_atom_site_fract_y
_atom_site_fract_z
Si Si1 0.768714 0.527890 0.962381
Si Si2 0.542714 0.739693 0.391451
Si Si3 0.750000 0.750000 0.631561
Si Si4 0.458476 0.110844 0.794996
Si Si5 0.087979 0.801357 0.066884
O O1 0.836234 0.684665 0.911835
O O2 0.838427 0.354652 0.969165
O O3 0.657561 0.479712 0.914474
O O4 0.735921 0.578206 0.066171
O O5 0.526781 0.897583 0.315881
O O6 0.477340 0.570820 0.351522
O O7 0.498701 0.817894 0.487018
O O8 0.846992 0.795384 0.695417
O O9 0.539993 0.254327 0.834594
#
# Coordination Sequence:
#
# PCOD8228936 Si02
#       5
#     8   8   4   8   8
#     4  10  22  41  71  93 130 177 227 281 336 413
#     4  11  23  46  66 100 136 182 231 288 345 423
#     4  12  22  40  62  98 130 172 222 284 340 400
#     4  11  25  41  67  97 139 173 227 286 344 413
#     4  10  21  47  68  91 133 187 225 274 349 414
#
# _framework density 25.698602999999999
#
# number of rings (size 3 to 8) (size 9 to 14) (size 15 to 20)
#    0.000    1.333    4.444    1.333    3.111    5.333 
#    0.000    2.222    0.000    0.000    0.000    0.000 
#    0.000    0.000    0.000    0.000    0.000    0.000 
#
# Total GULP energy -446160.968122 kJ/mol
# GULP energy per Si atom -12393.360226 kJ/mol
# Density = 2.564011 g / cm^3
# Si number density = 25.698603 Si / 1000 Ang^3
#
#
#
# Elastic Constant Matrix: (Units=GPa)
#
#
# Indices 1 2 3 4 5 6 
#
# 1 133.2526 17.8010 10.3044 0.0000 0.0000 0.0000
# 2 17.8010 95.6772 -13.8352 0.0000 0.0000 0.0000
# 3 10.3044 -13.8352 90.4220 0.0000 0.0000 0.0000
# 4 0.0000 0.0000 0.0000 29.9667 0.0000 0.0000
# 5 0.0000 0.0000 0.0000 0.0000 6.0165 0.0000
# 6 0.0000 0.0000 0.0000 0.0000 0.0000 34.8905
#
#
#
# Elastic Compliance Matrix: (Units=1/GPa)
#
#
# Indices 1 2 3 4 5 6 
#
# 1 0.007809 -0.001617 -0.001137 0.000000 0.000000 0.000000
# 2 -0.001617 0.011023 0.001871 0.000000 0.000000 0.000000
# 3 -0.001137 0.001871 0.011475 0.000000 0.000000 0.000000
# 4 0.000000 0.000000 0.000000 0.033370 0.000000 0.000000
# 5 0.000000 0.000000 0.000000 0.000000 0.166209 0.000000
# 6 0.000000 0.000000 0.000000 0.000000 0.000000 0.028661
#
#
# Mechanical properties :
#
#
# Convention : Reuss Voigt Hill
#
# Bulk Modulus (GPa) = 35.03895 38.65468 36.84682
# Shear Modulus (GPa) = 18.53033 34.51353 26.52193
#
# Velocity S-wave (km/s) = 2.68818 3.66869 3.21602
# Velocity P-wave (km/s) = 4.82693 5.74629 5.30656
#
# Compressibility (1/GPa) = 0.02853967
#
# Stress axis : x y z
#
# Youngs Moduli (GPa) = 128.06498 90.71736 87.14499
#
# Poissons Ratio (x) = 0.14671 0.09911
# Poissons Ratio (y) = 0.20711 -0.16304
# Poissons Ratio (z) = 0.14565 -0.16973
#
# Static dielectric constant tensor:
#      x y z
#    x 5.146620 0.000000 0.000000 
#    y 0.000000 5.073720 0.000000 
#    z 0.000000 0.000000 4.324500 
# 
# 
# High freq. dielectric constant tensor:
#      x y z
#    x 2.045450 0.000000 0.000000 
#    y 0.000000 2.057740 0.000000 
#    z 0.000000 0.000000 2.014360 
# 
# From -- ./inp_files/10288.got.cif
#   From: 2010.03.12/outbox.cif.g09.slc.cpg/sg56_6_cif.got.tgz:10288.got - 2010.04.16 15:33:40.
