data_PCOD8228043
_publ_section_title
;
Structure prediction by ZEFSAII (Michael W. Deem and Ramdas Pophale) SiO2 
 PCOD8228043
Probable space group: P C C N
;
_chemical_formula_sum "Si O2"
_cell_formula_units_Z 40
_cell_length_a 11.427217
_cell_length_b 9.150961
_cell_length_c 16.681560
_cell_angle_alpha 90.000000
_cell_angle_beta 90.000000
_cell_angle_gamma 90.000000
_cell_volume 1744.391015
_symmetry_space_group_name_H-M "P C C N"
_symmetry_group_IT_number 56
_symmetry_cell_setting 'orthorhombic'
loop_
_space_group_symop_operation_xyz
x,y,z
1/2-x,1/2-y,z
1/2+x,-y,1/2-z
-x,1/2+y,1/2-z
-x,-y,-z
1/2+x,1/2+y,-z
1/2-x,y,1/2+z
x,1/2-y,1/2+z
loop_
_atom_site_type_symbol
_atom_site_label
_atom_site_fract_x
_atom_site_fract_y
_atom_site_fract_z
Si Si1 0.447278 0.128516 0.054047
Si Si2 0.033700 0.021343 0.308212
Si Si3 0.135593 0.844057 0.993177
Si Si4 0.228938 0.403174 0.928933
Si Si5 0.880679 0.303975 0.319633
O O1 0.435608 0.078892 0.147001
O O2 0.522630 0.276183 0.048721
O O3 0.320381 0.148403 0.015854
O O4 0.500000 0.000000 0.000000
O O5 0.079844 0.950733 0.226426
O O6 0.141407 0.011176 0.370840
O O7 0.976219 0.180231 0.296357
O O8 0.250000 0.750000 0.974607
O O9 0.155953 0.001246 0.950421
O O10 0.113866 0.849572 0.087990
O O11 0.250000 0.250000 0.882438
O O12 0.750000 0.250000 0.295477
#
# Coordination Sequence:
#
# PCOD8228043 Si02
#       5
#     8   8   8   8   8
#     4  10  18  39  67  92 125 172 221 269 321 395
#     4  11  24  45  65  96 136 176 224 272 335 413
#     4  11  19  40  71  92 128 175 220 273 338 399
#     4  11  24  40  66 101 131 170 231 285 331 402
#     4  11  25  43  67 100 135 179 221 276 347 403
#
# _framework density 22.930637999999998
#
# number of rings (size 3 to 8) (size 9 to 14) (size 15 to 20)
#    0.000    1.200    8.000    1.200    2.800    4.000 
#    0.000    1.000    0.000    0.000    0.000    0.000 
#    0.000    0.000    0.000    0.000    0.000    0.000 
#
# Total GULP energy -495609.691391 kJ/mol
# GULP energy per Si atom -12390.242285 kJ/mol
# Density = 2.287845 g / cm^3
# Si number density = 22.930638 Si / 1000 Ang^3
#
#
#
# Elastic Constant Matrix: (Units=GPa)
#
#
# Indices 1 2 3 4 5 6 
#
# 1 45.4190 37.9004 -0.1282 0.0000 0.0000 0.0000
# 2 37.9004 135.2550 32.5282 0.0000 0.0000 0.0000
# 3 -0.1282 32.5282 54.6580 0.0000 0.0000 0.0000
# 4 0.0000 0.0000 0.0000 21.4051 0.0000 0.0000
# 5 0.0000 0.0000 0.0000 0.0000 22.5325 0.0000
# 6 0.0000 0.0000 0.0000 0.0000 0.0000 49.4408
#
#
#
# Elastic Compliance Matrix: (Units=1/GPa)
#
#
# Indices 1 2 3 4 5 6 
#
# 1 0.030326 -0.009937 0.005985 0.000000 0.000000 0.000000
# 2 -0.009937 0.011885 -0.007096 0.000000 0.000000 0.000000
# 3 0.005985 -0.007096 0.022533 0.000000 0.000000 0.000000
# 4 0.000000 0.000000 0.000000 0.046718 0.000000 0.000000
# 5 0.000000 0.000000 0.000000 0.000000 0.044380 0.000000
# 6 0.000000 0.000000 0.000000 0.000000 0.000000 0.020226
#
#
# Mechanical properties :
#
#
# Convention : Reuss Voigt Hill
#
# Bulk Modulus (GPa) = 23.44833 41.77030 32.60931
# Shear Modulus (GPa) = 23.54269 29.67780 26.61024
#
# Velocity S-wave (km/s) = 3.20768 3.60146 3.41026
# Velocity P-wave (km/s) = 4.89560 5.96234 5.45511
#
# Compressibility (1/GPa) = 0.04264696
#
# Stress axis : x y z
#
# Youngs Moduli (GPa) = 32.97463 84.14273 44.38004
#
# Poissons Ratio (x) = 0.83615 -0.26562
# Poissons Ratio (y) = 0.32768 0.31492
# Poissons Ratio (z) = -0.19735 0.59708
#
# Static dielectric constant tensor:
#      x y z
#    x 5.580590 0.000000 0.000000 
#    y 0.000000 3.646000 0.000000 
#    z 0.000000 0.000000 4.081130 
# 
# 
# High freq. dielectric constant tensor:
#      x y z
#    x 1.898480 0.000000 0.000000 
#    y 0.000000 1.910160 0.000000 
#    z 0.000000 0.000000 1.885740 
# 
# From -- ./inp_files/15419.got.cif
#   From: 2010.03.12/outbox.cif.g09.slc.cpg/sg56_8_cif.got.tgz:15419.got - 2010.04.16 15:33:40.
