data_PCOD8228255
_publ_section_title
;
Structure prediction by ZEFSAII (Michael W. Deem and Ramdas Pophale) SiO2 
 PCOD8228255
Probable space group: P C C N
;
_chemical_formula_sum "Si O2"
_cell_formula_units_Z 48
_cell_length_a 9.071136
_cell_length_b 8.456957
_cell_length_c 27.224083
_cell_angle_alpha 90.000000
_cell_angle_beta 90.000000
_cell_angle_gamma 90.000000
_cell_volume 2088.473941
_symmetry_space_group_name_H-M "P C C N"
_symmetry_group_IT_number 56
_symmetry_cell_setting 'orthorhombic'
loop_
_space_group_symop_operation_xyz
x,y,z
1/2-x,1/2-y,z
1/2+x,-y,1/2-z
-x,1/2+y,1/2-z
-x,-y,-z
1/2+x,1/2+y,-z
1/2-x,y,1/2+z
x,1/2-y,1/2+z
loop_
_atom_site_type_symbol
_atom_site_label
_atom_site_fract_x
_atom_site_fract_y
_atom_site_fract_z
Si Si1 0.652608 0.114886 0.737195
Si Si2 0.413500 0.911915 0.433311
Si Si3 0.483476 0.415473 0.594711
Si Si4 0.272073 0.433001 0.022622
Si Si5 0.740029 0.568674 0.647494
Si Si6 0.602092 0.674052 0.302520
O O1 0.750000 0.250000 0.764719
O O2 0.524574 0.201388 0.707863
O O3 0.761107 0.030199 0.697909
O O4 0.580517 0.994967 0.775850
O O5 0.408356 0.722562 0.425874
O O6 0.580401 0.959915 0.446170
O O7 0.290750 0.961657 0.473945
O O8 0.378699 0.008882 0.384102
O O9 0.373594 0.486578 0.553195
O O10 0.589291 0.549457 0.616644
O O11 0.384068 0.348269 0.638928
O O12 0.250000 0.250000 0.007722
O O13 0.750000 0.750000 0.662042
O O14 0.750000 0.750000 0.281885
#
# Coordination Sequence:
#
# PCOD8228255 Si02
#       6
#     8   8   8   8   8   8
#     4  12  25  47  71 103 138 187 236 289 370 437
#     4  10  19  41  70  99 139 181 229 296 359 431
#     4  11  23  44  68 100 140 189 238 296 370 428
#     4   9  20  38  69 105 136 177 236 293 362 428
#     4  12  25  43  68  96 139 185 241 295 357 429
#     4  12  25  43  72 104 142 185 235 298 357 444
#
# _framework density 22.983291000000001
#
# number of rings (size 3 to 8) (size 9 to 14) (size 15 to 20)
#    0.000    1.000    3.333    4.000    2.333    0.667 
#    0.000    4.167    0.000    0.000    0.000    0.000 
#    0.000    0.000    0.000    0.000    0.000    0.000 
#
# Total GULP energy -595226.602587 kJ/mol
# GULP energy per Si atom -12400.554221 kJ/mol
# Density = 2.293098 g / cm^3
# Si number density = 22.983291 Si / 1000 Ang^3
#
#
#
# Elastic Constant Matrix: (Units=GPa)
#
#
# Indices 1 2 3 4 5 6 
#
# 1 96.6920 48.4173 28.5601 0.0000 0.0000 0.0000
# 2 48.4173 122.9366 45.4651 0.0000 0.0000 0.0000
# 3 28.5601 45.4651 102.4249 0.0000 0.0000 0.0000
# 4 0.0000 0.0000 0.0000 31.9625 0.0000 0.0000
# 5 0.0000 0.0000 0.0000 0.0000 23.0109 0.0000
# 6 0.0000 0.0000 0.0000 0.0000 0.0000 37.8228
#
#
#
# Elastic Compliance Matrix: (Units=1/GPa)
#
#
# Indices 1 2 3 4 5 6 
#
# 1 0.013107 -0.004559 -0.001631 0.000000 0.000000 0.000000
# 2 -0.004559 0.011317 -0.003753 0.000000 0.000000 0.000000
# 3 -0.001631 -0.003753 0.011884 0.000000 0.000000 0.000000
# 4 0.000000 0.000000 0.000000 0.031287 0.000000 0.000000
# 5 0.000000 0.000000 0.000000 0.000000 0.043458 0.000000
# 6 0.000000 0.000000 0.000000 0.000000 0.000000 0.026439
#
#
# Mechanical properties :
#
#
# Convention : Reuss Voigt Hill
#
# Bulk Modulus (GPa) = 60.88947 62.99316 61.94132
# Shear Modulus (GPa) = 30.70305 31.86664 31.28485
#
# Velocity S-wave (km/s) = 3.65894 3.72763 3.69345
# Velocity P-wave (km/s) = 6.66340 6.78194 6.72293
#
# Compressibility (1/GPa) = 0.01642320
#
# Stress axis : x y z
#
# Youngs Moduli (GPa) = 76.29750 88.35925 84.14841
#
# Poissons Ratio (x) = 0.40280 0.13725
# Poissons Ratio (y) = 0.34781 0.31577
# Poissons Ratio (z) = 0.12445 0.33157
#
# Static dielectric constant tensor:
#      x y z
#    x 4.278050 0.000000 0.000000 
#    y 0.000000 4.147400 0.000000 
#    z 0.000000 0.000000 4.138380 
# 
# 
# High freq. dielectric constant tensor:
#      x y z
#    x 1.921870 0.000000 0.000000 
#    y 0.000000 1.898220 0.000000 
#    z 0.000000 0.000000 1.906410 
# 
# From -- ./inp_files/23199.got.cif
#   From: 2010.03.12/outbox.cif.g09.slc.cpg/sg56_12_cif.got.tgz:23199.got - 2010.04.16 15:33:40.
