data_PCOD8228299
_publ_section_title
;
Structure prediction by ZEFSAII (Michael W. Deem and Ramdas Pophale) SiO2 
 PCOD8228299
Probable space group: P C C N
;
_chemical_formula_sum "Si O2"
_cell_formula_units_Z 56
_cell_length_a 17.183041
_cell_length_b 18.034450
_cell_length_c 8.658318
_cell_angle_alpha 90.000000
_cell_angle_beta 90.000000
_cell_angle_gamma 90.000000
_cell_volume 2683.097539
_symmetry_space_group_name_H-M "P C C N"
_symmetry_group_IT_number 56
_symmetry_cell_setting 'orthorhombic'
loop_
_space_group_symop_operation_xyz
x,y,z
1/2-x,1/2-y,z
1/2+x,-y,1/2-z
-x,1/2+y,1/2-z
-x,-y,-z
1/2+x,1/2+y,-z
1/2-x,y,1/2+z
x,1/2-y,1/2+z
loop_
_atom_site_type_symbol
_atom_site_label
_atom_site_fract_x
_atom_site_fract_y
_atom_site_fract_z
Si Si1 0.639599 0.494311 0.856914
Si Si2 0.009200 0.919976 0.316631
Si Si3 0.875988 0.759996 0.527263
Si Si4 0.292441 0.512752 0.804121
Si Si5 0.571912 0.425623 0.361816
Si Si6 0.650533 0.646957 0.260261
Si Si7 0.558279 0.851283 0.302504
O O1 0.566479 0.439663 0.826278
O O2 0.700407 0.475526 0.718614
O O3 0.612785 0.579766 0.854052
O O4 0.679148 0.476279 0.020876
O O5 0.058912 0.891948 0.466080
O O6 0.944836 0.860152 0.262238
O O7 0.960639 0.991500 0.365166
O O8 0.822369 0.808482 0.412757
O O9 0.824710 0.699032 0.617183
O O10 0.940580 0.713351 0.429728
O O11 0.914010 0.819874 0.638906
O O12 0.338031 0.569565 0.690499
O O13 0.304993 0.429237 0.746570
O O14 0.529303 0.378495 0.228014
#
# Coordination Sequence:
#
# PCOD8228299 Si02
#       7
#     8   8   8   8   8   8   8
#     4  11  23  36  54  78 109 143 179 224 272 320
#     4   9  18  33  56  79 104 135 173 225 274 312
#     4  10  20  34  55  80 109 144 180 216 256 316
#     4  11  23  36  54  78 109 143 179 224 272 320
#     4   9  18  33  56  79 104 135 173 225 274 312
#     4  10  20  36  56  80 110 139 181 220 262 313
#     4  10  20  36  56  80 110 139 181 220 262 313
#
# _framework density 20.871399
#
# number of rings (size 3 to 8) (size 9 to 14) (size 15 to 20)
#    0.000    2.000    2.857    0.857    6.000    1.714 
#    0.000    4.286    0.000    0.000    0.000    6.000 
#    0.000    0.000    0.000    0.000    0.000    0.000 
#
# Total GULP energy -693980.092239 kJ/mol
# GULP energy per Si atom -12392.501647 kJ/mol
# Density = 2.082389 g / cm^3
# Si number density = 20.871399 Si / 1000 Ang^3
#
#
#
# Elastic Constant Matrix: (Units=GPa)
#
#
# Indices 1 2 3 4 5 6 
#
# 1 51.3978 -12.2468 -1.9699 0.0000 0.0000 0.0000
# 2 -12.2468 2.7650 3.5482 0.0000 0.0000 0.0000
# 3 -1.9699 3.5482 90.7260 0.0000 0.0000 0.0000
# 4 0.0000 0.0000 0.0000 30.4476 0.0000 0.0000
# 5 0.0000 0.0000 0.0000 0.0000 23.8615 0.0000
# 6 0.0000 0.0000 0.0000 0.0000 0.0000 11.1948
#
#
#
# Elastic Compliance Matrix: (Units=1/GPa)
#
#
# Indices 1 2 3 4 5 6 
#
# 1 -0.198497 -0.919806 0.031662 0.000000 0.000000 0.000000
# 2 -0.919806 -3.881482 0.131827 0.000000 0.000000 0.000000
# 3 0.031662 0.131827 0.006554 0.000000 0.000000 0.000000
# 4 0.000000 0.000000 0.000000 0.032843 0.000000 0.000000
# 5 0.000000 0.000000 0.000000 0.000000 0.041909 0.000000
# 6 0.000000 0.000000 0.000000 0.000000 0.000000 0.089328
#
#
# Mechanical properties :
#
#
# Convention : Reuss Voigt Hill
#
# Bulk Modulus (GPa) = -0.17902 13.72796 6.77447
# Shear Modulus (GPa) = -1.17406 23.47126 11.14860
#
# Velocity S-wave (km/s) = -0.75083 3.35709 2.31369
# Velocity P-wave (km/s) = 0.91521 4.64956 3.22342
#
# Compressibility (1/GPa) = -5.58605701
#
# Stress axis : x y z
#
# Youngs Moduli (GPa) = -5.03787 -0.25763 152.57591
#
# Poissons Ratio (x) = -0.23697 -4.83090
# Poissons Ratio (y) = -4.63386 -20.11367
# Poissons Ratio (z) = 0.15951 0.03396
#
# Static dielectric constant tensor:
#      x y z
#    x 3.621680 0.000000 0.000000 
#    y 0.000000 3.638000 0.000000 
#    z 0.000000 0.000000 4.014610 
# 
# 
# High freq. dielectric constant tensor:
#      x y z
#    x 1.789830 0.000000 0.000000 
#    y 0.000000 1.785700 0.000000 
#    z 0.000000 0.000000 1.836940 
# 
# From -- ./inp_files/3597.got.cif
#   From: 2010.03.12/outbox.cif.g09.slc.cpg/sg56_2_cif.got.tgz:3597.got - 2010.04.16 15:33:40.
