data_PCOD8228350
_publ_section_title
;
Structure prediction by ZEFSAII (Michael W. Deem and Ramdas Pophale) SiO2 
 PCOD8228350
Probable space group: P C C N
;
_chemical_formula_sum "Si O2"
_cell_formula_units_Z 40
_cell_length_a 5.081691
_cell_length_b 22.263824
_cell_length_c 17.405988
_cell_angle_alpha 90.000000
_cell_angle_beta 90.000000
_cell_angle_gamma 90.000000
_cell_volume 1969.276478
_symmetry_space_group_name_H-M "P C C N"
_symmetry_group_IT_number 56
_symmetry_cell_setting 'orthorhombic'
loop_
_space_group_symop_operation_xyz
x,y,z
1/2-x,1/2-y,z
1/2+x,-y,1/2-z
-x,1/2+y,1/2-z
-x,-y,-z
1/2+x,1/2+y,-z
1/2-x,y,1/2+z
x,1/2-y,1/2+z
loop_
_atom_site_type_symbol
_atom_site_label
_atom_site_fract_x
_atom_site_fract_y
_atom_site_fract_z
Si Si1 0.962438 0.588411 0.781938
Si Si2 0.757901 0.819170 0.896865
Si Si3 0.242579 0.680739 0.994039
Si Si4 0.790491 0.520449 0.156187
Si Si5 0.303754 0.587495 0.125724
O O1 0.141302 0.550517 0.842566
O O2 0.142966 0.613660 0.711895
O O3 0.807473 0.642148 0.821838
O O4 0.746736 0.541986 0.745554
O O5 0.750000 0.750000 0.871358
O O6 0.548193 0.834254 0.963556
O O7 0.049543 0.834142 0.926592
O O8 0.250000 0.750000 0.019211
O O9 0.320113 0.642661 0.067975
O O10 0.526956 0.536397 0.107675
O O11 0.022571 0.557270 0.116130
#
# Coordination Sequence:
#
# PCOD8228350 Si02
#       5
#     8   8   8   8   8
#     4  10  21  38  63  85 123 152 199 249 300 353
#     4  10  23  40  60  84 118 160 197 244 300 361
#     4  10  22  42  58  81 123 161 193 246 309 346
#     4  10  20  35  61  85 121 150 194 246 315 333
#     4  10  20  37  59  88 112 157 199 241 289 373
#
# _framework density 20.312028999999999
#
# number of rings (size 3 to 8) (size 9 to 14) (size 15 to 20)
#    1.200    0.800    2.000    1.200    2.800    0.000 
#    3.600    6.000    0.000    0.000    0.000    0.000 
#    0.000    0.000    0.000    0.000    0.000    0.000 
#
# Total GULP energy -495791.575498 kJ/mol
# GULP energy per Si atom -12394.789387 kJ/mol
# Density = 2.026580 g / cm^3
# Si number density = 20.312029 Si / 1000 Ang^3
#
#
#
# Elastic Constant Matrix: (Units=GPa)
#
#
# Indices 1 2 3 4 5 6 
#
# 1 98.8593 17.8362 -0.2844 0.0000 0.0000 0.0000
# 2 17.8362 83.5384 35.4849 0.0000 0.0000 0.0000
# 3 -0.2844 35.4849 43.5508 0.0000 0.0000 0.0000
# 4 0.0000 0.0000 0.0000 25.7837 0.0000 0.0000
# 5 0.0000 0.0000 0.0000 0.0000 19.1105 0.0000
# 6 0.0000 0.0000 0.0000 0.0000 0.0000 30.5451
#
#
#
# Elastic Compliance Matrix: (Units=1/GPa)
#
#
# Indices 1 2 3 4 5 6 
#
# 1 0.010766 -0.003561 0.002972 0.000000 0.000000 0.000000
# 2 -0.003561 0.019484 -0.015899 0.000000 0.000000 0.000000
# 3 0.002972 -0.015899 0.035936 0.000000 0.000000 0.000000
# 4 0.000000 0.000000 0.000000 0.038784 0.000000 0.000000
# 5 0.000000 0.000000 0.000000 0.000000 0.052327 0.000000
# 6 0.000000 0.000000 0.000000 0.000000 0.000000 0.032739
#
#
# Mechanical properties :
#
#
# Convention : Reuss Voigt Hill
#
# Bulk Modulus (GPa) = 30.11153 36.89132 33.50142
# Shear Modulus (GPa) = 21.35999 26.61531 23.98765
#
# Velocity S-wave (km/s) = 3.24635 3.62376 3.44023
# Velocity P-wave (km/s) = 5.37665 5.97584 5.68414
#
# Compressibility (1/GPa) = 0.03320987
#
# Stress axis : x y z
#
# Youngs Moduli (GPa) = 92.88123 51.32326 27.82763
#
# Poissons Ratio (x) = 0.18277 -0.08270
# Poissons Ratio (y) = 0.33076 0.44243
# Poissons Ratio (z) = -0.27603 0.81599
#
# Static dielectric constant tensor:
#      x y z
#    x 3.847640 0.000000 0.000000 
#    y 0.000000 3.469740 0.000000 
#    z 0.000000 0.000000 3.234060 
# 
# 
# High freq. dielectric constant tensor:
#      x y z
#    x 1.812150 0.000000 0.000000 
#    y 0.000000 1.782050 0.000000 
#    z 0.000000 0.000000 1.760800 
# 
# From -- ./inp_files/13913.got.cif
#   From: 2010.03.12/outbox.cif.g09.slc.cpg/sg56_7_cif.got.tgz:13913.got - 2010.04.16 15:33:40.
