data_PCOD8228615
_publ_section_title
;
Structure prediction by ZEFSAII (Michael W. Deem and Ramdas Pophale) SiO2 
 PCOD8228615
Probable space group: P C C N
;
_chemical_formula_sum "Si O2"
_cell_formula_units_Z 24
_cell_length_a 8.903008
_cell_length_b 11.527401
_cell_length_c 8.544685
_cell_angle_alpha 90.000000
_cell_angle_beta 90.000000
_cell_angle_gamma 90.000000
_cell_volume 876.928575
_symmetry_space_group_name_H-M "P C C N"
_symmetry_group_IT_number 56
_symmetry_cell_setting 'orthorhombic'
loop_
_space_group_symop_operation_xyz
x,y,z
1/2-x,1/2-y,z
1/2+x,-y,1/2-z
-x,1/2+y,1/2-z
-x,-y,-z
1/2+x,1/2+y,-z
1/2-x,y,1/2+z
x,1/2-y,1/2+z
loop_
_atom_site_type_symbol
_atom_site_label
_atom_site_fract_x
_atom_site_fract_y
_atom_site_fract_z
Si Si1 0.210953 0.513563 0.614365
Si Si2 0.970576 0.902194 0.639588
Si Si3 0.505535 0.676585 0.970008
O O1 0.391535 0.512982 0.581563
O O2 0.139323 0.638661 0.572863
O O3 0.170528 0.478953 0.795874
O O4 0.140843 0.415735 0.498676
O O5 0.039114 0.829256 0.786655
O O6 0.933144 0.804588 0.510619
#
# Coordination Sequence:
#
# PCOD8228615 Si02
#       3
#     8   8   8
#     4   9  21  40  70 101 134 181 237 281 353 418
#     4  10  20  43  73  94 141 180 234 287 353 416
#     4   9  21  41  71  97 132 186 233 281 352 414
#
# _framework density 27.368251000000001
#
# number of rings (size 3 to 8) (size 9 to 14) (size 15 to 20)
#    2.000    0.667    0.000    1.000    0.000    5.333 
#    0.000    8.333   22.000    0.000    0.000    0.000 
#    0.000    0.000    0.000    0.000    0.000    0.000 
#
# Total GULP energy -297465.719455 kJ/mol
# GULP energy per Si atom -12394.404977 kJ/mol
# Density = 2.730596 g / cm^3
# Si number density = 27.368251 Si / 1000 Ang^3
#
#
#
# Elastic Constant Matrix: (Units=GPa)
#
#
# Indices 1 2 3 4 5 6 
#
# 1 144.9199 16.9235 4.2944 0.0000 0.0000 0.0000
# 2 16.9235 108.8489 19.4552 0.0000 0.0000 0.0000
# 3 4.2944 19.4552 38.9313 0.0000 0.0000 0.0000
# 4 0.0000 0.0000 0.0000 43.2081 0.0000 0.0000
# 5 0.0000 0.0000 0.0000 0.0000 45.1798 0.0000
# 6 0.0000 0.0000 0.0000 0.0000 0.0000 33.2102
#
#
#
# Elastic Compliance Matrix: (Units=1/GPa)
#
#
# Indices 1 2 3 4 5 6 
#
# 1 0.007030 -0.001048 -0.000252 0.000000 0.000000 0.000000
# 2 -0.001048 0.010244 -0.005004 0.000000 0.000000 0.000000
# 3 -0.000252 -0.005004 0.028215 0.000000 0.000000 0.000000
# 4 0.000000 0.000000 0.000000 0.023144 0.000000 0.000000
# 5 0.000000 0.000000 0.000000 0.000000 0.022134 0.000000
# 6 0.000000 0.000000 0.000000 0.000000 0.000000 0.030111
#
#
# Mechanical properties :
#
#
# Convention : Reuss Voigt Hill
#
# Bulk Modulus (GPa) = 30.41177 41.56068 35.98623
# Shear Modulus (GPa) = 34.61504 41.12143 37.86824
#
# Velocity S-wave (km/s) = 3.56024 3.88044 3.72379
# Velocity P-wave (km/s) = 5.29496 5.94103 5.62728
#
# Compressibility (1/GPa) = 0.03288201
#
# Stress axis : x y z
#
# Youngs Moduli (GPa) = 142.24325 97.61478 35.44260
#
# Poissons Ratio (x) = 0.10230 0.00892
# Poissons Ratio (y) = 0.14908 0.17735
# Poissons Ratio (z) = 0.03581 0.48845
#
# Static dielectric constant tensor:
#      x y z
#    x 4.563570 0.000000 0.000000 
#    y 0.000000 4.553720 0.000000 
#    z 0.000000 0.000000 4.962620 
# 
# 
# High freq. dielectric constant tensor:
#      x y z
#    x 2.088710 0.000000 0.000000 
#    y 0.000000 2.096280 0.000000 
#    z 0.000000 0.000000 2.121850 
# 
# From -- ./inp_files/1795.got.cif
#   From: 2010.03.12/outbox.cif.g09.slc.cpg/sg56_1_cif.got.tgz:1795.got - 2010.04.16 15:33:40.
