data_PCOD8228777
_publ_section_title
;
Structure prediction by ZEFSAII (Michael W. Deem and Ramdas Pophale) SiO2 
 PCOD8228777
Probable space group: P C C N
;
_chemical_formula_sum "Si O2"
_cell_formula_units_Z 56
_cell_length_a 21.247877
_cell_length_b 12.560831
_cell_length_c 10.019887
_cell_angle_alpha 90.000000
_cell_angle_beta 90.000000
_cell_angle_gamma 90.000000
_cell_volume 2674.217582
_symmetry_space_group_name_H-M "P C C N"
_symmetry_group_IT_number 56
_symmetry_cell_setting 'orthorhombic'
loop_
_space_group_symop_operation_xyz
x,y,z
1/2-x,1/2-y,z
1/2+x,-y,1/2-z
-x,1/2+y,1/2-z
-x,-y,-z
1/2+x,1/2+y,-z
1/2-x,y,1/2+z
x,1/2-y,1/2+z
loop_
_atom_site_type_symbol
_atom_site_label
_atom_site_fract_x
_atom_site_fract_y
_atom_site_fract_z
Si Si1 0.791798 0.151859 0.281912
Si Si2 0.098477 0.791010 0.315537
Si Si3 0.297179 0.558834 0.436643
Si Si4 0.008016 0.421918 0.311287
Si Si5 0.612834 0.782535 0.787400
Si Si6 0.186188 0.313381 0.951653
Si Si7 0.491425 0.143506 0.605523
O O1 0.750000 0.250000 0.329371
O O2 0.861769 0.198156 0.257932
O O3 0.763978 0.097876 0.147171
O O4 0.787598 0.068563 0.403952
O O5 0.143210 0.867305 0.401561
O O6 0.059543 0.866840 0.215754
O O7 0.046965 0.730527 0.405921
O O8 0.307943 0.435260 0.401912
O O9 0.064970 0.381647 0.219775
O O10 0.025926 0.399215 0.462160
O O11 0.008022 0.548628 0.291481
O O12 0.638479 0.750338 0.642716
O O13 0.574055 0.683413 0.838733
O O14 0.666221 0.812335 0.893574
O O15 0.250000 0.250000 0.939203
#
# Coordination Sequence:
#
# PCOD8228777 Si02
#       7
#     8   8   8   8   8   8   8
#     4  10  22  42  65  96 133 169 222 279 333 398
#     4  10  21  39  66  96 133 170 217 274 330 396
#     4  11  25  42  65  98 128 177 224 280 336 396
#     4  10  21  39  65  98 130 174 211 261 337 394
#     4  11  24  47  64  99 132 172 218 285 324 410
#     4  12  28  45  69  91 135 175 231 277 342 401
#     4  10  21  40  66  97 133 169 213 266 330 401
#
# _framework density 20.940702999999999
#
# number of rings (size 3 to 8) (size 9 to 14) (size 15 to 20)
#    0.000    1.429    1.429    3.429    6.000    1.143 
#    0.000    2.143    0.000    0.000    0.000    0.000 
#    0.000    0.000    0.000    0.000    0.000    0.000 
#
# Total GULP energy -694243.356153 kJ/mol
# GULP energy per Si atom -12397.202788 kJ/mol
# Density = 2.089304 g / cm^3
# Si number density = 20.940703 Si / 1000 Ang^3
#
#
#
# Elastic Constant Matrix: (Units=GPa)
#
#
# Indices 1 2 3 4 5 6 
#
# 1 91.0480 35.4368 13.9018 0.0000 0.0000 0.0000
# 2 35.4368 122.3102 18.3308 0.0000 0.0000 0.0000
# 3 13.9018 18.3308 77.1417 0.0000 0.0000 0.0000
# 4 0.0000 0.0000 0.0000 18.3618 0.0000 0.0000
# 5 0.0000 0.0000 0.0000 0.0000 23.4432 0.0000
# 6 0.0000 0.0000 0.0000 0.0000 0.0000 23.1033
#
#
#
# Elastic Compliance Matrix: (Units=1/GPa)
#
#
# Indices 1 2 3 4 5 6 
#
# 1 0.012533 -0.003414 -0.001447 0.000000 0.000000 0.000000
# 2 -0.003414 0.009408 -0.001620 0.000000 0.000000 0.000000
# 3 -0.001447 -0.001620 0.013609 0.000000 0.000000 0.000000
# 4 0.000000 0.000000 0.000000 0.054461 0.000000 0.000000
# 5 0.000000 0.000000 0.000000 0.000000 0.042656 0.000000
# 6 0.000000 0.000000 0.000000 0.000000 0.000000 0.043284
#
#
# Mechanical properties :
#
#
# Convention : Reuss Voigt Hill
#
# Bulk Modulus (GPa) = 44.27450 47.31540 45.79495
# Shear Modulus (GPa) = 25.45260 27.83703 26.64482
#
# Velocity S-wave (km/s) = 3.49013 3.64995 3.57093
# Velocity P-wave (km/s) = 6.11801 6.35664 6.23846
#
# Compressibility (1/GPa) = 0.02258636
#
# Stress axis : x y z
#
# Youngs Moduli (GPa) = 79.78894 106.29272 73.48079
#
# Poissons Ratio (x) = 0.36291 0.10635
# Poissons Ratio (y) = 0.27242 0.11906
# Poissons Ratio (z) = 0.11548 0.17222
#
# Static dielectric constant tensor:
#      x y z
#    x 3.818200 0.000000 0.000000 
#    y 0.000000 4.035730 0.000000 
#    z 0.000000 0.000000 3.661480 
# 
# 
# High freq. dielectric constant tensor:
#      x y z
#    x 1.826570 0.000000 0.000000 
#    y 0.000000 1.830060 0.000000 
#    z 0.000000 0.000000 1.814440 
# 
# From -- ./inp_files/8644.got.cif
#   From: 2010.03.12/outbox.cif.g09.slc.cpg/sg56_5_cif.got.tgz:8644.got - 2010.04.16 15:33:40.
