data_PCOD8228304
_publ_section_title
;
Structure prediction by ZEFSAII (Michael W. Deem and Ramdas Pophale) SiO2 
 PCOD8228304
Probable space group: P C C N
;
_chemical_formula_sum "Si O2"
_cell_formula_units_Z 64
_cell_length_a 15.198830
_cell_length_b 9.049515
_cell_length_c 21.714650
_cell_angle_alpha 90.000000
_cell_angle_beta 90.000000
_cell_angle_gamma 90.000000
_cell_volume 2986.677260
_symmetry_space_group_name_H-M "P C C N"
_symmetry_group_IT_number 56
_symmetry_cell_setting 'orthorhombic'
loop_
_space_group_symop_operation_xyz
x,y,z
1/2-x,1/2-y,z
1/2+x,-y,1/2-z
-x,1/2+y,1/2-z
-x,-y,-z
1/2+x,1/2+y,-z
1/2-x,y,1/2+z
x,1/2-y,1/2+z
loop_
_atom_site_type_symbol
_atom_site_label
_atom_site_fract_x
_atom_site_fract_y
_atom_site_fract_z
Si Si1 0.333568 0.664163 0.135696
Si Si2 0.584814 0.899509 0.506672
Si Si3 0.054268 0.936506 0.442575
Si Si4 0.146344 0.198556 0.387824
Si Si5 0.661862 0.309103 0.004022
Si Si6 0.336928 0.321077 0.113534
Si Si7 0.455438 0.378902 0.682371
Si Si8 0.490219 0.699879 0.706376
O O1 0.250000 0.750000 0.166653
O O2 0.343561 0.731597 0.067782
O O3 0.320735 0.487358 0.137577
O O4 0.425178 0.697632 0.168031
O O5 0.589028 0.804120 0.567883
O O6 0.594258 0.809432 0.443085
O O7 0.500000 0.000000 0.500000
O O8 0.664833 0.015303 0.512627
O O9 0.081837 0.771989 0.462175
O O10 0.996465 0.919702 0.382611
O O11 0.138017 0.039739 0.422340
O O12 0.000000 0.000000 0.500000
O O13 0.250000 0.250000 0.378858
O O14 0.089670 0.198019 0.323750
O O15 0.750000 0.250000 0.034887
O O16 0.250000 0.250000 0.085399
O O17 0.366222 0.212708 0.169179
O O18 0.445990 0.537895 0.715370
O O19 0.510727 0.270185 0.725760
#
# Coordination Sequence:
#
# PCOD8228304 Si02
#       8
#     8   8   8   8   8   8   8   8
#     4  10  21  39  63  93 128 169 214 269 327 389
#     4  11  21  35  58  90 124 162 206 260 324 388
#     4  11  22  40  64  90 123 161 208 264 324 385
#     4  11  23  39  62  90 126 170 215 265 327 395
#     4  10  20  34  56  87 122 154 193 249 313 375
#     4  11  22  37  61  92 124 161 213 271 328 392
#     4  11  24  41  64  89 122 170 218 269 327 390
#     4  11  24  43  62  87 123 167 217 269 326 398
#
# _framework density 21.428495999999999
#
# number of rings (size 3 to 8) (size 9 to 14) (size 15 to 20)
#    0.000    1.250    0.000    7.875    0.000    5.500 
#    0.000    3.125    0.000    0.000    0.000    0.000 
#    0.000    0.000    0.000    0.000    0.000    0.000 
#
# Total GULP energy -792933.418048 kJ/mol
# GULP energy per Si atom -12389.584657 kJ/mol
# Density = 2.137972 g / cm^3
# Si number density = 21.428496 Si / 1000 Ang^3
#
#
#
# Elastic Constant Matrix: (Units=GPa)
#
#
# Indices 1 2 3 4 5 6 
#
# 1 91.3575 28.9386 18.4222 0.0000 0.0000 0.0000
# 2 28.9386 121.6234 38.8468 0.0000 0.0000 0.0000
# 3 18.4222 38.8468 79.7424 0.0000 0.0000 0.0000
# 4 0.0000 0.0000 0.0000 36.5053 0.0000 0.0000
# 5 0.0000 0.0000 0.0000 0.0000 19.7094 0.0000
# 6 0.0000 0.0000 0.0000 0.0000 0.0000 41.0501
#
#
#
# Elastic Compliance Matrix: (Units=1/GPa)
#
#
# Indices 1 2 3 4 5 6 
#
# 1 0.012016 -0.002336 -0.001638 0.000000 0.000000 0.000000
# 2 -0.002336 0.010191 -0.004425 0.000000 0.000000 0.000000
# 3 -0.001638 -0.004425 0.015074 0.000000 0.000000 0.000000
# 4 0.000000 0.000000 0.000000 0.027393 0.000000 0.000000
# 5 0.000000 0.000000 0.000000 0.000000 0.050737 0.000000
# 6 0.000000 0.000000 0.000000 0.000000 0.000000 0.024360
#
#
# Mechanical properties :
#
#
# Convention : Reuss Voigt Hill
#
# Bulk Modulus (GPa) = 48.81875 51.68208 50.25042
# Shear Modulus (GPa) = 30.59993 33.22067 31.91030
#
# Velocity S-wave (km/s) = 3.78299 3.94166 3.86314
# Velocity P-wave (km/s) = 6.47402 6.69973 6.58784
#
# Compressibility (1/GPa) = 0.02048393
#
# Stress axis : x y z
#
# Youngs Moduli (GPa) = 83.22067 98.12313 66.33720
#
# Poissons Ratio (x) = 0.22921 0.10867
# Poissons Ratio (y) = 0.19439 0.29355
# Poissons Ratio (z) = 0.13632 0.43420
#
# Static dielectric constant tensor:
#      x y z
#    x 3.838550 0.000000 0.000000 
#    y 0.000000 4.863140 0.000000 
#    z 0.000000 0.000000 3.705010 
# 
# 
# High freq. dielectric constant tensor:
#      x y z
#    x 1.837990 0.000000 0.000000 
#    y 0.000000 1.864760 0.000000 
#    z 0.000000 0.000000 1.820270 
# 
# From -- ./inp_files/21175.got.cif
#   From: 2010.03.12/outbox.cif.g09.slc.cpg/sg56_11_cif.got.tgz:21175.got - 2010.04.16 15:33:40.
