data_PCOD8228111
_publ_section_title
;
Structure prediction by ZEFSAII (Michael W. Deem and Ramdas Pophale) SiO2 
 PCOD8228111
Probable space group: P C C N
;
_chemical_formula_sum "Si O2"
_cell_formula_units_Z 48
_cell_length_a 18.195836
_cell_length_b 10.756712
_cell_length_c 13.332807
_cell_angle_alpha 90.000000
_cell_angle_beta 90.000000
_cell_angle_gamma 90.000000
_cell_volume 2609.595215
_symmetry_space_group_name_H-M "P C C N"
_symmetry_group_IT_number 56
_symmetry_cell_setting 'orthorhombic'
loop_
_space_group_symop_operation_xyz
x,y,z
1/2-x,1/2-y,z
1/2+x,-y,1/2-z
-x,1/2+y,1/2-z
-x,-y,-z
1/2+x,1/2+y,-z
1/2-x,y,1/2+z
x,1/2-y,1/2+z
loop_
_atom_site_type_symbol
_atom_site_label
_atom_site_fract_x
_atom_site_fract_y
_atom_site_fract_z
Si Si1 0.499429 0.427674 0.156649
Si Si2 0.339555 0.876616 0.381650
Si Si3 0.493382 0.695357 0.476368
Si Si4 0.682559 0.115177 0.198825
Si Si5 0.937907 0.544526 0.133578
Si Si6 0.887812 0.362553 0.409725
O O1 0.587628 0.447907 0.156206
O O2 0.480098 0.400504 0.271024
O O3 0.455556 0.544729 0.112431
O O4 0.477660 0.309807 0.089006
O O5 0.268747 0.913260 0.316139
O O6 0.347815 0.726810 0.370694
O O7 0.333643 0.908959 0.500461
O O8 0.474358 0.583870 0.401620
O O9 0.560092 0.648162 0.547092
O O10 0.425534 0.735539 0.549400
O O11 0.663731 0.154596 0.313085
O O12 0.645120 0.985983 0.166844
#
# Coordination Sequence:
#
# PCOD8228111 Si02
#       6
#     8   8   8   8   8   8
#     4  10  20  36  59  82 110 148 191 232 276 343
#     4  10  19  34  53  81 115 140 182 227 287 335
#     4  10  19  34  55  84 109 144 190 228 281 322
#     4  10  20  33  52  84 114 144 173 234 289 331
#     4  10  20  34  56  83 114 142 185 241 271 339
#     4  10  20  36  57  80 112 149 190 224 280 345
#
# _framework density 18.393657000000001
#
# number of rings (size 3 to 8) (size 9 to 14) (size 15 to 20)
#    0.000    2.000    3.333    3.000    2.333    2.667 
#    6.000    0.000    0.000    4.000    0.000    0.000 
#    0.000    0.000    0.000    0.000    0.000    0.000 
#
# Total GULP energy -594726.822466 kJ/mol
# GULP energy per Si atom -12390.142135 kJ/mol
# Density = 1.835179 g / cm^3
# Si number density = 18.393657 Si / 1000 Ang^3
#
#
#
# Elastic Constant Matrix: (Units=GPa)
#
#
# Indices 1 2 3 4 5 6 
#
# 1 109.0001 31.1156 67.9542 0.0000 0.0000 0.0000
# 2 31.1156 48.8202 43.4515 0.0000 0.0000 0.0000
# 3 67.9542 43.4515 132.4330 0.0000 0.0000 0.0000
# 4 0.0000 0.0000 0.0000 36.4854 0.0000 0.0000
# 5 0.0000 0.0000 0.0000 0.0000 33.2341 0.0000
# 6 0.0000 0.0000 0.0000 0.0000 0.0000 24.0490
#
#
#
# Elastic Compliance Matrix: (Units=1/GPa)
#
#
# Indices 1 2 3 4 5 6 
#
# 1 0.013912 -0.003550 -0.005974 0.000000 0.000000 0.000000
# 2 -0.003550 0.029838 -0.007968 0.000000 0.000000 0.000000
# 3 -0.005974 -0.007968 0.013231 0.000000 0.000000 0.000000
# 4 0.000000 0.000000 0.000000 0.027408 0.000000 0.000000
# 5 0.000000 0.000000 0.000000 0.000000 0.030090 0.000000
# 6 0.000000 0.000000 0.000000 0.000000 0.000000 0.041582
#
#
# Mechanical properties :
#
#
# Convention : Reuss Voigt Hill
#
# Bulk Modulus (GPa) = 45.46183 63.92178 54.69181
# Shear Modulus (GPa) = 25.20462 28.60251 26.90356
#
# Velocity S-wave (km/s) = 3.70576 3.94765 3.82862
# Velocity P-wave (km/s) = 6.56353 7.45695 7.02446
#
# Compressibility (1/GPa) = 0.02199647
#
# Stress axis : x y z
#
# Youngs Moduli (GPa) = 71.88082 33.51438 75.58182
#
# Poissons Ratio (x) = 0.11897 0.45151
# Poissons Ratio (y) = 0.25517 0.60226
# Poissons Ratio (z) = 0.42940 0.26705
#
# Static dielectric constant tensor:
#      x y z
#    x 3.271590 0.000000 0.000000 
#    y 0.000000 3.243180 0.000000 
#    z 0.000000 0.000000 3.706950 
# 
# 
# High freq. dielectric constant tensor:
#      x y z
#    x 1.693510 0.000000 0.000000 
#    y 0.000000 1.687990 0.000000 
#    z 0.000000 0.000000 1.738740 
# 
# From -- ./inp_files/12745.got.cif
#   From: 2010.03.12/outbox.cif.g09.slc.cpg/sg56_7_cif.got.tgz:12745.got - 2010.04.16 15:33:40.
