data_PCOD8228331
_publ_section_title
;
Structure prediction by ZEFSAII (Michael W. Deem and Ramdas Pophale) SiO2 
 PCOD8228331
Probable space group: P C C N
;
_chemical_formula_sum "Si O2"
_cell_formula_units_Z 56
_cell_length_a 12.340856
_cell_length_b 19.667309
_cell_length_c 9.960419
_cell_angle_alpha 90.000000
_cell_angle_beta 90.000000
_cell_angle_gamma 90.000000
_cell_volume 2417.507522
_symmetry_space_group_name_H-M "P C C N"
_symmetry_group_IT_number 56
_symmetry_cell_setting 'orthorhombic'
loop_
_space_group_symop_operation_xyz
x,y,z
1/2-x,1/2-y,z
1/2+x,-y,1/2-z
-x,1/2+y,1/2-z
-x,-y,-z
1/2+x,1/2+y,-z
1/2-x,y,1/2+z
x,1/2-y,1/2+z
loop_
_atom_site_type_symbol
_atom_site_label
_atom_site_fract_x
_atom_site_fract_y
_atom_site_fract_z
Si Si1 0.117035 0.966428 0.005579
Si Si2 0.137505 0.217805 0.123935
Si Si3 0.839583 0.031921 0.589810
Si Si4 0.155158 0.641347 0.700573
Si Si5 0.496247 0.247481 0.867012
Si Si6 0.398130 0.070575 0.713351
Si Si7 0.604856 0.109036 0.829762
O O1 0.163410 0.013312 0.127948
O O2 0.116707 0.889503 0.057885
O O3 0.207624 0.972461 0.888793
O O4 0.000000 0.000000 0.000000
O O5 0.250000 0.250000 0.073959
O O6 0.095176 0.258139 0.253685
O O7 0.157994 0.140624 0.172456
O O8 0.049579 0.220848 0.004364
O O9 0.888414 0.094019 0.678307
O O10 0.871596 0.049319 0.436749
O O11 0.884174 0.957102 0.632508
O O12 0.285167 0.645787 0.715542
O O13 0.102605 0.715532 0.694444
O O14 0.526131 0.168173 0.888642
O O15 0.533124 0.078256 0.701993
#
# Coordination Sequence:
#
# PCOD8228331 Si02
#       7
#     8   8   8   8   8   8   8
#     4  10  20  35  57  84 119 157 201 253 311 379
#     4  11  25  43  63  92 128 168 218 268 321 387
#     4  10  21  38  61  90 124 167 213 266 325 389
#     4  10  21  37  59  90 122 158 205 259 317 380
#     4  11  23  41  65  93 125 169 211 264 327 388
#     4  10  22  38  60  88 120 165 213 266 322 380
#     4  10  21  38  60  89 125 162 209 264 323 391
#
# _framework density 23.164353999999999
#
# number of rings (size 3 to 8) (size 9 to 14) (size 15 to 20)
#    0.000    1.714    0.000    3.857    0.000    8.000 
#    0.000   10.000    0.000    0.000    0.000    0.000 
#    0.000    0.000    0.000    0.000    0.000    0.000 
#
# Total GULP energy -693771.482326 kJ/mol
# GULP energy per Si atom -12388.776470 kJ/mol
# Density = 2.311163 g / cm^3
# Si number density = 23.164354 Si / 1000 Ang^3
#
#
#
# Elastic Constant Matrix: (Units=GPa)
#
#
# Indices 1 2 3 4 5 6 
#
# 1 95.1428 10.2039 -3.2029 0.0000 0.0000 0.0000
# 2 10.2039 73.9220 -1.2719 0.0000 0.0000 0.0000
# 3 -3.2029 -1.2719 49.4036 0.0000 0.0000 0.0000
# 4 0.0000 0.0000 0.0000 25.0853 0.0000 0.0000
# 5 0.0000 0.0000 0.0000 0.0000 37.2530 0.0000
# 6 0.0000 0.0000 0.0000 0.0000 0.0000 38.0708
#
#
#
# Elastic Compliance Matrix: (Units=1/GPa)
#
#
# Indices 1 2 3 4 5 6 
#
# 1 0.010690 -0.001464 0.000655 0.000000 0.000000 0.000000
# 2 -0.001464 0.013734 0.000259 0.000000 0.000000 0.000000
# 3 0.000655 0.000259 0.020291 0.000000 0.000000 0.000000
# 4 0.000000 0.000000 0.000000 0.039864 0.000000 0.000000
# 5 0.000000 0.000000 0.000000 0.000000 0.026843 0.000000
# 6 0.000000 0.000000 0.000000 0.000000 0.000000 0.026267
#
#
# Mechanical properties :
#
#
# Convention : Reuss Voigt Hill
#
# Bulk Modulus (GPa) = 22.92843 25.54739 24.23791
# Shear Modulus (GPa) = 32.60995 34.26444 33.43719
#
# Velocity S-wave (km/s) = 3.75609 3.85019 3.80343
# Velocity P-wave (km/s) = 5.36009 5.55140 5.45658
#
# Compressibility (1/GPa) = 0.04361398
#
# Stress axis : x y z
#
# Youngs Moduli (GPa) = 93.54869 72.81018 49.28394
#
# Poissons Ratio (x) = 0.10661 -0.03230
# Poissons Ratio (y) = 0.13698 -0.01275
# Poissons Ratio (z) = -0.06131 -0.01883
#
# Static dielectric constant tensor:
#      x y z
#    x 4.171360 0.000000 0.000000 
#    y 0.000000 -46.123280 0.000000 
#    z 0.000000 0.000000 12.113800 
# 
# 
# High freq. dielectric constant tensor:
#      x y z
#    x 1.918630 0.000000 0.000000 
#    y 0.000000 1.911470 0.000000 
#    z 0.000000 0.000000 1.915810 
# 
# From -- ./inp_files/7269.got.cif
#   From: 2010.03.12/outbox.cif.g09.slc.cpg/sg56_4_cif.got.tgz:7269.got - 2010.04.16 15:33:40.
