data_PCOD8228557
_publ_section_title
;
Structure prediction by ZEFSAII (Michael W. Deem and Ramdas Pophale) SiO2 
 PCOD8228557
Probable space group: P C C N
;
_chemical_formula_sum "Si O2"
_cell_formula_units_Z 48
_cell_length_a 8.625280
_cell_length_b 18.244108
_cell_length_c 14.575757
_cell_angle_alpha 90.000000
_cell_angle_beta 90.000000
_cell_angle_gamma 90.000000
_cell_volume 2293.648990
_symmetry_space_group_name_H-M "P C C N"
_symmetry_group_IT_number 56
_symmetry_cell_setting 'orthorhombic'
loop_
_space_group_symop_operation_xyz
x,y,z
1/2-x,1/2-y,z
1/2+x,-y,1/2-z
-x,1/2+y,1/2-z
-x,-y,-z
1/2+x,1/2+y,-z
1/2-x,y,1/2+z
x,1/2-y,1/2+z
loop_
_atom_site_type_symbol
_atom_site_label
_atom_site_fract_x
_atom_site_fract_y
_atom_site_fract_z
Si Si1 0.379697 0.586770 0.427184
Si Si2 0.881494 0.312887 0.554937
Si Si3 0.895324 0.577212 0.095591
Si Si4 0.137909 0.318402 0.405355
Si Si5 0.079034 0.835544 0.245537
Si Si6 0.074070 0.666803 0.242754
O O1 0.213468 0.613010 0.466116
O O2 0.362369 0.507327 0.379830
O O3 0.480983 0.583361 0.516585
O O4 0.453458 0.643781 0.352090
O O5 0.750000 0.250000 0.567218
O O6 0.970188 0.329408 0.649853
O O7 0.007520 0.292555 0.478217
O O8 0.744427 0.617144 0.054271
O O9 0.951522 0.617744 0.188232
O O10 0.250000 0.250000 0.377863
O O11 0.057422 0.363377 0.320575
O O12 0.070152 0.750860 0.212890
O O13 0.252539 0.865509 0.225384
#
# Coordination Sequence:
#
# PCOD8228557 Si02
#       6
#     8   8   8   8   8   8
#     4  10  23  45  67  89 132 179 217 260 326 400
#     4  11  22  42  68  92 128 177 226 261 317 398
#     4  11  24  42  63  98 135 169 210 273 333 382
#     4  12  25  37  63 100 133 165 216 278 328 379
#     4  10  21  38  64  93 121 169 217 260 318 386
#     4  10  20  40  65  92 122 168 217 261 316 386
#
# _framework density 20.927351000000002
#
# number of rings (size 3 to 8) (size 9 to 14) (size 15 to 20)
#    0.000    1.333    5.000    2.000    2.333    4.667 
#    0.000    3.333    0.000    0.000    0.000    0.000 
#    0.000    0.000    0.000    0.000    0.000    0.000 
#
# Total GULP energy -594643.639090 kJ/mol
# GULP energy per Si atom -12388.409148 kJ/mol
# Density = 2.087972 g / cm^3
# Si number density = 20.927351 Si / 1000 Ang^3
#
#
#
# Elastic Constant Matrix: (Units=GPa)
#
#
# Indices 1 2 3 4 5 6 
#
# 1 71.9612 30.1590 35.6780 0.0000 0.0000 0.0000
# 2 30.1590 86.4209 30.4026 0.0000 0.0000 0.0000
# 3 35.6780 30.4026 89.3815 0.0000 0.0000 0.0000
# 4 0.0000 0.0000 0.0000 30.6161 0.0000 0.0000
# 5 0.0000 0.0000 0.0000 0.0000 -1.1083 0.0000
# 6 0.0000 0.0000 0.0000 0.0000 0.0000 26.9699
#
#
#
# Elastic Compliance Matrix: (Units=1/GPa)
#
#
# Indices 1 2 3 4 5 6 
#
# 1 0.018709 -0.004432 -0.005960 0.000000 0.000000 0.000000
# 2 -0.004432 0.014194 -0.003059 0.000000 0.000000 0.000000
# 3 -0.005960 -0.003059 0.014608 0.000000 0.000000 0.000000
# 4 0.000000 0.000000 0.000000 0.032663 0.000000 0.000000
# 5 0.000000 0.000000 0.000000 0.000000 -0.902256 0.000000
# 6 0.000000 0.000000 0.000000 0.000000 0.000000 0.037078
#
#
# Mechanical properties :
#
#
# Convention : Reuss Voigt Hill
#
# Bulk Modulus (GPa) = 48.52519 48.91586 48.72053
# Shear Modulus (GPa) = -6.65574 21.39712 7.37069
#
# Velocity S-wave (km/s) = -1.78530 3.20104 1.87875
# Velocity P-wave (km/s) = 4.35753 6.08992 5.29505
#
# Compressibility (1/GPa) = 0.02060785
#
# Stress axis : x y z
#
# Youngs Moduli (GPa) = 53.44995 70.45172 68.45722
#
# Poissons Ratio (x) = 0.31226 0.40804
# Poissons Ratio (y) = 0.23690 0.20940
# Poissons Ratio (z) = 0.31859 0.21550
#
# Static dielectric constant tensor:
#      x y z
#    x 3.971680 0.000000 0.000000 
#    y 0.000000 4.059730 0.000000 
#    z 0.000000 0.000000 3.743950 
# 
# 
# High freq. dielectric constant tensor:
#      x y z
#    x 1.817510 0.000000 0.000000 
#    y 0.000000 1.807910 0.000000 
#    z 0.000000 0.000000 1.819670 
# 
# From -- ./inp_files/10630.got.cif
#   From: 2010.03.12/outbox.cif.g09.slc.cpg/sg56_6_cif.got.tgz:10630.got - 2010.04.16 15:33:40.
