data_PCOD8228881
_publ_section_title
;
Structure prediction by ZEFSAII (Michael W. Deem and Ramdas Pophale) SiO2 
 PCOD8228881
Probable space group: P C C N
;
_chemical_formula_sum "Si O2"
_cell_formula_units_Z 64
_cell_length_a 17.311679
_cell_length_b 13.475376
_cell_length_c 12.452128
_cell_angle_alpha 90.000000
_cell_angle_beta 90.000000
_cell_angle_gamma 90.000000
_cell_volume 2904.849650
_symmetry_space_group_name_H-M "P C C N"
_symmetry_group_IT_number 56
_symmetry_cell_setting 'orthorhombic'
loop_
_space_group_symop_operation_xyz
x,y,z
1/2-x,1/2-y,z
1/2+x,-y,1/2-z
-x,1/2+y,1/2-z
-x,-y,-z
1/2+x,1/2+y,-z
1/2-x,y,1/2+z
x,1/2-y,1/2+z
loop_
_atom_site_type_symbol
_atom_site_label
_atom_site_fract_x
_atom_site_fract_y
_atom_site_fract_z
Si Si1 0.535748 0.807357 0.421567
Si Si2 0.083020 0.714915 0.592278
Si Si3 0.865151 0.992323 0.602351
Si Si4 0.501958 0.468655 0.246058
Si Si5 0.662772 0.764340 0.087414
Si Si6 0.356790 0.914669 0.117831
Si Si7 0.212930 0.859922 0.239148
Si Si8 0.048899 0.318145 0.269741
O O1 0.454402 0.829039 0.483032
O O2 0.544538 0.900209 0.339498
O O3 0.608771 0.789013 0.498231
O O4 0.532456 0.704063 0.354994
O O5 0.135879 0.807863 0.560041
O O6 0.136128 0.642214 0.664230
O O7 0.009300 0.752939 0.662418
O O8 0.840201 0.879715 0.614989
O O9 0.949256 0.000589 0.653958
O O10 0.868628 0.004469 0.473868
O O11 0.807826 0.075386 0.654946
O O12 0.580269 0.419593 0.288205
O O13 0.528192 0.571360 0.190893
O O14 0.750000 0.750000 0.052186
O O15 0.637164 0.709622 0.198434
O O16 0.273563 0.925209 0.172385
O O17 0.250000 0.750000 0.267041
#
# Coordination Sequence:
#
# PCOD8228881 Si02
#       8
#     8   8   8   8   8   8   8   8
#     4  11  23  44  74  99 140 188 242 301 356 426
#     4  10  21  42  65 100 140 173 226 291 351 430
#     4  12  24  47  70 103 141 188 238 300 357 438
#     4  12  23  41  74 101 131 190 240 295 357 429
#     4  11  27  46  66 101 145 188 244 295 358 430
#     4  11  24  41  69 103 135 180 238 282 363 429
#     4  10  25  44  67 106 145 183 231 293 372 427
#     4  11  22  44  67 101 132 182 236 291 353 425
#
# _framework density 22.032122000000001
#
# number of rings (size 3 to 8) (size 9 to 14) (size 15 to 20)
#    0.000    1.000    3.750    2.625    1.750    6.000 
#    0.000    0.000    0.000    0.000    0.000    0.000 
#    0.000    0.000    0.000    0.000    0.000    0.000 
#
# Total GULP energy -792941.038986 kJ/mol
# GULP energy per Si atom -12389.703734 kJ/mol
# Density = 2.198198 g / cm^3
# Si number density = 22.032122 Si / 1000 Ang^3
#
#
#
# Elastic Constant Matrix: (Units=GPa)
#
#
# Indices 1 2 3 4 5 6 
#
# 1 124.4636 38.7756 42.6386 0.0000 0.0000 0.0000
# 2 38.7756 110.4852 34.5330 0.0000 0.0000 0.0000
# 3 42.6386 34.5330 96.1249 0.0000 0.0000 0.0000
# 4 0.0000 0.0000 0.0000 16.7021 0.0000 0.0000
# 5 0.0000 0.0000 0.0000 0.0000 28.5277 0.0000
# 6 0.0000 0.0000 0.0000 0.0000 0.0000 28.0714
#
#
#
# Elastic Compliance Matrix: (Units=1/GPa)
#
#
# Indices 1 2 3 4 5 6 
#
# 1 0.010006 -0.002393 -0.003579 0.000000 0.000000 0.000000
# 2 -0.002393 0.010768 -0.002807 0.000000 0.000000 0.000000
# 3 -0.003579 -0.002807 0.012999 0.000000 0.000000 0.000000
# 4 0.000000 0.000000 0.000000 0.059873 0.000000 0.000000
# 5 0.000000 0.000000 0.000000 0.000000 0.035054 0.000000
# 6 0.000000 0.000000 0.000000 0.000000 0.000000 0.035623
#
#
# Mechanical properties :
#
#
# Convention : Reuss Voigt Hill
#
# Bulk Modulus (GPa) = 61.66894 62.55202 62.11048
# Shear Modulus (GPa) = 26.69713 29.00198 27.84955
#
# Velocity S-wave (km/s) = 3.48478 3.63209 3.55920
# Velocity P-wave (km/s) = 6.65153 6.78545 6.71882
#
# Compressibility (1/GPa) = 0.01621562
#
# Stress axis : x y z
#
# Youngs Moduli (GPa) = 99.93980 92.86587 76.92927
#
# Poissons Ratio (x) = 0.22224 0.27531
# Poissons Ratio (y) = 0.23917 0.21594
# Poissons Ratio (z) = 0.35765 0.26067
#
# Static dielectric constant tensor:
#      x y z
#    x 4.087200 0.000000 0.000000 
#    y 0.000000 4.020130 0.000000 
#    z 0.000000 0.000000 3.927690 
# 
# 
# High freq. dielectric constant tensor:
#      x y z
#    x 1.863230 0.000000 0.000000 
#    y 0.000000 1.868970 0.000000 
#    z 0.000000 0.000000 1.863440 
# 
# From -- ./inp_files/8437.got.cif
#   From: 2010.03.12/outbox.cif.g09.slc.cpg/sg56_5_cif.got.tgz:8437.got - 2010.04.16 15:33:40.
