data_PCOD8228984
_publ_section_title
;
Structure prediction by ZEFSAII (Michael W. Deem and Ramdas Pophale) SiO2 
 PCOD8228984
Probable space group: P C C N
;
_chemical_formula_sum "Si O2"
_cell_formula_units_Z 40
_cell_length_a 14.951532
_cell_length_b 12.305591
_cell_length_c 9.135950
_cell_angle_alpha 90.000000
_cell_angle_beta 90.000000
_cell_angle_gamma 90.000000
_cell_volume 1680.900031
_symmetry_space_group_name_H-M "P C C N"
_symmetry_group_IT_number 56
_symmetry_cell_setting 'orthorhombic'
loop_
_space_group_symop_operation_xyz
x,y,z
1/2-x,1/2-y,z
1/2+x,-y,1/2-z
-x,1/2+y,1/2-z
-x,-y,-z
1/2+x,1/2+y,-z
1/2-x,y,1/2+z
x,1/2-y,1/2+z
loop_
_atom_site_type_symbol
_atom_site_label
_atom_site_fract_x
_atom_site_fract_y
_atom_site_fract_z
Si Si1 0.658749 0.670455 0.027219
Si Si2 0.522612 0.303150 0.844600
Si Si3 0.321861 0.932827 0.537705
Si Si4 0.631570 0.639239 0.338971
Si Si5 0.351760 0.897288 0.193221
O O1 0.689939 0.563529 0.936396
O O2 0.685072 0.791168 0.963256
O O3 0.549934 0.679357 0.025994
O O4 0.692642 0.656143 0.193338
O O5 0.593686 0.399006 0.865117
O O6 0.469234 0.315082 0.690542
O O7 0.570839 0.186537 0.848680
O O8 0.335269 0.901710 0.367741
O O9 0.238856 0.866786 0.606613
O O10 0.619815 0.512987 0.374982
#
# Coordination Sequence:
#
# PCOD8228984 Si02
#       5
#     8   8   8   8   8
#     4   9  21  40  65  91 129 175 219 272 326 393
#     4  10  22  38  71  90 128 172 228 269 324 397
#     4  11  24  43  65  96 140 176 212 283 345 393
#     4   9  22  39  65  95 127 177 224 269 320 399
#     4  11  25  42  65 100 133 176 220 274 341 396
#
# _framework density 23.796775
#
# number of rings (size 3 to 8) (size 9 to 14) (size 15 to 20)
#    1.200    0.800    0.000    2.400    2.800    8.000 
#    0.000    4.000    0.000    0.000    0.000    0.000 
#    0.000    0.000    0.000    0.000    0.000    0.000 
#
# Total GULP energy -495537.348561 kJ/mol
# GULP energy per Si atom -12388.433714 kJ/mol
# Density = 2.374261 g / cm^3
# Si number density = 23.796775 Si / 1000 Ang^3
#
#
#
# Elastic Constant Matrix: (Units=GPa)
#
#
# Indices 1 2 3 4 5 6 
#
# 1 59.8759 0.7546 -16.8339 0.0000 0.0000 0.0000
# 2 0.7546 112.3626 7.1639 0.0000 0.0000 0.0000
# 3 -16.8339 7.1639 43.7436 0.0000 0.0000 0.0000
# 4 0.0000 0.0000 0.0000 33.5459 0.0000 0.0000
# 5 0.0000 0.0000 0.0000 0.0000 23.2330 0.0000
# 6 0.0000 0.0000 0.0000 0.0000 0.0000 51.7753
#
#
#
# Elastic Compliance Matrix: (Units=1/GPa)
#
#
# Indices 1 2 3 4 5 6 
#
# 1 0.018766 -0.000593 0.007319 0.000000 0.000000 0.000000
# 2 -0.000593 0.009012 -0.001704 0.000000 0.000000 0.000000
# 3 0.007319 -0.001704 0.025956 0.000000 0.000000 0.000000
# 4 0.000000 0.000000 0.000000 0.029810 0.000000 0.000000
# 5 0.000000 0.000000 0.000000 0.000000 0.043042 0.000000
# 6 0.000000 0.000000 0.000000 0.000000 0.000000 0.019314
#
#
# Mechanical properties :
#
#
# Convention : Reuss Voigt Hill
#
# Bulk Modulus (GPa) = 15.67905 22.01682 18.84793
# Shear Modulus (GPa) = 31.82352 36.70402 34.26377
#
# Velocity S-wave (km/s) = 3.66088 3.93159 3.79865
# Velocity P-wave (km/s) = 4.94696 5.46644 5.21318
#
# Compressibility (1/GPa) = 0.06377939
#
# Stress axis : x y z
#
# Youngs Moduli (GPa) = 53.28676 110.95848 38.52659
#
# Poissons Ratio (x) = 0.06576 -0.28197
# Poissons Ratio (y) = 0.03158 0.06565
# Poissons Ratio (z) = -0.39000 0.18908
#
# Static dielectric constant tensor:
#      x y z
#    x 4.312350 0.000000 0.000000 
#    y 0.000000 4.240780 0.000000 
#    z 0.000000 0.000000 4.019550 
# 
# 
# High freq. dielectric constant tensor:
#      x y z
#    x 1.960940 0.000000 0.000000 
#    y 0.000000 1.953080 0.000000 
#    z 0.000000 0.000000 1.918790 
# 
# From -- ./inp_files/3897.got.cif
#   From: 2010.03.12/outbox.cif.g09.slc.cpg/sg56_2_cif.got.tgz:3897.got - 2010.04.16 15:33:40.
