data_PCOD8228353
_publ_section_title
;
Structure prediction by ZEFSAII (Michael W. Deem and Ramdas Pophale) SiO2 
 PCOD8228353
Probable space group: P C C N
;
_chemical_formula_sum "Si O2"
_cell_formula_units_Z 64
_cell_length_a 8.097741
_cell_length_b 23.707295
_cell_length_c 16.042844
_cell_angle_alpha 90.000000
_cell_angle_beta 90.000000
_cell_angle_gamma 90.000000
_cell_volume 3079.833555
_symmetry_space_group_name_H-M "P C C N"
_symmetry_group_IT_number 56
_symmetry_cell_setting 'orthorhombic'
loop_
_space_group_symop_operation_xyz
x,y,z
1/2-x,1/2-y,z
1/2+x,-y,1/2-z
-x,1/2+y,1/2-z
-x,-y,-z
1/2+x,1/2+y,-z
1/2-x,y,1/2+z
x,1/2-y,1/2+z
loop_
_atom_site_type_symbol
_atom_site_label
_atom_site_fract_x
_atom_site_fract_y
_atom_site_fract_z
Si Si1 0.525397 0.384125 0.373801
Si Si2 0.074416 0.520979 0.365659
Si Si3 0.477800 0.362141 0.084883
Si Si4 0.206836 0.425423 0.452177
Si Si5 0.183713 0.187141 0.242194
Si Si6 0.489086 0.367571 0.805225
Si Si7 0.224340 0.538258 0.714801
Si Si8 0.811571 0.187856 0.937900
O O1 0.396597 0.414139 0.434560
O O2 0.438339 0.337618 0.313278
O O3 0.612655 0.436343 0.328560
O O4 0.655332 0.353258 0.433257
O O5 0.086728 0.588807 0.372431
O O6 0.149561 0.491532 0.449736
O O7 0.204159 0.503012 0.292665
O O8 0.885340 0.502950 0.343443
O O9 0.405178 0.318441 0.152793
O O10 0.330560 0.396419 0.040053
O O11 0.581571 0.326392 0.019250
O O12 0.089501 0.401588 0.380658
O O13 0.250000 0.250000 0.261516
O O14 0.352669 0.151632 0.239522
O O15 0.613775 0.408330 0.755941
O O16 0.585987 0.316053 0.850859
O O17 0.750000 0.250000 0.950728
#
# Coordination Sequence:
#
# PCOD8228353 Si02
#       8
#     8   8   8   8   8   8   8   8
#     4  10  20  41  63  94 116 160 219 257 296 392
#     4  11  21  38  62  89 125 165 200 256 322 376
#     4  11  24  41  56  91 132 158 202 265 314 373
#     4   9  20  38  61  83 122 163 197 243 315 383
#     4  11  22  40  64  90 122 159 211 269 316 355
#     4   8  19  38  62  88 115 159 210 255 299 373
#     4  10  20  35  63  92 120 155 208 260 314 366
#     4  10  21  41  64  87 124 170 208 254 316 373
#
# _framework density 20.780345000000001
#
# number of rings (size 3 to 8) (size 9 to 14) (size 15 to 20)
#    0.000    2.000    1.250    2.625    3.500    1.000 
#    4.500    3.125    0.000    0.000    0.000    0.000 
#    0.000    0.000    0.000    0.000    0.000    0.000 
#
# Total GULP energy -793151.981109 kJ/mol
# GULP energy per Si atom -12392.999705 kJ/mol
# Density = 2.073305 g / cm^3
# Si number density = 20.780345 Si / 1000 Ang^3
#
#
#
# Elastic Constant Matrix: (Units=GPa)
#
#
# Indices 1 2 3 4 5 6 
#
# 1 102.1558 9.9884 31.8392 0.0000 0.0000 0.0000
# 2 9.9884 70.0311 13.3775 0.0000 0.0000 0.0000
# 3 31.8392 13.3775 58.1882 0.0000 0.0000 0.0000
# 4 0.0000 0.0000 0.0000 15.9801 0.0000 0.0000
# 5 0.0000 0.0000 0.0000 0.0000 25.1372 0.0000
# 6 0.0000 0.0000 0.0000 0.0000 0.0000 35.1270
#
#
#
# Elastic Compliance Matrix: (Units=1/GPa)
#
#
# Indices 1 2 3 4 5 6 
#
# 1 0.011816 -0.000471 -0.006357 0.000000 0.000000 0.000000
# 2 -0.000471 0.014954 -0.003180 0.000000 0.000000 0.000000
# 3 -0.006357 -0.003180 0.021395 0.000000 0.000000 0.000000
# 4 0.000000 0.000000 0.000000 0.062578 0.000000 0.000000
# 5 0.000000 0.000000 0.000000 0.000000 0.039782 0.000000
# 6 0.000000 0.000000 0.000000 0.000000 0.000000 0.028468
#
#
# Mechanical properties :
#
#
# Convention : Reuss Voigt Hill
#
# Bulk Modulus (GPa) = 35.52569 37.86504 36.69536
# Shear Modulus (GPa) = 23.99304 26.92685 25.45994
#
# Velocity S-wave (km/s) = 3.40163 3.60361 3.50407
# Velocity P-wave (km/s) = 5.70623 5.96454 5.83681
#
# Compressibility (1/GPa) = 0.02814864
#
# Stress axis : x y z
#
# Youngs Moduli (GPa) = 84.62782 66.87159 46.73903
#
# Poissons Ratio (x) = 0.03149 0.29714
# Poissons Ratio (y) = 0.03986 0.14864
# Poissons Ratio (z) = 0.53801 0.21267
#
# Static dielectric constant tensor:
#      x y z
#    x 4.007720 0.000000 0.000000 
#    y 0.000000 3.963420 0.000000 
#    z 0.000000 0.000000 3.556590 
# 
# 
# High freq. dielectric constant tensor:
#      x y z
#    x 1.825060 0.000000 0.000000 
#    y 0.000000 1.811750 0.000000 
#    z 0.000000 0.000000 1.792270 
# 
# From -- ./inp_files/11070.got.cif
#   From: 2010.03.12/outbox.cif.g09.slc.cpg/sg56_6_cif.got.tgz:11070.got - 2010.04.16 15:33:40.
