data_PCOD8228141
_publ_section_title
;
Structure prediction by ZEFSAII (Michael W. Deem and Ramdas Pophale) SiO2 
 PCOD8228141
Probable space group: P C C N
;
_chemical_formula_sum "Si O2"
_cell_formula_units_Z 56
_cell_length_a 8.604911
_cell_length_b 19.042260
_cell_length_c 17.697185
_cell_angle_alpha 90.000000
_cell_angle_beta 90.000000
_cell_angle_gamma 90.000000
_cell_volume 2899.806803
_symmetry_space_group_name_H-M "P C C N"
_symmetry_group_IT_number 56
_symmetry_cell_setting 'orthorhombic'
loop_
_space_group_symop_operation_xyz
x,y,z
1/2-x,1/2-y,z
1/2+x,-y,1/2-z
-x,1/2+y,1/2-z
-x,-y,-z
1/2+x,1/2+y,-z
1/2-x,y,1/2+z
x,1/2-y,1/2+z
loop_
_atom_site_type_symbol
_atom_site_label
_atom_site_fract_x
_atom_site_fract_y
_atom_site_fract_z
Si Si1 0.319543 0.555543 0.379800
Si Si2 0.828882 0.130029 0.254603
Si Si3 0.101908 0.212318 0.295322
Si Si4 0.942729 0.339739 0.358291
Si Si5 0.863376 0.448819 0.472658
Si Si6 0.717919 0.919038 0.696657
Si Si7 0.344839 0.490742 0.658351
O O1 0.263713 0.616565 0.322696
O O2 0.260226 0.573142 0.463422
O O3 0.237182 0.483227 0.359270
O O4 0.505506 0.547507 0.377429
O O5 0.722172 0.167678 0.317249
O O6 0.968456 0.185546 0.237464
O O7 0.897432 0.058164 0.291432
O O8 0.250000 0.250000 0.253479
O O9 0.168751 0.142152 0.334436
O O10 0.029559 0.264019 0.359361
O O11 0.928314 0.373811 0.441831
O O12 0.039306 0.394792 0.307515
O O13 0.774521 0.489626 0.406558
O O14 0.000000 0.500000 0.500000
O O15 0.747345 0.938727 0.784571
#
# Coordination Sequence:
#
# PCOD8228141 Si02
#       7
#     8   8   8   8   8   8   8
#     4  11  20  35  58  88 128 152 193 257 318 359
#     4  10  20  34  62  87 117 152 204 259 302 356
#     4  10  21  35  59  84 115 154 205 259 299 371
#     4  10  20  38  56  86 116 160 208 249 303 370
#     4  11  23  35  58  90 126 162 195 252 315 376
#     4  10  19  35  59  91 113 152 202 261 308 351
#     4  10  21  35  59  92 122 152 198 258 315 366
#
# _framework density 19.311630999999998
#
# number of rings (size 3 to 8) (size 9 to 14) (size 15 to 20)
#    0.000    1.714    4.286    0.857    2.000    0.000 
#    0.000    0.000    0.000   12.857    0.000    0.000 
#    0.000    0.000    0.000    0.000    0.000    0.000 
#
# Total GULP energy -693963.691498 kJ/mol
# GULP energy per Si atom -12392.208777 kJ/mol
# Density = 1.926768 g / cm^3
# Si number density = 19.311631 Si / 1000 Ang^3
#
#
#
# Elastic Constant Matrix: (Units=GPa)
#
#
# Indices 1 2 3 4 5 6 
#
# 1 102.0057 51.3868 37.0387 0.0000 0.0000 0.0000
# 2 51.3868 93.5749 41.0564 0.0000 0.0000 0.0000
# 3 37.0387 41.0564 110.0772 0.0000 0.0000 0.0000
# 4 0.0000 0.0000 0.0000 19.2440 0.0000 0.0000
# 5 0.0000 0.0000 0.0000 0.0000 30.5561 0.0000
# 6 0.0000 0.0000 0.0000 0.0000 0.0000 44.6414
#
#
#
# Elastic Compliance Matrix: (Units=1/GPa)
#
#
# Indices 1 2 3 4 5 6 
#
# 1 0.013985 -0.006714 -0.002201 0.000000 0.000000 0.000000
# 2 -0.006714 0.016001 -0.003709 0.000000 0.000000 0.000000
# 3 -0.002201 -0.003709 0.011209 0.000000 0.000000 0.000000
# 4 0.000000 0.000000 0.000000 0.051964 0.000000 0.000000
# 5 0.000000 0.000000 0.000000 0.000000 0.032727 0.000000
# 6 0.000000 0.000000 0.000000 0.000000 0.000000 0.022401
#
#
# Mechanical properties :
#
#
# Convention : Reuss Voigt Hill
#
# Bulk Modulus (GPa) = 62.71228 62.73572 62.72400
# Shear Modulus (GPa) = 27.95635 30.63335 29.29485
#
# Velocity S-wave (km/s) = 3.80892 3.98711 3.89903
# Velocity P-wave (km/s) = 7.20334 7.33162 7.26776
#
# Compressibility (1/GPa) = 0.01594584
#
# Stress axis : x y z
#
# Youngs Moduli (GPa) = 71.50512 62.49644 89.21701
#
# Poissons Ratio (x) = 0.41960 0.19641
# Poissons Ratio (y) = 0.48008 0.33090
# Poissons Ratio (z) = 0.15742 0.23179
#
# Static dielectric constant tensor:
#      x y z
#    x 3.728060 0.000000 0.000000 
#    y 0.000000 3.614460 0.000000 
#    z 0.000000 0.000000 3.278050 
# 
# 
# High freq. dielectric constant tensor:
#      x y z
#    x 1.775680 0.000000 0.000000 
#    y 0.000000 1.745430 0.000000 
#    z 0.000000 0.000000 1.707040 
# 
# From -- ./inp_files/15179.got.cif
#   From: 2010.03.12/outbox.cif.g09.slc.cpg/sg56_8_cif.got.tgz:15179.got - 2010.04.16 15:33:40.
