data_PCOD8228148
_publ_section_title
;
Structure prediction by ZEFSAII (Michael W. Deem and Ramdas Pophale) SiO2 
 PCOD8228148
Probable space group: P C C N
;
_chemical_formula_sum "Si O2"
_cell_formula_units_Z 48
_cell_length_a 18.328748
_cell_length_b 8.216087
_cell_length_c 14.701670
_cell_angle_alpha 90.000000
_cell_angle_beta 90.000000
_cell_angle_gamma 90.000000
_cell_volume 2213.933132
_symmetry_space_group_name_H-M "P C C N"
_symmetry_group_IT_number 56
_symmetry_cell_setting 'orthorhombic'
loop_
_space_group_symop_operation_xyz
x,y,z
1/2-x,1/2-y,z
1/2+x,-y,1/2-z
-x,1/2+y,1/2-z
-x,-y,-z
1/2+x,1/2+y,-z
1/2-x,y,1/2+z
x,1/2-y,1/2+z
loop_
_atom_site_type_symbol
_atom_site_label
_atom_site_fract_x
_atom_site_fract_y
_atom_site_fract_z
Si Si1 0.279706 0.933904 0.265940
Si Si2 0.488323 0.341330 0.121430
Si Si3 0.656846 0.978141 0.358808
Si Si4 0.189604 0.377757 0.445072
Si Si5 0.531214 0.790637 0.578434
Si Si6 0.078842 0.705188 0.211506
O O1 0.250000 0.750000 0.272201
O O2 0.229691 0.048618 0.201173
O O3 0.362288 0.939206 0.225213
O O4 0.279767 0.006720 0.366538
O O5 0.403900 0.336893 0.157123
O O6 0.510417 0.529359 0.111673
O O7 0.541949 0.250748 0.191336
O O8 0.495119 0.254076 0.024190
O O9 0.623859 0.148269 0.329382
O O10 0.673159 0.988439 0.466691
O O11 0.250000 0.250000 0.474966
O O12 0.118420 0.275865 0.412917
O O13 0.487663 0.660735 0.642222
#
# Coordination Sequence:
#
# PCOD8228148 Si02
#       6
#     8   8   8   8   8   8
#     4  10  22  40  63  95 126 172 217 269 323 386
#     4   9  17  36  62  84 121 163 206 259 330 375
#     4   9  22  40  57  91 127 167 213 265 321 388
#     4  11  23  41  64  91 130 176 214 262 330 390
#     4   9  19  36  59  90 121 164 209 263 318 382
#     4  10  19  35  65  92 121 166 215 265 327 379
#
# _framework density 21.680872000000001
#
# number of rings (size 3 to 8) (size 9 to 14) (size 15 to 20)
#    0.000    2.333    1.667    1.000    2.333    2.667 
#    6.000    0.000    0.000    5.000    0.000    0.000 
#    0.000    0.000    0.000    0.000    0.000    0.000 
#
# Total GULP energy -594834.472448 kJ/mol
# GULP energy per Si atom -12392.384843 kJ/mol
# Density = 2.163153 g / cm^3
# Si number density = 21.680872 Si / 1000 Ang^3
#
#
#
# Elastic Constant Matrix: (Units=GPa)
#
#
# Indices 1 2 3 4 5 6 
#
# 1 151.3348 19.7084 85.9279 0.0000 0.0000 0.0000
# 2 19.7084 28.0003 29.7391 0.0000 0.0000 0.0000
# 3 85.9279 29.7391 156.5024 0.0000 0.0000 0.0000
# 4 0.0000 0.0000 0.0000 22.1679 0.0000 0.0000
# 5 0.0000 0.0000 0.0000 0.0000 49.4530 0.0000
# 6 0.0000 0.0000 0.0000 0.0000 0.0000 25.3768
#
#
#
# Elastic Compliance Matrix: (Units=1/GPa)
#
#
# Indices 1 2 3 4 5 6 
#
# 1 0.009648 -0.001459 -0.005020 0.000000 0.000000 0.000000
# 2 -0.001459 0.044965 -0.007743 0.000000 0.000000 0.000000
# 3 -0.005020 -0.007743 0.010617 0.000000 0.000000 0.000000
# 4 0.000000 0.000000 0.000000 0.045110 0.000000 0.000000
# 5 0.000000 0.000000 0.000000 0.000000 0.020221 0.000000
# 6 0.000000 0.000000 0.000000 0.000000 0.000000 0.039406
#
#
# Mechanical properties :
#
#
# Convention : Reuss Voigt Hill
#
# Bulk Modulus (GPa) = 27.18453 67.39870 47.29162
# Shear Modulus (GPa) = 23.73319 32.76369 28.24844
#
# Velocity S-wave (km/s) = 3.31215 3.89161 3.61351
# Velocity P-wave (km/s) = 5.21468 7.16568 6.26657
#
# Compressibility (1/GPa) = 0.03678562
#
# Stress axis : x y z
#
# Youngs Moduli (GPa) = 103.64472 22.23948 94.18495
#
# Poissons Ratio (x) = 0.03245 0.47282
# Poissons Ratio (y) = 0.15124 0.72930
# Poissons Ratio (z) = 0.52031 0.17221
#
# Static dielectric constant tensor:
#      x y z
#    x 4.944170 0.000000 0.000000 
#    y 0.000000 3.346780 0.000000 
#    z 0.000000 0.000000 4.128750 
# 
# 
# High freq. dielectric constant tensor:
#      x y z
#    x 1.879920 0.000000 0.000000 
#    y 0.000000 1.791160 0.000000 
#    z 0.000000 0.000000 1.862720 
# 
# From -- ./inp_files/12679.got.cif
#   From: 2010.03.12/outbox.cif.g09.slc.cpg/sg56_7_cif.got.tgz:12679.got - 2010.04.16 15:33:40.
