data_PCOD8228976
_publ_section_title
;
Structure prediction by ZEFSAII (Michael W. Deem and Ramdas Pophale) SiO2 
 PCOD8228976
Probable space group: P C C N
;
_chemical_formula_sum "Si O2"
_cell_formula_units_Z 48
_cell_length_a 27.635146
_cell_length_b 8.724898
_cell_length_c 9.982208
_cell_angle_alpha 90.000000
_cell_angle_beta 90.000000
_cell_angle_gamma 90.000000
_cell_volume 2406.848403
_symmetry_space_group_name_H-M "P C C N"
_symmetry_group_IT_number 56
_symmetry_cell_setting 'orthorhombic'
loop_
_space_group_symop_operation_xyz
x,y,z
1/2-x,1/2-y,z
1/2+x,-y,1/2-z
-x,1/2+y,1/2-z
-x,-y,-z
1/2+x,1/2+y,-z
1/2-x,y,1/2+z
x,1/2-y,1/2+z
loop_
_atom_site_type_symbol
_atom_site_label
_atom_site_fract_x
_atom_site_fract_y
_atom_site_fract_z
Si Si1 0.875699 0.292135 0.141852
Si Si2 0.775951 0.089174 0.582401
Si Si3 0.529396 0.574683 0.882250
Si Si4 0.767461 0.921932 0.845552
Si Si5 0.131648 0.939914 0.083416
Si Si6 0.016828 0.896063 0.381092
O O1 0.833945 0.403370 0.088280
O O2 0.872071 0.299952 0.305720
O O3 0.928005 0.346872 0.093401
O O4 0.866285 0.128066 0.068478
O O5 0.750000 0.250000 0.613855
O O6 0.757954 0.965643 0.691452
O O7 0.764720 0.035440 0.433698
O O8 0.586294 0.552046 0.902446
O O9 0.509887 0.493960 0.750701
O O10 0.519105 0.753509 0.871610
O O11 0.500000 0.500000 0.000000
O O12 0.750000 0.750000 0.870832
O O13 0.822784 0.950225 0.890276
O O14 0.000000 0.000000 0.500000
#
# Coordination Sequence:
#
# PCOD8228976 Si02
#       6
#     8   8   8   8   8   8
#     4  10  22  38  63  93 123 157 215 258 302 380
#     4  11  22  40  65  92 118 168 213 251 309 377
#     4  11  22  40  64  91 127 164 207 259 312 371
#     4  11  24  41  61  93 131 160 204 265 316 365
#     4  10  22  40  63  93 124 163 210 259 316 367
#     4  11  24  41  62  94 125 166 206 257 315 369
#
# _framework density 19.943092
#
# number of rings (size 3 to 8) (size 9 to 14) (size 15 to 20)
#    0.000    1.333    3.333    2.000    4.667    1.333 
#    0.000    6.667    0.000    0.000    0.000    0.000 
#    0.000    0.000    0.000    0.000    0.000    0.000 
#
# Total GULP energy -595089.560754 kJ/mol
# GULP energy per Si atom -12397.699182 kJ/mol
# Density = 1.989770 g / cm^3
# Si number density = 19.943092 Si / 1000 Ang^3
#
#
#
# Elastic Constant Matrix: (Units=GPa)
#
#
# Indices 1 2 3 4 5 6 
#
# 1 102.0073 48.5488 42.0509 0.0000 0.0000 0.0000
# 2 48.5488 132.2576 50.5703 0.0000 0.0000 0.0000
# 3 42.0509 50.5703 96.4878 0.0000 0.0000 0.0000
# 4 0.0000 0.0000 0.0000 40.2528 0.0000 0.0000
# 5 0.0000 0.0000 0.0000 0.0000 26.6945 0.0000
# 6 0.0000 0.0000 0.0000 0.0000 0.0000 27.3422
#
#
#
# Elastic Compliance Matrix: (Units=1/GPa)
#
#
# Indices 1 2 3 4 5 6 
#
# 1 0.012981 -0.003254 -0.003952 0.000000 0.000000 0.000000
# 2 -0.003254 0.010272 -0.003965 0.000000 0.000000 0.000000
# 3 -0.003952 -0.003965 0.014165 0.000000 0.000000 0.000000
# 4 0.000000 0.000000 0.000000 0.024843 0.000000 0.000000
# 5 0.000000 0.000000 0.000000 0.000000 0.037461 0.000000
# 6 0.000000 0.000000 0.000000 0.000000 0.000000 0.036573
#
#
# Mechanical properties :
#
#
# Convention : Reuss Voigt Hill
#
# Bulk Modulus (GPa) = 66.33580 68.12141 67.22860
# Shear Modulus (GPa) = 30.55079 31.49677 31.02378
#
# Velocity S-wave (km/s) = 3.91819 3.97839 3.94841
# Velocity P-wave (km/s) = 7.33515 7.43879 7.38715
#
# Compressibility (1/GPa) = 0.01507482
#
# Stress axis : x y z
#
# Youngs Moduli (GPa) = 77.03572 97.35525 70.59871
#
# Poissons Ratio (x) = 0.31679 0.27900
# Poissons Ratio (y) = 0.25067 0.27995
# Poissons Ratio (z) = 0.30444 0.38605
#
# Static dielectric constant tensor:
#      x y z
#    x 3.636280 0.000000 0.000000 
#    y 0.000000 3.696680 0.000000 
#    z 0.000000 0.000000 3.907930 
# 
# 
# High freq. dielectric constant tensor:
#      x y z
#    x 1.795490 0.000000 0.000000 
#    y 0.000000 1.759360 0.000000 
#    z 0.000000 0.000000 1.793870 
# 
# From -- ./inp_files/2229.got.cif
#   From: 2010.03.12/outbox.cif.g09.slc.cpg/sg56_2_cif.got.tgz:2229.got - 2010.04.16 15:33:40.
