data_PCOD8228712
_publ_section_title
;
Structure prediction by ZEFSAII (Michael W. Deem and Ramdas Pophale) SiO2 
 PCOD8228712
Probable space group: P C C N
;
_chemical_formula_sum "Si O2"
_cell_formula_units_Z 64
_cell_length_a 6.635616
_cell_length_b 26.666163
_cell_length_c 18.666117
_cell_angle_alpha 90.000000
_cell_angle_beta 90.000000
_cell_angle_gamma 90.000000
_cell_volume 3302.902539
_symmetry_space_group_name_H-M "P C C N"
_symmetry_group_IT_number 56
_symmetry_cell_setting 'orthorhombic'
loop_
_space_group_symop_operation_xyz
x,y,z
1/2-x,1/2-y,z
1/2+x,-y,1/2-z
-x,1/2+y,1/2-z
-x,-y,-z
1/2+x,1/2+y,-z
1/2-x,y,1/2+z
x,1/2-y,1/2+z
loop_
_atom_site_type_symbol
_atom_site_label
_atom_site_fract_x
_atom_site_fract_y
_atom_site_fract_z
Si Si1 0.674339 0.627735 0.830905
Si Si2 0.190943 0.807910 0.826016
Si Si3 0.655149 0.304718 0.825342
Si Si4 0.893226 0.124577 0.413657
Si Si5 0.064665 0.621850 0.923851
Si Si6 0.918094 0.445792 0.583633
Si Si7 0.460973 0.558911 0.078959
Si Si8 0.288696 0.134376 0.326467
O O1 0.550708 0.680884 0.829432
O O2 0.519357 0.584317 0.851908
O O3 0.772119 0.615622 0.754799
O O4 0.848115 0.626265 0.889203
O O5 0.250000 0.750000 0.832059
O O6 0.272043 0.829312 0.749948
O O7 0.292167 0.835106 0.892985
O O8 0.750000 0.250000 0.829987
O O9 0.726017 0.333967 0.895775
O O10 0.410113 0.311907 0.827297
O O11 0.975616 0.132297 0.492919
O O12 0.777808 0.070435 0.405359
O O13 0.066128 0.137225 0.357335
O O14 0.177786 0.567776 0.913662
O O15 0.002906 0.429961 0.505200
O O16 0.969519 0.503238 0.598312
O O17 0.595444 0.593239 0.128428
#
# Coordination Sequence:
#
# PCOD8228712 Si02
#       8
#     8   8   8   8   8   8   8   8
#     4  11  21  37  58  86 118 155 200 254 302 356
#     4  10  21  39  59  82 116 158 199 245 305 369
#     4  10  21  39  59  82 116 158 199 245 305 369
#     4  10  21  38  61  88 119 154 195 247 298 354
#     4  10  21  38  61  88 119 154 195 247 298 354
#     4   9  20  39  60  85 120 160 198 237 295 366
#     4   9  20  39  60  85 120 160 198 237 295 366
#     4  11  21  37  58  86 118 155 200 254 302 356
#
# _framework density 19.376895000000001
#
# number of rings (size 3 to 8) (size 9 to 14) (size 15 to 20)
#    0.000    2.000    2.500    0.750    0.000    3.500 
#    4.500    5.000    0.000    0.000    0.000    0.000 
#    0.000    0.000    0.000    0.000    0.000    0.000 
#
# Total GULP energy -792899.715092 kJ/mol
# GULP energy per Si atom -12389.058048 kJ/mol
# Density = 1.933279 g / cm^3
# Si number density = 19.376895 Si / 1000 Ang^3
#
#
#
# Elastic Constant Matrix: (Units=GPa)
#
#
# Indices 1 2 3 4 5 6 
#
# 1 92.0513 40.0869 11.1915 0.0000 0.0000 0.0000
# 2 40.0869 100.3473 30.5336 0.0000 0.0000 0.0000
# 3 11.1915 30.5336 56.7964 0.0000 0.0000 0.0000
# 4 0.0000 0.0000 0.0000 24.7167 0.0000 0.0000
# 5 0.0000 0.0000 0.0000 0.0000 40.9467 0.0000
# 6 0.0000 0.0000 0.0000 0.0000 0.0000 33.2471
#
#
#
# Elastic Compliance Matrix: (Units=1/GPa)
#
#
# Indices 1 2 3 4 5 6 
#
# 1 0.013155 -0.005340 0.000279 0.000000 0.000000 0.000000
# 2 -0.005340 0.014082 -0.006518 0.000000 0.000000 0.000000
# 3 0.000279 -0.006518 0.021056 0.000000 0.000000 0.000000
# 4 0.000000 0.000000 0.000000 0.040458 0.000000 0.000000
# 5 0.000000 0.000000 0.000000 0.000000 0.024422 0.000000
# 6 0.000000 0.000000 0.000000 0.000000 0.000000 0.030078
#
#
# Mechanical properties :
#
#
# Convention : Reuss Voigt Hill
#
# Bulk Modulus (GPa) = 39.78686 45.86876 42.82781
# Shear Modulus (GPa) = 28.60600 30.94098 29.77349
#
# Velocity S-wave (km/s) = 3.84643 4.00033 3.92413
# Velocity P-wave (km/s) = 6.34857 6.71268 6.53317
#
# Compressibility (1/GPa) = 0.02513392
#
# Stress axis : x y z
#
# Youngs Moduli (GPa) = 76.01605 71.01273 47.49237
#
# Poissons Ratio (x) = 0.37921 -0.01323
# Poissons Ratio (y) = 0.40593 0.30957
# Poissons Ratio (z) = -0.02118 0.46288
#
# Static dielectric constant tensor:
#      x y z
#    x 3.889180 0.000000 0.000000 
#    y 0.000000 3.405930 0.000000 
#    z 0.000000 0.000000 3.755800 
# 
# 
# High freq. dielectric constant tensor:
#      x y z
#    x 1.764680 0.000000 0.000000 
#    y 0.000000 1.728890 0.000000 
#    z 0.000000 0.000000 1.768080 
# 
# From -- ./inp_files/17708.got.cif
#   From: 2010.03.12/outbox.cif.g09.slc.cpg/sg56_9_cif.got.tgz:17708.got - 2010.04.16 15:33:40.
