data_PCOD8228147
_publ_section_title
;
Structure prediction by ZEFSAII (Michael W. Deem and Ramdas Pophale) SiO2 
 PCOD8228147
Probable space group: P C C N
;
_chemical_formula_sum "Si O2"
_cell_formula_units_Z 64
_cell_length_a 32.163110
_cell_length_b 5.897796
_cell_length_c 17.282657
_cell_angle_alpha 90.000000
_cell_angle_beta 90.000000
_cell_angle_gamma 90.000000
_cell_volume 3278.372465
_symmetry_space_group_name_H-M "P C C N"
_symmetry_group_IT_number 56
_symmetry_cell_setting 'orthorhombic'
loop_
_space_group_symop_operation_xyz
x,y,z
1/2-x,1/2-y,z
1/2+x,-y,1/2-z
-x,1/2+y,1/2-z
-x,-y,-z
1/2+x,1/2+y,-z
1/2-x,y,1/2+z
x,1/2-y,1/2+z
loop_
_atom_site_type_symbol
_atom_site_label
_atom_site_fract_x
_atom_site_fract_y
_atom_site_fract_z
Si Si1 0.914860 0.592601 0.666508
Si Si2 0.292016 0.368764 0.367245
Si Si3 0.997525 0.168886 0.792849
Si Si4 0.853521 0.938128 0.036636
Si Si5 0.590959 0.211622 0.816066
Si Si6 0.706271 0.169341 0.990307
Si Si7 0.144703 0.115487 0.599269
Si Si8 0.643993 0.901770 0.255730
O O1 0.893322 0.492583 0.589042
O O2 0.913457 0.407367 0.733488
O O3 0.891228 0.817778 0.695868
O O4 0.962935 0.657404 0.649298
O O5 0.250000 0.250000 0.339119
O O6 0.321190 0.187093 0.408441
O O7 0.281684 0.568262 0.426468
O O8 0.315124 0.472700 0.292419
O O9 0.953599 0.177910 0.838387
O O10 0.002385 0.420389 0.751102
O O11 0.830137 0.149378 0.999762
O O12 0.871058 0.791354 0.965315
O O13 0.627243 0.393666 0.806828
O O14 0.605654 0.052655 0.886742
O O15 0.750000 0.250000 0.953644
O O16 0.687797 0.988784 0.930892
O O17 0.157077 0.211909 0.682773
#
# Coordination Sequence:
#
# PCOD8228147 Si02
#       8
#     8   8   8   8   8   8   8   8
#     4   9  19  34  60  91 111 153 199 254 299 356
#     4  10  20  36  57  86 108 144 190 252 295 348
#     4  10  19  35  61  95 125 160 208 264 315 376
#     4  10  20  38  59  80 117 150 205 239 297 361
#     4  10  19  36  59  86 120 157 198 246 313 361
#     4  11  21  38  62  80 111 157 200 242 297 366
#     4  10  23  37  55  82 116 163 194 240 302 369
#     4  10  19  37  57  80 120 147 191 246 301 358
#
# _framework density 19.521882000000002
#
# number of rings (size 3 to 8) (size 9 to 14) (size 15 to 20)
#    0.000    2.000    2.500    1.500    0.000    0.000 
#    4.500    0.625    0.000    3.000    0.000    0.000 
#    0.000    0.000    0.000    0.000    0.000    0.000 
#
# Total GULP energy -792964.300155 kJ/mol
# GULP energy per Si atom -12390.067190 kJ/mol
# Density = 1.947745 g / cm^3
# Si number density = 19.521882 Si / 1000 Ang^3
#
#
#
# Elastic Constant Matrix: (Units=GPa)
#
#
# Indices 1 2 3 4 5 6 
#
# 1 140.6209 36.5063 53.5731 0.0000 0.0000 0.0000
# 2 36.5063 79.1126 10.9606 0.0000 0.0000 0.0000
# 3 53.5731 10.9606 66.7410 0.0000 0.0000 0.0000
# 4 0.0000 0.0000 0.0000 8.6415 0.0000 0.0000
# 5 0.0000 0.0000 0.0000 0.0000 16.0656 0.0000
# 6 0.0000 0.0000 0.0000 0.0000 0.0000 28.0809
#
#
#
# Elastic Compliance Matrix: (Units=1/GPa)
#
#
# Indices 1 2 3 4 5 6 
#
# 1 0.011404 -0.004087 -0.008483 0.000000 0.000000 0.000000
# 2 -0.004087 0.014399 0.000916 0.000000 0.000000 0.000000
# 3 -0.008483 0.000916 0.021642 0.000000 0.000000 0.000000
# 4 0.000000 0.000000 0.000000 0.115720 0.000000 0.000000
# 5 0.000000 0.000000 0.000000 0.000000 0.062245 0.000000
# 6 0.000000 0.000000 0.000000 0.000000 0.000000 0.035611
#
#
# Mechanical properties :
#
#
# Convention : Reuss Voigt Hill
#
# Bulk Modulus (GPa) = 41.42936 54.28384 47.85660
# Shear Modulus (GPa) = 17.10126 22.91991 20.01058
#
# Velocity S-wave (km/s) = 2.96295 3.43018 3.20509
# Velocity P-wave (km/s) = 5.74226 6.59963 6.18582
#
# Compressibility (1/GPa) = 0.02413747
#
# Stress axis : x y z
#
# Youngs Moduli (GPa) = 87.68738 69.44782 46.20625
#
# Poissons Ratio (x) = 0.28384 0.39196
# Poissons Ratio (y) = 0.35839 -0.04233
# Poissons Ratio (z) = 0.74384 -0.06362
#
# Static dielectric constant tensor:
#      x y z
#    x 3.777650 0.000000 0.000000 
#    y 0.000000 3.772870 0.000000 
#    z 0.000000 0.000000 3.396760 
# 
# 
# High freq. dielectric constant tensor:
#      x y z
#    x 1.765840 0.000000 0.000000 
#    y 0.000000 1.766150 0.000000 
#    z 0.000000 0.000000 1.731950 
# 
# From -- ./inp_files/17128.got.cif
#   From: 2010.03.12/outbox.cif.g09.slc.cpg/sg56_9_cif.got.tgz:17128.got - 2010.04.16 15:33:40.
