data_PCOD8228716
_publ_section_title
;
Structure prediction by ZEFSAII (Michael W. Deem and Ramdas Pophale) SiO2 
 PCOD8228716
Probable space group: P C C N
;
_chemical_formula_sum "Si O2"
_cell_formula_units_Z 36
_cell_length_a 13.574479
_cell_length_b 15.142275
_cell_length_c 9.418753
_cell_angle_alpha 90.000000
_cell_angle_beta 90.000000
_cell_angle_gamma 90.000000
_cell_volume 1936.010495
_symmetry_space_group_name_H-M "P C C N"
_symmetry_group_IT_number 56
_symmetry_cell_setting 'orthorhombic'
loop_
_space_group_symop_operation_xyz
x,y,z
1/2-x,1/2-y,z
1/2+x,-y,1/2-z
-x,1/2+y,1/2-z
-x,-y,-z
1/2+x,1/2+y,-z
1/2-x,y,1/2+z
x,1/2-y,1/2+z
loop_
_atom_site_type_symbol
_atom_site_label
_atom_site_fract_x
_atom_site_fract_y
_atom_site_fract_z
Si Si1 0.750000 0.750000 0.564376
Si Si2 0.041151 0.934319 0.384097
Si Si3 0.662220 0.638950 0.315096
Si Si4 0.711014 0.462887 0.807413
Si Si5 0.265798 0.852556 0.942915
O O1 0.680625 0.693411 0.459959
O O2 0.815538 0.689473 0.668388
O O3 0.103907 0.985789 0.261290
O O4 0.116631 0.868583 0.465158
O O5 0.953266 0.881785 0.309155
O O6 0.000000 0.000000 0.500000
O O7 0.727373 0.551445 0.324618
O O8 0.767070 0.389159 0.711069
O O9 0.698819 0.413110 0.955696
O O10 0.250000 0.750000 0.963889
#
# Coordination Sequence:
#
# PCOD8228716 Si02
#       5
#     4   8   8   8   8
#     4  10  24  36  66  86 126 160 212 272 296 384
#     4  10  21  38  65  89 123 170 200 254 321 384
#     4  11  20  44  59  92 122 166 211 257 325 370
#     4  10  21  38  65  83 127 163 203 261 320 373
#     4  10  21  38  61  92 123 163 206 263 314 370
#
# _framework density 18.594940999999999
#
# number of rings (size 3 to 8) (size 9 to 14) (size 15 to 20)
#    1.333    0.444    2.222    3.333    0.000    1.778 
#    0.000    6.667    0.000    0.000    0.000    0.000 
#    0.000    0.000    0.000    0.000    0.000    0.000 
#
# Total GULP energy -445997.425178 kJ/mol
# GULP energy per Si atom -12388.817366 kJ/mol
# Density = 1.855262 g / cm^3
# Si number density = 18.594941 Si / 1000 Ang^3
#
#
#
# Elastic Constant Matrix: (Units=GPa)
#
#
# Indices 1 2 3 4 5 6 
#
# 1 78.2352 31.2362 27.7192 0.0000 0.0000 0.0000
# 2 31.2362 117.5909 26.5927 0.0000 0.0000 0.0000
# 3 27.7192 26.5927 82.6172 0.0000 0.0000 0.0000
# 4 0.0000 0.0000 0.0000 37.9348 0.0000 0.0000
# 5 0.0000 0.0000 0.0000 0.0000 28.1917 0.0000
# 6 0.0000 0.0000 0.0000 0.0000 0.0000 66.2273
#
#
#
# Elastic Compliance Matrix: (Units=1/GPa)
#
#
# Indices 1 2 3 4 5 6 
#
# 1 0.015536 -0.003179 -0.004189 0.000000 0.000000 0.000000
# 2 -0.003179 0.009822 -0.002095 0.000000 0.000000 0.000000
# 3 -0.004189 -0.002095 0.014184 0.000000 0.000000 0.000000
# 4 0.000000 0.000000 0.000000 0.026361 0.000000 0.000000
# 5 0.000000 0.000000 0.000000 0.000000 0.035471 0.000000
# 6 0.000000 0.000000 0.000000 0.000000 0.000000 0.015100
#
#
# Mechanical properties :
#
#
# Convention : Reuss Voigt Hill
#
# Bulk Modulus (GPa) = 48.50814 49.94883 49.22848
# Shear Modulus (GPa) = 35.14394 39.33045 37.23720
#
# Velocity S-wave (km/s) = 4.35210 4.60403 4.47983
# Velocity P-wave (km/s) = 7.16922 7.42850 7.30001
#
# Compressibility (1/GPa) = 0.02061510
#
# Stress axis : x y z
#
# Youngs Moduli (GPa) = 64.36835 101.80831 70.50315
#
# Poissons Ratio (x) = 0.32370 0.29534
# Poissons Ratio (y) = 0.20466 0.14769
# Poissons Ratio (z) = 0.26964 0.21327
#
# Static dielectric constant tensor:
#      x y z
#    x 3.921830 0.000000 0.000000 
#    y 0.000000 3.636120 0.000000 
#    z 0.000000 0.000000 3.545280 
# 
# 
# High freq. dielectric constant tensor:
#      x y z
#    x 1.706080 0.000000 0.000000 
#    y 0.000000 1.723590 0.000000 
#    z 0.000000 0.000000 1.734020 
# 
# From -- ./inp_files/3170.got.cif
#   From: 2010.03.12/outbox.cif.g09.slc.cpg/sg56_2_cif.got.tgz:3170.got - 2010.04.16 15:33:40.
