data_PCOD8228925
_publ_section_title
;
Structure prediction by ZEFSAII (Michael W. Deem and Ramdas Pophale) SiO2 
 PCOD8228925
Probable space group: P C C N
;
_chemical_formula_sum "Si O2"
_cell_formula_units_Z 64
_cell_length_a 11.747427
_cell_length_b 23.918105
_cell_length_c 10.555727
_cell_angle_alpha 90.000000
_cell_angle_beta 90.000000
_cell_angle_gamma 90.000000
_cell_volume 2965.907981
_symmetry_space_group_name_H-M "P C C N"
_symmetry_group_IT_number 56
_symmetry_cell_setting 'orthorhombic'
loop_
_space_group_symop_operation_xyz
x,y,z
1/2-x,1/2-y,z
1/2+x,-y,1/2-z
-x,1/2+y,1/2-z
-x,-y,-z
1/2+x,1/2+y,-z
1/2-x,y,1/2+z
x,1/2-y,1/2+z
loop_
_atom_site_type_symbol
_atom_site_label
_atom_site_fract_x
_atom_site_fract_y
_atom_site_fract_z
Si Si1 0.353813 0.454597 0.873948
Si Si2 0.039208 0.689685 0.697514
Si Si3 0.730062 0.361515 0.346749
Si Si4 0.505283 0.814312 0.210831
Si Si5 0.237231 0.569283 0.903073
Si Si6 0.983474 0.918024 0.355325
Si Si7 0.916732 0.859467 0.967239
Si Si8 0.182081 0.372058 0.948909
O O1 0.310845 0.513798 0.923349
O O2 0.427061 0.460314 0.745911
O O3 0.430239 0.424211 0.984132
O O4 0.246122 0.412809 0.847446
O O5 0.175286 0.685669 0.679660
O O6 0.005772 0.750076 0.752821
O O7 0.997989 0.643696 0.797160
O O8 0.977216 0.682697 0.563830
O O9 0.607870 0.332734 0.364087
O O10 0.765050 0.391684 0.477192
O O11 0.724977 0.403837 0.229295
O O12 0.522502 0.853171 0.333145
O O13 0.613184 0.822728 0.119351
O O14 0.102836 0.555600 0.899334
O O15 0.901704 0.912828 0.474857
O O16 0.780781 0.844643 0.961746
#
# Coordination Sequence:
#
# PCOD8228925 Si02
#       8
#     8   8   8   8   8   8   8   8
#     4   9  23  42  67  95 134 180 214 290 343 398
#     4  10  24  43  65  94 138 179 216 284 349 389
#     4  11  25  44  67 106 133 176 241 283 326 435
#     4  12  23  42  70  98 131 185 222 282 349 397
#     4  11  24  43  73  96 140 182 225 280 359 392
#     4  10  21  45  62 100 135 169 233 284 322 428
#     4   9  23  43  63  96 140 164 231 273 335 419
#     4  10  22  40  65  97 135 165 228 282 331 414
#
# _framework density 21.578551999999998
#
# number of rings (size 3 to 8) (size 9 to 14) (size 15 to 20)
#    0.750    1.000    1.250    1.875    3.500    2.000 
#    0.000   12.500    0.000    0.000    0.000    0.000 
#    0.000    0.000    0.000    0.000    0.000    0.000 
#
# Total GULP energy -793452.536863 kJ/mol
# GULP energy per Si atom -12397.695888 kJ/mol
# Density = 2.152944 g / cm^3
# Si number density = 21.578552 Si / 1000 Ang^3
#
#
#
# Elastic Constant Matrix: (Units=GPa)
#
#
# Indices 1 2 3 4 5 6 
#
# 1 78.1414 9.4998 4.1981 0.0000 0.0000 0.0000
# 2 9.4998 80.7582 15.0202 0.0000 0.0000 0.0000
# 3 4.1981 15.0202 79.2512 0.0000 0.0000 0.0000
# 4 0.0000 0.0000 0.0000 20.3412 0.0000 0.0000
# 5 0.0000 0.0000 0.0000 0.0000 37.0275 0.0000
# 6 0.0000 0.0000 0.0000 0.0000 0.0000 31.2725
#
#
#
# Elastic Compliance Matrix: (Units=1/GPa)
#
#
# Indices 1 2 3 4 5 6 
#
# 1 0.012996 -0.001452 -0.000413 0.000000 0.000000 0.000000
# 2 -0.001452 0.012997 -0.002386 0.000000 0.000000 0.000000
# 3 -0.000413 -0.002386 0.013092 0.000000 0.000000 0.000000
# 4 0.000000 0.000000 0.000000 0.049161 0.000000 0.000000
# 5 0.000000 0.000000 0.000000 0.000000 0.027007 0.000000
# 6 0.000000 0.000000 0.000000 0.000000 0.000000 0.031977
#
#
# Mechanical properties :
#
#
# Convention : Reuss Voigt Hill
#
# Bulk Modulus (GPa) = 32.69847 32.84298 32.77072
# Shear Modulus (GPa) = 30.13352 31.69041 30.91196
#
# Velocity S-wave (km/s) = 3.74097 3.83640 3.78899
# Velocity P-wave (km/s) = 5.81773 5.90569 5.86187
#
# Compressibility (1/GPa) = 0.03058248
#
# Stress axis : x y z
#
# Youngs Moduli (GPa) = 76.94657 76.93918 76.38080
#
# Poissons Ratio (x) = 0.11171 0.03156
# Poissons Ratio (y) = 0.11172 0.18228
# Poissons Ratio (z) = 0.03180 0.18361
#
# Static dielectric constant tensor:
#      x y z
#    x 4.137040 0.000000 0.000000 
#    y 0.000000 3.505880 0.000000 
#    z 0.000000 0.000000 3.717320 
# 
# 
# High freq. dielectric constant tensor:
#      x y z
#    x 1.865990 0.000000 0.000000 
#    y 0.000000 1.821850 0.000000 
#    z 0.000000 0.000000 1.838800 
# 
# From -- ./inp_files/7401.got.cif
#   From: 2010.03.12/outbox.cif.g09.slc.cpg/sg56_4_cif.got.tgz:7401.got - 2010.04.16 15:33:40.
