data_PCOD8228030
_publ_section_title
;
Structure prediction by ZEFSAII (Michael W. Deem and Ramdas Pophale) SiO2 
 PCOD8228030
Probable space group: P C C N
;
_chemical_formula_sum "Si O2"
_cell_formula_units_Z 60
_cell_length_a 18.946588
_cell_length_b 9.230888
_cell_length_c 18.194217
_cell_angle_alpha 90.000000
_cell_angle_beta 90.000000
_cell_angle_gamma 90.000000
_cell_volume 3182.056328
_symmetry_space_group_name_H-M "P C C N"
_symmetry_group_IT_number 56
_symmetry_cell_setting 'orthorhombic'
loop_
_space_group_symop_operation_xyz
x,y,z
1/2-x,1/2-y,z
1/2+x,-y,1/2-z
-x,1/2+y,1/2-z
-x,-y,-z
1/2+x,1/2+y,-z
1/2-x,y,1/2+z
x,1/2-y,1/2+z
loop_
_atom_site_type_symbol
_atom_site_label
_atom_site_fract_x
_atom_site_fract_y
_atom_site_fract_z
Si Si1 0.401730 0.991346 0.857283
Si Si2 0.748997 0.078635 0.591277
Si Si3 0.781606 0.893588 0.463487
Si Si4 0.601429 0.773958 0.256372
Si Si5 0.750000 0.750000 0.824212
Si Si6 0.510946 0.222373 0.617943
Si Si7 0.102932 0.055898 0.873155
Si Si8 0.425659 0.193595 0.982821
O O1 0.317770 0.994156 0.872074
O O2 0.428549 0.827906 0.851328
O O3 0.417120 0.073147 0.781318
O O4 0.445820 0.075300 0.920938
O O5 0.750000 0.250000 0.597958
O O6 0.751014 0.035095 0.504688
O O7 0.679654 0.018722 0.631604
O O8 0.750000 0.750000 0.503676
O O9 0.758888 0.892200 0.377388
O O10 0.865976 0.880596 0.466904
O O11 0.683878 0.773388 0.272789
O O12 0.557384 0.762981 0.330870
O O13 0.585756 0.640657 0.201915
O O14 0.491532 0.266981 0.534581
O O15 0.541339 0.061426 0.617429
O O16 0.101729 0.160850 0.943362
#
# Coordination Sequence:
#
# PCOD8228030 Si02
#       8
#     8   8   8   8   4   8   8   8
#     4  10  23  37  59  86 113 150 190 232 280 335
#     4  11  20  37  60  87 114 140 186 244 290 323
#     4   9  17  33  61  84 108 135 186 235 275 319
#     4  11  23  37  59  82 114 154 196 225 272 339
#     4  10  18  38  62  80 106 150 196 234 268 328
#     4  12  21  39  57  84 121 150 180 235 287 334
#     4  11  22  37  59  86 113 150 190 233 278 335
#     4  10  20  37  60  86 107 146 195 231 276 339
#
# _framework density 18.855732
#
# number of rings (size 3 to 8) (size 9 to 14) (size 15 to 20)
#    0.400    1.067    4.000    2.400    0.000    0.000 
#    0.000    0.000    2.933    0.000    0.000    0.000 
#    0.000    0.000    0.000    0.000    0.000    0.000 
#
# Total GULP energy -743867.630479 kJ/mol
# GULP energy per Si atom -12397.793841 kJ/mol
# Density = 1.881282 g / cm^3
# Si number density = 18.855732 Si / 1000 Ang^3
#
#
#
# Elastic Constant Matrix: (Units=GPa)
#
#
# Indices 1 2 3 4 5 6 
#
# 1 77.7021 12.9792 19.0646 0.0000 0.0000 0.0000
# 2 12.9792 86.3016 19.4603 0.0000 0.0000 0.0000
# 3 19.0646 19.4603 72.2475 0.0000 0.0000 0.0000
# 4 0.0000 0.0000 0.0000 12.4224 0.0000 0.0000
# 5 0.0000 0.0000 0.0000 0.0000 27.5369 0.0000
# 6 0.0000 0.0000 0.0000 0.0000 0.0000 27.5401
#
#
#
# Elastic Compliance Matrix: (Units=1/GPa)
#
#
# Indices 1 2 3 4 5 6 
#
# 1 0.013906 -0.001346 -0.003307 0.000000 0.000000 0.000000
# 2 -0.001346 0.012467 -0.003003 0.000000 0.000000 0.000000
# 3 -0.003307 -0.003003 0.015523 0.000000 0.000000 0.000000
# 4 0.000000 0.000000 0.000000 0.080500 0.000000 0.000000
# 5 0.000000 0.000000 0.000000 0.000000 0.036315 0.000000
# 6 0.000000 0.000000 0.000000 0.000000 0.000000 0.036311
#
#
# Mechanical properties :
#
#
# Convention : Reuss Voigt Hill
#
# Bulk Modulus (GPa) = 37.61617 37.69547 37.65582
# Shear Modulus (GPa) = 22.81094 25.81636 24.31365
#
# Velocity S-wave (km/s) = 3.48194 3.70422 3.59480
# Velocity P-wave (km/s) = 6.01315 6.19112 6.10278
#
# Compressibility (1/GPa) = 0.02658431
#
# Stress axis : x y z
#
# Youngs Moduli (GPa) = 71.91232 80.21320 64.42132
#
# Poissons Ratio (x) = 0.10794 0.21304
# Poissons Ratio (y) = 0.09677 0.19345
# Poissons Ratio (z) = 0.23781 0.24087
#
# Static dielectric constant tensor:
#      x y z
#    x 3.329230 0.000000 0.000000 
#    y 0.000000 3.377030 0.000000 
#    z 0.000000 0.000000 3.332530 
# 
# 
# High freq. dielectric constant tensor:
#      x y z
#    x 1.733600 0.000000 0.000000 
#    y 0.000000 1.725010 0.000000 
#    z 0.000000 0.000000 1.725660 
# 
# From -- ./inp_files/16659.got.cif
#   From: 2010.03.12/outbox.cif.g09.slc.cpg/sg56_9_cif.got.tgz:16659.got - 2010.04.16 15:33:40.
