data_PCOD8228252
_publ_section_title
;
Structure prediction by ZEFSAII (Michael W. Deem and Ramdas Pophale) SiO2 
 PCOD8228252
Probable space group: P C C N
;
_chemical_formula_sum "Si O2"
_cell_formula_units_Z 48
_cell_length_a 11.265214
_cell_length_b 8.686276
_cell_length_c 22.229864
_cell_angle_alpha 90.000000
_cell_angle_beta 90.000000
_cell_angle_gamma 90.000000
_cell_volume 2175.253502
_symmetry_space_group_name_H-M "P C C N"
_symmetry_group_IT_number 56
_symmetry_cell_setting 'orthorhombic'
loop_
_space_group_symop_operation_xyz
x,y,z
1/2-x,1/2-y,z
1/2+x,-y,1/2-z
-x,1/2+y,1/2-z
-x,-y,-z
1/2+x,1/2+y,-z
1/2-x,y,1/2+z
x,1/2-y,1/2+z
loop_
_atom_site_type_symbol
_atom_site_label
_atom_site_fract_x
_atom_site_fract_y
_atom_site_fract_z
Si Si1 0.681461 0.409123 0.700301
Si Si2 0.212598 0.573025 0.667045
Si Si3 0.688439 0.468871 0.086075
Si Si4 0.019511 0.811439 0.087664
Si Si5 0.593691 0.171686 0.036378
Si Si6 0.460506 0.013149 0.129470
O O1 0.750000 0.250000 0.707797
O O2 0.676376 0.485803 0.766461
O O3 0.758526 0.506475 0.652184
O O4 0.545434 0.397272 0.676616
O O5 0.250000 0.750000 0.666206
O O6 0.101557 0.559861 0.620826
O O7 0.322483 0.466758 0.645848
O O8 0.603685 0.610126 0.068015
O O9 0.618075 0.306715 0.085365
O O10 0.796124 0.449633 0.038010
O O11 0.999540 0.666549 0.131686
O O12 0.083704 0.745914 0.028666
O O13 0.478217 0.080356 0.061302
#
# Coordination Sequence:
#
# PCOD8228252 Si02
#       6
#     8   8   8   8   8   8
#     4  10  19  41  65  90 124 174 211 258 324 385
#     4   9  22  38  65  94 131 167 210 267 322 376
#     4  10  21  38  68  87 125 171 215 251 329 379
#     4  11  23  40  65  98 128 168 214 267 319 383
#     4  10  21  41  64  91 127 170 212 262 314 389
#     4  10  21  40  65  96 125 166 214 265 322 372
#
# _framework density 22.066393000000001
#
# number of rings (size 3 to 8) (size 9 to 14) (size 15 to 20)
#    0.000    2.000    3.333    1.000    9.333    2.667 
#    0.000    0.833    3.667    0.000    0.000    0.000 
#    0.000    0.000    0.000    0.000    0.000    0.000 
#
# Total GULP energy -594825.498831 kJ/mol
# GULP energy per Si atom -12392.197892 kJ/mol
# Density = 2.201617 g / cm^3
# Si number density = 22.066393 Si / 1000 Ang^3
#
#
#
# Elastic Constant Matrix: (Units=GPa)
#
#
# Indices 1 2 3 4 5 6 
#
# 1 106.5924 31.3063 87.8086 0.0000 0.0000 0.0000
# 2 31.3063 35.5244 23.5514 0.0000 0.0000 0.0000
# 3 87.8086 23.5514 146.3619 0.0000 0.0000 0.0000
# 4 0.0000 0.0000 0.0000 15.7365 0.0000 0.0000
# 5 0.0000 0.0000 0.0000 0.0000 28.1052 0.0000
# 6 0.0000 0.0000 0.0000 0.0000 0.0000 47.0680
#
#
#
# Elastic Compliance Matrix: (Units=1/GPa)
#
#
# Indices 1 2 3 4 5 6 
#
# 1 0.022414 -0.012132 -0.011495 0.000000 0.000000 0.000000
# 2 -0.012132 0.038078 0.001151 0.000000 0.000000 0.000000
# 3 -0.011495 0.001151 0.013543 0.000000 0.000000 0.000000
# 4 0.000000 0.000000 0.000000 0.063547 0.000000 0.000000
# 5 0.000000 0.000000 0.000000 0.000000 0.035581 0.000000
# 6 0.000000 0.000000 0.000000 0.000000 0.000000 0.021246
#
#
# Mechanical properties :
#
#
# Convention : Reuss Voigt Hill
#
# Bulk Modulus (GPa) = 34.38308 63.75681 49.06994
# Shear Modulus (GPa) = 20.07599 27.90277 23.98938
#
# Velocity S-wave (km/s) = 3.01956 3.55983 3.30077
# Velocity P-wave (km/s) = 5.26996 6.77144 6.06732
#
# Compressibility (1/GPa) = 0.02908407
#
# Stress axis : x y z
#
# Youngs Moduli (GPa) = 44.61514 26.26206 73.83673
#
# Poissons Ratio (x) = 0.31861 0.84874
# Poissons Ratio (y) = 0.54126 -0.08500
# Poissons Ratio (z) = 0.51285 -0.03023
#
# Static dielectric constant tensor:
#      x y z
#    x 4.110250 0.000000 0.000000 
#    y 0.000000 3.713540 0.000000 
#    z 0.000000 0.000000 4.164990 
# 
# 
# High freq. dielectric constant tensor:
#      x y z
#    x 1.867920 0.000000 0.000000 
#    y 0.000000 1.831950 0.000000 
#    z 0.000000 0.000000 1.867960 
# 
# From -- ./inp_files/20900.got.cif
#   From: 2010.03.12/outbox.cif.g09.slc.cpg/sg56_11_cif.got.tgz:20900.got - 2010.04.16 15:33:40.
