data_PCOD8228840
_publ_section_title
;
Structure prediction by ZEFSAII (Michael W. Deem and Ramdas Pophale) SiO2 
 PCOD8228840
Probable space group: P C C N
;
_chemical_formula_sum "Si O2"
_cell_formula_units_Z 60
_cell_length_a 17.820569
_cell_length_b 16.986147
_cell_length_c 9.607752
_cell_angle_alpha 90.000000
_cell_angle_beta 90.000000
_cell_angle_gamma 90.000000
_cell_volume 2908.293477
_symmetry_space_group_name_H-M "P C C N"
_symmetry_group_IT_number 56
_symmetry_cell_setting 'orthorhombic'
loop_
_space_group_symop_operation_xyz
x,y,z
1/2-x,1/2-y,z
1/2+x,-y,1/2-z
-x,1/2+y,1/2-z
-x,-y,-z
1/2+x,1/2+y,-z
1/2-x,y,1/2+z
x,1/2-y,1/2+z
loop_
_atom_site_type_symbol
_atom_site_label
_atom_site_fract_x
_atom_site_fract_y
_atom_site_fract_z
Si Si1 0.507506 0.669915 0.813665
Si Si2 0.322847 0.158598 0.619669
Si Si3 0.945405 0.069816 0.962837
Si Si4 0.750000 0.750000 0.130652
Si Si5 0.526474 0.151438 0.177724
Si Si6 0.714527 0.481008 0.879382
Si Si7 0.546838 0.926407 0.049860
Si Si8 0.837973 0.447848 0.089912
O O1 0.587619 0.658838 0.887282
O O2 0.446689 0.637073 0.921102
O O3 0.479186 0.757691 0.781024
O O4 0.506239 0.619127 0.674006
O O5 0.299373 0.197442 0.473454
O O6 0.303627 0.201773 0.765240
O O7 0.281072 0.075165 0.624649
O O8 0.974507 0.100082 0.815324
O O9 0.860635 0.041007 0.960666
O O10 0.000000 0.000000 0.000000
O O11 0.601299 0.123921 0.090905
O O12 0.452384 0.132653 0.083173
O O13 0.714217 0.443168 0.726003
O O14 0.786449 0.441993 0.953730
O O15 0.626448 0.963032 0.094649
O O16 0.500000 0.000000 0.000000
#
# Coordination Sequence:
#
# PCOD8228840 Si02
#       8
#     8   8   8   4   8   8   8   8
#     4  12  23  39  66  93 129 165 214 274 330 386
#     4  11  23  40  60  92 128 175 208 260 320 407
#     4  11  22  42  62  95 122 164 224 266 315 387
#     4  10  26  40  56  92 138 164 204 252 334 396
#     4  10  24  39  64  94 129 168 213 271 330 384
#     4  11  22  39  66  85 128 162 218 267 310 381
#     4  10  21  41  62  91 128 165 217 268 318 399
#     4  10  22  42  62  96 123 170 221 264 317 397
#
# _framework density 20.630655000000001
#
# number of rings (size 3 to 8) (size 9 to 14) (size 15 to 20)
#    0.000    1.333    2.667    3.200    3.733    4.267 
#    0.000    0.667    0.000    3.200    0.000    0.000 
#    0.000    0.000    0.000    0.000    0.000    0.000 
#
# Total GULP energy -743721.986736 kJ/mol
# GULP energy per Si atom -12395.366446 kJ/mol
# Density = 2.058370 g / cm^3
# Si number density = 20.630655 Si / 1000 Ang^3
#
#
#
# Elastic Constant Matrix: (Units=GPa)
#
#
# Indices 1 2 3 4 5 6 
#
# 1 58.2785 31.6772 41.7152 0.0000 0.0000 0.0000
# 2 31.6772 77.4548 29.2166 0.0000 0.0000 0.0000
# 3 41.7152 29.2166 123.3438 0.0000 0.0000 0.0000
# 4 0.0000 0.0000 0.0000 26.5940 0.0000 0.0000
# 5 0.0000 0.0000 0.0000 0.0000 38.7893 0.0000
# 6 0.0000 0.0000 0.0000 0.0000 0.0000 19.6985
#
#
#
# Elastic Compliance Matrix: (Units=1/GPa)
#
#
# Indices 1 2 3 4 5 6 
#
# 1 0.026713 -0.008255 -0.007079 0.000000 0.000000 0.000000
# 2 -0.008255 0.016728 -0.001171 0.000000 0.000000 0.000000
# 3 -0.007079 -0.001171 0.010779 0.000000 0.000000 0.000000
# 4 0.000000 0.000000 0.000000 0.037603 0.000000 0.000000
# 5 0.000000 0.000000 0.000000 0.000000 0.025780 0.000000
# 6 0.000000 0.000000 0.000000 0.000000 0.000000 0.050765
#
#
# Mechanical properties :
#
#
# Convention : Reuss Voigt Hill
#
# Bulk Modulus (GPa) = 47.14488 51.58836 49.36662
# Shear Modulus (GPa) = 23.98683 27.44756 25.71719
#
# Velocity S-wave (km/s) = 3.41351 3.65146 3.53449
# Velocity P-wave (km/s) = 6.19980 6.54504 6.37475
#
# Compressibility (1/GPa) = 0.02121121
#
# Stress axis : x y z
#
# Youngs Moduli (GPa) = 37.43500 59.77881 92.77391
#
# Poissons Ratio (x) = 0.49346 0.65676
# Poissons Ratio (y) = 0.30901 0.10861
# Poissons Ratio (z) = 0.26501 0.06998
#
# Static dielectric constant tensor:
#      x y z
#    x 3.783010 0.000000 0.000000 
#    y 0.000000 3.909400 0.000000 
#    z 0.000000 0.000000 4.179680 
# 
# 
# High freq. dielectric constant tensor:
#      x y z
#    x 1.791850 0.000000 0.000000 
#    y 0.000000 1.804710 0.000000 
#    z 0.000000 0.000000 1.828300 
# 
# From -- ./inp_files/4129.got.cif
#   From: 2010.03.12/outbox.cif.g09.slc.cpg/sg56_3_cif.got.tgz:4129.got - 2010.04.16 15:33:40.
