data_PCOD8228441
_publ_section_title
;
Structure prediction by ZEFSAII (Michael W. Deem and Ramdas Pophale) SiO2 
 PCOD8228441
Probable space group: P C C N
;
_chemical_formula_sum "Si O2"
_cell_formula_units_Z 64
_cell_length_a 18.118570
_cell_length_b 8.389749
_cell_length_c 19.512211
_cell_angle_alpha 90.000000
_cell_angle_beta 90.000000
_cell_angle_gamma 90.000000
_cell_volume 2966.056161
_symmetry_space_group_name_H-M "P C C N"
_symmetry_group_IT_number 56
_symmetry_cell_setting 'orthorhombic'
loop_
_space_group_symop_operation_xyz
x,y,z
1/2-x,1/2-y,z
1/2+x,-y,1/2-z
-x,1/2+y,1/2-z
-x,-y,-z
1/2+x,1/2+y,-z
1/2-x,y,1/2+z
x,1/2-y,1/2+z
loop_
_atom_site_type_symbol
_atom_site_label
_atom_site_fract_x
_atom_site_fract_y
_atom_site_fract_z
Si Si1 0.469214 0.362785 0.292707
Si Si2 0.014209 0.377416 0.412952
Si Si3 0.840838 0.465517 0.633290
Si Si4 0.781213 0.077100 0.527542
Si Si5 0.407067 0.632101 0.378900
Si Si6 0.394552 0.423963 0.730964
Si Si7 0.813659 0.862930 0.403327
Si Si8 0.041802 0.202586 0.060784
O O1 0.499605 0.246965 0.352431
O O2 0.411252 0.491870 0.322532
O O3 0.539308 0.448792 0.258387
O O4 0.427975 0.256124 0.235078
O O5 0.094814 0.456950 0.411806
O O6 0.005484 0.289878 0.485439
O O7 0.956136 0.523041 0.408538
O O8 0.766339 0.495902 0.590525
O O9 0.856768 0.278446 0.647501
O O10 0.836675 0.551769 0.706981
O O11 0.750000 0.250000 0.509385
O O12 0.866581 0.072137 0.551833
O O13 0.775410 0.980917 0.457130
O O14 0.491785 0.680619 0.392869
O O15 0.351852 0.453400 0.660256
O O16 0.750000 0.750000 0.373328
O O17 0.874917 0.761395 0.442960
#
# Coordination Sequence:
#
# PCOD8228441 Si02
#       8
#     8   8   8   8   8   8   8   8
#     4  11  22  39  63  98 127 172 215 284 323 397
#     4   9  20  35  66  94 123 174 216 272 330 386
#     4   9  20  43  63  91 129 175 220 262 325 411
#     4  10  23  43  68  94 131 173 223 271 335 393
#     4  10  20  37  69  96 125 167 221 276 322 388
#     4  11  25  41  66  95 134 174 227 266 342 397
#     4  12  26  43  61  94 140 174 212 283 330 395
#     4  10  20  39  61  96 132 164 222 272 332 395
#
# _framework density 21.577475
#
# number of rings (size 3 to 8) (size 9 to 14) (size 15 to 20)
#    0.000    1.750    1.250    2.250    5.250    4.000 
#    0.000    1.875    0.000    0.000    0.000    0.000 
#    0.000    0.000    0.000    0.000    0.000    0.000 
#
# Total GULP energy -793691.933686 kJ/mol
# GULP energy per Si atom -12401.436464 kJ/mol
# Density = 2.152836 g / cm^3
# Si number density = 21.577475 Si / 1000 Ang^3
#
#
#
# Elastic Constant Matrix: (Units=GPa)
#
#
# Indices 1 2 3 4 5 6 
#
# 1 85.6131 38.0108 37.6209 0.0000 0.0000 0.0000
# 2 38.0108 89.8252 43.2841 0.0000 0.0000 0.0000
# 3 37.6209 43.2841 105.6447 0.0000 0.0000 0.0000
# 4 0.0000 0.0000 0.0000 37.2107 0.0000 0.0000
# 5 0.0000 0.0000 0.0000 0.0000 32.1529 0.0000
# 6 0.0000 0.0000 0.0000 0.0000 0.0000 26.6113
#
#
#
# Elastic Compliance Matrix: (Units=1/GPa)
#
#
# Indices 1 2 3 4 5 6 
#
# 1 0.015353 -0.004812 -0.003496 0.000000 0.000000 0.000000
# 2 -0.004812 0.015380 -0.004588 0.000000 0.000000 0.000000
# 3 -0.003496 -0.004588 0.012590 0.000000 0.000000 0.000000
# 4 0.000000 0.000000 0.000000 0.026874 0.000000 0.000000
# 5 0.000000 0.000000 0.000000 0.000000 0.031101 0.000000
# 6 0.000000 0.000000 0.000000 0.000000 0.000000 0.037578
#
#
# Mechanical properties :
#
#
# Convention : Reuss Voigt Hill
#
# Bulk Modulus (GPa) = 57.03941 57.65718 57.34829
# Shear Modulus (GPa) = 29.32349 30.00614 29.66481
#
# Velocity S-wave (km/s) = 3.69044 3.73315 3.71186
# Velocity P-wave (km/s) = 6.68216 6.73505 6.70866
#
# Compressibility (1/GPa) = 0.01753174
#
# Stress axis : x y z
#
# Youngs Moduli (GPa) = 65.13298 65.02035 79.42741
#
# Poissons Ratio (x) = 0.31291 0.27765
# Poissons Ratio (y) = 0.31345 0.36438
# Poissons Ratio (z) = 0.22768 0.29829
#
# Static dielectric constant tensor:
#      x y z
#    x 3.721520 0.000000 0.000000 
#    y 0.000000 4.014690 0.000000 
#    z 0.000000 0.000000 3.748410 
# 
# 
# High freq. dielectric constant tensor:
#      x y z
#    x 1.829810 0.000000 0.000000 
#    y 0.000000 1.850230 0.000000 
#    z 0.000000 0.000000 1.847960 
# 
# From -- ./inp_files/19357.got.cif
#   From: 2010.03.12/outbox.cif.g09.slc.cpg/sg56_10_cif.got.tgz:19357.got - 2010.04.16 15:33:40.
