data_PCOD8228108
_publ_section_title
;
Structure prediction by ZEFSAII (Michael W. Deem and Ramdas Pophale) SiO2 
 PCOD8228108
Probable space group: P C C N
;
_chemical_formula_sum "Si O2"
_cell_formula_units_Z 56
_cell_length_a 5.257502
_cell_length_b 22.105344
_cell_length_c 25.672635
_cell_angle_alpha 90.000000
_cell_angle_beta 90.000000
_cell_angle_gamma 90.000000
_cell_volume 2983.645151
_symmetry_space_group_name_H-M "P C C N"
_symmetry_group_IT_number 56
_symmetry_cell_setting 'orthorhombic'
loop_
_space_group_symop_operation_xyz
x,y,z
1/2-x,1/2-y,z
1/2+x,-y,1/2-z
-x,1/2+y,1/2-z
-x,-y,-z
1/2+x,1/2+y,-z
1/2-x,y,1/2+z
x,1/2-y,1/2+z
loop_
_atom_site_type_symbol
_atom_site_label
_atom_site_fract_x
_atom_site_fract_y
_atom_site_fract_z
Si Si1 0.273306 0.972544 0.049276
Si Si2 0.000595 0.712175 0.490111
Si Si3 0.918092 0.417897 0.548255
Si Si4 0.462516 0.583289 0.147378
Si Si5 0.348931 0.512616 0.371670
Si Si6 0.839542 0.491531 0.781474
Si Si7 0.498660 0.287234 0.888559
O O1 0.547191 0.980245 0.075916
O O2 0.102184 0.934194 0.088391
O O3 0.295520 0.934389 0.995784
O O4 0.159596 0.039118 0.038205
O O5 0.750000 0.750000 0.475568
O O6 0.003336 0.694710 0.550853
O O7 0.250000 0.750000 0.475119
O O8 0.997694 0.651437 0.455737
O O9 0.811864 0.430183 0.607029
O O10 0.694789 0.538137 0.161401
O O11 0.240894 0.571634 0.190308
O O12 0.523907 0.653930 0.148001
O O13 0.565345 0.534539 0.330144
O O14 0.580370 0.519524 0.756817
O O15 0.250000 0.250000 0.874538
O O16 0.750000 0.250000 0.873516
#
# Coordination Sequence:
#
# PCOD8228108 Si02
#       7
#     8   8   8   8   8   8   8
#     4   9  19  31  52  82 119 158 187 238 280 342
#     4  10  22  36  52  76 115 168 206 235 268 325
#     4  10  19  34  50  82 120 159 197 236 279 338
#     4  10  20  36  57  85 120 155 194 238 296 356
#     4  10  21  33  58  87 117 148 192 238 299 357
#     4  11  22  39  59  86 120 141 180 239 319 371
#     4  10  22  35  53  80 118 164 203 230 268 335
#
# _framework density 18.768986999999999
#
# number of rings (size 3 to 8) (size 9 to 14) (size 15 to 20)
#    0.000    2.000    2.857    0.429    6.000    1.143 
#    0.000    0.000    0.000    0.000    0.000    1.000 
#   12.857    0.000    0.000    0.000    0.000    0.000 
#
# Total GULP energy -693792.269894 kJ/mol
# GULP energy per Si atom -12389.147677 kJ/mol
# Density = 1.872627 g / cm^3
# Si number density = 18.768987 Si / 1000 Ang^3
#
#
#
# Elastic Constant Matrix: (Units=GPa)
#
#
# Indices 1 2 3 4 5 6 
#
# 1 125.2241 54.3317 45.0722 0.0000 0.0000 0.0000
# 2 54.3317 132.2492 47.5425 0.0000 0.0000 0.0000
# 3 45.0722 47.5425 75.2745 0.0000 0.0000 0.0000
# 4 0.0000 0.0000 0.0000 13.8574 0.0000 0.0000
# 5 0.0000 0.0000 0.0000 0.0000 45.5124 0.0000
# 6 0.0000 0.0000 0.0000 0.0000 0.0000 14.6705
#
#
#
# Elastic Compliance Matrix: (Units=1/GPa)
#
#
# Indices 1 2 3 4 5 6 
#
# 1 0.010906 -0.002760 -0.004787 0.000000 0.000000 0.000000
# 2 -0.002760 0.010481 -0.004967 0.000000 0.000000 0.000000
# 3 -0.004787 -0.004967 0.019289 0.000000 0.000000 0.000000
# 4 0.000000 0.000000 0.000000 0.072164 0.000000 0.000000
# 5 0.000000 0.000000 0.000000 0.000000 0.021972 0.000000
# 6 0.000000 0.000000 0.000000 0.000000 0.000000 0.068164
#
#
# Mechanical properties :
#
#
# Convention : Reuss Voigt Hill
#
# Bulk Modulus (GPa) = 63.90941 69.62676 66.76808
# Shear Modulus (GPa) = 21.43907 27.19482 24.31694
#
# Velocity S-wave (km/s) = 3.38340 3.81060 3.60334
# Velocity P-wave (km/s) = 7.02764 7.51919 7.27756
#
# Compressibility (1/GPa) = 0.01564715
#
# Stress axis : x y z
#
# Youngs Moduli (GPa) = 91.69179 95.41199 51.84427
#
# Poissons Ratio (x) = 0.26329 0.24820
# Poissons Ratio (y) = 0.25302 0.25753
# Poissons Ratio (z) = 0.43896 0.47394
#
# Static dielectric constant tensor:
#      x y z
#    x 3.685780 0.000000 0.000000 
#    y 0.000000 3.128140 0.000000 
#    z 0.000000 0.000000 3.498940 
# 
# 
# High freq. dielectric constant tensor:
#      x y z
#    x 1.748190 0.000000 0.000000 
#    y 0.000000 1.689140 0.000000 
#    z 0.000000 0.000000 1.709770 
# 
# From -- ./inp_files/21831.got.cif
#   From: 2010.03.12/outbox.cif.g09.slc.cpg/sg56_11_cif.got.tgz:21831.got - 2010.04.16 15:33:40.
