data_PCOD8228548
_publ_section_title
;
Structure prediction by ZEFSAII (Michael W. Deem and Ramdas Pophale) SiO2 
 PCOD8228548
Probable space group: P C C N
;
_chemical_formula_sum "Si O2"
_cell_formula_units_Z 48
_cell_length_a 9.632758
_cell_length_b 13.784286
_cell_length_c 18.519619
_cell_angle_alpha 90.000000
_cell_angle_beta 90.000000
_cell_angle_gamma 90.000000
_cell_volume 2459.047812
_symmetry_space_group_name_H-M "P C C N"
_symmetry_group_IT_number 56
_symmetry_cell_setting 'orthorhombic'
loop_
_space_group_symop_operation_xyz
x,y,z
1/2-x,1/2-y,z
1/2+x,-y,1/2-z
-x,1/2+y,1/2-z
-x,-y,-z
1/2+x,1/2+y,-z
1/2-x,y,1/2+z
x,1/2-y,1/2+z
loop_
_atom_site_type_symbol
_atom_site_label
_atom_site_fract_x
_atom_site_fract_y
_atom_site_fract_z
Si Si1 0.270639 0.489275 0.321097
Si Si2 0.421042 0.466838 0.695306
Si Si3 0.617714 0.312646 0.319763
Si Si4 0.875130 0.315365 0.654602
Si Si5 0.873000 0.675972 0.080042
Si Si6 0.102343 0.201769 0.580152
O O1 0.414614 0.526583 0.283533
O O2 0.175169 0.432311 0.262598
O O3 0.173754 0.574106 0.352507
O O4 0.314568 0.424515 0.388799
O O5 0.360348 0.571510 0.670016
O O6 0.407207 0.390098 0.631974
O O7 0.750000 0.250000 0.344372
O O8 0.580680 0.290076 0.236644
O O9 0.490596 0.278353 0.368902
O O10 0.750000 0.250000 0.628037
O O11 0.001143 0.289983 0.602016
O O12 0.750000 0.750000 0.076648
O O13 0.933342 0.661355 0.999599
O O14 0.250000 0.250000 0.584042
#
# Coordination Sequence:
#
# PCOD8228548 Si02
#       6
#     8   8   8   8   8   8
#     4  10  22  39  66  93 121 160 210 258 306 371
#     4  10  22  39  63  93 120 159 206 254 309 368
#     4   9  21  39  62  90 119 157 207 256 301 362
#     4  10  20  40  63  90 118 161 212 252 304 370
#     4  10  24  42  57  91 125 161 205 251 318 367
#     4  11  25  41  59  90 128 166 202 251 316 374
#
# _framework density 19.519752
#
# number of rings (size 3 to 8) (size 9 to 14) (size 15 to 20)
#    0.000    2.000    1.667    0.000    9.333    3.333 
#    3.000    1.667    0.000    0.000    0.000    0.000 
#    0.000    0.000    0.000    0.000    0.000    0.000 
#
# Total GULP energy -595076.765669 kJ/mol
# GULP energy per Si atom -12397.432618 kJ/mol
# Density = 1.947532 g / cm^3
# Si number density = 19.519752 Si / 1000 Ang^3
#
#
#
# Elastic Constant Matrix: (Units=GPa)
#
#
# Indices 1 2 3 4 5 6 
#
# 1 127.4073 48.1510 78.6213 0.0000 0.0000 0.0000
# 2 48.1510 71.7300 43.4977 0.0000 0.0000 0.0000
# 3 78.6213 43.4977 123.7116 0.0000 0.0000 0.0000
# 4 0.0000 0.0000 0.0000 28.0671 0.0000 0.0000
# 5 0.0000 0.0000 0.0000 0.0000 38.3334 0.0000
# 6 0.0000 0.0000 0.0000 0.0000 0.0000 40.4115
#
#
#
# Elastic Compliance Matrix: (Units=1/GPa)
#
#
# Indices 1 2 3 4 5 6 
#
# 1 0.014288 -0.005192 -0.007255 0.000000 0.000000 0.000000
# 2 -0.005192 0.019606 -0.003594 0.000000 0.000000 0.000000
# 3 -0.007255 -0.003594 0.013958 0.000000 0.000000 0.000000
# 4 0.000000 0.000000 0.000000 0.035629 0.000000 0.000000
# 5 0.000000 0.000000 0.000000 0.000000 0.026087 0.000000
# 6 0.000000 0.000000 0.000000 0.000000 0.000000 0.024745
#
#
# Mechanical properties :
#
#
# Convention : Reuss Voigt Hill
#
# Bulk Modulus (GPa) = 63.41144 73.70989 68.56066
# Shear Modulus (GPa) = 29.12905 31.53432 30.33169
#
# Velocity S-wave (km/s) = 3.86720 4.02370 3.94623
# Velocity P-wave (km/s) = 7.24546 7.70912 7.48088
#
# Compressibility (1/GPa) = 0.01577002
#
# Stress axis : x y z
#
# Youngs Moduli (GPa) = 69.98999 51.00540 71.64605
#
# Poissons Ratio (x) = 0.26481 0.51977
# Poissons Ratio (y) = 0.36337 0.25750
# Poissons Ratio (z) = 0.50776 0.18331
#
# Static dielectric constant tensor:
#      x y z
#    x 3.951550 0.000000 0.000000 
#    y 0.000000 3.749100 0.000000 
#    z 0.000000 0.000000 3.750290 
# 
# 
# High freq. dielectric constant tensor:
#      x y z
#    x 1.772800 0.000000 0.000000 
#    y 0.000000 1.761110 0.000000 
#    z 0.000000 0.000000 1.745890 
# 
# From -- ./inp_files/14806.got.cif
#   From: 2010.03.12/outbox.cif.g09.slc.cpg/sg56_8_cif.got.tgz:14806.got - 2010.04.16 15:33:40.
