data_PCOD8228276
_publ_section_title
;
Structure prediction by ZEFSAII (Michael W. Deem and Ramdas Pophale) SiO2 
 PCOD8228276
Probable space group: P C C N
;
_chemical_formula_sum "Si O2"
_cell_formula_units_Z 40
_cell_length_a 19.570264
_cell_length_b 9.995540
_cell_length_c 8.940477
_cell_angle_alpha 90.000000
_cell_angle_beta 90.000000
_cell_angle_gamma 90.000000
_cell_volume 1748.894597
_symmetry_space_group_name_H-M "P C C N"
_symmetry_group_IT_number 56
_symmetry_cell_setting 'orthorhombic'
loop_
_space_group_symop_operation_xyz
x,y,z
1/2-x,1/2-y,z
1/2+x,-y,1/2-z
-x,1/2+y,1/2-z
-x,-y,-z
1/2+x,1/2+y,-z
1/2-x,y,1/2+z
x,1/2-y,1/2+z
loop_
_atom_site_type_symbol
_atom_site_label
_atom_site_fract_x
_atom_site_fract_y
_atom_site_fract_z
Si Si1 0.801478 0.418932 0.301475
Si Si2 0.250000 0.250000 0.992100
Si Si3 0.064233 0.419782 0.681355
Si Si4 0.317487 0.096281 0.233623
Si Si5 0.459125 0.144738 0.341629
Si Si6 0.250000 0.750000 0.452051
O O1 0.855854 0.540735 0.298328
O O2 0.723130 0.468141 0.322046
O O3 0.802355 0.337186 0.147749
O O4 0.807223 0.327803 0.449096
O O5 0.312061 0.205436 0.100911
O O6 0.218907 0.134709 0.889895
O O7 0.046959 0.361795 0.519470
O O8 0.041834 0.302177 0.796260
O O9 0.024909 0.560355 0.712537
O O10 0.396325 0.067673 0.263169
#
# Coordination Sequence:
#
# PCOD8228276 Si02
#       6
#     8   4   8   8   8   4
#     4  11  23  41  65  94 129 171 216 268 324 388
#     4  10  20  32  60  94 120 148 204 272 318 362
#     4  11  26  45  67  95 133 174 219 269 326 388
#     4  11  20  37  62  91 123 161 211 264 318 376
#     4  11  25  44  65  97 133 173 219 270 326 388
#     4  10  24  40  62  96 132 168 214 268 330 386
#
# _framework density 22.871587999999999
#
# number of rings (size 3 to 8) (size 9 to 14) (size 15 to 20)
#    0.000    1.200    0.000    7.200    0.000    8.800 
#    0.000    0.000    0.000    0.000    0.000    0.000 
#    0.000    0.000    0.000    0.000    0.000    0.000 
#
# Total GULP energy -495769.799195 kJ/mol
# GULP energy per Si atom -12394.244980 kJ/mol
# Density = 2.281953 g / cm^3
# Si number density = 22.871588 Si / 1000 Ang^3
#
#
#
# Elastic Constant Matrix: (Units=GPa)
#
#
# Indices 1 2 3 4 5 6 
#
# 1 76.0902 33.0000 21.0207 0.0000 0.0000 0.0000
# 2 33.0000 132.7267 50.1213 0.0000 0.0000 0.0000
# 3 21.0207 50.1213 129.3603 0.0000 0.0000 0.0000
# 4 0.0000 0.0000 0.0000 4.0943 0.0000 0.0000
# 5 0.0000 0.0000 0.0000 0.0000 22.0654 0.0000
# 6 0.0000 0.0000 0.0000 0.0000 0.0000 46.1641
#
#
#
# Elastic Compliance Matrix: (Units=1/GPa)
#
#
# Indices 1 2 3 4 5 6 
#
# 1 0.014876 -0.003263 -0.001153 0.000000 0.000000 0.000000
# 2 -0.003263 0.009541 -0.003167 0.000000 0.000000 0.000000
# 3 -0.001153 -0.003167 0.009145 0.000000 0.000000 0.000000
# 4 0.000000 0.000000 0.000000 0.244244 0.000000 0.000000
# 5 0.000000 0.000000 0.000000 0.000000 0.045320 0.000000
# 6 0.000000 0.000000 0.000000 0.000000 0.000000 0.021662
#
#
# Mechanical properties :
#
#
# Convention : Reuss Voigt Hill
#
# Bulk Modulus (GPa) = 54.35824 60.71791 57.53808
# Shear Modulus (GPa) = 13.65802 30.06711 21.86256
#
# Velocity S-wave (km/s) = 2.44634 3.62968 3.09509
# Velocity P-wave (km/s) = 5.63895 6.64613 6.16315
#
# Compressibility (1/GPa) = 0.01839647
#
# Stress axis : x y z
#
# Youngs Moduli (GPa) = 67.22203 104.80614 109.35396
#
# Poissons Ratio (x) = 0.34201 0.12608
# Poissons Ratio (y) = 0.21936 0.34628
# Poissons Ratio (z) = 0.07750 0.33188
#
# Static dielectric constant tensor:
#      x y z
#    x 4.037080 0.000000 0.000000 
#    y 0.000000 4.193470 0.000000 
#    z 0.000000 0.000000 4.343350 
# 
# 
# High freq. dielectric constant tensor:
#      x y z
#    x 1.880090 0.000000 0.000000 
#    y 0.000000 1.907320 0.000000 
#    z 0.000000 0.000000 1.922000 
# 
# From -- ./inp_files/2599.got.cif
#   From: 2010.03.12/outbox.cif.g09.slc.cpg/sg56_2_cif.got.tgz:2599.got - 2010.04.16 15:33:40.
