data_PCOD8228939
_publ_section_title
;
Structure prediction by ZEFSAII (Michael W. Deem and Ramdas Pophale) SiO2 
 PCOD8228939
Probable space group: P C C N
;
_chemical_formula_sum "Si O2"
_cell_formula_units_Z 44
_cell_length_a 20.130307
_cell_length_b 11.140025
_cell_length_c 9.070558
_cell_angle_alpha 90.000000
_cell_angle_beta 90.000000
_cell_angle_gamma 90.000000
_cell_volume 2034.091890
_symmetry_space_group_name_H-M "P C C N"
_symmetry_group_IT_number 56
_symmetry_cell_setting 'orthorhombic'
loop_
_space_group_symop_operation_xyz
x,y,z
1/2-x,1/2-y,z
1/2+x,-y,1/2-z
-x,1/2+y,1/2-z
-x,-y,-z
1/2+x,1/2+y,-z
1/2-x,y,1/2+z
x,1/2-y,1/2+z
loop_
_atom_site_type_symbol
_atom_site_label
_atom_site_fract_x
_atom_site_fract_y
_atom_site_fract_z
Si Si1 0.079164 0.331298 0.065167
Si Si2 0.607765 0.606456 0.744978
Si Si3 0.332087 0.862825 0.671881
Si Si4 0.033764 0.501365 0.294010
Si Si5 0.960739 0.186179 0.978627
Si Si6 0.750000 0.250000 0.072556
O O1 0.113003 0.220459 0.148968
O O2 0.080645 0.452593 0.163464
O O3 0.124590 0.354578 0.922101
O O4 0.999956 0.304899 0.032028
O O5 0.656503 0.504444 0.806639
O O6 0.533784 0.555670 0.731640
O O7 0.400139 0.788970 0.633587
O O8 0.281204 0.849881 0.536104
O O9 0.306202 0.809703 0.825879
O O10 0.070027 0.606868 0.386746
O O11 0.019744 0.389210 0.401620
#
# Coordination Sequence:
#
# PCOD8228939 Si02
#       6
#     8   8   8   8   8   4
#     4  11  19  35  56  94 136 166 190 233 291 394
#     4  10  22  35  58  90 131 161 201 230 304 367
#     4  10  23  43  65  92 111 160 207 269 310 349
#     4   9  18  33  51  88 132 168 191 225 278 388
#     4   9  19  33  57  89 128 160 198 239 298 364
#     4  10  24  48  68  82 114 148 220 280 310 344
#
# _framework density 21.631276
#
# number of rings (size 3 to 8) (size 9 to 14) (size 15 to 20)
#    0.000    2.182    1.818    1.636    5.091    0.000 
#    6.545    0.000    0.000    3.273    0.000    0.000 
#    0.000    0.000    0.000    0.000    0.000    0.000 
#
# Total GULP energy -545464.469944 kJ/mol
# GULP energy per Si atom -12396.919771 kJ/mol
# Density = 2.158204 g / cm^3
# Si number density = 21.631276 Si / 1000 Ang^3
#
#
#
# Elastic Constant Matrix: (Units=GPa)
#
#
# Indices 1 2 3 4 5 6 
#
# 1 55.8112 25.6792 41.9305 0.0000 0.0000 0.0000
# 2 25.6792 73.3771 60.5735 0.0000 0.0000 0.0000
# 3 41.9305 60.5735 163.0014 0.0000 0.0000 0.0000
# 4 0.0000 0.0000 0.0000 31.8364 0.0000 0.0000
# 5 0.0000 0.0000 0.0000 0.0000 23.9909 0.0000
# 6 0.0000 0.0000 0.0000 0.0000 0.0000 22.4079
#
#
#
# Elastic Compliance Matrix: (Units=1/GPa)
#
#
# Indices 1 2 3 4 5 6 
#
# 1 0.023245 -0.004614 -0.004265 0.000000 0.000000 0.000000
# 2 -0.004614 0.020575 -0.006459 0.000000 0.000000 0.000000
# 3 -0.004265 -0.006459 0.009632 0.000000 0.000000 0.000000
# 4 0.000000 0.000000 0.000000 0.031411 0.000000 0.000000
# 5 0.000000 0.000000 0.000000 0.000000 0.041682 0.000000
# 6 0.000000 0.000000 0.000000 0.000000 0.000000 0.044627
#
#
# Mechanical properties :
#
#
# Convention : Reuss Voigt Hill
#
# Bulk Modulus (GPa) = 43.90579 60.95068 52.42823
# Shear Modulus (GPa) = 23.87321 26.58081 25.22701
#
# Velocity S-wave (km/s) = 3.32572 3.50925 3.41871
# Velocity P-wave (km/s) = 5.92356 6.68267 6.31453
#
# Compressibility (1/GPa) = 0.02277604
#
# Stress axis : x y z
#
# Youngs Moduli (GPa) = 43.02061 48.60272 103.81802
#
# Poissons Ratio (x) = 0.22426 0.44276
# Poissons Ratio (y) = 0.19850 0.67056
# Poissons Ratio (z) = 0.18347 0.31392
#
# Static dielectric constant tensor:
#      x y z
#    x 3.372120 0.000000 0.000000 
#    y 0.000000 3.951050 0.000000 
#    z 0.000000 0.000000 4.268920 
# 
# 
# High freq. dielectric constant tensor:
#      x y z
#    x 1.779590 0.000000 0.000000 
#    y 0.000000 1.847690 0.000000 
#    z 0.000000 0.000000 1.878210 
# 
# From -- ./inp_files/2741.got.cif
#   From: 2010.03.12/outbox.cif.g09.slc.cpg/sg56_2_cif.got.tgz:2741.got - 2010.04.16 15:33:40.
