data_PCOD8228229
_publ_section_title
;
Structure prediction by ZEFSAII (Michael W. Deem and Ramdas Pophale) SiO2 
 PCOD8228229
Probable space group: P C C N
;
_chemical_formula_sum "Si O2"
_cell_formula_units_Z 56
_cell_length_a 8.394040
_cell_length_b 15.231115
_cell_length_c 19.525176
_cell_angle_alpha 90.000000
_cell_angle_beta 90.000000
_cell_angle_gamma 90.000000
_cell_volume 2496.305243
_symmetry_space_group_name_H-M "P C C N"
_symmetry_group_IT_number 56
_symmetry_cell_setting 'orthorhombic'
loop_
_space_group_symop_operation_xyz
x,y,z
1/2-x,1/2-y,z
1/2+x,-y,1/2-z
-x,1/2+y,1/2-z
-x,-y,-z
1/2+x,1/2+y,-z
1/2-x,y,1/2+z
x,1/2-y,1/2+z
loop_
_atom_site_type_symbol
_atom_site_label
_atom_site_fract_x
_atom_site_fract_y
_atom_site_fract_z
Si Si1 0.067449 0.225379 0.741198
Si Si2 0.993637 0.889001 0.386623
Si Si3 0.423272 0.208105 0.982470
Si Si4 0.316280 0.058145 0.889753
Si Si5 0.005968 0.644528 0.613005
Si Si6 0.267247 0.508821 0.159323
Si Si7 0.505644 0.913352 0.245386
O O1 0.250000 0.250000 0.723771
O O2 0.998191 0.153885 0.688574
O O3 0.049348 0.189006 0.816965
O O4 0.962732 0.313807 0.733918
O O5 0.995695 0.812370 0.442978
O O6 0.829038 0.945159 0.391968
O O7 0.142194 0.954929 0.397881
O O8 0.250000 0.250000 0.989477
O O9 0.422708 0.116913 0.940889
O O10 0.531458 0.280364 0.944044
O O11 0.131331 0.074335 0.906868
O O12 0.359128 0.089358 0.813178
O O13 0.174615 0.594671 0.618119
O O14 0.152287 0.536599 0.221692
O O15 0.424438 0.462727 0.188729
#
# Coordination Sequence:
#
# PCOD8228229 Si02
#       7
#     8   8   8   8   8   8   8
#     4  12  20  37  65  94 131 173 216 268 327 395
#     4  11  23  38  66  99 130 172 220 269 327 391
#     4  10  21  39  66  92 128 179 220 258 324 403
#     4  10  19  39  64  89 123 175 216 261 325 389
#     4  11  21  41  66  93 128 172 223 267 326 394
#     4  11  24  38  65 100 132 163 220 280 332 392
#     4  11  21  39  63  99 129 169 214 272 334 385
#
# _framework density 22.433153999999998
#
# number of rings (size 3 to 8) (size 9 to 14) (size 15 to 20)
#    0.000    1.143    4.286    3.857    0.000    0.571 
#    0.000    2.857    3.143    6.857   14.857    0.000 
#    0.000    0.000    0.000    0.000    0.000    0.000 
#
# Total GULP energy -694533.206252 kJ/mol
# GULP energy per Si atom -12402.378683 kJ/mol
# Density = 2.238210 g / cm^3
# Si number density = 22.433154 Si / 1000 Ang^3
#
#
#
# Elastic Constant Matrix: (Units=GPa)
#
#
# Indices 1 2 3 4 5 6 
#
# 1 61.0825 39.2985 20.1993 0.0000 0.0000 0.0000
# 2 39.2985 140.4630 57.6240 0.0000 0.0000 0.0000
# 3 20.1993 57.6240 88.8604 0.0000 0.0000 0.0000
# 4 0.0000 0.0000 0.0000 45.8256 0.0000 0.0000
# 5 0.0000 0.0000 0.0000 0.0000 16.4233 0.0000
# 6 0.0000 0.0000 0.0000 0.0000 0.0000 39.5718
#
#
#
# Elastic Compliance Matrix: (Units=1/GPa)
#
#
# Indices 1 2 3 4 5 6 
#
# 1 0.020067 -0.005100 -0.001255 0.000000 0.000000 0.000000
# 2 -0.005100 0.010996 -0.005971 0.000000 0.000000 0.000000
# 3 -0.001255 -0.005971 0.015411 0.000000 0.000000 0.000000
# 4 0.000000 0.000000 0.000000 0.021822 0.000000 0.000000
# 5 0.000000 0.000000 0.000000 0.000000 0.060889 0.000000
# 6 0.000000 0.000000 0.000000 0.000000 0.000000 0.025271
#
#
# Mechanical properties :
#
#
# Convention : Reuss Voigt Hill
#
# Bulk Modulus (GPa) = 45.82332 58.29437 52.05885
# Shear Modulus (GPa) = 26.82682 31.91640 29.37161
#
# Velocity S-wave (km/s) = 3.46187 3.77601 3.62234
# Velocity P-wave (km/s) = 6.03741 6.71217 6.38371
#
# Compressibility (1/GPa) = 0.02182295
#
# Stress axis : x y z
#
# Youngs Moduli (GPa) = 49.83272 90.94401 64.88859
#
# Poissons Ratio (x) = 0.46379 0.08140
# Poissons Ratio (y) = 0.25413 0.38747
# Poissons Ratio (z) = 0.06252 0.54305
#
# Static dielectric constant tensor:
#      x y z
#    x 3.746000 0.000000 0.000000 
#    y 0.000000 4.327540 0.000000 
#    z 0.000000 0.000000 3.832350 
# 
# 
# High freq. dielectric constant tensor:
#      x y z
#    x 1.857800 0.000000 0.000000 
#    y 0.000000 1.901440 0.000000 
#    z 0.000000 0.000000 1.863580 
# 
# From -- ./inp_files/18217.got.cif
#   From: 2010.03.12/outbox.cif.g09.slc.cpg/sg56_10_cif.got.tgz:18217.got - 2010.04.16 15:33:40.
