data_PCOD8228758
_publ_section_title
;
Structure prediction by ZEFSAII (Michael W. Deem and Ramdas Pophale) SiO2 
 PCOD8228758
Probable space group: P C C N
;
_chemical_formula_sum "Si O2"
_cell_formula_units_Z 64
_cell_length_a 20.755885
_cell_length_b 5.291315
_cell_length_c 26.843281
_cell_angle_alpha 90.000000
_cell_angle_beta 90.000000
_cell_angle_gamma 90.000000
_cell_volume 2948.088183
_symmetry_space_group_name_H-M "P C C N"
_symmetry_group_IT_number 56
_symmetry_cell_setting 'orthorhombic'
loop_
_space_group_symop_operation_xyz
x,y,z
1/2-x,1/2-y,z
1/2+x,-y,1/2-z
-x,1/2+y,1/2-z
-x,-y,-z
1/2+x,1/2+y,-z
1/2-x,y,1/2+z
x,1/2-y,1/2+z
loop_
_atom_site_type_symbol
_atom_site_label
_atom_site_fract_x
_atom_site_fract_y
_atom_site_fract_z
Si Si1 0.584034 0.197711 0.221092
Si Si2 0.791366 0.497836 0.981773
Si Si3 0.072149 0.451099 0.366166
Si Si4 0.289451 0.510757 0.310083
Si Si5 0.909290 0.439104 0.918776
Si Si6 0.522177 0.575723 0.946042
Si Si7 0.032683 0.910441 0.682071
Si Si8 0.182568 0.377853 0.914173
O O1 0.605639 0.399079 0.179037
O O2 0.581373 0.295866 0.277337
O O3 0.641111 0.986781 0.218513
O O4 0.510467 0.123787 0.208327
O O5 0.750000 0.750000 0.973006
O O6 0.836165 0.502404 0.032315
O O7 0.750000 0.250000 0.988510
O O8 0.834582 0.456635 0.932793
O O9 0.127230 0.308616 0.396093
O O10 0.036930 0.624216 0.407535
O O11 0.018304 0.276591 0.342049
O O12 0.250000 0.250000 0.303044
O O13 0.304759 0.569281 0.368429
O O14 0.250000 0.750000 0.288388
O O15 0.943526 0.654460 0.951871
O O16 0.920729 0.517889 0.861020
O O17 0.932722 0.152834 0.927235
O O18 0.500000 0.500000 0.000000
O O19 0.250000 0.250000 0.927190
#
# Coordination Sequence:
#
# PCOD8228758 Si02
#       8
#     8   8   8   8   8   8   8   8
#     4  12  22  41  70  92 141 178 233 283 347 415
#     4  11  24  44  70  98 130 183 232 275 338 413
#     4  11  22  39  62  97 136 174 224 276 342 412
#     4  11  24  41  63  97 134 175 216 274 339 400
#     4  11  24  44  65  95 137 170 228 288 331 403
#     4  11  23  39  62  98 136 178 214 273 346 409
#     4  11  24  41  66 100 129 183 231 287 348 407
#     4  10  21  39  62  96 133 173 218 269 334 412
#
# _framework density 21.708983
#
# number of rings (size 3 to 8) (size 9 to 14) (size 15 to 20)
#    0.000    1.000    3.750    3.750    0.000    4.000 
#    0.000    0.625    0.000    3.750    0.000    0.000 
#    0.000    0.000    0.000    0.000    0.000    0.000 
#
# Total GULP energy -793154.308446 kJ/mol
# GULP energy per Si atom -12393.036069 kJ/mol
# Density = 2.165957 g / cm^3
# Si number density = 21.708983 Si / 1000 Ang^3
#
#
#
# Elastic Constant Matrix: (Units=GPa)
#
#
# Indices 1 2 3 4 5 6 
#
# 1 111.1395 34.0351 60.5371 0.0000 0.0000 0.0000
# 2 34.0351 89.1063 19.8817 0.0000 0.0000 0.0000
# 3 60.5371 19.8817 123.4680 0.0000 0.0000 0.0000
# 4 0.0000 0.0000 0.0000 91.1509 0.0000 0.0000
# 5 0.0000 0.0000 0.0000 0.0000 42.0966 0.0000
# 6 0.0000 0.0000 0.0000 0.0000 0.0000 37.3953
#
#
#
# Elastic Compliance Matrix: (Units=1/GPa)
#
#
# Indices 1 2 3 4 5 6 
#
# 1 0.013406 -0.003790 -0.005963 0.000000 0.000000 0.000000
# 2 -0.003790 0.012712 -0.000189 0.000000 0.000000 0.000000
# 3 -0.005963 -0.000189 0.011053 0.000000 0.000000 0.000000
# 4 0.000000 0.000000 0.000000 0.010971 0.000000 0.000000
# 5 0.000000 0.000000 0.000000 0.000000 0.023755 0.000000
# 6 0.000000 0.000000 0.000000 0.000000 0.000000 0.026741
#
#
# Mechanical properties :
#
#
# Convention : Reuss Voigt Hill
#
# Bulk Modulus (GPa) = 57.84211 61.40239 59.62225
# Shear Modulus (GPa) = 40.22997 48.07923 44.15460
#
# Velocity S-wave (km/s) = 4.30949 4.71118 4.51481
# Velocity P-wave (km/s) = 7.17387 7.61179 7.39607
#
# Compressibility (1/GPa) = 0.01728844
#
# Stress axis : x y z
#
# Youngs Moduli (GPa) = 74.59136 78.66354 90.47079
#
# Poissons Ratio (x) = 0.29815 0.53947
# Poissons Ratio (y) = 0.28272 0.01707
# Poissons Ratio (z) = 0.44478 0.01484
#
# Static dielectric constant tensor:
#      x y z
#    x 4.004800 0.000000 0.000000 
#    y 0.000000 3.880430 0.000000 
#    z 0.000000 0.000000 4.183290 
# 
# 
# High freq. dielectric constant tensor:
#      x y z
#    x 1.849770 0.000000 0.000000 
#    y 0.000000 1.849390 0.000000 
#    z 0.000000 0.000000 1.851890 
# 
# From -- ./inp_files/22588.got.cif
#   From: 2010.03.12/outbox.cif.g09.slc.cpg/sg56_12_cif.got.tgz:22588.got - 2010.04.16 15:33:40.
