data_PCOD8228119
_publ_section_title
;
Structure prediction by ZEFSAII (Michael W. Deem and Ramdas Pophale) SiO2 
 PCOD8228119
Probable space group: P C C N
;
_chemical_formula_sum "Si O2"
_cell_formula_units_Z 60
_cell_length_a 8.227896
_cell_length_b 17.382607
_cell_length_c 22.506323
_cell_angle_alpha 90.000000
_cell_angle_beta 90.000000
_cell_angle_gamma 90.000000
_cell_volume 3218.905689
_symmetry_space_group_name_H-M "P C C N"
_symmetry_group_IT_number 56
_symmetry_cell_setting 'orthorhombic'
loop_
_space_group_symop_operation_xyz
x,y,z
1/2-x,1/2-y,z
1/2+x,-y,1/2-z
-x,1/2+y,1/2-z
-x,-y,-z
1/2+x,1/2+y,-z
1/2-x,y,1/2+z
x,1/2-y,1/2+z
loop_
_atom_site_type_symbol
_atom_site_label
_atom_site_fract_x
_atom_site_fract_y
_atom_site_fract_z
Si Si1 0.044028 0.922560 0.170320
Si Si2 0.239584 0.001191 0.372637
Si Si3 0.690239 0.336837 0.942445
Si Si4 0.933381 0.375262 0.566698
Si Si5 0.544211 0.374675 0.697984
Si Si6 0.250000 0.750000 0.859129
Si Si7 0.231370 0.432841 0.635190
Si Si8 0.944662 0.459848 0.941895
O O1 0.111983 0.867530 0.118472
O O2 0.057846 0.876856 0.231334
O O3 0.854178 0.939638 0.161604
O O4 0.135307 0.005118 0.175697
O O5 0.099978 0.054652 0.400267
O O6 0.343626 0.957365 0.423835
O O7 0.160566 0.940529 0.327686
O O8 0.750000 0.250000 0.936177
O O9 0.858739 0.379939 0.956273
O O10 0.562784 0.353947 0.996378
O O11 0.831343 0.310459 0.598178
O O12 0.110270 0.377226 0.598093
O O13 0.611934 0.290835 0.680540
O O14 0.357922 0.384002 0.675183
O O15 0.322062 0.480290 0.585815
O O16 0.000000 0.500000 0.000000
#
# Coordination Sequence:
#
# PCOD8228119 Si02
#       8
#     8   8   8   8   8   4   8   8
#     4  10  21  36  60  84 118 150 193 239 294 352
#     4   9  19  35  61  86 109 148 198 251 284 331
#     4  11  23  36  57  85 124 161 186 235 301 362
#     4  10  19  37  57  87 112 143 198 239 293 339
#     4  10  20  38  58  85 117 151 198 238 295 344
#     4  10  22  36  58  80 112 160 188 242 284 348
#     4   9  21  34  60  88 104 147 194 251 285 329
#     4  10  19  34  58  85 114 147 194 241 288 344
#
# _framework density 18.639873999999999
#
# number of rings (size 3 to 8) (size 9 to 14) (size 15 to 20)
#    0.000    2.133    2.000    0.800    2.800    2.133 
#    0.000    2.000    2.933    0.000    0.000    0.000 
#    0.000    0.000    0.000    0.000    0.000    0.000 
#
# Total GULP energy -743798.134157 kJ/mol
# GULP energy per Si atom -12396.635569 kJ/mol
# Density = 1.859745 g / cm^3
# Si number density = 18.639874 Si / 1000 Ang^3
#
#
#
# Elastic Constant Matrix: (Units=GPa)
#
#
# Indices 1 2 3 4 5 6 
#
# 1 109.1611 33.2156 37.6271 0.0000 0.0000 0.0000
# 2 33.2156 70.3401 33.8319 0.0000 0.0000 0.0000
# 3 37.6271 33.8319 112.0932 0.0000 0.0000 0.0000
# 4 0.0000 0.0000 0.0000 16.7032 0.0000 0.0000
# 5 0.0000 0.0000 0.0000 0.0000 11.0822 0.0000
# 6 0.0000 0.0000 0.0000 0.0000 0.0000 26.8164
#
#
#
# Elastic Compliance Matrix: (Units=1/GPa)
#
#
# Indices 1 2 3 4 5 6 
#
# 1 0.011289 -0.004104 -0.002551 0.000000 0.000000 0.000000
# 2 -0.004104 0.018123 -0.004092 0.000000 0.000000 0.000000
# 3 -0.002551 -0.004092 0.011012 0.000000 0.000000 0.000000
# 4 0.000000 0.000000 0.000000 0.059869 0.000000 0.000000
# 5 0.000000 0.000000 0.000000 0.000000 0.090235 0.000000
# 6 0.000000 0.000000 0.000000 0.000000 0.000000 0.037291
#
#
# Mechanical properties :
#
#
# Convention : Reuss Voigt Hill
#
# Bulk Modulus (GPa) = 52.82526 55.66041 54.24283
# Shear Modulus (GPa) = 19.56014 23.38169 21.47091
#
# Velocity S-wave (km/s) = 3.24291 3.54558 3.39762
# Velocity P-wave (km/s) = 6.51333 6.83281 6.67498
#
# Compressibility (1/GPa) = 0.01893034
#
# Stress axis : x y z
#
# Youngs Moduli (GPa) = 88.58407 55.17910 90.80595
#
# Poissons Ratio (x) = 0.22645 0.23162
# Poissons Ratio (y) = 0.36354 0.37160
# Poissons Ratio (z) = 0.22595 0.22581
#
# Static dielectric constant tensor:
#      x y z
#    x 3.664030 0.000000 0.000000 
#    y 0.000000 3.340400 0.000000 
#    z 0.000000 0.000000 3.286360 
# 
# 
# High freq. dielectric constant tensor:
#      x y z
#    x 1.732400 0.000000 0.000000 
#    y 0.000000 1.705610 0.000000 
#    z 0.000000 0.000000 1.725900 
# 
# From -- ./inp_files/20623.got.cif
#   From: 2010.03.12/outbox.cif.g09.slc.cpg/sg56_11_cif.got.tgz:20623.got - 2010.04.16 15:33:40.
