data_PCOD8228555
_publ_section_title
;
Structure prediction by ZEFSAII (Michael W. Deem and Ramdas Pophale) SiO2 
 PCOD8228555
Probable space group: P C C N
;
_chemical_formula_sum "Si O2"
_cell_formula_units_Z 60
_cell_length_a 11.506006
_cell_length_b 20.188501
_cell_length_c 12.526411
_cell_angle_alpha 90.000000
_cell_angle_beta 90.000000
_cell_angle_gamma 90.000000
_cell_volume 2909.747656
_symmetry_space_group_name_H-M "P C C N"
_symmetry_group_IT_number 56
_symmetry_cell_setting 'orthorhombic'
loop_
_space_group_symop_operation_xyz
x,y,z
1/2-x,1/2-y,z
1/2+x,-y,1/2-z
-x,1/2+y,1/2-z
-x,-y,-z
1/2+x,1/2+y,-z
1/2-x,y,1/2+z
x,1/2-y,1/2+z
loop_
_atom_site_type_symbol
_atom_site_label
_atom_site_fract_x
_atom_site_fract_y
_atom_site_fract_z
Si Si1 0.602370 0.021155 0.421953
Si Si2 0.594771 0.154305 0.102050
Si Si3 0.748418 0.935651 0.782742
Si Si4 0.873279 0.601011 0.985060
Si Si5 0.750000 0.250000 0.466253
Si Si6 0.057726 0.665687 0.659715
Si Si7 0.708319 0.677096 0.125849
Si Si8 0.209685 0.518515 0.903671
O O1 0.579308 0.087815 0.356856
O O2 0.714574 0.034926 0.493616
O O3 0.500000 0.000000 0.500000
O O4 0.632201 0.960776 0.340206
O O5 0.689480 0.198318 0.044255
O O6 0.556201 0.185544 0.215055
O O7 0.645287 0.083401 0.134145
O O8 0.489054 0.145296 0.018236
O O9 0.759763 0.864799 0.725130
O O10 0.711608 0.990793 0.694281
O O11 0.644842 0.928912 0.867098
O O12 0.763423 0.647123 0.017190
O O13 0.884096 0.539520 0.067528
O O14 0.845117 0.288429 0.395526
O O15 0.930366 0.678722 0.611747
O O16 0.750000 0.750000 0.148053
#
# Coordination Sequence:
#
# PCOD8228555 Si02
#       8
#     8   8   8   8   4   8   8   8
#     4  11  22  40  67 101 135 172 220 282 340 397
#     4  12  23  45  66  96 135 181 218 273 339 403
#     4  10  20  40  65 100 133 166 228 270 341 397
#     4  10  22  40  68  99 131 169 225 281 333 392
#     4  12  28  46  64 100 138 184 228 270 340 414
#     4  12  24  47  71  93 140 179 226 280 336 414
#     4  11  24  45  68  99 134 179 228 281 336 400
#     4  10  21  38  66  98 132 171 214 275 335 397
#
# _framework density 20.620346000000001
#
# number of rings (size 3 to 8) (size 9 to 14) (size 15 to 20)
#    0.000    1.067    4.000    4.000    0.000    0.533 
#    4.800    2.667    0.000    0.000    0.000    0.000 
#    0.000    0.000    0.000    0.000    0.000    0.000 
#
# Total GULP energy -743808.481619 kJ/mol
# GULP energy per Si atom -12396.808027 kJ/mol
# Density = 2.057341 g / cm^3
# Si number density = 20.620346 Si / 1000 Ang^3
#
#
#
# Elastic Constant Matrix: (Units=GPa)
#
#
# Indices 1 2 3 4 5 6 
#
# 1 124.1050 58.3289 37.5853 0.0000 0.0000 0.0000
# 2 58.3289 121.1670 37.7060 0.0000 0.0000 0.0000
# 3 37.5853 37.7060 88.7027 0.0000 0.0000 0.0000
# 4 0.0000 0.0000 0.0000 21.3185 0.0000 0.0000
# 5 0.0000 0.0000 0.0000 0.0000 33.7541 0.0000
# 6 0.0000 0.0000 0.0000 0.0000 0.0000 34.5458
#
#
#
# Elastic Compliance Matrix: (Units=1/GPa)
#
#
# Indices 1 2 3 4 5 6 
#
# 1 0.010975 -0.004421 -0.002771 0.000000 0.000000 0.000000
# 2 -0.004421 0.011292 -0.002927 0.000000 0.000000 0.000000
# 3 -0.002771 -0.002927 0.013692 0.000000 0.000000 0.000000
# 4 0.000000 0.000000 0.000000 0.046908 0.000000 0.000000
# 5 0.000000 0.000000 0.000000 0.000000 0.029626 0.000000
# 6 0.000000 0.000000 0.000000 0.000000 0.000000 0.028947
#
#
# Mechanical properties :
#
#
# Convention : Reuss Voigt Hill
#
# Bulk Modulus (GPa) = 63.60812 66.80170 65.20491
# Shear Modulus (GPa) = 29.95499 31.28064 30.61782
#
# Velocity S-wave (km/s) = 3.81555 3.89907 3.85754
# Velocity P-wave (km/s) = 7.09405 7.26200 7.17851
#
# Compressibility (1/GPa) = 0.01572126
#
# Stress axis : x y z
#
# Youngs Moduli (GPa) = 91.11901 88.55804 73.03593
#
# Poissons Ratio (x) = 0.39150 0.20238
# Poissons Ratio (y) = 0.40282 0.21377
# Poissons Ratio (z) = 0.25249 0.25920
#
# Static dielectric constant tensor:
#      x y z
#    x 3.716620 0.000000 0.000000 
#    y 0.000000 3.794010 0.000000 
#    z 0.000000 0.000000 3.954060 
# 
# 
# High freq. dielectric constant tensor:
#      x y z
#    x 1.797580 0.000000 0.000000 
#    y 0.000000 1.807620 0.000000 
#    z 0.000000 0.000000 1.819650 
# 
# From -- ./inp_files/7333.got.cif
#   From: 2010.03.12/outbox.cif.g09.slc.cpg/sg56_4_cif.got.tgz:7333.got - 2010.04.16 15:33:40.
