data_PCOD8228450
_publ_section_title
;
Structure prediction by ZEFSAII (Michael W. Deem and Ramdas Pophale) SiO2 
 PCOD8228450
Probable space group: P C C N
;
_chemical_formula_sum "Si O2"
_cell_formula_units_Z 56
_cell_length_a 16.404123
_cell_length_b 11.339336
_cell_length_c 13.930034
_cell_angle_alpha 90.000000
_cell_angle_beta 90.000000
_cell_angle_gamma 90.000000
_cell_volume 2591.151569
_symmetry_space_group_name_H-M "P C C N"
_symmetry_group_IT_number 56
_symmetry_cell_setting 'orthorhombic'
loop_
_space_group_symop_operation_xyz
x,y,z
1/2-x,1/2-y,z
1/2+x,-y,1/2-z
-x,1/2+y,1/2-z
-x,-y,-z
1/2+x,1/2+y,-z
1/2-x,y,1/2+z
x,1/2-y,1/2+z
loop_
_atom_site_type_symbol
_atom_site_label
_atom_site_fract_x
_atom_site_fract_y
_atom_site_fract_z
Si Si1 0.750000 0.750000 0.426803
Si Si2 0.605721 0.598424 0.885999
Si Si3 0.167628 0.927002 0.965407
Si Si4 0.750000 0.250000 0.891991
Si Si5 0.176559 0.056365 0.455387
Si Si6 0.454965 0.757378 0.917058
Si Si7 0.948962 0.500746 0.192065
Si Si8 0.098718 0.619986 0.104059
O O1 0.805558 0.659228 0.364465
O O2 0.810001 0.817572 0.498124
O O3 0.542718 0.704009 0.897892
O O4 0.579053 0.509206 0.801808
O O5 0.608453 0.521567 0.983047
O O6 0.115079 0.841687 0.895974
O O7 0.240523 0.997137 0.911519
O O8 0.213574 0.852979 0.045011
O O9 0.828303 0.309590 0.837559
O O10 0.114367 0.077151 0.369188
O O11 0.136303 0.981169 0.539397
O O12 0.444664 0.865498 0.843074
O O13 0.448515 0.794481 0.028983
O O14 0.037751 0.561220 0.180585
#
# Coordination Sequence:
#
# PCOD8228450 Si02
#       8
#     4   8   8   4   8   8   8   8
#     4  10  20  38  60  80 116 160 190 240 294 350
#     4  11  23  37  56  89 121 148 193 246 296 344
#     4   9  19  37  61  82 109 152 195 234 284 355
#     4   8  16  32  58  82 104 138 192 238 272 330
#     4   9  18  36  59  82 108 151 200 230 282 359
#     4  10  20  38  59  80 113 155 193 236 286 349
#     4  11  22  35  56  87 118 149 193 244 292 346
#     4   9  17  34  58  80 106 152 198 234 282 353
#
# _framework density 21.612012
#
# number of rings (size 3 to 8) (size 9 to 14) (size 15 to 20)
#    0.000    2.286    0.000    4.714    0.000    2.857 
#    0.000   10.000    0.000    3.429    0.000    0.000 
#    0.000    0.000    0.000    0.000    0.000    0.000 
#
# Total GULP energy -693829.496873 kJ/mol
# GULP energy per Si atom -12389.812444 kJ/mol
# Density = 2.156282 g / cm^3
# Si number density = 21.612012 Si / 1000 Ang^3
#
#
#
# Elastic Constant Matrix: (Units=GPa)
#
#
# Indices 1 2 3 4 5 6 
#
# 1 130.0481 47.0591 40.8775 0.0000 0.0000 0.0000
# 2 47.0591 88.5926 33.8430 0.0000 0.0000 0.0000
# 3 40.8775 33.8430 34.8477 0.0000 0.0000 0.0000
# 4 0.0000 0.0000 0.0000 14.1961 0.0000 0.0000
# 5 0.0000 0.0000 0.0000 0.0000 11.0580 0.0000
# 6 0.0000 0.0000 0.0000 0.0000 0.0000 46.7642
#
#
#
# Elastic Compliance Matrix: (Units=1/GPa)
#
#
# Indices 1 2 3 4 5 6 
#
# 1 0.012327 -0.001628 -0.012878 0.000000 0.000000 0.000000
# 2 -0.001628 0.018160 -0.015727 0.000000 0.000000 0.000000
# 3 -0.012878 -0.015727 0.059076 0.000000 0.000000 0.000000
# 4 0.000000 0.000000 0.000000 0.070442 0.000000 0.000000
# 5 0.000000 0.000000 0.000000 0.000000 0.090433 0.000000
# 6 0.000000 0.000000 0.000000 0.000000 0.000000 0.021384
#
#
# Mechanical properties :
#
#
# Convention : Reuss Voigt Hill
#
# Bulk Modulus (GPa) = 34.36818 55.22751 44.79785
# Shear Modulus (GPa) = 14.62043 23.18424 18.90234
#
# Velocity S-wave (km/s) = 2.60377 3.27884 2.96061
# Velocity P-wave (km/s) = 4.99764 6.32012 5.69738
#
# Compressibility (1/GPa) = 0.02909668
#
# Stress axis : x y z
#
# Youngs Moduli (GPa) = 81.12549 55.06542 16.92724
#
# Poissons Ratio (x) = 0.08965 0.21799
# Poissons Ratio (y) = 0.13208 0.26621
# Poissons Ratio (z) = 1.04476 0.86601
#
# Static dielectric constant tensor:
#      x y z
#    x 4.465580 0.000000 0.000000 
#    y 0.000000 4.158650 0.000000 
#    z 0.000000 0.000000 3.318620 
# 
# 
# High freq. dielectric constant tensor:
#      x y z
#    x 1.872770 0.000000 0.000000 
#    y 0.000000 1.864030 0.000000 
#    z 0.000000 0.000000 1.782350 
# 
# From -- ./inp_files/12311.got.cif
#   From: 2010.03.12/outbox.cif.g09.slc.cpg/sg56_7_cif.got.tgz:12311.got - 2010.04.16 15:33:40.
