data_PCOD8228889
_publ_section_title
;
Structure prediction by ZEFSAII (Michael W. Deem and Ramdas Pophale) SiO2 
 PCOD8228889
Probable space group: P C C N
;
_chemical_formula_sum "Si O2"
_cell_formula_units_Z 48
_cell_length_a 9.321113
_cell_length_b 17.640883
_cell_length_c 13.916988
_cell_angle_alpha 90.000000
_cell_angle_beta 90.000000
_cell_angle_gamma 90.000000
_cell_volume 2288.407410
_symmetry_space_group_name_H-M "P C C N"
_symmetry_group_IT_number 56
_symmetry_cell_setting 'orthorhombic'
loop_
_space_group_symop_operation_xyz
x,y,z
1/2-x,1/2-y,z
1/2+x,-y,1/2-z
-x,1/2+y,1/2-z
-x,-y,-z
1/2+x,1/2+y,-z
1/2-x,y,1/2+z
x,1/2-y,1/2+z
loop_
_atom_site_type_symbol
_atom_site_label
_atom_site_fract_x
_atom_site_fract_y
_atom_site_fract_z
Si Si1 0.313636 0.599649 0.694253
Si Si2 0.630451 0.686248 0.404794
Si Si3 0.777861 0.970046 0.947122
Si Si4 0.913715 0.272167 0.935424
Si Si5 0.499938 0.851518 0.703562
Si Si6 0.415157 0.512904 0.871636
O O1 0.292442 0.527553 0.626688
O O2 0.415702 0.658396 0.639546
O O3 0.166784 0.638276 0.728217
O O4 0.389506 0.574967 0.791107
O O5 0.750000 0.750000 0.416604
O O6 0.689998 0.607249 0.445532
O O7 0.489576 0.706354 0.465538
O O8 0.585668 0.681402 0.293751
O O9 0.781130 0.007811 0.053787
O O10 0.943748 0.954807 0.922940
O O11 0.750000 0.250000 0.960078
O O12 0.006924 0.205226 0.887022
O O13 0.569544 0.930407 0.674059
#
# Coordination Sequence:
#
# PCOD8228889 Si02
#       6
#     8   8   8   8   8   8
#     4  10  22  42  69  96 126 175 224 271 328 390
#     4  12  26  42  67 100 134 174 221 273 341 396
#     4  10  23  40  64 101 128 175 215 271 339 391
#     4  10  25  46  65  95 134 177 224 274 329 399
#     4  10  23  44  63  96 131 173 222 266 331 401
#     4  10  21  42  67  91 140 167 216 274 331 396
#
# _framework density 20.975285
#
# number of rings (size 3 to 8) (size 9 to 14) (size 15 to 20)
#    0.000    1.667    1.667    1.000    4.667    8.667 
#    0.000    0.000    0.000    0.000    0.000    0.000 
#    0.000    0.000    0.000    0.000    0.000    0.000 
#
# Total GULP energy -595317.168260 kJ/mol
# GULP energy per Si atom -12402.441005 kJ/mol
# Density = 2.092754 g / cm^3
# Si number density = 20.975285 Si / 1000 Ang^3
#
#
#
# Elastic Constant Matrix: (Units=GPa)
#
#
# Indices 1 2 3 4 5 6 
#
# 1 65.2538 26.8394 39.6062 0.0000 0.0000 0.0000
# 2 26.8394 70.8460 13.6097 0.0000 0.0000 0.0000
# 3 39.6062 13.6097 101.7107 0.0000 0.0000 0.0000
# 4 0.0000 0.0000 0.0000 6.9542 0.0000 0.0000
# 5 0.0000 0.0000 0.0000 0.0000 34.9908 0.0000
# 6 0.0000 0.0000 0.0000 0.0000 0.0000 30.5481
#
#
#
# Elastic Compliance Matrix: (Units=1/GPa)
#
#
# Indices 1 2 3 4 5 6 
#
# 1 0.023197 -0.007239 -0.008064 0.000000 0.000000 0.000000
# 2 -0.007239 0.016746 0.000578 0.000000 0.000000 0.000000
# 3 -0.008064 0.000578 0.012895 0.000000 0.000000 0.000000
# 4 0.000000 0.000000 0.000000 0.143798 0.000000 0.000000
# 5 0.000000 0.000000 0.000000 0.000000 0.028579 0.000000
# 6 0.000000 0.000000 0.000000 0.000000 0.000000 0.032735
#
#
# Mechanical properties :
#
#
# Convention : Reuss Voigt Hill
#
# Bulk Modulus (GPa) = 42.75721 44.21346 43.48533
# Shear Modulus (GPa) = 16.93789 25.01564 20.97677
#
# Velocity S-wave (km/s) = 2.84477 3.45719 3.16582
# Velocity P-wave (km/s) = 5.58740 6.08776 5.84294
#
# Compressibility (1/GPa) = 0.02338787
#
# Stress axis : x y z
#
# Youngs Moduli (GPa) = 43.10951 59.71419 77.55139
#
# Poissons Ratio (x) = 0.43226 0.62539
# Poissons Ratio (y) = 0.31206 -0.04482
# Poissons Ratio (z) = 0.34764 -0.03451
#
# Static dielectric constant tensor:
#      x y z
#    x 3.692460 0.000000 0.000000 
#    y 0.000000 3.953820 0.000000 
#    z 0.000000 0.000000 3.856520 
# 
# 
# High freq. dielectric constant tensor:
#      x y z
#    x 1.811620 0.000000 0.000000 
#    y 0.000000 1.833650 0.000000 
#    z 0.000000 0.000000 1.832200 
# 
# From -- ./inp_files/10668.got.cif
#   From: 2010.03.12/outbox.cif.g09.slc.cpg/sg56_6_cif.got.tgz:10668.got - 2010.04.16 15:33:40.
