data_PCOD8228206
_publ_section_title
;
Structure prediction by ZEFSAII (Michael W. Deem and Ramdas Pophale) SiO2 
 PCOD8228206
Probable space group: P C C N
;
_chemical_formula_sum "Si O2"
_cell_formula_units_Z 60
_cell_length_a 26.270937
_cell_length_b 11.652954
_cell_length_c 9.233836
_cell_angle_alpha 90.000000
_cell_angle_beta 90.000000
_cell_angle_gamma 90.000000
_cell_volume 2826.791338
_symmetry_space_group_name_H-M "P C C N"
_symmetry_group_IT_number 56
_symmetry_cell_setting 'orthorhombic'
loop_
_space_group_symop_operation_xyz
x,y,z
1/2-x,1/2-y,z
1/2+x,-y,1/2-z
-x,1/2+y,1/2-z
-x,-y,-z
1/2+x,1/2+y,-z
1/2-x,y,1/2+z
x,1/2-y,1/2+z
loop_
_atom_site_type_symbol
_atom_site_label
_atom_site_fract_x
_atom_site_fract_y
_atom_site_fract_z
Si Si1 0.842051 0.888012 0.983223
Si Si2 0.322895 0.440749 0.329922
Si Si3 0.694865 0.305672 0.728816
Si Si4 0.250000 0.250000 0.919321
Si Si5 0.590413 0.818793 0.032501
Si Si6 0.472422 0.881464 0.523637
Si Si7 0.645959 0.367239 0.026175
Si Si8 0.975278 0.737616 0.779157
O O1 0.791250 0.812179 0.981074
O O2 0.889166 0.812953 0.040225
O O3 0.835629 0.005093 0.076520
O O4 0.853322 0.928622 0.819996
O O5 0.303751 0.570752 0.352621
O O6 0.276429 0.349953 0.324748
O O7 0.363499 0.409888 0.456219
O O8 0.750000 0.250000 0.714162
O O9 0.652910 0.222033 0.656877
O O10 0.680571 0.320289 0.895637
O O11 0.552956 0.827395 0.170960
O O12 0.564123 0.838667 0.876203
O O13 0.411881 0.884189 0.522781
O O14 0.488789 0.841989 0.683272
O O15 0.489435 0.800251 0.394051
O O16 0.500000 0.000000 0.500000
#
# Coordination Sequence:
#
# PCOD8228206 Si02
#       8
#     8   8   8   4   8   8   8   8
#     4  10  20  37  63  85 129 161 203 260 331 379
#     4  10  21  37  60  91 130 161 214 261 331 381
#     4  11  24  42  64  90 129 174 221 269 319 387
#     4  10  20  34  60 100 120 160 206 264 318 398
#     4  10  19  38  63  95 124 167 205 272 331 394
#     4  11  24  43  68  96 134 178 220 279 340 403
#     4  11  23  43  64  89 129 171 219 261 325 388
#     4  10  21  40  64  95 129 163 224 261 333 391
#
# _framework density 21.225477999999999
#
# number of rings (size 3 to 8) (size 9 to 14) (size 15 to 20)
#    0.000    1.600    1.333    4.000    1.867    1.067 
#    7.200    1.333    0.000    0.000    0.000    0.000 
#    0.000    0.000    0.000    0.000    0.000    0.000 
#
# Total GULP energy -743807.652839 kJ/mol
# GULP energy per Si atom -12396.794214 kJ/mol
# Density = 2.117717 g / cm^3
# Si number density = 21.225478 Si / 1000 Ang^3
#
#
#
# Elastic Constant Matrix: (Units=GPa)
#
#
# Indices 1 2 3 4 5 6 
#
# 1 96.0068 37.8401 17.5878 0.0000 0.0000 0.0000
# 2 37.8401 138.7587 29.9750 0.0000 0.0000 0.0000
# 3 17.5878 29.9750 86.3880 0.0000 0.0000 0.0000
# 4 0.0000 0.0000 0.0000 26.0501 0.0000 0.0000
# 5 0.0000 0.0000 0.0000 0.0000 29.3150 0.0000
# 6 0.0000 0.0000 0.0000 0.0000 0.0000 30.2702
#
#
#
# Elastic Compliance Matrix: (Units=1/GPa)
#
#
# Indices 1 2 3 4 5 6 
#
# 1 0.011823 -0.002923 -0.001393 0.000000 0.000000 0.000000
# 2 -0.002923 0.008514 -0.002359 0.000000 0.000000 0.000000
# 3 -0.001393 -0.002359 0.012678 0.000000 0.000000 0.000000
# 4 0.000000 0.000000 0.000000 0.038388 0.000000 0.000000
# 5 0.000000 0.000000 0.000000 0.000000 0.034112 0.000000
# 6 0.000000 0.000000 0.000000 0.000000 0.000000 0.033036
#
#
# Mechanical properties :
#
#
# Convention : Reuss Voigt Hill
#
# Bulk Modulus (GPa) = 50.85295 54.66212 52.75753
# Shear Modulus (GPa) = 31.55471 32.84378 32.19924
#
# Velocity S-wave (km/s) = 3.85988 3.93794 3.89911
# Velocity P-wave (km/s) = 6.62385 6.81802 6.72164
#
# Compressibility (1/GPa) = 0.01966454
#
# Stress axis : x y z
#
# Youngs Moduli (GPa) = 84.57873 117.45988 78.87854
#
# Poissons Ratio (x) = 0.34338 0.10986
# Poissons Ratio (y) = 0.24726 0.18606
# Poissons Ratio (z) = 0.11780 0.27707
#
# Static dielectric constant tensor:
#      x y z
#    x 3.880750 0.000000 0.000000 
#    y 0.000000 3.943800 0.000000 
#    z 0.000000 0.000000 3.646170 
# 
# 
# High freq. dielectric constant tensor:
#      x y z
#    x 1.841060 0.000000 0.000000 
#    y 0.000000 1.829340 0.000000 
#    z 0.000000 0.000000 1.825330 
# 
# From -- ./inp_files/2913.got.cif
#   From: 2010.03.12/outbox.cif.g09.slc.cpg/sg56_2_cif.got.tgz:2913.got - 2010.04.16 15:33:40.
