data_PCOD8228481
_publ_section_title
;
Structure prediction by ZEFSAII (Michael W. Deem and Ramdas Pophale) SiO2 
 PCOD8228481
Probable space group: P C C N
;
_chemical_formula_sum "Si O2"
_cell_formula_units_Z 48
_cell_length_a 18.886538
_cell_length_b 7.962608
_cell_length_c 13.904882
_cell_angle_alpha 90.000000
_cell_angle_beta 90.000000
_cell_angle_gamma 90.000000
_cell_volume 2091.100955
_symmetry_space_group_name_H-M "P C C N"
_symmetry_group_IT_number 56
_symmetry_cell_setting 'orthorhombic'
loop_
_space_group_symop_operation_xyz
x,y,z
1/2-x,1/2-y,z
1/2+x,-y,1/2-z
-x,1/2+y,1/2-z
-x,-y,-z
1/2+x,1/2+y,-z
1/2-x,y,1/2+z
x,1/2-y,1/2+z
loop_
_atom_site_type_symbol
_atom_site_label
_atom_site_fract_x
_atom_site_fract_y
_atom_site_fract_z
Si Si1 0.541878 0.750935 0.487080
Si Si2 0.283096 0.932831 0.124036
Si Si3 0.421240 0.077900 0.187453
Si Si4 0.345035 0.069163 0.728782
Si Si5 0.527783 0.429223 0.857854
Si Si6 0.685836 0.869470 0.061057
O O1 0.531554 0.595490 0.412051
O O2 0.491809 0.756390 0.583488
O O3 0.623678 0.748035 0.519790
O O4 0.524200 0.919816 0.431726
O O5 0.250000 0.750000 0.130978
O O6 0.360057 0.938207 0.175334
O O7 0.231101 0.063262 0.177731
O O8 0.290777 0.987524 0.013492
O O9 0.382945 0.255929 0.204898
O O10 0.470670 0.028416 0.275293
O O11 0.338249 0.037545 0.842186
O O12 0.394376 0.916834 0.688553
O O13 0.750000 0.750000 0.088859
#
# Coordination Sequence:
#
# PCOD8228481 Si02
#       6
#     8   8   8   8   8   8
#     4   9  20  37  63  99 130 169 218 274 331 387
#     4  11  25  43  62  99 139 173 219 286 342 399
#     4  10  20  41  70  97 130 179 228 269 332 413
#     4  11  23  41  69  98 128 175 231 272 333 406
#     4  10  20  38  63 101 132 164 222 278 334 390
#     4  11  21  42  73  98 129 178 231 274 331 413
#
# _framework density 22.954415000000001
#
# number of rings (size 3 to 8) (size 9 to 14) (size 15 to 20)
#    0.000    1.667    1.667    4.500    0.000    3.333 
#    3.000    1.667    0.000    0.000    0.000    0.000 
#    0.000    0.000    0.000    0.000    0.000    0.000 
#
# Total GULP energy -594932.696502 kJ/mol
# GULP energy per Si atom -12394.431177 kJ/mol
# Density = 2.290217 g / cm^3
# Si number density = 22.954415 Si / 1000 Ang^3
#
#
#
# Elastic Constant Matrix: (Units=GPa)
#
#
# Indices 1 2 3 4 5 6 
#
# 1 102.2927 27.5323 69.2661 0.0000 0.0000 0.0000
# 2 27.5323 64.4788 28.3649 0.0000 0.0000 0.0000
# 3 69.2661 28.3649 174.5643 0.0000 0.0000 0.0000
# 4 0.0000 0.0000 0.0000 -2.6441 0.0000 0.0000
# 5 0.0000 0.0000 0.0000 0.0000 42.3874 0.0000
# 6 0.0000 0.0000 0.0000 0.0000 0.0000 33.0214
#
#
#
# Elastic Compliance Matrix: (Units=1/GPa)
#
#
# Indices 1 2 3 4 5 6 
#
# 1 0.014208 -0.003863 -0.005010 0.000000 0.000000 0.000000
# 2 -0.003863 0.017753 -0.001352 0.000000 0.000000 0.000000
# 3 -0.005010 -0.001352 0.007936 0.000000 0.000000 0.000000
# 4 0.000000 0.000000 0.000000 -0.378204 0.000000 0.000000
# 5 0.000000 0.000000 0.000000 0.000000 0.023592 0.000000
# 6 0.000000 0.000000 0.000000 0.000000 0.000000 0.030283
#
#
# Mechanical properties :
#
#
# Convention : Reuss Voigt Hill
#
# Bulk Modulus (GPa) = 51.41981 65.74025 58.58003
# Shear Modulus (GPa) = -19.41753 28.96444 4.77345
#
# Velocity S-wave (km/s) = -2.91162 3.55607 1.44362
# Velocity P-wave (km/s) = 3.33858 6.75000 5.32488
#
# Compressibility (1/GPa) = 0.01944776
#
# Stress axis : x y z
#
# Youngs Moduli (GPa) = 70.38287 56.32805 126.00558
#
# Poissons Ratio (x) = 0.21759 0.63129
# Poissons Ratio (y) = 0.27188 0.17035
# Poissons Ratio (z) = 0.35262 0.07615
#
# Static dielectric constant tensor:
#      x y z
#    x 4.456430 0.000000 0.000000 
#    y 0.000000 3.761270 0.000000 
#    z 0.000000 0.000000 4.712170 
# 
# 
# High freq. dielectric constant tensor:
#      x y z
#    x 1.914140 0.000000 0.000000 
#    y 0.000000 1.881440 0.000000 
#    z 0.000000 0.000000 1.929260 
# 
# From -- ./inp_files/12687.got.cif
#   From: 2010.03.12/outbox.cif.g09.slc.cpg/sg56_7_cif.got.tgz:12687.got - 2010.04.16 15:33:40.
