data_PCOD8228182
_publ_section_title
;
Structure prediction by ZEFSAII (Michael W. Deem and Ramdas Pophale) SiO2 
 PCOD8228182
Probable space group: P C C N
;
_chemical_formula_sum "Si O2"
_cell_formula_units_Z 48
_cell_length_a 16.917169
_cell_length_b 5.137137
_cell_length_c 27.717914
_cell_angle_alpha 90.000000
_cell_angle_beta 90.000000
_cell_angle_gamma 90.000000
_cell_volume 2408.847901
_symmetry_space_group_name_H-M "P C C N"
_symmetry_group_IT_number 56
_symmetry_cell_setting 'orthorhombic'
loop_
_space_group_symop_operation_xyz
x,y,z
1/2-x,1/2-y,z
1/2+x,-y,1/2-z
-x,1/2+y,1/2-z
-x,-y,-z
1/2+x,1/2+y,-z
1/2-x,y,1/2+z
x,1/2-y,1/2+z
loop_
_atom_site_type_symbol
_atom_site_label
_atom_site_fract_x
_atom_site_fract_y
_atom_site_fract_z
Si Si1 0.340053 0.254650 0.460531
Si Si2 0.460063 0.790487 0.307940
Si Si3 0.098423 0.745543 0.410384
Si Si4 0.083037 0.252510 0.561972
Si Si5 0.936946 0.290570 0.798911
Si Si6 0.157570 0.747269 0.110675
O O1 0.250000 0.250000 0.479442
O O2 0.353148 0.508718 0.428645
O O3 0.399473 0.252081 0.505361
O O4 0.355935 0.009194 0.426982
O O5 0.400557 0.749187 0.352152
O O6 0.412656 0.764954 0.257347
O O7 0.528749 0.575292 0.310025
O O8 0.498046 0.075487 0.312785
O O9 0.010375 0.750470 0.431317
O O10 0.118575 0.508357 0.585370
O O11 0.121236 0.005972 0.586989
O O12 0.859955 0.249576 0.832012
O O13 0.250000 0.750000 0.101709
#
# Coordination Sequence:
#
# PCOD8228182 Si02
#       6
#     8   8   8   8   8   8
#     4  12  26  42  60  89 128 164 201 253 315 360
#     4  10  20  36  65  86 119 153 205 250 292 353
#     4  12  22  42  67  91 118 162 213 257 288 366
#     4  12  24  42  63  92 118 165 212 253 301 365
#     4  10  19  37  58  92 119 156 196 248 304 362
#     4  12  22  37  61  92 131 160 197 259 317 360
#
# _framework density 19.926538000000001
#
# number of rings (size 3 to 8) (size 9 to 14) (size 15 to 20)
#    0.000    0.667    3.333    6.000    0.000    0.000 
#    0.000    1.667    0.000    0.000    0.000    0.000 
#    0.000    0.000    0.000    0.000    0.000    0.000 
#
# Total GULP energy -595423.134588 kJ/mol
# GULP energy per Si atom -12404.648637 kJ/mol
# Density = 1.988118 g / cm^3
# Si number density = 19.926538 Si / 1000 Ang^3
#
#
#
# Elastic Constant Matrix: (Units=GPa)
#
#
# Indices 1 2 3 4 5 6 
#
# 1 72.6137 24.0094 7.1451 0.0000 0.0000 0.0000
# 2 24.0094 141.6504 33.1357 0.0000 0.0000 0.0000
# 3 7.1451 33.1357 142.3799 0.0000 0.0000 0.0000
# 4 0.0000 0.0000 0.0000 37.3494 0.0000 0.0000
# 5 0.0000 0.0000 0.0000 0.0000 15.2022 0.0000
# 6 0.0000 0.0000 0.0000 0.0000 0.0000 31.8061
#
#
#
# Elastic Compliance Matrix: (Units=1/GPa)
#
#
# Indices 1 2 3 4 5 6 
#
# 1 0.014593 -0.002435 -0.000166 0.000000 0.000000 0.000000
# 2 -0.002435 0.007872 -0.001710 0.000000 0.000000 0.000000
# 3 -0.000166 -0.001710 0.007430 0.000000 0.000000 0.000000
# 4 0.000000 0.000000 0.000000 0.026774 0.000000 0.000000
# 5 0.000000 0.000000 0.000000 0.000000 0.065780 0.000000
# 6 0.000000 0.000000 0.000000 0.000000 0.000000 0.031441
#
#
# Mechanical properties :
#
#
# Convention : Reuss Voigt Hill
#
# Bulk Modulus (GPa) = 47.00519 53.91380 50.45949
# Shear Modulus (GPa) = 29.48088 36.36180 32.92134
#
# Velocity S-wave (km/s) = 3.85057 4.27639 4.06906
# Velocity P-wave (km/s) = 6.58860 7.17624 6.88869
#
# Compressibility (1/GPa) = 0.02127425
#
# Stress axis : x y z
#
# Youngs Moduli (GPa) = 68.52680 127.02766 134.59449
#
# Poissons Ratio (x) = 0.30927 0.02230
# Poissons Ratio (y) = 0.16684 0.23015
# Poissons Ratio (z) = 0.01135 0.21721
#
# Static dielectric constant tensor:
#      x y z
#    x 3.513050 0.000000 0.000000 
#    y 0.000000 3.899400 0.000000 
#    z 0.000000 0.000000 4.037230 
# 
# 
# High freq. dielectric constant tensor:
#      x y z
#    x 1.750110 0.000000 0.000000 
#    y 0.000000 1.805980 0.000000 
#    z 0.000000 0.000000 1.796090 
# 
# From -- ./inp_files/21681.got.cif
#   From: 2010.03.12/outbox.cif.g09.slc.cpg/sg56_11_cif.got.tgz:21681.got - 2010.04.16 15:33:40.
