data_PCOD8228640
_publ_section_title
;
Structure prediction by ZEFSAII (Michael W. Deem and Ramdas Pophale) SiO2 
 PCOD8228640
Probable space group: P C C N
;
_chemical_formula_sum "Si O2"
_cell_formula_units_Z 60
_cell_length_a 11.855538
_cell_length_b 15.018999
_cell_length_c 18.092432
_cell_angle_alpha 90.000000
_cell_angle_beta 90.000000
_cell_angle_gamma 90.000000
_cell_volume 3221.507927
_symmetry_space_group_name_H-M "P C C N"
_symmetry_group_IT_number 56
_symmetry_cell_setting 'orthorhombic'
loop_
_space_group_symop_operation_xyz
x,y,z
1/2-x,1/2-y,z
1/2+x,-y,1/2-z
-x,1/2+y,1/2-z
-x,-y,-z
1/2+x,1/2+y,-z
1/2-x,y,1/2+z
x,1/2-y,1/2+z
loop_
_atom_site_type_symbol
_atom_site_label
_atom_site_fract_x
_atom_site_fract_y
_atom_site_fract_z
Si Si1 0.179067 0.460092 0.624026
Si Si2 0.373942 0.219754 0.694211
Si Si3 0.035545 0.291645 0.849717
Si Si4 0.698551 0.935787 0.539032
Si Si5 0.918606 0.589877 0.820651
Si Si6 0.450993 0.469806 0.421639
Si Si7 0.508490 0.906540 0.655013
Si Si8 0.750000 0.750000 0.564332
O O1 0.125941 0.362834 0.638228
O O2 0.176494 0.486327 0.537458
O O3 0.305315 0.462414 0.655751
O O4 0.105015 0.536439 0.662627
O O5 0.250000 0.250000 0.722731
O O6 0.454750 0.190444 0.762071
O O7 0.421888 0.307109 0.652080
O O8 0.986748 0.377614 0.894191
O O9 0.973881 0.196321 0.864472
O O10 0.160201 0.286664 0.879412
O O11 0.815538 0.966906 0.575601
O O12 0.594050 0.948976 0.594825
O O13 0.707827 0.831662 0.514276
O O14 0.925906 0.589785 0.732304
O O15 0.023871 0.543620 0.859851
O O16 0.500000 0.500000 0.500000
#
# Coordination Sequence:
#
# PCOD8228640 Si02
#       8
#     8   8   8   8   8   8   8   4
#     4  11  21  35  57  83 115 142 186 239 283 341
#     4   9  18  31  56  84 111 138 188 247 289 326
#     4   9  17  33  54  79 110 145 187 228 282 339
#     4  10  21  34  56  81 113 143 185 230 289 334
#     4  10  22  35  56  86 113 146 192 233 286 338
#     4  11  21  36  56  84 117 151 187 237 288 342
#     4  10  22  37  57  83 111 152 189 232 285 340
#     4   8  16  28  52  78 104 136 176 234 286 318
#
# _framework density 18.624817
#
# number of rings (size 3 to 8) (size 9 to 14) (size 15 to 20)
#    0.000    2.133    2.000    1.200   10.267    1.067 
#    0.000    0.667    0.000    2.400    0.000    0.000 
#    0.000    0.000    0.000    0.000    0.000    0.000 
#
# Total GULP energy -743439.779500 kJ/mol
# GULP energy per Si atom -12390.662992 kJ/mol
# Density = 1.858243 g / cm^3
# Si number density = 18.624817 Si / 1000 Ang^3
#
#
#
# Elastic Constant Matrix: (Units=GPa)
#
#
# Indices 1 2 3 4 5 6 
#
# 1 54.4865 39.8698 21.5201 0.0000 0.0000 0.0000
# 2 39.8698 112.2750 40.4052 0.0000 0.0000 0.0000
# 3 21.5201 40.4052 81.4922 0.0000 0.0000 0.0000
# 4 0.0000 0.0000 0.0000 29.5690 0.0000 0.0000
# 5 0.0000 0.0000 0.0000 0.0000 24.9551 0.0000
# 6 0.0000 0.0000 0.0000 0.0000 0.0000 29.9551
#
#
#
# Elastic Compliance Matrix: (Units=1/GPa)
#
#
# Indices 1 2 3 4 5 6 
#
# 1 0.025278 -0.008002 -0.002708 0.000000 0.000000 0.000000
# 2 -0.008002 0.013374 -0.004518 0.000000 0.000000 0.000000
# 3 -0.002708 -0.004518 0.015226 0.000000 0.000000 0.000000
# 4 0.000000 0.000000 0.000000 0.033819 0.000000 0.000000
# 5 0.000000 0.000000 0.000000 0.000000 0.040072 0.000000
# 6 0.000000 0.000000 0.000000 0.000000 0.000000 0.033383
#
#
# Mechanical properties :
#
#
# Convention : Reuss Voigt Hill
#
# Bulk Modulus (GPa) = 42.69325 50.20488 46.44907
# Shear Modulus (GPa) = 25.07322 26.65976 25.86649
#
# Velocity S-wave (km/s) = 3.67308 3.78750 3.73073
# Velocity P-wave (km/s) = 6.40009 6.79274 6.59934
#
# Compressibility (1/GPa) = 0.02342291
#
# Stress axis : x y z
#
# Youngs Moduli (GPa) = 39.56018 74.77089 65.67589
#
# Poissons Ratio (x) = 0.59831 0.17784
# Poissons Ratio (y) = 0.31656 0.29673
# Poissons Ratio (z) = 0.10712 0.33782
#
# Static dielectric constant tensor:
#      x y z
#    x 3.159270 0.000000 0.000000 
#    y 0.000000 4.066820 0.000000 
#    z 0.000000 0.000000 3.393300 
# 
# 
# High freq. dielectric constant tensor:
#      x y z
#    x 1.689070 0.000000 0.000000 
#    y 0.000000 1.724740 0.000000 
#    z 0.000000 0.000000 1.726620 
# 
# From -- ./inp_files/15790.got.cif
#   From: 2010.03.12/outbox.cif.g09.slc.cpg/sg56_8_cif.got.tgz:15790.got - 2010.04.16 15:33:40.
