data_PCOD8228326
_publ_section_title
;
Structure prediction by ZEFSAII (Michael W. Deem and Ramdas Pophale) SiO2 
 PCOD8228326
Probable space group: P C C N
;
_chemical_formula_sum "Si O2"
_cell_formula_units_Z 48
_cell_length_a 29.875582
_cell_length_b 15.666313
_cell_length_c 4.915237
_cell_angle_alpha 90.000000
_cell_angle_beta 90.000000
_cell_angle_gamma 90.000000
_cell_volume 2300.528600
_symmetry_space_group_name_H-M "P C C N"
_symmetry_group_IT_number 56
_symmetry_cell_setting 'orthorhombic'
loop_
_space_group_symop_operation_xyz
x,y,z
1/2-x,1/2-y,z
1/2+x,-y,1/2-z
-x,1/2+y,1/2-z
-x,-y,-z
1/2+x,1/2+y,-z
1/2-x,y,1/2+z
x,1/2-y,1/2+z
loop_
_atom_site_type_symbol
_atom_site_label
_atom_site_fract_x
_atom_site_fract_y
_atom_site_fract_z
Si Si1 0.777772 0.980790 0.457126
Si Si2 0.601496 0.919865 0.203393
Si Si3 0.127793 0.978433 0.774673
Si Si4 0.521491 0.693196 0.855927
Si Si5 0.318067 0.193385 0.920115
Si Si6 0.079931 0.693121 0.293904
O O1 0.762429 0.009140 0.757194
O O2 0.783703 0.878533 0.478623
O O3 0.823184 0.025715 0.361233
O O4 0.553529 0.886378 0.297837
O O5 0.627642 0.961589 0.458989
O O6 0.631528 0.844350 0.073383
O O7 0.593974 0.987838 0.960193
O O8 0.113154 0.884040 0.861387
O O9 0.530697 0.773494 0.659083
O O10 0.470911 0.659542 0.824614
O O11 0.310849 0.274967 0.112702
O O12 0.089069 0.772498 0.492569
#
# Coordination Sequence:
#
# PCOD8228326 Si02
#       6
#     8   8   8   8   8   8
#     4  11  23  39  57  80 111 148 188 234 288 336
#     4  11  21  35  56  85 120 156 193 231 274 328
#     4  11  23  39  60  85 113 149 191 238 293 347
#     4  10  20  35  56  84 120 159 194 229 272 325
#     4  11  21  34  53  79 113 153 192 226 262 313
#     4  10  22  40  62  86 113 148 188 235 293 350
#
# _framework density 20.86477
#
# number of rings (size 3 to 8) (size 9 to 14) (size 15 to 20)
#    0.000    1.333    0.000    8.000    0.000    3.333 
#    0.000    0.000    0.000    3.000    0.000    0.000 
#    0.000    0.000    0.000    0.000    0.000    0.000 
#
# Total GULP energy -595263.006871 kJ/mol
# GULP energy per Si atom -12401.312643 kJ/mol
# Density = 2.081728 g / cm^3
# Si number density = 20.864770 Si / 1000 Ang^3
#
#
#
# Elastic Constant Matrix: (Units=GPa)
#
#
# Indices 1 2 3 4 5 6 
#
# 1 88.2072 40.4186 19.1988 0.0000 0.0000 0.0000
# 2 40.4186 51.5399 9.4816 0.0000 0.0000 0.0000
# 3 19.1988 9.4816 92.5369 0.0000 0.0000 0.0000
# 4 0.0000 0.0000 0.0000 18.7718 0.0000 0.0000
# 5 0.0000 0.0000 0.0000 0.0000 29.4569 0.0000
# 6 0.0000 0.0000 0.0000 0.0000 0.0000 26.0661
#
#
#
# Elastic Compliance Matrix: (Units=1/GPa)
#
#
# Indices 1 2 3 4 5 6 
#
# 1 0.018186 -0.013829 -0.002356 0.000000 0.000000 0.000000
# 2 -0.013829 0.030290 -0.000235 0.000000 0.000000 0.000000
# 3 -0.002356 -0.000235 0.011319 0.000000 0.000000 0.000000
# 4 0.000000 0.000000 0.000000 0.053271 0.000000 0.000000
# 5 0.000000 0.000000 0.000000 0.000000 0.033948 0.000000
# 6 0.000000 0.000000 0.000000 0.000000 0.000000 0.038364
#
#
# Mechanical properties :
#
#
# Convention : Reuss Voigt Hill
#
# Bulk Modulus (GPa) = 37.09590 41.16464 39.13027
# Shear Modulus (GPa) = 22.00664 25.73796 23.87230
#
# Velocity S-wave (km/s) = 3.25118 3.51602 3.38619
# Velocity P-wave (km/s) = 5.64901 6.02123 5.83809
#
# Compressibility (1/GPa) = 0.02695716
#
# Stress axis : x y z
#
# Youngs Moduli (GPa) = 54.98608 33.01385 88.34397
#
# Poissons Ratio (x) = 0.45654 0.20816
# Poissons Ratio (y) = 0.76038 0.02072
# Poissons Ratio (z) = 0.12956 0.00774
#
# Static dielectric constant tensor:
#      x y z
#    x 3.665360 0.000000 0.000000 
#    y 0.000000 3.334980 0.000000 
#    z 0.000000 0.000000 3.975760 
# 
# 
# High freq. dielectric constant tensor:
#      x y z
#    x 1.809700 0.000000 0.000000 
#    y 0.000000 1.778090 0.000000 
#    z 0.000000 0.000000 1.842220 
# 
# From -- ./inp_files/518.got.cif
#   From: 2010.03.12/outbox.cif.g09.slc.cpg/sg56_1_cif.got.tgz:518.got - 2010.04.16 15:33:40.
