data_PCOD8228536
_publ_section_title
;
Structure prediction by ZEFSAII (Michael W. Deem and Ramdas Pophale) SiO2 
 PCOD8228536
Probable space group: P C C N
;
_chemical_formula_sum "Si O2"
_cell_formula_units_Z 48
_cell_length_a 9.624467
_cell_length_b 14.517260
_cell_length_c 18.387763
_cell_angle_alpha 90.000000
_cell_angle_beta 90.000000
_cell_angle_gamma 90.000000
_cell_volume 2569.154608
_symmetry_space_group_name_H-M "P C C N"
_symmetry_group_IT_number 56
_symmetry_cell_setting 'orthorhombic'
loop_
_space_group_symop_operation_xyz
x,y,z
1/2-x,1/2-y,z
1/2+x,-y,1/2-z
-x,1/2+y,1/2-z
-x,-y,-z
1/2+x,1/2+y,-z
1/2-x,y,1/2+z
x,1/2-y,1/2+z
loop_
_atom_site_type_symbol
_atom_site_label
_atom_site_fract_x
_atom_site_fract_y
_atom_site_fract_z
Si Si1 0.591423 0.431302 0.457457
Si Si2 0.130084 0.949118 0.967809
Si Si3 0.510876 0.913704 0.204075
Si Si4 0.095882 0.767384 0.031404
Si Si5 0.901136 0.719034 0.662027
Si Si6 0.183440 0.022841 0.808433
O O1 0.500000 0.500000 0.500000
O O2 0.751117 0.457755 0.470851
O O3 0.558950 0.435232 0.372683
O O4 0.545705 0.333398 0.493143
O O5 0.178584 0.991920 0.892273
O O6 0.095571 0.838970 0.963518
O O7 0.000000 0.000000 0.000000
O O8 0.536662 0.802893 0.210829
O O9 0.654647 0.970251 0.214332
O O10 0.399549 0.945680 0.263792
O O11 0.250000 0.750000 0.064545
O O12 0.997900 0.806442 0.094430
O O13 0.750000 0.750000 0.632244
O O14 0.886359 0.623132 0.706049
#
# Coordination Sequence:
#
# PCOD8228536 Si02
#       6
#     8   8   8   8   8   8
#     4  10  20  40  59  83 117 158 194 239 299 342
#     4  11  21  35  61  91 115 150 198 247 285 347
#     4  10  23  39  61  85 120 159 195 241 296 355
#     4   9  19  33  57  86 117 144 193 245 287 345
#     4   9  19  38  59  81 115 158 196 232 293 359
#     4  11  22  39  60  87 120 156 197 244 291 351
#
# _framework density 18.683188999999999
#
# number of rings (size 3 to 8) (size 9 to 14) (size 15 to 20)
#    0.000    2.000    3.333    0.000    2.333    1.333 
#    3.000    0.000    0.000    0.000    0.000    0.000 
#    0.000    0.000    0.000    0.000    0.000    0.000 
#
# Total GULP energy -594794.475938 kJ/mol
# GULP energy per Si atom -12391.551582 kJ/mol
# Density = 1.864066 g / cm^3
# Si number density = 18.683189 Si / 1000 Ang^3
#
#
#
# Elastic Constant Matrix: (Units=GPa)
#
#
# Indices 1 2 3 4 5 6 
#
# 1 92.3701 52.8711 36.3324 0.0000 0.0000 0.0000
# 2 52.8711 108.6981 37.0208 0.0000 0.0000 0.0000
# 3 36.3324 37.0208 61.5196 0.0000 0.0000 0.0000
# 4 0.0000 0.0000 0.0000 28.2983 0.0000 0.0000
# 5 0.0000 0.0000 0.0000 0.0000 34.8449 0.0000
# 6 0.0000 0.0000 0.0000 0.0000 0.0000 32.2672
#
#
#
# Elastic Compliance Matrix: (Units=1/GPa)
#
#
# Indices 1 2 3 4 5 6 
#
# 1 0.016726 -0.006001 -0.006267 0.000000 0.000000 0.000000
# 2 -0.006001 0.013725 -0.004715 0.000000 0.000000 0.000000
# 3 -0.006267 -0.004715 0.022793 0.000000 0.000000 0.000000
# 4 0.000000 0.000000 0.000000 0.035338 0.000000 0.000000
# 5 0.000000 0.000000 0.000000 0.000000 0.028699 0.000000
# 6 0.000000 0.000000 0.000000 0.000000 0.000000 0.030991
#
#
# Mechanical properties :
#
#
# Convention : Reuss Voigt Hill
#
# Bulk Modulus (GPa) = 51.87193 57.22628 54.54911
# Shear Modulus (GPa) = 26.50227 28.17298 27.33763
#
# Velocity S-wave (km/s) = 3.77040 3.88742 3.82936
# Velocity P-wave (km/s) = 6.83950 7.13062 6.98658
#
# Compressibility (1/GPa) = 0.01927825
#
# Stress axis : x y z
#
# Youngs Moduli (GPa) = 59.78739 72.86178 43.87261
#
# Poissons Ratio (x) = 0.43726 0.27494
# Poissons Ratio (y) = 0.35880 0.20685
# Poissons Ratio (z) = 0.37467 0.34353
#
# Static dielectric constant tensor:
#      x y z
#    x 4.181410 0.000000 0.000000 
#    y 0.000000 3.684830 0.000000 
#    z 0.000000 0.000000 2.593570 
# 
# 
# High freq. dielectric constant tensor:
#      x y z
#    x 1.743440 0.000000 0.000000 
#    y 0.000000 1.745790 0.000000 
#    z 0.000000 0.000000 1.681130 
# 
# From -- ./inp_files/14750.got.cif
#   From: 2010.03.12/outbox.cif.g09.slc.cpg/sg56_8_cif.got.tgz:14750.got - 2010.04.16 15:33:40.
