data_PCOD8228613
_publ_section_title
;
Structure prediction by ZEFSAII (Michael W. Deem and Ramdas Pophale) SiO2 
 PCOD8228613
Probable space group: P C C N
;
_chemical_formula_sum "Si O2"
_cell_formula_units_Z 64
_cell_length_a 17.699346
_cell_length_b 15.024058
_cell_length_c 10.588811
_cell_angle_alpha 90.000000
_cell_angle_beta 90.000000
_cell_angle_gamma 90.000000
_cell_volume 2815.734275
_symmetry_space_group_name_H-M "P C C N"
_symmetry_group_IT_number 56
_symmetry_cell_setting 'orthorhombic'
loop_
_space_group_symop_operation_xyz
x,y,z
1/2-x,1/2-y,z
1/2+x,-y,1/2-z
-x,1/2+y,1/2-z
-x,-y,-z
1/2+x,1/2+y,-z
1/2-x,y,1/2+z
x,1/2-y,1/2+z
loop_
_atom_site_type_symbol
_atom_site_label
_atom_site_fract_x
_atom_site_fract_y
_atom_site_fract_z
Si Si1 0.457892 0.863085 0.024119
Si Si2 0.903009 0.960709 0.442674
Si Si3 0.319895 0.595781 0.867238
Si Si4 0.686673 0.401424 0.838192
Si Si5 0.332425 0.097317 0.297095
Si Si6 0.660525 0.579502 0.712987
Si Si7 0.908423 0.231763 0.688977
Si Si8 0.939390 0.743424 0.207966
O O1 0.515216 0.916041 0.932968
O O2 0.390952 0.817901 0.942315
O O3 0.502496 0.789432 0.101444
O O4 0.413144 0.937289 0.106770
O O5 0.844365 0.909783 0.353722
O O6 0.871848 0.959844 0.584096
O O7 0.253633 0.606640 0.764358
O O8 0.355076 0.496225 0.862826
O O9 0.381513 0.667005 0.821701
O O10 0.291705 0.610700 0.013299
O O11 0.654614 0.501822 0.818282
O O12 0.627697 0.322330 0.806121
O O13 0.244268 0.116894 0.315905
O O14 0.385949 0.177510 0.346521
O O15 0.611988 0.663383 0.760741
O O16 0.000815 0.226117 0.687003
#
# Coordination Sequence:
#
# PCOD8228613 Si02
#       8
#     8   8   8   8   8   8   8   8
#     4  10  21  39  70  93 132 180 234 280 345 424
#     4  10  20  43  68  97 129 186 236 279 349 421
#     4  11  28  44  72 106 141 190 231 300 358 426
#     4  11  26  48  72 104 143 182 238 291 360 427
#     4  11  24  43  68  99 143 180 238 291 351 421
#     4  10  24  42  71  97 138 185 236 290 352 421
#     4  12  23  43  69 101 141 180 232 292 356 422
#     4  11  24  42  64 106 136 188 232 291 352 427
#
# _framework density 22.729417999999999
#
# number of rings (size 3 to 8) (size 9 to 14) (size 15 to 20)
#    0.000    1.250    2.500    2.250    7.000    5.000 
#    0.000    3.125    0.000    0.000    0.000    0.000 
#    0.000    0.000    0.000    0.000    0.000    0.000 
#
# Total GULP energy -792939.575477 kJ/mol
# GULP energy per Si atom -12389.680867 kJ/mol
# Density = 2.267768 g / cm^3
# Si number density = 22.729418 Si / 1000 Ang^3
#
#
#
# Elastic Constant Matrix: (Units=GPa)
#
#
# Indices 1 2 3 4 5 6 
#
# 1 85.4817 48.9197 -4.4621 0.0000 0.0000 0.0000
# 2 48.9197 136.5398 11.6035 0.0000 0.0000 0.0000
# 3 -4.4621 11.6035 45.3546 0.0000 0.0000 0.0000
# 4 0.0000 0.0000 0.0000 28.4430 0.0000 0.0000
# 5 0.0000 0.0000 0.0000 0.0000 27.7836 0.0000
# 6 0.0000 0.0000 0.0000 0.0000 0.0000 43.7931
#
#
#
# Elastic Compliance Matrix: (Units=1/GPa)
#
#
# Indices 1 2 3 4 5 6 
#
# 1 0.015087 -0.005655 0.002931 0.000000 0.000000 0.000000
# 2 -0.005655 0.009606 -0.003014 0.000000 0.000000 0.000000
# 3 0.002931 -0.003014 0.023108 0.000000 0.000000 0.000000
# 4 0.000000 0.000000 0.000000 0.035158 0.000000 0.000000
# 5 0.000000 0.000000 0.000000 0.000000 0.035992 0.000000
# 6 0.000000 0.000000 0.000000 0.000000 0.000000 0.022835
#
#
# Mechanical properties :
#
#
# Convention : Reuss Voigt Hill
#
# Bulk Modulus (GPa) = 27.52827 42.16646 34.84737
# Shear Modulus (GPa) = 30.23518 34.09160 32.16339
#
# Velocity S-wave (km/s) = 3.65118 3.87704 3.76580
# Velocity P-wave (km/s) = 5.46922 6.21560 5.85432
#
# Compressibility (1/GPa) = 0.03632630
#
# Stress axis : x y z
#
# Youngs Moduli (GPa) = 66.28020 104.10210 43.27523
#
# Poissons Ratio (x) = 0.58866 -0.12684
# Poissons Ratio (y) = 0.37479 0.13043
# Poissons Ratio (z) = -0.19427 0.31375
#
# Static dielectric constant tensor:
#      x y z
#    x 5.185770 0.000000 0.000000 
#    y 0.000000 4.729670 0.000000 
#    z 0.000000 0.000000 3.986700 
# 
# 
# High freq. dielectric constant tensor:
#      x y z
#    x 1.894250 0.000000 0.000000 
#    y 0.000000 1.917900 0.000000 
#    z 0.000000 0.000000 1.883400 
# 
# From -- ./inp_files/8415.got.cif
#   From: 2010.03.12/outbox.cif.g09.slc.cpg/sg56_5_cif.got.tgz:8415.got - 2010.04.16 15:33:40.
