data_PCOD8228679
_publ_section_title
;
Structure prediction by ZEFSAII (Michael W. Deem and Ramdas Pophale) SiO2 
 PCOD8228679
Probable space group: P C C N
;
_chemical_formula_sum "Si O2"
_cell_formula_units_Z 56
_cell_length_a 18.285663
_cell_length_b 27.217759
_cell_length_c 5.171637
_cell_angle_alpha 90.000000
_cell_angle_beta 90.000000
_cell_angle_gamma 90.000000
_cell_volume 2573.896680
_symmetry_space_group_name_H-M "P C C N"
_symmetry_group_IT_number 56
_symmetry_cell_setting 'orthorhombic'
loop_
_space_group_symop_operation_xyz
x,y,z
1/2-x,1/2-y,z
1/2+x,-y,1/2-z
-x,1/2+y,1/2-z
-x,-y,-z
1/2+x,1/2+y,-z
1/2-x,y,1/2+z
x,1/2-y,1/2+z
loop_
_atom_site_type_symbol
_atom_site_label
_atom_site_fract_x
_atom_site_fract_y
_atom_site_fract_z
Si Si1 0.720104 0.304377 0.606507
Si Si2 0.080351 0.850975 0.527894
Si Si3 0.080351 0.149025 0.527894
Si Si4 0.779896 0.804377 0.606506
Si Si5 0.917186 0.913924 0.972676
Si Si6 0.417185 0.586076 0.027323
Si Si7 0.801464 0.500000 0.506785
O O1 0.750000 0.250000 0.670437
O O2 0.733731 0.331915 0.879975
O O3 0.635299 0.305823 0.527696
O O4 0.092973 0.893883 0.318118
O O5 0.000000 0.828112 0.500000
O O6 0.093155 0.871117 0.815514
O O7 0.135299 0.194177 0.472304
O O8 0.093154 0.128883 0.815514
O O9 0.092973 0.106117 0.318119
O O10 0.750000 0.750000 0.670436
O O11 0.733731 0.831915 0.379974
O O12 0.000000 0.935769 1.000000
O O13 0.854833 0.953569 0.020747
O O14 0.354833 0.546431 0.979253
O O15 0.746221 0.500000 0.747056
#
# Coordination Sequence:
#
# PCOD8228679 Si02
#       7
#     8   8   8   8   8   8   8
#     4  10  21  37  56  83 115 148 185 234 297 347
#     4  10  21  38  61  85 111 152 201 239 279 341
#     4  10  21  38  61  85 111 152 201 239 279 341
#     4  10  21  37  56  83 115 148 185 234 297 347
#     4  10  22  40  60  83 116 157 195 237 287 338
#     4  10  22  40  60  83 116 157 195 237 287 338
#     4  12  25  38  57  90 122 152 192 240 289 340
#
# _framework density 21.756896999999999
#
# number of rings (size 3 to 8) (size 9 to 14) (size 15 to 20)
#    0.000    1.714    0.000    3.857    0.000    6.857 
#    0.000   11.429    0.000    0.000    0.000    0.000 
#    0.000    0.000    0.000    0.000    0.000    0.000 
#
# Total GULP energy -693992.578612 kJ/mol
# GULP energy per Si atom -12392.724618 kJ/mol
# Density = 2.170738 g / cm^3
# Si number density = 21.756897 Si / 1000 Ang^3
#
#
#
# Elastic Constant Matrix: (Units=GPa)
#
#
# Indices 1 2 3 4 5 6 
#
# 1 139.8075 41.8798 18.8878 0.0000 0.0000 0.0000
# 2 41.8798 42.0166 -4.3541 0.0000 0.0000 0.0000
# 3 18.8878 -4.3541 141.5739 0.0000 0.0000 0.0000
# 4 0.0000 0.0000 0.0000 17.0191 0.0000 0.0000
# 5 0.0000 0.0000 0.0000 0.0000 37.8362 0.0000
# 6 0.0000 0.0000 0.0000 0.0000 0.0000 41.9294
#
#
#
# Elastic Compliance Matrix: (Units=1/GPa)
#
#
# Indices 1 2 3 4 5 6 
#
# 1 0.010611 -0.010758 -0.001747 0.000000 0.000000 0.000000
# 2 -0.010758 0.034782 0.002505 0.000000 0.000000 0.000000
# 3 -0.001747 0.002505 0.007373 0.000000 0.000000 0.000000
# 4 0.000000 0.000000 0.000000 0.058758 0.000000 0.000000
# 5 0.000000 0.000000 0.000000 0.000000 0.026430 0.000000
# 6 0.000000 0.000000 0.000000 0.000000 0.000000 0.023850
#
#
# Mechanical properties :
#
#
# Convention : Reuss Voigt Hill
#
# Bulk Modulus (GPa) = 30.51706 48.46944 39.49325
# Shear Modulus (GPa) = 25.94372 37.15590 31.54981
#
# Velocity S-wave (km/s) = 3.45691 4.13701 3.81216
# Velocity P-wave (km/s) = 5.47636 6.71907 6.12929
#
# Compressibility (1/GPa) = 0.03276856
#
# Stress axis : x y z
#
# Youngs Moduli (GPa) = 94.24093 28.75033 135.62091
#
# Poissons Ratio (x) = 0.30928 0.23686
# Poissons Ratio (y) = 1.01380 -0.33972
# Poissons Ratio (z) = 0.16459 -0.07202
#
# Static dielectric constant tensor:
#      x y z
#    x 4.283460 0.000000 0.000000 
#    y 0.000000 3.458590 0.000000 
#    z 0.000000 0.000000 4.609310 
# 
# 
# High freq. dielectric constant tensor:
#      x y z
#    x 1.876640 0.000000 0.000000 
#    y 0.000000 1.802060 0.000000 
#    z 0.000000 0.000000 1.894820 
# 
# From -- ./inp_files/582.got.cif
#   From: 2010.03.12/outbox.cif.g09.slc.cpg/sg56_1_cif.got.tgz:582.got - 2010.04.16 15:33:40.
