data_PCOD8228724
_publ_section_title
;
Structure prediction by ZEFSAII (Michael W. Deem and Ramdas Pophale) SiO2 
 PCOD8228724
Probable space group: P C C N
;
_chemical_formula_sum "Si O2"
_cell_formula_units_Z 64
_cell_length_a 11.690049
_cell_length_b 16.489719
_cell_length_c 15.597436
_cell_angle_alpha 90.000000
_cell_angle_beta 90.000000
_cell_angle_gamma 90.000000
_cell_volume 3006.649469
_symmetry_space_group_name_H-M "P C C N"
_symmetry_group_IT_number 56
_symmetry_cell_setting 'orthorhombic'
loop_
_space_group_symop_operation_xyz
x,y,z
1/2-x,1/2-y,z
1/2+x,-y,1/2-z
-x,1/2+y,1/2-z
-x,-y,-z
1/2+x,1/2+y,-z
1/2-x,y,1/2+z
x,1/2-y,1/2+z
loop_
_atom_site_type_symbol
_atom_site_label
_atom_site_fract_x
_atom_site_fract_y
_atom_site_fract_z
Si Si1 0.879120 0.279408 0.538585
Si Si2 0.394152 0.017560 0.103549
Si Si3 0.605098 0.877086 0.746160
Si Si4 0.855542 0.570135 0.434844
Si Si5 0.518856 0.407681 0.918782
Si Si6 0.557372 0.709790 0.821592
Si Si7 0.820975 0.831514 0.660321
Si Si8 0.997084 0.874540 0.530406
O O1 0.750000 0.250000 0.550016
O O2 0.888566 0.358443 0.477049
O O3 0.931405 0.295091 0.634234
O O4 0.954454 0.212873 0.490806
O O5 0.410951 0.039184 0.203042
O O6 0.271778 0.037769 0.064199
O O7 0.417939 0.921781 0.095041
O O8 0.489236 0.070379 0.053827
O O9 0.507306 0.866020 0.673190
O O10 0.601398 0.803298 0.815840
O O11 0.730221 0.890937 0.704655
O O12 0.937287 0.498337 0.399301
O O13 0.860492 0.652283 0.378429
O O14 0.897638 0.590560 0.530974
O O15 0.567974 0.680170 0.722963
O O16 0.750000 0.750000 0.643276
O O17 0.870823 0.864706 0.571640
#
# Coordination Sequence:
#
# PCOD8228724 Si02
#       8
#     8   8   8   8   8   8   8   8
#     4  11  22  42  63  85 126 169 213 258 318 386
#     4  11  23  38  63  91 131 165 208 260 328 368
#     4  11  21  39  61  96 127 158 203 271 313 373
#     4  10  21  42  64  92 123 172 209 261 321 375
#     4  10  23  40  66  91 128 165 220 259 313 390
#     4  10  21  38  63  91 121 160 210 265 308 369
#     4  10  21  39  63  95 124 158 216 259 315 371
#     4  11  24  40  61  93 129 168 208 262 315 388
#
# _framework density 21.286152999999999
#
# number of rings (size 3 to 8) (size 9 to 14) (size 15 to 20)
#    0.000    1.500    2.500    3.000    1.750    1.000 
#    0.000    3.750    0.000    0.000    0.000    0.000 
#    0.000    0.000    0.000    0.000    0.000    0.000 
#
# Total GULP energy -793184.851796 kJ/mol
# GULP energy per Si atom -12393.513309 kJ/mol
# Density = 2.123770 g / cm^3
# Si number density = 21.286153 Si / 1000 Ang^3
#
#
#
# Elastic Constant Matrix: (Units=GPa)
#
#
# Indices 1 2 3 4 5 6 
#
# 1 97.8308 14.3652 32.6491 0.0000 0.0000 0.0000
# 2 14.3652 79.3647 33.4214 0.0000 0.0000 0.0000
# 3 32.6491 33.4214 84.2354 0.0000 0.0000 0.0000
# 4 0.0000 0.0000 0.0000 27.7827 0.0000 0.0000
# 5 0.0000 0.0000 0.0000 0.0000 25.6160 0.0000
# 6 0.0000 0.0000 0.0000 0.0000 0.0000 30.9130
#
#
#
# Elastic Compliance Matrix: (Units=1/GPa)
#
#
# Indices 1 2 3 4 5 6 
#
# 1 0.011745 -0.000251 -0.004453 0.000000 0.000000 0.000000
# 2 -0.000251 0.015133 -0.005907 0.000000 0.000000 0.000000
# 3 -0.004453 -0.005907 0.015941 0.000000 0.000000 0.000000
# 4 0.000000 0.000000 0.000000 0.035994 0.000000 0.000000
# 5 0.000000 0.000000 0.000000 0.000000 0.039038 0.000000
# 6 0.000000 0.000000 0.000000 0.000000 0.000000 0.032349
#
#
# Mechanical properties :
#
#
# Convention : Reuss Voigt Hill
#
# Bulk Modulus (GPa) = 46.30113 46.92247 46.61180
# Shear Modulus (GPa) = 27.99256 28.92869 28.46063
#
# Velocity S-wave (km/s) = 3.63031 3.69051 3.66053
# Velocity P-wave (km/s) = 6.27465 6.34440 6.30962
#
# Compressibility (1/GPa) = 0.02159774
#
# Stress axis : x y z
#
# Youngs Moduli (GPa) = 85.14610 66.08099 62.73144
#
# Poissons Ratio (x) = 0.01657 0.27932
# Poissons Ratio (y) = 0.02135 0.37055
# Poissons Ratio (z) = 0.37912 0.39034
#
# Static dielectric constant tensor:
#      x y z
#    x 3.750400 0.000000 0.000000 
#    y 0.000000 3.923240 0.000000 
#    z 0.000000 0.000000 3.845420 
# 
# 
# High freq. dielectric constant tensor:
#      x y z
#    x 1.815000 0.000000 0.000000 
#    y 0.000000 1.837210 0.000000 
#    z 0.000000 0.000000 1.835030 
# 
# From -- ./inp_files/11864.got.cif
#   From: 2010.03.12/outbox.cif.g09.slc.cpg/sg56_6_cif.got.tgz:11864.got - 2010.04.16 15:33:40.
