data_PCOD8228549
_publ_section_title
;
Structure prediction by ZEFSAII (Michael W. Deem and Ramdas Pophale) SiO2 
 PCOD8228549
Probable space group: P C C N
;
_chemical_formula_sum "Si O2"
_cell_formula_units_Z 48
_cell_length_a 13.022848
_cell_length_b 9.943377
_cell_length_c 18.134460
_cell_angle_alpha 90.000000
_cell_angle_beta 90.000000
_cell_angle_gamma 90.000000
_cell_volume 2348.250943
_symmetry_space_group_name_H-M "P C C N"
_symmetry_group_IT_number 56
_symmetry_cell_setting 'orthorhombic'
loop_
_space_group_symop_operation_xyz
x,y,z
1/2-x,1/2-y,z
1/2+x,-y,1/2-z
-x,1/2+y,1/2-z
-x,-y,-z
1/2+x,1/2+y,-z
1/2-x,y,1/2+z
x,1/2-y,1/2+z
loop_
_atom_site_type_symbol
_atom_site_label
_atom_site_fract_x
_atom_site_fract_y
_atom_site_fract_z
Si Si1 0.809593 0.621992 0.654512
Si Si2 0.160020 0.854897 0.046190
Si Si3 0.538112 0.199384 0.594336
Si Si4 0.473585 0.569941 0.171468
Si Si5 0.827302 0.128844 0.696309
Si Si6 0.663421 0.847022 0.482193
O O1 0.750000 0.750000 0.685288
O O2 0.741768 0.488571 0.662470
O O3 0.840155 0.637124 0.569548
O O4 0.916569 0.624881 0.700361
O O5 0.250000 0.750000 0.065803
O O6 0.065784 0.836581 0.103433
O O7 0.189793 0.011397 0.057318
O O8 0.128989 0.842131 0.961049
O O9 0.583208 0.325715 0.639478
O O10 0.440257 0.229048 0.543323
O O11 0.503564 0.081474 0.648794
O O12 0.385277 0.571715 0.232540
O O13 0.750000 0.250000 0.717157
O O14 0.750000 0.750000 0.453294
#
# Coordination Sequence:
#
# PCOD8228549 Si02
#       6
#     8   8   8   8   8   8
#     4  11  23  42  65  93 131 168 210 268 332 370
#     4  11  20  40  69  93 123 173 216 263 315 378
#     4  11  21  43  69  92 125 173 217 264 318 385
#     4  11  23  42  62  96 130 169 215 269 319 383
#     4  12  25  43  65  94 128 175 220 261 322 406
#     4  10  20  40  63  95 126 159 211 269 316 375
#
# _framework density 20.440745
#
# number of rings (size 3 to 8) (size 9 to 14) (size 15 to 20)
#    0.000    1.000    5.000    3.000    2.333    0.000 
#    9.000    2.500    0.000    0.000    0.000    0.000 
#    0.000    0.000    0.000    0.000    0.000    0.000 
#
# Total GULP energy -594815.164140 kJ/mol
# GULP energy per Si atom -12391.982586 kJ/mol
# Density = 2.039422 g / cm^3
# Si number density = 20.440745 Si / 1000 Ang^3
#
#
#
# Elastic Constant Matrix: (Units=GPa)
#
#
# Indices 1 2 3 4 5 6 
#
# 1 152.6761 71.3062 44.2917 0.0000 0.0000 0.0000
# 2 71.3062 100.7948 26.1564 0.0000 0.0000 0.0000
# 3 44.2917 26.1564 84.7113 0.0000 0.0000 0.0000
# 4 0.0000 0.0000 0.0000 14.4233 0.0000 0.0000
# 5 0.0000 0.0000 0.0000 0.0000 27.5070 0.0000
# 6 0.0000 0.0000 0.0000 0.0000 0.0000 42.8943
#
#
#
# Elastic Compliance Matrix: (Units=1/GPa)
#
#
# Indices 1 2 3 4 5 6 
#
# 1 0.010673 -0.006634 -0.003532 0.000000 0.000000 0.000000
# 2 -0.006634 0.014909 -0.001135 0.000000 0.000000 0.000000
# 3 -0.003532 -0.001135 0.014002 0.000000 0.000000 0.000000
# 4 0.000000 0.000000 0.000000 0.069332 0.000000 0.000000
# 5 0.000000 0.000000 0.000000 0.000000 0.036354 0.000000
# 6 0.000000 0.000000 0.000000 0.000000 0.000000 0.023313
#
#
# Mechanical properties :
#
#
# Convention : Reuss Voigt Hill
#
# Bulk Modulus (GPa) = 58.88559 69.07676 63.98118
# Shear Modulus (GPa) = 25.40077 30.06013 27.73045
#
# Velocity S-wave (km/s) = 3.52895 3.83900 3.68724
# Velocity P-wave (km/s) = 6.74353 7.31557 7.03537
#
# Compressibility (1/GPa) = 0.01698208
#
# Stress axis : x y z
#
# Youngs Moduli (GPa) = 93.69730 67.07540 71.41885
#
# Poissons Ratio (x) = 0.44496 0.25225
# Poissons Ratio (y) = 0.62156 0.08105
# Poissons Ratio (z) = 0.33093 0.07612
#
# Static dielectric constant tensor:
#      x y z
#    x 4.148420 0.000000 0.000000 
#    y 0.000000 3.693680 0.000000 
#    z 0.000000 0.000000 3.546530 
# 
# 
# High freq. dielectric constant tensor:
#      x y z
#    x 1.818240 0.000000 0.000000 
#    y 0.000000 1.786840 0.000000 
#    z 0.000000 0.000000 1.787040 
# 
# From -- ./inp_files/15601.got.cif
#   From: 2010.03.12/outbox.cif.g09.slc.cpg/sg56_8_cif.got.tgz:15601.got - 2010.04.16 15:33:40.
