data_PCOD8228268
_publ_section_title
;
Structure prediction by ZEFSAII (Michael W. Deem and Ramdas Pophale) SiO2 
 PCOD8228268
Probable space group: P C C N
;
_chemical_formula_sum "Si O2"
_cell_formula_units_Z 60
_cell_length_a 21.379787
_cell_length_b 17.408173
_cell_length_c 8.973858
_cell_angle_alpha 90.000000
_cell_angle_beta 90.000000
_cell_angle_gamma 90.000000
_cell_volume 3339.917668
_symmetry_space_group_name_H-M "P C C N"
_symmetry_group_IT_number 56
_symmetry_cell_setting 'orthorhombic'
loop_
_space_group_symop_operation_xyz
x,y,z
1/2-x,1/2-y,z
1/2+x,-y,1/2-z
-x,1/2+y,1/2-z
-x,-y,-z
1/2+x,1/2+y,-z
1/2-x,y,1/2+z
x,1/2-y,1/2+z
loop_
_atom_site_type_symbol
_atom_site_label
_atom_site_fract_x
_atom_site_fract_y
_atom_site_fract_z
Si Si1 0.565647 0.045038 0.335902
Si Si2 0.623565 0.957038 0.841929
Si Si3 0.750000 0.750000 0.966984
Si Si4 0.642441 0.575855 0.671101
Si Si5 0.777934 0.856692 0.217564
Si Si6 0.489485 0.159487 0.164794
Si Si7 0.449526 0.931070 0.334248
Si Si8 0.025435 0.311891 0.832283
O O1 0.551981 0.117870 0.227987
O O2 0.580187 0.076823 0.501279
O O3 0.624318 0.994817 0.278998
O O4 0.505136 0.991842 0.337995
O O5 0.675020 0.927517 0.723323
O O6 0.564590 0.902305 0.843209
O O7 0.603066 0.040474 0.782899
O O8 0.651547 0.961277 0.007712
O O9 0.706983 0.803709 0.862700
O O10 0.792107 0.805212 0.071617
O O11 0.706725 0.614184 0.724150
O O12 0.590832 0.642853 0.673710
O O13 0.465378 0.225537 0.275821
O O14 0.502316 0.190911 0.999184
O O15 0.474419 0.849746 0.277039
#
# Coordination Sequence:
#
# PCOD8228268 Si02
#       8
#     8   8   4   8   8   8   8   8
#     4   9  18  33  50  71  95 126 165 207 248 296
#     4  10  21  34  50  70 100 136 170 206 247 291
#     4  10  24  34  48  66 108 134 174 210 240 280
#     4  10  21  34  50  70 100 136 170 206 247 291
#     4  11  22  36  48  72 101 138 172 206 245 290
#     4  10  20  32  50  73 100 130 165 205 252 298
#     4   9  18  33  50  71  95 126 165 207 248 296
#     4  10  20  32  50  73 100 130 165 205 252 298
#
# _framework density 17.964514999999999
#
# number of rings (size 3 to 8) (size 9 to 14) (size 15 to 20)
#    0.000    2.133    1.333    1.600    5.600    4.267 
#    0.000    0.000    0.000    0.000    0.000    0.933 
#    0.000    6.400    0.000    0.000    0.000    0.000 
#
# Total GULP energy -743866.259149 kJ/mol
# GULP energy per Si atom -12397.770986 kJ/mol
# Density = 1.792363 g / cm^3
# Si number density = 17.964515 Si / 1000 Ang^3
#
#
#
# Elastic Constant Matrix: (Units=GPa)
#
#
# Indices 1 2 3 4 5 6 
#
# 1 44.2086 6.2552 12.7551 0.0000 0.0000 0.0000
# 2 6.2552 17.4007 13.0092 0.0000 0.0000 0.0000
# 3 12.7551 13.0092 111.3490 0.0000 0.0000 0.0000
# 4 0.0000 0.0000 0.0000 27.7274 0.0000 0.0000
# 5 0.0000 0.0000 0.0000 0.0000 16.9192 0.0000
# 6 0.0000 0.0000 0.0000 0.0000 0.0000 9.2315
#
#
#
# Elastic Compliance Matrix: (Units=1/GPa)
#
#
# Indices 1 2 3 4 5 6 
#
# 1 0.024203 -0.007262 -0.001924 0.000000 0.000000 0.000000
# 2 -0.007262 0.065148 -0.006780 0.000000 0.000000 0.000000
# 3 -0.001924 -0.006780 0.009993 0.000000 0.000000 0.000000
# 4 0.000000 0.000000 0.000000 0.036065 0.000000 0.000000
# 5 0.000000 0.000000 0.000000 0.000000 0.059104 0.000000
# 6 0.000000 0.000000 0.000000 0.000000 0.000000 0.108324
#
#
# Mechanical properties :
#
#
# Convention : Reuss Voigt Hill
#
# Bulk Modulus (GPa) = 14.83395 26.33302 20.58348
# Shear Modulus (GPa) = 13.99621 20.17155 17.08388
#
# Velocity S-wave (km/s) = 2.79427 3.35454 3.08714
# Velocity P-wave (km/s) = 4.32272 5.44923 4.91833
#
# Compressibility (1/GPa) = 0.06741293
#
# Stress axis : x y z
#
# Youngs Moduli (GPa) = 41.31775 15.34971 100.06765
#
# Poissons Ratio (x) = 0.11147 0.19253
# Poissons Ratio (y) = 0.30004 0.67841
# Poissons Ratio (z) = 0.07950 0.10406
#
# Static dielectric constant tensor:
#      x y z
#    x 2.980550 0.000000 0.000000 
#    y 0.000000 3.266890 0.000000 
#    z 0.000000 0.000000 3.726160 
# 
# 
# High freq. dielectric constant tensor:
#      x y z
#    x 1.649030 0.000000 0.000000 
#    y 0.000000 1.676630 0.000000 
#    z 0.000000 0.000000 1.718990 
# 
# From -- ./inp_files/4796.got.cif
#   From: 2010.03.12/outbox.cif.g09.slc.cpg/sg56_3_cif.got.tgz:4796.got - 2010.04.16 15:33:40.
