data_PCOD8228360
_publ_section_title
;
Structure prediction by ZEFSAII (Michael W. Deem and Ramdas Pophale) SiO2 
 PCOD8228360
Probable space group: P C C N
;
_chemical_formula_sum "Si O2"
_cell_formula_units_Z 52
_cell_length_a 11.650806
_cell_length_b 16.078955
_cell_length_c 13.307774
_cell_angle_alpha 90.000000
_cell_angle_beta 90.000000
_cell_angle_gamma 90.000000
_cell_volume 2492.982371
_symmetry_space_group_name_H-M "P C C N"
_symmetry_group_IT_number 56
_symmetry_cell_setting 'orthorhombic'
loop_
_space_group_symop_operation_xyz
x,y,z
1/2-x,1/2-y,z
1/2+x,-y,1/2-z
-x,1/2+y,1/2-z
-x,-y,-z
1/2+x,1/2+y,-z
1/2-x,y,1/2+z
x,1/2-y,1/2+z
loop_
_atom_site_type_symbol
_atom_site_label
_atom_site_fract_x
_atom_site_fract_y
_atom_site_fract_z
Si Si1 0.511801 0.891410 0.709849
Si Si2 0.750000 0.750000 0.070157
Si Si3 0.221228 0.105417 0.299118
Si Si4 0.905645 0.949266 0.888058
Si Si5 0.018730 0.193987 0.987738
Si Si6 0.679723 0.984257 0.008601
Si Si7 0.976683 0.372965 0.064084
O O1 0.646506 0.890248 0.730791
O O2 0.478795 0.820298 0.627702
O O3 0.450301 0.875734 0.816440
O O4 0.479326 0.979009 0.662230
O O5 0.680078 0.813542 0.140150
O O6 0.842368 0.798260 0.003082
O O7 0.146676 0.105871 0.199970
O O8 0.197019 0.027648 0.372073
O O9 0.997441 0.891395 0.948595
O O10 0.803045 0.988135 0.954934
O O11 0.960134 0.276770 0.031071
O O12 0.615276 0.073106 0.999953
O O13 0.603089 0.909839 0.960080
#
# Coordination Sequence:
#
# PCOD8228360 Si02
#       7
#     8   4   8   8   8   8   8
#     4  11  24  40  62  93 126 162 215 256 316 381
#     4  10  20  36  56  92 126 148 202 254 318 354
#     4  11  22  37  61  92 123 165 200 256 308 383
#     4  12  23  40  66  91 126 171 207 260 319 375
#     4  11  23  37  62  92 128 161 210 268 313 368
#     4  11  22  40  65  86 128 168 202 250 321 382
#     4  11  23  41  62  95 126 164 208 260 318 382
#
# _framework density 20.858550999999999
#
# number of rings (size 3 to 8) (size 9 to 14) (size 15 to 20)
#    0.000    0.923    7.692    0.462    4.308    0.000 
#    0.000    0.769    0.000    1.846    0.000    0.000 
#    0.000    0.000    0.000    0.000    0.000    0.000 
#
# Total GULP energy -644595.066825 kJ/mol
# GULP energy per Si atom -12396.058977 kJ/mol
# Density = 2.081108 g / cm^3
# Si number density = 20.858551 Si / 1000 Ang^3
#
#
#
# Elastic Constant Matrix: (Units=GPa)
#
#
# Indices 1 2 3 4 5 6 
#
# 1 10.5499 14.5391 -0.8271 0.0000 0.0000 0.0000
# 2 14.5391 114.9042 33.7638 0.0000 0.0000 0.0000
# 3 -0.8271 33.7638 108.8452 0.0000 0.0000 0.0000
# 4 0.0000 0.0000 0.0000 33.2061 0.0000 0.0000
# 5 0.0000 0.0000 0.0000 0.0000 25.8988 0.0000
# 6 0.0000 0.0000 0.0000 0.0000 0.0000 28.6721
#
#
#
# Elastic Compliance Matrix: (Units=1/GPa)
#
#
# Indices 1 2 3 4 5 6 
#
# 1 0.118379 -0.016772 0.006102 0.000000 0.000000 0.000000
# 2 -0.016772 0.011952 -0.003835 0.000000 0.000000 0.000000
# 3 0.006102 -0.003835 0.010423 0.000000 0.000000 0.000000
# 4 0.000000 0.000000 0.000000 0.030115 0.000000 0.000000
# 5 0.000000 0.000000 0.000000 0.000000 0.038612 0.000000
# 6 0.000000 0.000000 0.000000 0.000000 0.000000 0.034877
#
#
# Mechanical properties :
#
#
# Convention : Reuss Voigt Hill
#
# Bulk Modulus (GPa) = 8.94894 36.58343 22.76618
# Shear Modulus (GPa) = 16.09705 30.01029 23.05367
#
# Velocity S-wave (km/s) = 2.78101 3.79720 3.32812
# Velocity P-wave (km/s) = 3.82251 6.06646 5.07018
#
# Compressibility (1/GPa) = 0.11174511
#
# Stress axis : x y z
#
# Youngs Moduli (GPa) = 8.44744 83.66838 95.93869
#
# Poissons Ratio (x) = 1.40327 -0.58543
# Poissons Ratio (y) = 0.14168 0.36792
# Poissons Ratio (z) = -0.05155 0.32086
#
# Static dielectric constant tensor:
#      x y z
#    x 3.475200 0.000000 0.000000 
#    y 0.000000 3.790390 0.000000 
#    z 0.000000 0.000000 4.017320 
# 
# 
# High freq. dielectric constant tensor:
#      x y z
#    x 1.780930 0.000000 0.000000 
#    y 0.000000 1.818950 0.000000 
#    z 0.000000 0.000000 1.829810 
# 
# From -- ./inp_files/11795.got.cif
#   From: 2010.03.12/outbox.cif.g09.slc.cpg/sg56_6_cif.got.tgz:11795.got - 2010.04.16 15:33:40.
