data_PCOD8228241
_publ_section_title
;
Structure prediction by ZEFSAII (Michael W. Deem and Ramdas Pophale) SiO2 
 PCOD8228241
Probable space group: P C C N
;
_chemical_formula_sum "Si O2"
_cell_formula_units_Z 56
_cell_length_a 5.213921
_cell_length_b 15.740997
_cell_length_c 32.697779
_cell_angle_alpha 90.000000
_cell_angle_beta 90.000000
_cell_angle_gamma 90.000000
_cell_volume 2683.582412
_symmetry_space_group_name_H-M "P C C N"
_symmetry_group_IT_number 56
_symmetry_cell_setting 'orthorhombic'
loop_
_space_group_symop_operation_xyz
x,y,z
1/2-x,1/2-y,z
1/2+x,-y,1/2-z
-x,1/2+y,1/2-z
-x,-y,-z
1/2+x,1/2+y,-z
1/2-x,y,1/2+z
x,1/2-y,1/2+z
loop_
_atom_site_type_symbol
_atom_site_label
_atom_site_fract_x
_atom_site_fract_y
_atom_site_fract_z
Si Si1 0.454613 0.542268 0.642974
Si Si2 0.006916 0.848783 0.567841
Si Si3 0.992926 0.550047 0.237422
Si Si4 0.505799 0.663012 0.032641
Si Si5 0.549031 0.065153 0.628298
Si Si6 0.500085 0.805004 0.299072
Si Si7 0.502839 0.801590 0.437343
O O1 0.471927 0.627425 0.615555
O O2 0.495909 0.569396 0.689497
O O3 0.673988 0.478440 0.627996
O O4 0.175109 0.500954 0.638373
O O5 0.753375 0.890471 0.547108
O O6 0.000647 0.747759 0.560855
O O7 0.249283 0.889352 0.543350
O O8 0.263217 0.514993 0.253718
O O9 0.934540 0.638131 0.259748
O O10 0.519715 0.686633 0.985650
O O11 0.557636 0.138770 0.661645
O O12 0.501400 0.106693 0.584004
O O13 0.250000 0.750000 0.289075
O O14 0.750000 0.750000 0.308757
O O15 0.750000 0.750000 0.421813
O O16 0.250000 0.750000 0.424861
#
# Coordination Sequence:
#
# PCOD8228241 Si02
#       7
#     8   8   8   8   8   8   8
#     4  12  24  44  64  95 131 175 213 263 327 408
#     4  10  20  38  64  87 123 163 217 260 316 388
#     4  12  23  46  72  92 136 183 214 262 346 415
#     4  10  19  40  64  87 123 169 211 272 323 369
#     4  12  25  41  65  96 132 170 216 263 335 390
#     4  12  24  43  67 100 132 162 223 280 318 384
#     4  12  21  40  67  93 122 169 220 259 324 387
#
# _framework density 20.867626000000001
#
# number of rings (size 3 to 8) (size 9 to 14) (size 15 to 20)
#    0.000    0.571    5.714    4.286    0.000    0.000 
#    5.143    4.286    0.000    0.000    0.000    0.000 
#    0.000    0.000    0.000    0.000    0.000    0.000 
#
# Total GULP energy -694427.895771 kJ/mol
# GULP energy per Si atom -12400.498139 kJ/mol
# Density = 2.082013 g / cm^3
# Si number density = 20.867626 Si / 1000 Ang^3
#
#
#
# Elastic Constant Matrix: (Units=GPa)
#
#
# Indices 1 2 3 4 5 6 
#
# 1 144.0494 -0.1429 13.2716 0.0000 0.0000 0.0000
# 2 -0.1429 54.5266 40.9362 0.0000 0.0000 0.0000
# 3 13.2716 40.9362 118.6779 0.0000 0.0000 0.0000
# 4 0.0000 0.0000 0.0000 27.5824 0.0000 0.0000
# 5 0.0000 0.0000 0.0000 0.0000 24.5152 0.0000
# 6 0.0000 0.0000 0.0000 0.0000 0.0000 26.7909
#
#
#
# Elastic Compliance Matrix: (Units=1/GPa)
#
#
# Indices 1 2 3 4 5 6 
#
# 1 0.007042 0.000823 -0.001071 0.000000 0.000000 0.000000
# 2 0.000823 0.024845 -0.008662 0.000000 0.000000 0.000000
# 3 -0.001071 -0.008662 0.011534 0.000000 0.000000 0.000000
# 4 0.000000 0.000000 0.000000 0.036255 0.000000 0.000000
# 5 0.000000 0.000000 0.000000 0.000000 0.040791 0.000000
# 6 0.000000 0.000000 0.000000 0.000000 0.000000 0.037326
#
#
# Mechanical properties :
#
#
# Convention : Reuss Voigt Hill
#
# Bulk Modulus (GPa) = 39.06355 47.26485 43.16420
# Shear Modulus (GPa) = 27.15237 33.32364 30.23801
#
# Velocity S-wave (km/s) = 3.61109 4.00047 3.81075
# Velocity P-wave (km/s) = 6.01223 6.63606 6.33184
#
# Compressibility (1/GPa) = 0.02559931
#
# Stress axis : x y z
#
# Youngs Moduli (GPa) = 142.01376 40.24995 86.70219
#
# Poissons Ratio (x) = -0.03311 0.09288
# Poissons Ratio (y) = -0.11683 0.75100
# Poissons Ratio (z) = 0.15213 0.34864
#
# Static dielectric constant tensor:
#      x y z
#    x 6.545480 0.000000 0.000000 
#    y 0.000000 3.569860 0.000000 
#    z 0.000000 0.000000 3.840980 
# 
# 
# High freq. dielectric constant tensor:
#      x y z
#    x 1.854450 0.000000 0.000000 
#    y 0.000000 1.787100 0.000000 
#    z 0.000000 0.000000 1.824170 
# 
# From -- ./inp_files/22874.got.cif
#   From: 2010.03.12/outbox.cif.g09.slc.cpg/sg56_12_cif.got.tgz:22874.got - 2010.04.16 15:33:40.
