data_PCOD8228077
_publ_section_title
;
Structure prediction by ZEFSAII (Michael W. Deem and Ramdas Pophale) SiO2 
 PCOD8228077
Probable space group: P C C N
;
_chemical_formula_sum "Si O2"
_cell_formula_units_Z 40
_cell_length_a 20.834985
_cell_length_b 21.283802
_cell_length_c 5.135207
_cell_angle_alpha 90.000000
_cell_angle_beta 90.000000
_cell_angle_gamma 90.000000
_cell_volume 2277.195710
_symmetry_space_group_name_H-M "P C C N"
_symmetry_group_IT_number 56
_symmetry_cell_setting 'orthorhombic'
loop_
_space_group_symop_operation_xyz
x,y,z
1/2-x,1/2-y,z
1/2+x,-y,1/2-z
-x,1/2+y,1/2-z
-x,-y,-z
1/2+x,1/2+y,-z
1/2-x,y,1/2+z
x,1/2-y,1/2+z
loop_
_atom_site_type_symbol
_atom_site_label
_atom_site_fract_x
_atom_site_fract_y
_atom_site_fract_z
Si Si1 0.415406 0.995939 0.735848
Si Si2 0.145495 0.210323 0.276447
Si Si3 0.709183 0.576651 0.772057
Si Si4 0.957518 0.427900 0.757632
Si Si5 0.995726 0.289563 0.770062
O O1 0.413592 0.957567 0.467017
O O2 0.347736 0.028393 0.782800
O O3 0.469350 0.049616 0.725294
O O4 0.429124 0.947205 0.965412
O O5 0.164383 0.241304 0.549939
O O6 0.185603 0.147609 0.247884
O O7 0.070681 0.193441 0.260762
O O8 0.763913 0.564155 0.559395
O O9 0.955198 0.352889 0.736711
O O10 0.976787 0.241937 0.541955
#
# Coordination Sequence:
#
# PCOD8228077 Si02
#       5
#     8   8   8   8   8
#     4  10  21  35  53  78 101 140 181 214 273 306
#     4  10  21  35  50  71 105 145 187 221 251 293
#     4  12  24  37  53  74 108 143 189 228 252 302
#     4  10  19  35  57  75 106 135 174 221 263 334
#     4  10  19  32  53  80 109 136 170 217 266 310
#
# _framework density 17.565465
#
# number of rings (size 3 to 8) (size 9 to 14) (size 15 to 20)
#    0.000    1.600    2.000    3.600    0.000    2.400 
#    0.000    0.000    0.000    0.000    0.000    0.000 
#    0.000   56.000    0.000    0.000    0.000    0.000 
#
# Total GULP energy -496227.661747 kJ/mol
# GULP energy per Si atom -12405.691544 kJ/mol
# Density = 1.752549 g / cm^3
# Si number density = 17.565465 Si / 1000 Ang^3
#
#
#
# Elastic Constant Matrix: (Units=GPa)
#
#
# Indices 1 2 3 4 5 6 
#
# 1 45.2662 34.0446 1.5277 0.0000 0.0000 0.0000
# 2 34.0446 80.4196 7.0031 0.0000 0.0000 0.0000
# 3 1.5277 7.0031 78.5299 0.0000 0.0000 0.0000
# 4 0.0000 0.0000 0.0000 8.0763 0.0000 0.0000
# 5 0.0000 0.0000 0.0000 0.0000 13.4264 0.0000
# 6 0.0000 0.0000 0.0000 0.0000 0.0000 26.9208
#
#
#
# Elastic Compliance Matrix: (Units=1/GPa)
#
#
# Indices 1 2 3 4 5 6 
#
# 1 0.032439 -0.013785 0.000598 0.000000 0.000000 0.000000
# 2 -0.013785 0.018390 -0.001372 0.000000 0.000000 0.000000
# 3 0.000598 -0.001372 0.012845 0.000000 0.000000 0.000000
# 4 0.000000 0.000000 0.000000 0.123819 0.000000 0.000000
# 5 0.000000 0.000000 0.000000 0.000000 0.074480 0.000000
# 6 0.000000 0.000000 0.000000 0.000000 0.000000 0.037146
#
#
# Mechanical properties :
#
#
# Convention : Reuss Voigt Hill
#
# Bulk Modulus (GPa) = 28.93781 32.15183 30.54482
# Shear Modulus (GPa) = 14.71653 20.46071 17.58862
#
# Velocity S-wave (km/s) = 2.89764 3.41666 3.16779
# Velocity P-wave (km/s) = 5.26356 5.82310 5.55039
#
# Compressibility (1/GPa) = 0.03455686
#
# Stress axis : x y z
#
# Youngs Moduli (GPa) = 30.82728 54.37794 77.85314
#
# Poissons Ratio (x) = 0.74958 -0.04657
# Poissons Ratio (y) = 0.42494 0.10680
# Poissons Ratio (z) = -0.01844 0.07460
#
# Static dielectric constant tensor:
#      x y z
#    x 3.013370 0.000000 0.000000 
#    y 0.000000 3.139450 0.000000 
#    z 0.000000 0.000000 3.485440 
# 
# 
# High freq. dielectric constant tensor:
#      x y z
#    x 1.645230 0.000000 0.000000 
#    y 0.000000 1.677220 0.000000 
#    z 0.000000 0.000000 1.701720 
# 
# From -- ./inp_files/624.got.cif
#   From: 2010.03.12/outbox.cif.g09.slc.cpg/sg56_1_cif.got.tgz:624.got - 2010.04.16 15:33:40.
