data_PCOD8228254
_publ_section_title
;
Structure prediction by ZEFSAII (Michael W. Deem and Ramdas Pophale) SiO2 
 PCOD8228254
Probable space group: P C C N
;
_chemical_formula_sum "Si O2"
_cell_formula_units_Z 40
_cell_length_a 7.291622
_cell_length_b 13.822123
_cell_length_c 15.543908
_cell_angle_alpha 90.000000
_cell_angle_beta 90.000000
_cell_angle_gamma 90.000000
_cell_volume 1566.603589
_symmetry_space_group_name_H-M "P C C N"
_symmetry_group_IT_number 56
_symmetry_cell_setting 'orthorhombic'
loop_
_space_group_symop_operation_xyz
x,y,z
1/2-x,1/2-y,z
1/2+x,-y,1/2-z
-x,1/2+y,1/2-z
-x,-y,-z
1/2+x,1/2+y,-z
1/2-x,y,1/2+z
x,1/2-y,1/2+z
loop_
_atom_site_type_symbol
_atom_site_label
_atom_site_fract_x
_atom_site_fract_y
_atom_site_fract_z
Si Si1 0.458390 0.284863 0.869531
Si Si2 0.002982 0.588143 0.932566
Si Si3 0.250000 0.750000 0.490015
Si Si4 0.989715 0.851102 0.777577
Si Si5 0.883470 0.544310 0.743661
Si Si6 0.250000 0.250000 0.589305
O O1 0.250000 0.250000 0.886002
O O2 0.570538 0.282759 0.957282
O O3 0.555265 0.212040 0.802728
O O4 0.480604 0.391295 0.829353
O O5 0.984011 0.547265 0.836510
O O6 0.825904 0.656014 0.960732
O O7 0.188529 0.654627 0.936512
O O8 0.000000 0.500000 0.000000
O O9 0.817422 0.916486 0.754331
O O10 0.931745 0.779159 0.854436
O O11 0.139774 0.934717 0.793884
#
# Coordination Sequence:
#
# PCOD8228254 Si02
#       6
#     8   8   4   8   8   4
#     4  10  22  44  65 102 137 181 248 299 348 421
#     4  11  25  47  67 108 151 187 241 297 368 448
#     4  12  28  40  74  98 148 200 228 298 374 432
#     4  10  19  41  69 102 131 177 239 307 352 412
#     4  10  22  39  71  98 138 183 237 304 357 418
#     4  10  22  46  72  98 150 190 230 304 364 420
#
# _framework density 25.532941000000001
#
# number of rings (size 3 to 8) (size 9 to 14) (size 15 to 20)
#    0.000    1.600    5.000    1.200    9.800    2.400 
#    0.000    1.000    0.000    0.000    0.000    0.000 
#    0.000    0.000    0.000    0.000    0.000    0.000 
#
# Total GULP energy -495625.704168 kJ/mol
# GULP energy per Si atom -12390.642604 kJ/mol
# Density = 2.547483 g / cm^3
# Si number density = 25.532941 Si / 1000 Ang^3
#
#
#
# Elastic Constant Matrix: (Units=GPa)
#
#
# Indices 1 2 3 4 5 6 
#
# 1 46.8109 21.5813 10.0190 0.0000 0.0000 0.0000
# 2 21.5813 137.9865 31.8799 0.0000 0.0000 0.0000
# 3 10.0190 31.8799 99.0558 0.0000 0.0000 0.0000
# 4 0.0000 0.0000 0.0000 75.6571 0.0000 0.0000
# 5 0.0000 0.0000 0.0000 0.0000 11.6782 0.0000
# 6 0.0000 0.0000 0.0000 0.0000 0.0000 52.4704
#
#
#
# Elastic Compliance Matrix: (Units=1/GPa)
#
#
# Indices 1 2 3 4 5 6 
#
# 1 0.023170 -0.003330 -0.001272 0.000000 0.000000 0.000000
# 2 -0.003330 0.008308 -0.002337 0.000000 0.000000 0.000000
# 3 -0.001272 -0.002337 0.010976 0.000000 0.000000 0.000000
# 4 0.000000 0.000000 0.000000 0.013218 0.000000 0.000000
# 5 0.000000 0.000000 0.000000 0.000000 0.085629 0.000000
# 6 0.000000 0.000000 0.000000 0.000000 0.000000 0.019058
#
#
# Mechanical properties :
#
#
# Convention : Reuss Voigt Hill
#
# Bulk Modulus (GPa) = 34.99396 45.64596 40.31996
# Shear Modulus (GPa) = 27.20910 42.65268 34.93089
#
# Velocity S-wave (km/s) = 3.26797 4.09160 3.70276
# Velocity P-wave (km/s) = 5.28911 6.34332 5.84005
#
# Compressibility (1/GPa) = 0.02857636
#
# Stress axis : x y z
#
# Youngs Moduli (GPa) = 43.15930 120.36852 91.10720
#
# Poissons Ratio (x) = 0.40082 0.11587
# Poissons Ratio (y) = 0.14372 0.21291
# Poissons Ratio (z) = 0.05489 0.28130
#
# Static dielectric constant tensor:
#      x y z
#    x 3.010630 0.000000 0.000000 
#    y 0.000000 7.250270 0.000000 
#    z 0.000000 0.000000 4.532090 
# 
# 
# High freq. dielectric constant tensor:
#      x y z
#    x 2.020010 0.000000 0.000000 
#    y 0.000000 2.039030 0.000000 
#    z 0.000000 0.000000 2.010640 
# 
# From -- ./inp_files/10443.got.cif
#   From: 2010.03.12/outbox.cif.g09.slc.cpg/sg56_6_cif.got.tgz:10443.got - 2010.04.16 15:33:40.
