data_PCOD8228774
_publ_section_title
;
Structure prediction by ZEFSAII (Michael W. Deem and Ramdas Pophale) SiO2 
 PCOD8228774
Probable space group: P C C N
;
_chemical_formula_sum "Si O2"
_cell_formula_units_Z 32
_cell_length_a 4.898300
_cell_length_b 8.231108
_cell_length_c 34.842885
_cell_angle_alpha 90.000000
_cell_angle_beta 90.000000
_cell_angle_gamma 90.000000
_cell_volume 1404.810640
_symmetry_space_group_name_H-M "P C C N"
_symmetry_group_IT_number 56
_symmetry_cell_setting 'orthorhombic'
loop_
_space_group_symop_operation_xyz
x,y,z
1/2-x,1/2-y,z
1/2+x,-y,1/2-z
-x,1/2+y,1/2-z
-x,-y,-z
1/2+x,1/2+y,-z
1/2-x,y,1/2+z
x,1/2-y,1/2+z
loop_
_atom_site_type_symbol
_atom_site_label
_atom_site_fract_x
_atom_site_fract_y
_atom_site_fract_z
Si Si1 0.244704 0.063512 0.600756
Si Si2 0.656234 0.572756 0.731560
Si Si3 0.240213 0.564487 0.348990
Si Si4 0.980829 0.138807 0.968988
O O1 0.250000 0.250000 0.585269
O O2 0.430249 0.035903 0.638178
O O3 0.935884 0.026529 0.614359
O O4 0.355260 0.937962 0.569581
O O5 0.750000 0.750000 0.743680
O O6 0.344778 0.552585 0.744834
O O7 0.682352 0.551275 0.685946
O O8 0.250000 0.750000 0.334987
O O9 0.750000 0.250000 0.987425
O O10 0.250000 0.250000 0.961844
O O11 0.000000 0.000000 0.000000
#
# Coordination Sequence:
#
# PCOD8228774 Si02
#       4
#     8   8   8   8
#     4  10  22  41  65  93 128 168 211 261 322 383
#     4  12  25  42  65  94 129 170 217 269 322 383
#     4  10  21  39  64  93 127 167 210 263 323 384
#     4  12  26  44  68  98 133 173 216 267 319 382
#
# _framework density 22.778867999999999
#
# number of rings (size 3 to 8) (size 9 to 14) (size 15 to 20)
#    0.000    1.000    0.000    6.750    0.000    8.000 
#    0.000    0.000    0.000    0.000    0.000    0.000 
#    0.000    0.000    0.000    0.000    0.000    0.000 
#
# Total GULP energy -396775.843639 kJ/mol
# GULP energy per Si atom -12399.245114 kJ/mol
# Density = 2.272702 g / cm^3
# Si number density = 22.778868 Si / 1000 Ang^3
#
#
#
# Elastic Constant Matrix: (Units=GPa)
#
#
# Indices 1 2 3 4 5 6 
#
# 1 110.5575 33.1948 11.6932 0.0000 0.0000 0.0000
# 2 33.1948 102.8549 40.9226 0.0000 0.0000 0.0000
# 3 11.6932 40.9226 81.0545 0.0000 0.0000 0.0000
# 4 0.0000 0.0000 0.0000 15.8364 0.0000 0.0000
# 5 0.0000 0.0000 0.0000 0.0000 21.5446 0.0000
# 6 0.0000 0.0000 0.0000 0.0000 0.0000 44.9561
#
#
#
# Elastic Compliance Matrix: (Units=1/GPa)
#
#
# Indices 1 2 3 4 5 6 
#
# 1 0.010019 -0.003327 0.000234 0.000000 0.000000 0.000000
# 2 -0.003327 0.013271 -0.006220 0.000000 0.000000 0.000000
# 3 0.000234 -0.006220 0.015444 0.000000 0.000000 0.000000
# 4 0.000000 0.000000 0.000000 0.063146 0.000000 0.000000
# 5 0.000000 0.000000 0.000000 0.000000 0.046415 0.000000
# 6 0.000000 0.000000 0.000000 0.000000 0.000000 0.022244
#
#
# Mechanical properties :
#
#
# Convention : Reuss Voigt Hill
#
# Bulk Modulus (GPa) = 49.73007 51.78757 50.75882
# Shear Modulus (GPa) = 25.52747 30.37785 27.95266
#
# Velocity S-wave (km/s) = 3.35126 3.65581 3.50684
# Velocity P-wave (km/s) = 6.07072 6.37214 6.22326
#
# Compressibility (1/GPa) = 0.02010856
#
# Stress axis : x y z
#
# Youngs Moduli (GPa) = 99.80903 75.35280 64.74975
#
# Poissons Ratio (x) = 0.25068 -0.01516
# Poissons Ratio (y) = 0.33203 0.40276
# Poissons Ratio (z) = -0.02337 0.46871
#
# Static dielectric constant tensor:
#      x y z
#    x 4.606050 0.000000 0.000000 
#    y 0.000000 4.180430 0.000000 
#    z 0.000000 0.000000 3.808020 
# 
# 
# High freq. dielectric constant tensor:
#      x y z
#    x 1.917960 0.000000 0.000000 
#    y 0.000000 1.904410 0.000000 
#    z 0.000000 0.000000 1.891290 
# 
# From -- ./inp_files/22653.got.cif
#   From: 2010.03.12/outbox.cif.g09.slc.cpg/sg56_12_cif.got.tgz:22653.got - 2010.04.16 15:33:40.
