data_PCOD8228503
_publ_section_title
;
Structure prediction by ZEFSAII (Michael W. Deem and Ramdas Pophale) SiO2 
 PCOD8228503
Probable space group: P C C N
;
_chemical_formula_sum "Si O2"
_cell_formula_units_Z 40
_cell_length_a 11.191772
_cell_length_b 9.153745
_cell_length_c 17.715043
_cell_angle_alpha 90.000000
_cell_angle_beta 90.000000
_cell_angle_gamma 90.000000
_cell_volume 1814.846402
_symmetry_space_group_name_H-M "P C C N"
_symmetry_group_IT_number 56
_symmetry_cell_setting 'orthorhombic'
loop_
_space_group_symop_operation_xyz
x,y,z
1/2-x,1/2-y,z
1/2+x,-y,1/2-z
-x,1/2+y,1/2-z
-x,-y,-z
1/2+x,1/2+y,-z
1/2-x,y,1/2+z
x,1/2-y,1/2+z
loop_
_atom_site_type_symbol
_atom_site_label
_atom_site_fract_x
_atom_site_fract_y
_atom_site_fract_z
Si Si1 0.393415 0.888843 0.125401
Si Si2 0.100877 0.872632 0.869095
Si Si3 0.250000 0.750000 0.495647
Si Si4 0.121009 0.296095 0.322191
Si Si5 0.750000 0.250000 0.752934
Si Si6 0.379097 0.285020 0.645857
O O1 0.510117 0.791454 0.141922
O O2 0.285592 0.880149 0.188871
O O3 0.428492 0.057216 0.121377
O O4 0.344278 0.839248 0.044935
O O5 0.182597 0.867506 0.943130
O O6 0.138180 0.746882 0.805763
O O7 0.966262 0.833878 0.892072
O O8 0.105049 0.031848 0.833209
O O9 0.250000 0.250000 0.357265
O O10 0.121423 0.258605 0.234732
O O11 0.250000 0.250000 0.610937
#
# Coordination Sequence:
#
# PCOD8228503 Si02
#       6
#     8   8   4   8   4   8
#     4  11  24  44  68  99 139 183 228 282 339 407
#     4  11  24  44  68  99 139 183 228 282 339 407
#     4  10  28  46  68  94 144 194 226 268 348 410
#     4  11  24  41  72 107 134 174 234 289 344 398
#     4  10  20  38  72  90 134 180 228 276 330 390
#     4  11  24  41  72 107 134 174 234 289 344 398
#
# _framework density 22.040433
#
# number of rings (size 3 to 8) (size 9 to 14) (size 15 to 20)
#    0.000    1.200    4.000    0.000   11.200    1.600 
#    0.000    0.000    0.000    0.000    0.000    0.000 
#    0.000    0.000    0.000    0.000    0.000    0.000 
#
# Total GULP energy -495563.415174 kJ/mol
# GULP energy per Si atom -12389.085379 kJ/mol
# Density = 2.199027 g / cm^3
# Si number density = 22.040433 Si / 1000 Ang^3
#
#
#
# Elastic Constant Matrix: (Units=GPa)
#
#
# Indices 1 2 3 4 5 6 
#
# 1 153.3882 65.8398 25.6819 0.0000 0.0000 0.0000
# 2 65.8398 105.5508 17.5442 0.0000 0.0000 0.0000
# 3 25.6819 17.5442 71.3415 0.0000 0.0000 0.0000
# 4 0.0000 0.0000 0.0000 16.5678 0.0000 0.0000
# 5 0.0000 0.0000 0.0000 0.0000 33.2679 0.0000
# 6 0.0000 0.0000 0.0000 0.0000 0.0000 35.3927
#
#
#
# Elastic Compliance Matrix: (Units=1/GPa)
#
#
# Indices 1 2 3 4 5 6 
#
# 1 0.009162 -0.005387 -0.001973 0.000000 0.000000 0.000000
# 2 -0.005387 0.013045 -0.001269 0.000000 0.000000 0.000000
# 3 -0.001973 -0.001269 0.015040 0.000000 0.000000 0.000000
# 4 0.000000 0.000000 0.000000 0.060358 0.000000 0.000000
# 5 0.000000 0.000000 0.000000 0.000000 0.030059 0.000000
# 6 0.000000 0.000000 0.000000 0.000000 0.000000 0.028254
#
#
# Mechanical properties :
#
#
# Convention : Reuss Voigt Hill
#
# Bulk Modulus (GPa) = 50.02931 60.93470 55.48200
# Shear Modulus (GPa) = 27.80250 31.79333 29.79792
#
# Velocity S-wave (km/s) = 3.55552 3.80215 3.68090
# Velocity P-wave (km/s) = 6.29315 6.85433 6.57973
#
# Compressibility (1/GPa) = 0.01998828
#
# Stress axis : x y z
#
# Youngs Moduli (GPa) = 109.14455 76.65572 66.49145
#
# Poissons Ratio (x) = 0.41295 0.13122
# Poissons Ratio (y) = 0.58797 0.08437
# Poissons Ratio (z) = 0.21539 0.09726
#
# Static dielectric constant tensor:
#      x y z
#    x 4.429870 0.000000 0.000000 
#    y 0.000000 3.705950 0.000000 
#    z 0.000000 0.000000 3.903770 
# 
# 
# High freq. dielectric constant tensor:
#      x y z
#    x 1.885250 0.000000 0.000000 
#    y 0.000000 1.851330 0.000000 
#    z 0.000000 0.000000 1.855180 
# 
# From -- ./inp_files/15440.got.cif
#   From: 2010.03.12/outbox.cif.g09.slc.cpg/sg56_8_cif.got.tgz:15440.got - 2010.04.16 15:33:40.
