data_PCOD8228495
_publ_section_title
;
Structure prediction by ZEFSAII (Michael W. Deem and Ramdas Pophale) SiO2 
 PCOD8228495
Probable space group: P C C N
;
_chemical_formula_sum "Si O2"
_cell_formula_units_Z 48
_cell_length_a 16.029435
_cell_length_b 9.438580
_cell_length_c 14.105703
_cell_angle_alpha 90.000000
_cell_angle_beta 90.000000
_cell_angle_gamma 90.000000
_cell_volume 2134.123811
_symmetry_space_group_name_H-M "P C C N"
_symmetry_group_IT_number 56
_symmetry_cell_setting 'orthorhombic'
loop_
_space_group_symop_operation_xyz
x,y,z
1/2-x,1/2-y,z
1/2+x,-y,1/2-z
-x,1/2+y,1/2-z
-x,-y,-z
1/2+x,1/2+y,-z
1/2-x,y,1/2+z
x,1/2-y,1/2+z
loop_
_atom_site_type_symbol
_atom_site_label
_atom_site_fract_x
_atom_site_fract_y
_atom_site_fract_z
Si Si1 0.030267 0.776920 0.264669
Si Si2 0.318659 0.459084 0.089186
Si Si3 0.107449 0.076462 0.283769
Si Si4 0.847911 0.548664 0.004593
Si Si5 0.972481 0.784733 0.962883
Si Si6 0.379731 0.745947 0.587958
O O1 0.942216 0.725700 0.218604
O O2 0.032346 0.712296 0.370399
O O3 0.041242 0.947663 0.267411
O O4 0.105887 0.712688 0.200077
O O5 0.323270 0.421242 0.200615
O O6 0.401981 0.405299 0.036485
O O7 0.311533 0.629708 0.076603
O O8 0.236963 0.389533 0.041679
O O9 0.156882 0.060050 0.381991
O O10 0.927174 0.631742 0.963959
O O11 0.855772 0.386403 0.974912
O O12 0.030317 0.807052 0.053779
#
# Coordination Sequence:
#
# PCOD8228495 Si02
#       6
#     8   8   8   8   8   8
#     4  10  20  38  64  96 118 154 216 268 296 360
#     4  10  25  41  58  93 134 155 203 259 317 369
#     4  10  21  41  65  91 123 162 212 259 314 366
#     4  12  22  43  64  93 125 173 203 255 320 382
#     4  11  21  40  66  91 121 165 211 257 302 372
#     4  11  21  40  66  91 121 165 211 257 302 372
#
# _framework density 22.491667
#
# number of rings (size 3 to 8) (size 9 to 14) (size 15 to 20)
#    0.000    1.333    3.333    3.000    0.000    0.000 
#    6.000    3.333    0.000    0.000    0.000    0.000 
#    0.000    0.000    0.000    0.000    0.000    0.000 
#
# Total GULP energy -595032.287072 kJ/mol
# GULP energy per Si atom -12396.505981 kJ/mol
# Density = 2.244047 g / cm^3
# Si number density = 22.491667 Si / 1000 Ang^3
#
#
#
# Elastic Constant Matrix: (Units=GPa)
#
#
# Indices 1 2 3 4 5 6 
#
# 1 67.0148 5.2171 48.6351 0.0000 0.0000 0.0000
# 2 5.2171 45.4366 48.5456 0.0000 0.0000 0.0000
# 3 48.6351 48.5456 122.5536 0.0000 0.0000 0.0000
# 4 0.0000 0.0000 0.0000 28.9682 0.0000 0.0000
# 5 0.0000 0.0000 0.0000 0.0000 35.5376 0.0000
# 6 0.0000 0.0000 0.0000 0.0000 0.0000 24.7506
#
#
#
# Elastic Compliance Matrix: (Units=1/GPa)
#
#
# Indices 1 2 3 4 5 6 
#
# 1 0.024886 0.013340 -0.015160 0.000000 0.000000 0.000000
# 2 0.013340 0.045309 -0.023242 0.000000 0.000000 0.000000
# 3 -0.015160 -0.023242 0.023382 0.000000 0.000000 0.000000
# 4 0.000000 0.000000 0.000000 0.034521 0.000000 0.000000
# 5 0.000000 0.000000 0.000000 0.000000 0.028139 0.000000
# 6 0.000000 0.000000 0.000000 0.000000 0.000000 0.040403
#
#
# Mechanical properties :
#
#
# Convention : Reuss Voigt Hill
#
# Bulk Modulus (GPa) = 23.01303 48.86671 35.93987
# Shear Modulus (GPa) = 19.13895 26.69178 22.91536
#
# Velocity S-wave (km/s) = 2.92024 3.44865 3.19539
# Velocity P-wave (km/s) = 4.65021 6.13444 5.44315
#
# Compressibility (1/GPa) = 0.04345364
#
# Stress axis : x y z
#
# Youngs Moduli (GPa) = 40.18361 22.07078 42.76744
#
# Poissons Ratio (x) = -0.29442 0.64836
# Poissons Ratio (y) = -0.53605 0.99398
# Poissons Ratio (z) = 0.60918 0.51296
#
# Static dielectric constant tensor:
#      x y z
#    x 3.904640 0.000000 0.000000 
#    y 0.000000 4.013870 0.000000 
#    z 0.000000 0.000000 4.212560 
# 
# 
# High freq. dielectric constant tensor:
#      x y z
#    x 1.860580 0.000000 0.000000 
#    y 0.000000 1.889280 0.000000 
#    z 0.000000 0.000000 1.896510 
# 
# From -- ./inp_files/12217.got.cif
#   From: 2010.03.12/outbox.cif.g09.slc.cpg/sg56_7_cif.got.tgz:12217.got - 2010.04.16 15:33:40.
