data_PCOD8228731
_publ_section_title
;
Structure prediction by ZEFSAII (Michael W. Deem and Ramdas Pophale) SiO2 
 PCOD8228731
Probable space group: P C C N
;
_chemical_formula_sum "Si O2"
_cell_formula_units_Z 60
_cell_length_a 17.321083
_cell_length_b 11.777015
_cell_length_c 14.755398
_cell_angle_alpha 90.000000
_cell_angle_beta 90.000000
_cell_angle_gamma 90.000000
_cell_volume 3009.963293
_symmetry_space_group_name_H-M "P C C N"
_symmetry_group_IT_number 56
_symmetry_cell_setting 'orthorhombic'
loop_
_space_group_symop_operation_xyz
x,y,z
1/2-x,1/2-y,z
1/2+x,-y,1/2-z
-x,1/2+y,1/2-z
-x,-y,-z
1/2+x,1/2+y,-z
1/2-x,y,1/2+z
x,1/2-y,1/2+z
loop_
_atom_site_type_symbol
_atom_site_label
_atom_site_fract_x
_atom_site_fract_y
_atom_site_fract_z
Si Si1 0.079304 0.243180 0.653730
Si Si2 0.807732 0.347278 0.762814
Si Si3 0.442606 0.501566 0.579062
Si Si4 0.223007 0.497804 0.072818
Si Si5 0.311335 0.849754 0.444394
Si Si6 0.527889 0.280186 0.321580
Si Si7 0.250000 0.250000 0.622574
Si Si8 0.015381 0.864723 0.999855
O O1 0.066595 0.111022 0.637112
O O2 0.169637 0.269960 0.676739
O O3 0.034233 0.272709 0.743385
O O4 0.050030 0.312016 0.565468
O O5 0.750000 0.250000 0.788684
O O6 0.784976 0.456997 0.823080
O O7 0.802593 0.389391 0.659268
O O8 0.886250 0.277859 0.781548
O O9 0.500000 0.500000 0.500000
O O10 0.360430 0.533049 0.532609
O O11 0.480586 0.593301 0.643343
O O12 0.236019 0.363133 0.063888
O O13 0.291224 0.550233 0.013885
O O14 0.250000 0.750000 0.465695
O O15 0.401253 0.823113 0.462216
O O16 0.510033 0.184709 0.398002
O O17 0.000000 0.000000 0.000000
#
# Coordination Sequence:
#
# PCOD8228731 Si02
#       8
#     8   8   8   8   8   8   4   8
#     4  11  24  43  64  92 127 169 223 263 326 396
#     4  10  21  38  65  99 127 161 209 266 332 384
#     4  10  21  41  66  88 123 173 218 262 320 391
#     4  10  21  40  63  88 131 169 211 262 319 383
#     4  11  22  40  66  99 132 165 214 273 331 391
#     4  11  23  41  65  93 129 169 212 271 325 387
#     4  10  24  46  60  86 132 178 212 262 314 396
#     4  12  25  40  66  99 133 170 216 276 335 388
#
# _framework density 19.933796999999998
#
# number of rings (size 3 to 8) (size 9 to 14) (size 15 to 20)
#    0.000    1.333    2.667    3.600    1.867    1.067 
#    2.400    1.333    0.000    0.000    0.000    0.000 
#    0.000    0.000    0.000    0.000    0.000    0.000 
#
# Total GULP energy -743331.914155 kJ/mol
# GULP energy per Si atom -12388.865236 kJ/mol
# Density = 1.988843 g / cm^3
# Si number density = 19.933797 Si / 1000 Ang^3
#
#
#
# Elastic Constant Matrix: (Units=GPa)
#
#
# Indices 1 2 3 4 5 6 
#
# 1 139.7567 29.7792 61.4223 0.0000 0.0000 0.0000
# 2 29.7792 95.2046 38.5649 0.0000 0.0000 0.0000
# 3 61.4223 38.5649 95.8048 0.0000 0.0000 0.0000
# 4 0.0000 0.0000 0.0000 -15.5027 0.0000 0.0000
# 5 0.0000 0.0000 0.0000 0.0000 28.9733 0.0000
# 6 0.0000 0.0000 0.0000 0.0000 0.0000 32.8876
#
#
#
# Elastic Compliance Matrix: (Units=1/GPa)
#
#
# Indices 1 2 3 4 5 6 
#
# 1 0.009994 -0.000634 -0.006152 0.000000 0.000000 0.000000
# 2 -0.000634 0.012590 -0.004662 0.000000 0.000000 0.000000
# 3 -0.006152 -0.004662 0.016259 0.000000 0.000000 0.000000
# 4 0.000000 0.000000 0.000000 -0.064505 0.000000 0.000000
# 5 0.000000 0.000000 0.000000 0.000000 0.034515 0.000000
# 6 0.000000 0.000000 0.000000 0.000000 0.000000 0.030407
#
#
# Mechanical properties :
#
#
# Convention : Reuss Voigt Hill
#
# Bulk Modulus (GPa) = 62.70573 65.58876 64.14725
# Shear Modulus (GPa) = 74.10581 22.67162 48.38872
#
# Velocity S-wave (km/s) = 6.10382 3.37611 4.93228
# Velocity P-wave (km/s) = 9.01115 6.94062 8.04279
#
# Compressibility (1/GPa) = 0.01594750
#
# Stress axis : x y z
#
# Youngs Moduli (GPa) = 100.05711 79.42628 61.50547
#
# Poissons Ratio (x) = 0.05036 0.37840
# Poissons Ratio (y) = 0.06344 0.28671
# Poissons Ratio (z) = 0.61558 0.37025
#
# Static dielectric constant tensor:
#      x y z
#    x 4.122700 0.000000 0.000000 
#    y 0.000000 3.643060 0.000000 
#    z 0.000000 0.000000 3.514260 
# 
# 
# High freq. dielectric constant tensor:
#      x y z
#    x 1.798690 0.000000 0.000000 
#    y 0.000000 1.783210 0.000000 
#    z 0.000000 0.000000 1.768160 
# 
# From -- ./inp_files/12818.got.cif
#   From: 2010.03.12/outbox.cif.g09.slc.cpg/sg56_7_cif.got.tgz:12818.got - 2010.04.16 15:33:40.
