data_PCOD8228589
_publ_section_title
;
Structure prediction by ZEFSAII (Michael W. Deem and Ramdas Pophale) SiO2 
 PCOD8228589
Probable space group: P C C N
;
_chemical_formula_sum "Si O2"
_cell_formula_units_Z 56
_cell_length_a 10.990807
_cell_length_b 14.885074
_cell_length_c 15.614272
_cell_angle_alpha 90.000000
_cell_angle_beta 90.000000
_cell_angle_gamma 90.000000
_cell_volume 2554.478903
_symmetry_space_group_name_H-M "P C C N"
_symmetry_group_IT_number 56
_symmetry_cell_setting 'orthorhombic'
loop_
_space_group_symop_operation_xyz
x,y,z
1/2-x,1/2-y,z
1/2+x,-y,1/2-z
-x,1/2+y,1/2-z
-x,-y,-z
1/2+x,1/2+y,-z
1/2-x,y,1/2+z
x,1/2-y,1/2+z
loop_
_atom_site_type_symbol
_atom_site_label
_atom_site_fract_x
_atom_site_fract_y
_atom_site_fract_z
Si Si1 0.250000 0.750000 0.449944
Si Si2 0.626136 0.546843 0.701709
Si Si3 0.046797 0.863244 0.364430
Si Si4 0.012865 0.487752 0.631862
Si Si5 0.382138 0.356758 0.789976
Si Si6 0.881529 0.587410 0.021305
Si Si7 0.250000 0.250000 0.419528
Si Si8 0.187615 0.559988 0.497512
O O1 0.136360 0.781918 0.390577
O O2 0.213905 0.666072 0.511508
O O3 0.624786 0.438874 0.685479
O O4 0.546151 0.571714 0.785000
O O5 0.762173 0.581331 0.720210
O O6 0.564770 0.594092 0.618433
O O7 0.937794 0.827289 0.302213
O O8 0.983622 0.906730 0.449197
O O9 0.980910 0.587590 0.659021
O O10 0.903458 0.439948 0.583017
O O11 0.132316 0.503520 0.575063
O O12 0.358676 0.272980 0.852818
O O13 0.785528 0.669738 0.015873
O O14 0.813282 0.491128 0.021389
#
# Coordination Sequence:
#
# PCOD8228589 Si02
#       8
#     4   8   8   8   8   8   4   8
#     4  12  26  40  60 100 136 166 224 272 336 414
#     4  10  20  41  65  96 126 169 226 276 333 404
#     4  11  24  40  67  94 136 176 219 276 345 405
#     4  10  21  39  67  89 125 172 217 275 338 391
#     4  10  21  41  62  93 127 168 223 278 328 400
#     4  11  22  41  66  95 131 176 225 279 336 406
#     4  10  22  38  64  94 132 164 234 282 318 406
#     4  11  23  42  64  93 130 175 223 275 334 410
#
# _framework density 21.922279
#
# number of rings (size 3 to 8) (size 9 to 14) (size 15 to 20)
#    0.000    1.429    4.286    1.286    2.000    2.857 
#    0.000    2.857    0.000    0.000    0.000    0.000 
#    0.000    0.000    0.000    0.000    0.000    0.000 
#
# Total GULP energy -693822.531879 kJ/mol
# GULP energy per Si atom -12389.688069 kJ/mol
# Density = 2.187238 g / cm^3
# Si number density = 21.922279 Si / 1000 Ang^3
#
#
#
# Elastic Constant Matrix: (Units=GPa)
#
#
# Indices 1 2 3 4 5 6 
#
# 1 100.7296 29.7268 48.0398 0.0000 0.0000 0.0000
# 2 29.7268 101.8412 12.3297 0.0000 0.0000 0.0000
# 3 48.0398 12.3297 98.9818 0.0000 0.0000 0.0000
# 4 0.0000 0.0000 0.0000 18.1794 0.0000 0.0000
# 5 0.0000 0.0000 0.0000 0.0000 19.8851 0.0000
# 6 0.0000 0.0000 0.0000 0.0000 0.0000 31.4547
#
#
#
# Elastic Compliance Matrix: (Units=1/GPa)
#
#
# Indices 1 2 3 4 5 6 
#
# 1 0.013929 -0.003297 -0.006349 0.000000 0.000000 0.000000
# 2 -0.003297 0.010750 0.000261 0.000000 0.000000 0.000000
# 3 -0.006349 0.000261 0.013152 0.000000 0.000000 0.000000
# 4 0.000000 0.000000 0.000000 0.055007 0.000000 0.000000
# 5 0.000000 0.000000 0.000000 0.000000 0.050289 0.000000
# 6 0.000000 0.000000 0.000000 0.000000 0.000000 0.031792
#
#
# Mechanical properties :
#
#
# Convention : Reuss Voigt Hill
#
# Bulk Modulus (GPa) = 52.46606 53.52724 52.99665
# Shear Modulus (GPa) = 24.99466 28.00093 26.49779
#
# Velocity S-wave (km/s) = 3.38027 3.57779 3.48043
# Velocity P-wave (km/s) = 6.26256 6.44494 6.35440
#
# Compressibility (1/GPa) = 0.01905994
#
# Stress axis : x y z
#
# Youngs Moduli (GPa) = 71.79395 93.02353 76.03401
#
# Poissons Ratio (x) = 0.30670 0.48278
# Poissons Ratio (y) = 0.23670 -0.01985
# Poissons Ratio (z) = 0.45585 -0.02429
#
# Static dielectric constant tensor:
#      x y z
#    x 4.026810 0.000000 0.000000 
#    y 0.000000 3.871880 0.000000 
#    z 0.000000 0.000000 4.203870 
# 
# 
# High freq. dielectric constant tensor:
#      x y z
#    x 1.856680 0.000000 0.000000 
#    y 0.000000 1.855760 0.000000 
#    z 0.000000 0.000000 1.861500 
# 
# From -- ./inp_files/11728.got.cif
#   From: 2010.03.12/outbox.cif.g09.slc.cpg/sg56_6_cif.got.tgz:11728.got - 2010.04.16 15:33:40.
