data_PCOD8228727
_publ_section_title
;
Structure prediction by ZEFSAII (Michael W. Deem and Ramdas Pophale) SiO2 
 PCOD8228727
Probable space group: P C C N
;
_chemical_formula_sum "Si O2"
_cell_formula_units_Z 36
_cell_length_a 9.531338
_cell_length_b 20.050321
_cell_length_c 9.017867
_cell_angle_alpha 90.000000
_cell_angle_beta 90.000000
_cell_angle_gamma 90.000000
_cell_volume 1723.371976
_symmetry_space_group_name_H-M "P C C N"
_symmetry_group_IT_number 56
_symmetry_cell_setting 'orthorhombic'
loop_
_space_group_symop_operation_xyz
x,y,z
1/2-x,1/2-y,z
1/2+x,-y,1/2-z
-x,1/2+y,1/2-z
-x,-y,-z
1/2+x,1/2+y,-z
1/2-x,y,1/2+z
x,1/2-y,1/2+z
loop_
_atom_site_type_symbol
_atom_site_label
_atom_site_fract_x
_atom_site_fract_y
_atom_site_fract_z
Si Si1 0.895026 0.434621 0.160578
Si Si2 0.889773 0.449753 0.816476
Si Si3 0.750000 0.750000 0.758669
Si Si4 0.987936 0.180056 0.159407
Si Si5 0.474291 0.696117 0.168888
O O1 0.024297 0.482299 0.197606
O O2 0.758508 0.464002 0.240338
O O3 0.928203 0.361458 0.219823
O O4 0.867962 0.428636 0.986011
O O5 0.973204 0.392304 0.730079
O O6 0.847084 0.799939 0.856447
O O7 0.644637 0.796299 0.662069
O O8 0.910383 0.234521 0.265541
O O9 0.918307 0.181081 0.996104
#
# Coordination Sequence:
#
# PCOD8228727 Si02
#       5
#     8   8   4   8   8
#     4  11  26  45  66  95 130 171 217 267 324 385
#     4  11  26  45  66  95 130 171 217 267 324 385
#     4   8  22  36  64  96 130 168 210 264 314 384
#     4  10  21  38  64  94 128 167 212 262 315 378
#     4  10  21  38  64  94 128 167 212 262 315 378
#
# _framework density 20.889281
#
# number of rings (size 3 to 8) (size 9 to 14) (size 15 to 20)
#    1.333    0.444    0.000    3.333    3.111    4.444 
#    0.000    4.444    0.000    0.000    0.000    0.000 
#    0.000    0.000    0.000    0.000    0.000    0.000 
#
# Total GULP energy -446162.915134 kJ/mol
# GULP energy per Si atom -12393.414309 kJ/mol
# Density = 2.084174 g / cm^3
# Si number density = 20.889281 Si / 1000 Ang^3
#
#
#
# Elastic Constant Matrix: (Units=GPa)
#
#
# Indices 1 2 3 4 5 6 
#
# 1 69.5336 -9.2200 11.0606 0.0000 0.0000 0.0000
# 2 -9.2200 57.8946 19.4034 0.0000 0.0000 0.0000
# 3 11.0606 19.4034 130.8102 0.0000 0.0000 0.0000
# 4 0.0000 0.0000 0.0000 35.1984 0.0000 0.0000
# 5 0.0000 0.0000 0.0000 0.0000 23.8247 0.0000
# 6 0.0000 0.0000 0.0000 0.0000 0.0000 38.4300
#
#
#
# Elastic Compliance Matrix: (Units=1/GPa)
#
#
# Indices 1 2 3 4 5 6 
#
# 1 0.015048 0.002971 -0.001713 0.000000 0.000000 0.000000
# 2 0.002971 0.018763 -0.003034 0.000000 0.000000 0.000000
# 3 -0.001713 -0.003034 0.008240 0.000000 0.000000 0.000000
# 4 0.000000 0.000000 0.000000 0.028410 0.000000 0.000000
# 5 0.000000 0.000000 0.000000 0.000000 0.041973 0.000000
# 6 0.000000 0.000000 0.000000 0.000000 0.000000 0.026021
#
#
# Mechanical properties :
#
#
# Convention : Reuss Voigt Hill
#
# Bulk Modulus (GPa) = 25.97618 33.41405 29.69511
# Shear Modulus (GPa) = 32.29118 35.29024 33.79071
#
# Velocity S-wave (km/s) = 3.93596 4.11468 4.02632
# Velocity P-wave (km/s) = 5.75482 6.21327 5.98843
#
# Compressibility (1/GPa) = 0.03849681
#
# Stress axis : x y z
#
# Youngs Moduli (GPa) = 66.45443 53.29695 121.36530
#
# Poissons Ratio (x) = -0.15832 0.20790
# Poissons Ratio (y) = -0.19741 0.36826
# Poissons Ratio (z) = 0.11384 0.16172
#
# Static dielectric constant tensor:
#      x y z
#    x 3.702850 0.000000 0.000000 
#    y 0.000000 3.580730 0.000000 
#    z 0.000000 0.000000 3.724250 
# 
# 
# High freq. dielectric constant tensor:
#      x y z
#    x 1.811640 0.000000 0.000000 
#    y 0.000000 1.816050 0.000000 
#    z 0.000000 0.000000 1.826420 
# 
# From -- ./inp_files/1976.got.cif
#   From: 2010.03.12/outbox.cif.g09.slc.cpg/sg56_1_cif.got.tgz:1976.got - 2010.04.16 15:33:40.
