data_PCOD8228815
_publ_section_title
;
Structure prediction by ZEFSAII (Michael W. Deem and Ramdas Pophale) SiO2 
 PCOD8228815
Probable space group: P C C N
;
_chemical_formula_sum "Si O2"
_cell_formula_units_Z 48
_cell_length_a 9.391489
_cell_length_b 13.586859
_cell_length_c 18.528598
_cell_angle_alpha 90.000000
_cell_angle_beta 90.000000
_cell_angle_gamma 90.000000
_cell_volume 2364.264610
_symmetry_space_group_name_H-M "P C C N"
_symmetry_group_IT_number 56
_symmetry_cell_setting 'orthorhombic'
loop_
_space_group_symop_operation_xyz
x,y,z
1/2-x,1/2-y,z
1/2+x,-y,1/2-z
-x,1/2+y,1/2-z
-x,-y,-z
1/2+x,1/2+y,-z
1/2-x,y,1/2+z
x,1/2-y,1/2+z
loop_
_atom_site_type_symbol
_atom_site_label
_atom_site_fract_x
_atom_site_fract_y
_atom_site_fract_z
Si Si1 0.356277 0.333756 0.290054
Si Si2 0.671219 0.154451 0.791702
Si Si3 0.648251 0.339877 0.045495
Si Si4 0.859302 0.831559 0.882047
Si Si5 0.323184 0.990414 0.339200
Si Si6 0.119985 0.551045 0.600529
O O1 0.250000 0.250000 0.318624
O O2 0.514802 0.313464 0.320208
O O3 0.356912 0.336729 0.203921
O O4 0.304762 0.436274 0.323209
O O5 0.750000 0.250000 0.758924
O O6 0.762069 0.112632 0.857428
O O7 0.647435 0.073014 0.731564
O O8 0.750000 0.250000 0.025274
O O9 0.514403 0.298544 0.090592
O O10 0.727824 0.420700 0.095237
O O11 0.592348 0.394553 0.974551
O O12 0.750000 0.750000 0.911549
O O13 0.821946 0.940008 0.912806
O O14 0.470746 0.046615 0.356514
#
# Coordination Sequence:
#
# PCOD8228815 Si02
#       6
#     8   8   8   8   8   8
#     4  11  23  38  63  98 130 163 214 270 324 378
#     4  12  22  38  62  96 129 165 215 269 318 377
#     4  11  24  44  65  94 130 175 216 264 324 388
#     4  10  21  40  65  94 125 168 215 268 319 380
#     4  11  21  42  64  94 126 168 217 264 323 377
#     4  11  23  44  65  93 133 174 211 268 321 385
#
# _framework density 20.302296999999999
#
# number of rings (size 3 to 8) (size 9 to 14) (size 15 to 20)
#    0.000    1.000    5.000    4.000    0.000    1.333 
#    0.000   11.667    0.000    0.000    0.000    0.000 
#    0.000    0.000    0.000    0.000    0.000    0.000 
#
# Total GULP energy -595270.652745 kJ/mol
# GULP energy per Si atom -12401.471932 kJ/mol
# Density = 2.025609 g / cm^3
# Si number density = 20.302297 Si / 1000 Ang^3
#
#
#
# Elastic Constant Matrix: (Units=GPa)
#
#
# Indices 1 2 3 4 5 6 
#
# 1 131.8057 73.1537 31.9286 0.0000 0.0000 0.0000
# 2 73.1537 109.9366 25.5434 0.0000 0.0000 0.0000
# 3 31.9286 25.5434 77.3268 0.0000 0.0000 0.0000
# 4 0.0000 0.0000 0.0000 26.5126 0.0000 0.0000
# 5 0.0000 0.0000 0.0000 0.0000 23.5790 0.0000
# 6 0.0000 0.0000 0.0000 0.0000 0.0000 43.1304
#
#
#
# Elastic Compliance Matrix: (Units=1/GPa)
#
#
# Indices 1 2 3 4 5 6 
#
# 1 0.012499 -0.007710 -0.002614 0.000000 0.000000 0.000000
# 2 -0.007710 0.014608 -0.001642 0.000000 0.000000 0.000000
# 3 -0.002614 -0.001642 0.014554 0.000000 0.000000 0.000000
# 4 0.000000 0.000000 0.000000 0.037718 0.000000 0.000000
# 5 0.000000 0.000000 0.000000 0.000000 0.042411 0.000000
# 6 0.000000 0.000000 0.000000 0.000000 0.000000 0.023186
#
#
# Mechanical properties :
#
#
# Convention : Reuss Voigt Hill
#
# Bulk Modulus (GPa) = 56.40467 64.48004 60.44235
# Shear Modulus (GPa) = 28.60137 31.20730 29.90434
#
# Velocity S-wave (km/s) = 3.75744 3.92488 3.84207
# Velocity P-wave (km/s) = 6.83134 7.23661 7.03689
#
# Compressibility (1/GPa) = 0.01772903
#
# Stress axis : x y z
#
# Youngs Moduli (GPa) = 80.00510 68.45617 68.70986
#
# Poissons Ratio (x) = 0.52778 0.17962
# Poissons Ratio (y) = 0.61682 0.11282
# Poissons Ratio (z) = 0.20915 0.11241
#
# Static dielectric constant tensor:
#      x y z
#    x 3.823520 0.000000 0.000000 
#    y 0.000000 4.066320 0.000000 
#    z 0.000000 0.000000 3.667240 
# 
# 
# High freq. dielectric constant tensor:
#      x y z
#    x 1.792300 0.000000 0.000000 
#    y 0.000000 1.806290 0.000000 
#    z 0.000000 0.000000 1.783280 
# 
# From -- ./inp_files/14852.got.cif
#   From: 2010.03.12/outbox.cif.g09.slc.cpg/sg56_8_cif.got.tgz:14852.got - 2010.04.16 15:33:40.
