data_PCOD8228871
_publ_section_title
;
Structure prediction by ZEFSAII (Michael W. Deem and Ramdas Pophale) SiO2 
 PCOD8228871
Probable space group: P C C N
;
_chemical_formula_sum "Si O2"
_cell_formula_units_Z 64
_cell_length_a 8.792429
_cell_length_b 18.132881
_cell_length_c 19.249254
_cell_angle_alpha 90.000000
_cell_angle_beta 90.000000
_cell_angle_gamma 90.000000
_cell_volume 3068.948387
_symmetry_space_group_name_H-M "P C C N"
_symmetry_group_IT_number 56
_symmetry_cell_setting 'orthorhombic'
loop_
_space_group_symop_operation_xyz
x,y,z
1/2-x,1/2-y,z
1/2+x,-y,1/2-z
-x,1/2+y,1/2-z
-x,-y,-z
1/2+x,1/2+y,-z
1/2-x,y,1/2+z
x,1/2-y,1/2+z
loop_
_atom_site_type_symbol
_atom_site_label
_atom_site_fract_x
_atom_site_fract_y
_atom_site_fract_z
Si Si1 0.151836 0.584862 0.276686
Si Si2 0.322138 0.175647 0.271434
Si Si3 0.540207 0.080327 0.576973
Si Si4 0.858788 0.438614 0.429105
Si Si5 0.055075 0.475186 0.075014
Si Si6 0.761784 0.836206 0.390442
Si Si7 0.658768 0.181230 0.316189
Si Si8 0.141776 0.041471 0.303529
O O1 0.146934 0.601243 0.358658
O O2 0.217839 0.655475 0.239516
O O3 0.261628 0.516814 0.259230
O O4 0.984977 0.569113 0.248952
O O5 0.250000 0.250000 0.300544
O O6 0.271034 0.158666 0.192628
O O7 0.501828 0.190578 0.274698
O O8 0.256524 0.109639 0.320169
O O9 0.640107 0.092434 0.507790
O O10 0.390069 0.129752 0.577118
O O11 0.499728 0.993729 0.581957
O O12 0.704008 0.478190 0.406934
O O13 0.882400 0.370099 0.379831
O O14 0.096495 0.386892 0.080065
O O15 0.924191 0.501328 0.128298
O O16 0.000000 0.500000 0.000000
O O17 0.750000 0.750000 0.413956
O O18 0.750000 0.250000 0.348541
#
# Coordination Sequence:
#
# PCOD8228871 Si02
#       8
#     8   8   8   8   8   8   8   8
#     4  12  22  38  66  99 125 175 228 280 340 406
#     4  11  24  42  67  97 134 175 227 290 356 417
#     4  10  21  41  70  95 128 182 226 276 344 410
#     4  10  22  43  64  94 138 177 224 280 345 417
#     4  11  23  41  65  96 135 182 234 287 339 420
#     4  10  22  42  66  97 136 175 229 295 353 414
#     4  12  26  43  64  99 140 178 223 289 358 414
#     4  12  22  38  66  98 131 174 231 289 345 413
#
# _framework density 20.854047999999999
#
# number of rings (size 3 to 8) (size 9 to 14) (size 15 to 20)
#    0.000    1.000    2.500    5.250    1.750    2.000 
#    2.250    1.875    0.000    0.000    0.000    0.000 
#    0.000    0.000    0.000    0.000    0.000    0.000 
#
# Total GULP energy -793399.419992 kJ/mol
# GULP energy per Si atom -12396.865937 kJ/mol
# Density = 2.080658 g / cm^3
# Si number density = 20.854048 Si / 1000 Ang^3
#
#
#
# Elastic Constant Matrix: (Units=GPa)
#
#
# Indices 1 2 3 4 5 6 
#
# 1 92.4248 34.9590 16.1544 0.0000 0.0000 0.0000
# 2 34.9590 130.2371 37.7768 0.0000 0.0000 0.0000
# 3 16.1544 37.7768 94.2562 0.0000 0.0000 0.0000
# 4 0.0000 0.0000 0.0000 15.4469 0.0000 0.0000
# 5 0.0000 0.0000 0.0000 0.0000 158.8511 0.0000
# 6 0.0000 0.0000 0.0000 0.0000 0.0000 33.3785
#
#
#
# Elastic Compliance Matrix: (Units=1/GPa)
#
#
# Indices 1 2 3 4 5 6 
#
# 1 0.012106 -0.002996 -0.000874 0.000000 0.000000 0.000000
# 2 -0.002996 0.009430 -0.003266 0.000000 0.000000 0.000000
# 3 -0.000874 -0.003266 0.012068 0.000000 0.000000 0.000000
# 4 0.000000 0.000000 0.000000 0.064738 0.000000 0.000000
# 5 0.000000 0.000000 0.000000 0.000000 0.006295 0.000000
# 6 0.000000 0.000000 0.000000 0.000000 0.000000 0.029959
#
#
# Mechanical properties :
#
#
# Convention : Reuss Voigt Hill
#
# Bulk Modulus (GPa) = 51.72823 54.96650 53.34736
# Shear Modulus (GPa) = 32.19333 56.73715 44.46524
#
# Velocity S-wave (km/s) = 3.93331 5.22167 4.62260
# Velocity P-wave (km/s) = 6.74438 7.92271 7.35718
#
# Compressibility (1/GPa) = 0.01933180
#
# Stress axis : x y z
#
# Youngs Moduli (GPa) = 82.60673 106.04683 82.86298
#
# Poissons Ratio (x) = 0.31771 0.07242
# Poissons Ratio (y) = 0.24748 0.27062
# Poissons Ratio (z) = 0.07220 0.34634
#
# Static dielectric constant tensor:
#      x y z
#    x 2.814050 0.000000 0.000000 
#    y 0.000000 3.961850 0.000000 
#    z 0.000000 0.000000 3.626210 
# 
# 
# High freq. dielectric constant tensor:
#      x y z
#    x 1.829120 0.000000 0.000000 
#    y 0.000000 1.814920 0.000000 
#    z 0.000000 0.000000 1.807550 
# 
# From -- ./inp_files/18381.got.cif
#   From: 2010.03.12/outbox.cif.g09.slc.cpg/sg56_10_cif.got.tgz:18381.got - 2010.04.16 15:33:40.
