data_PCOD8228430
_publ_section_title
;
Structure prediction by ZEFSAII (Michael W. Deem and Ramdas Pophale) SiO2 
 PCOD8228430
Probable space group: P C C N
;
_chemical_formula_sum "Si O2"
_cell_formula_units_Z 56
_cell_length_a 12.523568
_cell_length_b 13.032762
_cell_length_c 15.197564
_cell_angle_alpha 90.000000
_cell_angle_beta 90.000000
_cell_angle_gamma 90.000000
_cell_volume 2480.495957
_symmetry_space_group_name_H-M "P C C N"
_symmetry_group_IT_number 56
_symmetry_cell_setting 'orthorhombic'
loop_
_space_group_symop_operation_xyz
x,y,z
1/2-x,1/2-y,z
1/2+x,-y,1/2-z
-x,1/2+y,1/2-z
-x,-y,-z
1/2+x,1/2+y,-z
1/2-x,y,1/2+z
x,1/2-y,1/2+z
loop_
_atom_site_type_symbol
_atom_site_label
_atom_site_fract_x
_atom_site_fract_y
_atom_site_fract_z
Si Si1 0.959677 0.788482 0.479495
Si Si2 0.148923 0.503831 0.306393
Si Si3 0.186423 0.911135 0.178072
Si Si4 0.457124 0.434790 0.080244
Si Si5 0.483535 0.590858 0.308601
Si Si6 0.817048 0.334459 0.977355
Si Si7 0.335758 0.043143 0.918002
O O1 0.919065 0.674203 0.459432
O O2 0.868425 0.857278 0.525114
O O3 0.001071 0.830321 0.386569
O O4 0.064307 0.790643 0.542314
O O5 0.232104 0.575731 0.258026
O O6 0.219101 0.435599 0.375447
O O7 0.056766 0.572105 0.352165
O O8 0.099534 0.432234 0.230858
O O9 0.084291 0.860539 0.227481
O O10 0.244660 0.837493 0.110252
O O11 0.145136 0.014585 0.128167
O O12 0.500000 0.500000 0.000000
O O13 0.425774 0.486386 0.345202
O O14 0.750000 0.250000 0.035804
O O15 0.823580 0.446336 0.018006
#
# Coordination Sequence:
#
# PCOD8228430 Si02
#       7
#     8   8   8   8   8   8   8
#     4  11  22  40  65  91 122 163 209 260 314 376
#     4  10  20  40  62  84 123 163 202 257 317 377
#     4  10  21  38  61  91 123 158 204 260 315 373
#     4  11  24  43  62  89 129 168 208 261 319 379
#     4   9  20  37  59  89 123 158 202 261 315 367
#     4  11  21  37  64  93 121 160 210 257 310 380
#     4  10  20  37  63  91 120 162 213 262 315 378
#
# _framework density 22.576131
#
# number of rings (size 3 to 8) (size 9 to 14) (size 15 to 20)
#    0.000    1.714    0.000    6.000    0.000    1.143 
#    0.000   17.857    0.000    1.714    0.000    0.000 
#    0.000    0.000    0.000    0.000    0.000    0.000 
#
# Total GULP energy -693877.842179 kJ/mol
# GULP energy per Si atom -12390.675753 kJ/mol
# Density = 2.252475 g / cm^3
# Si number density = 22.576131 Si / 1000 Ang^3
#
#
#
# Elastic Constant Matrix: (Units=GPa)
#
#
# Indices 1 2 3 4 5 6 
#
# 1 87.8902 32.7663 23.3853 0.0000 0.0000 0.0000
# 2 32.7663 114.2179 32.4952 0.0000 0.0000 0.0000
# 3 23.3853 32.4952 86.4194 0.0000 0.0000 0.0000
# 4 0.0000 0.0000 0.0000 16.7173 0.0000 0.0000
# 5 0.0000 0.0000 0.0000 0.0000 51.9810 0.0000
# 6 0.0000 0.0000 0.0000 0.0000 0.0000 30.3808
#
#
#
# Elastic Compliance Matrix: (Units=1/GPa)
#
#
# Indices 1 2 3 4 5 6 
#
# 1 0.013170 -0.003095 -0.002400 0.000000 0.000000 0.000000
# 2 -0.003095 0.010532 -0.003122 0.000000 0.000000 0.000000
# 3 -0.002400 -0.003122 0.013395 0.000000 0.000000 0.000000
# 4 0.000000 0.000000 0.000000 0.059818 0.000000 0.000000
# 5 0.000000 0.000000 0.000000 0.000000 0.019238 0.000000
# 6 0.000000 0.000000 0.000000 0.000000 0.000000 0.032916
#
#
# Mechanical properties :
#
#
# Convention : Reuss Voigt Hill
#
# Bulk Modulus (GPa) = 50.34936 51.75791 51.05364
# Shear Modulus (GPa) = 28.91429 33.14119 31.02774
#
# Velocity S-wave (km/s) = 3.58263 3.83557 3.71126
# Velocity P-wave (km/s) = 6.28205 6.52619 6.40528
#
# Compressibility (1/GPa) = 0.01986122
#
# Stress axis : x y z
#
# Youngs Moduli (GPa) = 75.92767 94.95286 74.65472
#
# Poissons Ratio (x) = 0.29392 0.17917
# Poissons Ratio (y) = 0.23503 0.23310
# Poissons Ratio (z) = 0.18223 0.29648
#
# Static dielectric constant tensor:
#      x y z
#    x 4.630590 0.000000 0.000000 
#    y 0.000000 3.861760 0.000000 
#    z 0.000000 0.000000 4.378780 
# 
# 
# High freq. dielectric constant tensor:
#      x y z
#    x 1.904600 0.000000 0.000000 
#    y 0.000000 1.854260 0.000000 
#    z 0.000000 0.000000 1.901250 
# 
# From -- ./inp_files/11698.got.cif
#   From: 2010.03.12/outbox.cif.g09.slc.cpg/sg56_6_cif.got.tgz:11698.got - 2010.04.16 15:33:40.
