data_PCOD8228741
_publ_section_title
;
Structure prediction by ZEFSAII (Michael W. Deem and Ramdas Pophale) SiO2 
 PCOD8228741
Probable space group: P C C N
;
_chemical_formula_sum "Si O2"
_cell_formula_units_Z 60
_cell_length_a 25.827271
_cell_length_b 12.097422
_cell_length_c 8.556443
_cell_angle_alpha 90.000000
_cell_angle_beta 90.000000
_cell_angle_gamma 90.000000
_cell_volume 2673.404112
_symmetry_space_group_name_H-M "P C C N"
_symmetry_group_IT_number 56
_symmetry_cell_setting 'orthorhombic'
loop_
_space_group_symop_operation_xyz
x,y,z
1/2-x,1/2-y,z
1/2+x,-y,1/2-z
-x,1/2+y,1/2-z
-x,-y,-z
1/2+x,1/2+y,-z
1/2-x,y,1/2+z
x,1/2-y,1/2+z
loop_
_atom_site_type_symbol
_atom_site_label
_atom_site_fract_x
_atom_site_fract_y
_atom_site_fract_z
Si Si1 0.250000 0.750000 0.885079
Si Si2 0.419526 0.897135 0.170694
Si Si3 0.799844 0.404029 0.866747
Si Si4 0.640511 0.779957 0.587925
Si Si5 0.570162 0.833802 0.328704
Si Si6 0.966478 0.278834 0.127899
Si Si7 0.792212 0.848226 0.361846
Si Si8 0.504334 0.026489 0.318054
O O1 0.282769 0.662716 0.785830
O O2 0.211414 0.674813 0.986647
O O3 0.360609 0.929760 0.141858
O O4 0.424835 0.811865 0.315670
O O5 0.450686 0.006853 0.223452
O O6 0.444854 0.849123 0.014229
O O7 0.771428 0.525071 0.881982
O O8 0.614943 0.859421 0.457108
O O9 0.593330 0.738268 0.691121
O O10 0.667608 0.676069 0.501405
O O11 0.681862 0.846790 0.690267
O O12 0.521729 0.774765 0.415829
O O13 0.549272 0.945926 0.251057
O O14 0.975868 0.351455 0.284306
O O15 0.750000 0.750000 0.368044
O O16 0.500000 0.000000 0.500000
#
# Coordination Sequence:
#
# PCOD8228741 Si02
#       8
#     4   8   8   8   8   8   8   8
#     4  10  26  52  72 102 130 190 224 320 354 428
#     4  11  24  41  65  97 126 186 223 287 338 424
#     4  11  26  48  76  99 141 174 250 284 371 425
#     4  10  23  41  65  97 130 176 221 272 352 413
#     4  10  21  39  59  93 132 174 219 271 328 407
#     4  11  22  40  63  92 142 173 231 277 334 406
#     4  11  26  44  71 102 136 173 226 295 361 420
#     4  11  23  36  61  94 139 181 221 271 339 395
#
# _framework density 22.443296
#
# number of rings (size 3 to 8) (size 9 to 14) (size 15 to 20)
#    0.000    1.333    0.000    5.600   11.200    0.000 
#    0.000    0.000    0.000    0.000    0.000    0.000 
#    0.000    0.000    0.000    0.000    0.000    0.000 
#
# Total GULP energy -743790.178727 kJ/mol
# GULP energy per Si atom -12396.502979 kJ/mol
# Density = 2.239221 g / cm^3
# Si number density = 22.443296 Si / 1000 Ang^3
#
#
#
# Elastic Constant Matrix: (Units=GPa)
#
#
# Indices 1 2 3 4 5 6 
#
# 1 104.0503 33.8369 22.2602 0.0000 0.0000 0.0000
# 2 33.8369 117.9329 12.9238 0.0000 0.0000 0.0000
# 3 22.2602 12.9238 89.4805 0.0000 0.0000 0.0000
# 4 0.0000 0.0000 0.0000 29.0713 0.0000 0.0000
# 5 0.0000 0.0000 0.0000 0.0000 25.8336 0.0000
# 6 0.0000 0.0000 0.0000 0.0000 0.0000 21.5670
#
#
#
# Elastic Compliance Matrix: (Units=1/GPa)
#
#
# Indices 1 2 3 4 5 6 
#
# 1 0.011058 -0.002917 -0.002330 0.000000 0.000000 0.000000
# 2 -0.002917 0.009385 -0.000630 0.000000 0.000000 0.000000
# 3 -0.002330 -0.000630 0.011846 0.000000 0.000000 0.000000
# 4 0.000000 0.000000 0.000000 0.034398 0.000000 0.000000
# 5 0.000000 0.000000 0.000000 0.000000 0.038709 0.000000
# 6 0.000000 0.000000 0.000000 0.000000 0.000000 0.046367
#
#
# Mechanical properties :
#
#
# Convention : Reuss Voigt Hill
#
# Bulk Modulus (GPa) = 48.69497 49.94505 49.32001
# Shear Modulus (GPa) = 29.34916 31.45724 30.40320
#
# Velocity S-wave (km/s) = 3.62014 3.74790 3.68457
# Velocity P-wave (km/s) = 6.26242 6.40556 6.33439
#
# Compressibility (1/GPa) = 0.02053600
#
# Stress axis : x y z
#
# Youngs Moduli (GPa) = 90.43361 106.54777 84.41604
#
# Poissons Ratio (x) = 0.31084 0.19665
# Poissons Ratio (y) = 0.26383 0.05317
# Poissons Ratio (z) = 0.21067 0.06710
#
# Static dielectric constant tensor:
#      x y z
#    x 4.007630 0.000000 0.000000 
#    y 0.000000 4.549540 0.000000 
#    z 0.000000 0.000000 4.121320 
# 
# 
# High freq. dielectric constant tensor:
#      x y z
#    x 1.874230 0.000000 0.000000 
#    y 0.000000 1.885260 0.000000 
#    z 0.000000 0.000000 1.898830 
# 
# From -- ./inp_files/4965.got.cif
#   From: 2010.03.12/outbox.cif.g09.slc.cpg/sg56_3_cif.got.tgz:4965.got - 2010.04.16 15:33:40.
