data_PCOD8228598
_publ_section_title
;
Structure prediction by ZEFSAII (Michael W. Deem and Ramdas Pophale) SiO2 
 PCOD8228598
Probable space group: P C C N
;
_chemical_formula_sum "Si O2"
_cell_formula_units_Z 64
_cell_length_a 8.983902
_cell_length_b 22.400715
_cell_length_c 14.293600
_cell_angle_alpha 90.000000
_cell_angle_beta 90.000000
_cell_angle_gamma 90.000000
_cell_volume 2876.527371
_symmetry_space_group_name_H-M "P C C N"
_symmetry_group_IT_number 56
_symmetry_cell_setting 'orthorhombic'
loop_
_space_group_symop_operation_xyz
x,y,z
1/2-x,1/2-y,z
1/2+x,-y,1/2-z
-x,1/2+y,1/2-z
-x,-y,-z
1/2+x,1/2+y,-z
1/2-x,y,1/2+z
x,1/2-y,1/2+z
loop_
_atom_site_type_symbol
_atom_site_label
_atom_site_fract_x
_atom_site_fract_y
_atom_site_fract_z
Si Si1 0.096223 0.729042 0.841695
Si Si2 0.635233 0.393369 0.577351
Si Si3 0.842002 0.024660 0.965606
Si Si4 0.129787 0.202089 0.817590
Si Si5 0.719915 0.578046 0.238787
Si Si6 0.806010 0.594337 0.951385
Si Si7 0.882304 0.792673 0.976134
Si Si8 0.586560 0.473220 0.755720
O O1 0.250000 0.750000 0.794931
O O2 0.148741 0.677420 0.912355
O O3 0.999133 0.700970 0.758991
O O4 0.013880 0.782060 0.900667
O O5 0.778570 0.417578 0.520068
O O6 0.479294 0.399530 0.520725
O O7 0.633451 0.424743 0.678941
O O8 0.835604 0.040123 0.855487
O O9 0.730225 0.971095 0.988974
O O10 0.000000 0.000000 0.000000
O O11 0.250000 0.250000 0.783392
O O12 0.204575 0.135886 0.827678
O O13 0.063599 0.222483 0.918157
O O14 0.713695 0.604143 0.341732
O O15 0.589191 0.529358 0.224658
O O16 0.871190 0.540378 0.220731
O O17 0.685311 0.641296 0.988877
O O18 0.750000 0.750000 0.942670
#
# Coordination Sequence:
#
# PCOD8228598 Si02
#       8
#     8   8   8   8   8   8   8   8
#     4  12  26  45  68  98 140 180 222 291 346 408
#     4  11  23  45  66  94 137 178 220 281 344 407
#     4  11  25  39  64 103 132 174 225 275 343 417
#     4  11  24  45  71  98 130 181 231 284 336 410
#     4  10  20  42  64  91 135 171 216 279 327 404
#     4  10  21  41  69  91 132 176 220 282 331 400
#     4  11  23  44  73 100 128 179 237 279 339 412
#     4  10  22  40  64  95 128 176 211 270 337 396
#
# _framework density 22.249048999999999
#
# number of rings (size 3 to 8) (size 9 to 14) (size 15 to 20)
#    0.000    1.250    3.750    2.250    5.250    0.500 
#    4.500    0.000    0.000    0.000    0.000    0.000 
#    0.000    0.000    0.000    0.000    0.000    0.000 
#
# Total GULP energy -793160.625628 kJ/mol
# GULP energy per Si atom -12393.134775 kJ/mol
# Density = 2.219841 g / cm^3
# Si number density = 22.249049 Si / 1000 Ang^3
#
#
#
# Elastic Constant Matrix: (Units=GPa)
#
#
# Indices 1 2 3 4 5 6 
#
# 1 107.9624 49.8910 29.3956 0.0000 0.0000 0.0000
# 2 49.8910 94.9596 22.0250 0.0000 0.0000 0.0000
# 3 29.3956 22.0250 76.5098 0.0000 0.0000 0.0000
# 4 0.0000 0.0000 0.0000 25.9193 0.0000 0.0000
# 5 0.0000 0.0000 0.0000 0.0000 15.3826 0.0000
# 6 0.0000 0.0000 0.0000 0.0000 0.0000 41.8435
#
#
#
# Elastic Compliance Matrix: (Units=1/GPa)
#
#
# Indices 1 2 3 4 5 6 
#
# 1 0.012936 -0.006048 -0.003229 0.000000 0.000000 0.000000
# 2 -0.006048 0.014111 -0.001739 0.000000 0.000000 0.000000
# 3 -0.003229 -0.001739 0.014811 0.000000 0.000000 0.000000
# 4 0.000000 0.000000 0.000000 0.038581 0.000000 0.000000
# 5 0.000000 0.000000 0.000000 0.000000 0.065009 0.000000
# 6 0.000000 0.000000 0.000000 0.000000 0.000000 0.023899
#
#
# Mechanical properties :
#
#
# Convention : Reuss Voigt Hill
#
# Bulk Modulus (GPa) = 50.43389 53.56167 51.99778
# Shear Modulus (GPa) = 25.25394 28.50374 26.87884
#
# Velocity S-wave (km/s) = 3.37272 3.58316 3.47953
# Velocity P-wave (km/s) = 6.15500 6.42220 6.29002
#
# Compressibility (1/GPa) = 0.01982794
#
# Stress axis : x y z
#
# Youngs Moduli (GPa) = 77.30073 70.86421 67.51519
#
# Poissons Ratio (x) = 0.42857 0.21803
# Poissons Ratio (y) = 0.46749 0.11739
# Poissons Ratio (z) = 0.24963 0.12321
#
# Static dielectric constant tensor:
#      x y z
#    x 4.255270 0.000000 0.000000 
#    y 0.000000 4.071020 0.000000 
#    z 0.000000 0.000000 3.975900 
# 
# 
# High freq. dielectric constant tensor:
#      x y z
#    x 1.866070 0.000000 0.000000 
#    y 0.000000 1.876130 0.000000 
#    z 0.000000 0.000000 1.876680 
# 
# From -- ./inp_files/11057.got.cif
#   From: 2010.03.12/outbox.cif.g09.slc.cpg/sg56_6_cif.got.tgz:11057.got - 2010.04.16 15:33:40.
