data_PCOD8228900
_publ_section_title
;
Structure prediction by ZEFSAII (Michael W. Deem and Ramdas Pophale) SiO2 
 PCOD8228900
Probable space group: P C C N
;
_chemical_formula_sum "Si O2"
_cell_formula_units_Z 36
_cell_length_a 9.762712
_cell_length_b 8.739523
_cell_length_c 20.380478
_cell_angle_alpha 90.000000
_cell_angle_beta 90.000000
_cell_angle_gamma 90.000000
_cell_volume 1738.891854
_symmetry_space_group_name_H-M "P C C N"
_symmetry_group_IT_number 56
_symmetry_cell_setting 'orthorhombic'
loop_
_space_group_symop_operation_xyz
x,y,z
1/2-x,1/2-y,z
1/2+x,-y,1/2-z
-x,1/2+y,1/2-z
-x,-y,-z
1/2+x,1/2+y,-z
1/2-x,y,1/2+z
x,1/2-y,1/2+z
loop_
_atom_site_type_symbol
_atom_site_label
_atom_site_fract_x
_atom_site_fract_y
_atom_site_fract_z
Si Si1 0.957510 0.775011 0.098853
Si Si2 0.633985 0.355102 0.702854
Si Si3 0.604133 0.685777 0.746393
Si Si4 0.774909 0.997892 0.569066
Si Si5 0.750000 0.250000 0.961948
O O1 0.941905 0.746473 0.175808
O O2 0.878226 0.931785 0.080807
O O3 0.884737 0.637551 0.059139
O O4 0.117689 0.784625 0.082542
O O5 0.750000 0.250000 0.736704
O O6 0.606645 0.502156 0.748480
O O7 0.498126 0.251032 0.698673
O O8 0.681014 0.399049 0.630372
O O9 0.750000 0.750000 0.766005
O O10 0.777887 0.100087 0.504631
#
# Coordination Sequence:
#
# PCOD8228900 Si02
#       5
#     8   8   8   8   4
#     4  10  22  41  61  93 128 166 204 262 319 355
#     4  11  22  39  66  90 123 163 205 256 325 377
#     4  11  22  41  63  90 128 161 202 263 317 382
#     4  10  21  43  62  86 130 163 204 262 311 367
#     4  12  22  36  68  90 118 172 220 250 302 382
#
# _framework density 20.702840999999999
#
# number of rings (size 3 to 8) (size 9 to 14) (size 15 to 20)
#    0.000    1.333    5.556    2.667    1.556    0.000 
#    0.000    0.000    4.889    0.000    0.000    0.000 
#    0.000    0.000    0.000    0.000    0.000    0.000 
#
# Total GULP energy -446457.562887 kJ/mol
# GULP energy per Si atom -12401.598969 kJ/mol
# Density = 2.065572 g / cm^3
# Si number density = 20.702841 Si / 1000 Ang^3
#
#
#
# Elastic Constant Matrix: (Units=GPa)
#
#
# Indices 1 2 3 4 5 6 
#
# 1 195.2159 54.4803 39.8679 0.0000 0.0000 0.0000
# 2 54.4803 102.7390 23.7908 0.0000 0.0000 0.0000
# 3 39.8679 23.7908 26.1965 0.0000 0.0000 0.0000
# 4 0.0000 0.0000 0.0000 40.9726 0.0000 0.0000
# 5 0.0000 0.0000 0.0000 0.0000 13.3876 0.0000
# 6 0.0000 0.0000 0.0000 0.0000 0.0000 44.4725
#
#
#
# Elastic Compliance Matrix: (Units=1/GPa)
#
#
# Indices 1 2 3 4 5 6 
#
# 1 0.007667 -0.001727 -0.010100 0.000000 0.000000 0.000000
# 2 -0.001727 0.012714 -0.008919 0.000000 0.000000 0.000000
# 3 -0.010100 -0.008919 0.061644 0.000000 0.000000 0.000000
# 4 0.000000 0.000000 0.000000 0.024407 0.000000 0.000000
# 5 0.000000 0.000000 0.000000 0.000000 0.074696 0.000000
# 6 0.000000 0.000000 0.000000 0.000000 0.000000 0.022486
#
#
# Mechanical properties :
#
#
# Convention : Reuss Voigt Hill
#
# Bulk Modulus (GPa) = 24.67067 62.26994 43.47030
# Shear Modulus (GPa) = 19.33365 33.50073 26.41719
#
# Velocity S-wave (km/s) = 3.05924 4.02701 3.57601
# Velocity P-wave (km/s) = 4.94176 7.19484 6.17198
#
# Compressibility (1/GPa) = 0.04053396
#
# Stress axis : x y z
#
# Youngs Moduli (GPa) = 130.42594 78.65115 16.22220
#
# Poissons Ratio (x) = 0.13582 0.16385
# Poissons Ratio (y) = 0.22523 0.14468
# Poissons Ratio (z) = 1.31733 0.70146
#
# Static dielectric constant tensor:
#      x y z
#    x 3.595020 0.000000 0.000000 
#    y 0.000000 4.147230 0.000000 
#    z 0.000000 0.000000 3.318000 
# 
# 
# High freq. dielectric constant tensor:
#      x y z
#    x 1.822360 0.000000 0.000000 
#    y 0.000000 1.830070 0.000000 
#    z 0.000000 0.000000 1.777110 
# 
# From -- ./inp_files/17855.got.cif
#   From: 2010.03.12/outbox.cif.g09.slc.cpg/sg56_9_cif.got.tgz:17855.got - 2010.04.16 15:33:40.
