data_PCOD8228913
_publ_section_title
;
Structure prediction by ZEFSAII (Michael W. Deem and Ramdas Pophale) SiO2 
 PCOD8228913
Probable space group: P C C N
;
_chemical_formula_sum "Si O2"
_cell_formula_units_Z 40
_cell_length_a 8.861778
_cell_length_b 10.792120
_cell_length_c 18.359663
_cell_angle_alpha 90.000000
_cell_angle_beta 90.000000
_cell_angle_gamma 90.000000
_cell_volume 1755.869913
_symmetry_space_group_name_H-M "P C C N"
_symmetry_group_IT_number 56
_symmetry_cell_setting 'orthorhombic'
loop_
_space_group_symop_operation_xyz
x,y,z
1/2-x,1/2-y,z
1/2+x,-y,1/2-z
-x,1/2+y,1/2-z
-x,-y,-z
1/2+x,1/2+y,-z
1/2-x,y,1/2+z
x,1/2-y,1/2+z
loop_
_atom_site_type_symbol
_atom_site_label
_atom_site_fract_x
_atom_site_fract_y
_atom_site_fract_z
Si Si1 0.148831 0.360777 0.054961
Si Si2 0.408209 0.962052 0.570252
Si Si3 0.130045 0.456586 0.314996
Si Si4 0.447150 0.273169 0.398183
Si Si5 0.540629 0.026694 0.169844
O O1 0.250000 0.250000 0.088256
O O2 0.238497 0.490071 0.064126
O O3 0.996091 0.383539 0.100952
O O4 0.121986 0.335001 0.970390
O O5 0.496905 0.025069 0.639222
O O6 0.408318 0.811950 0.579105
O O7 0.500000 0.000000 0.500000
O O8 0.281552 0.539407 0.311822
O O9 0.167448 0.326196 0.357726
O O10 0.066394 0.428330 0.234980
O O11 0.498141 0.382189 0.344496
#
# Coordination Sequence:
#
# PCOD8228913 Si02
#       5
#     8   8   8   8   8
#     4  12  23  43  73 104 143 191 238 292 360 426
#     4  10  21  43  71 103 141 186 232 293 355 418
#     4  10  25  45  68 105 146 184 237 297 351 425
#     4  10  24  46  75 100 147 184 237 300 357 428
#     4  12  24  45  75 103 142 195 238 289 368 427
#
# _framework density 22.780729000000001
#
# number of rings (size 3 to 8) (size 9 to 14) (size 15 to 20)
#    1.200    0.000    2.000    4.800    0.000    4.000 
#    0.000    3.000    0.000    0.000    0.000    0.000 
#    0.000    0.000    0.000    0.000    0.000    0.000 
#
# Total GULP energy -495634.388470 kJ/mol
# GULP energy per Si atom -12390.859712 kJ/mol
# Density = 2.272888 g / cm^3
# Si number density = 22.780729 Si / 1000 Ang^3
#
#
#
# Elastic Constant Matrix: (Units=GPa)
#
#
# Indices 1 2 3 4 5 6 
#
# 1 106.2301 27.2672 55.1014 0.0000 0.0000 0.0000
# 2 27.2672 70.5418 22.9744 0.0000 0.0000 0.0000
# 3 55.1014 22.9744 134.7376 0.0000 0.0000 0.0000
# 4 0.0000 0.0000 0.0000 39.3289 0.0000 0.0000
# 5 0.0000 0.0000 0.0000 0.0000 27.4292 0.0000
# 6 0.0000 0.0000 0.0000 0.0000 0.0000 43.1568
#
#
#
# Elastic Compliance Matrix: (Units=1/GPa)
#
#
# Indices 1 2 3 4 5 6 
#
# 1 0.012674 -0.003400 -0.004603 0.000000 0.000000 0.000000
# 2 -0.003400 0.015921 -0.001324 0.000000 0.000000 0.000000
# 3 -0.004603 -0.001324 0.009530 0.000000 0.000000 0.000000
# 4 0.000000 0.000000 0.000000 0.025427 0.000000 0.000000
# 5 0.000000 0.000000 0.000000 0.000000 0.036457 0.000000
# 6 0.000000 0.000000 0.000000 0.000000 0.000000 0.023171
#
#
# Mechanical properties :
#
#
# Convention : Reuss Voigt Hill
#
# Bulk Modulus (GPa) = 51.35967 58.02172 54.69069
# Shear Modulus (GPa) = 33.70946 35.72741 34.71844
#
# Velocity S-wave (km/s) = 3.85091 3.96449 3.90811
# Velocity P-wave (km/s) = 6.50898 6.81771 6.66513
#
# Compressibility (1/GPa) = 0.01947053
#
# Stress axis : x y z
#
# Youngs Moduli (GPa) = 78.90215 62.80819 104.92922
#
# Poissons Ratio (x) = 0.21353 0.48303
# Poissons Ratio (y) = 0.26825 0.13898
# Poissons Ratio (z) = 0.36321 0.08319
#
# Static dielectric constant tensor:
#      x y z
#    x 4.425790 0.000000 0.000000 
#    y 0.000000 4.292310 0.000000 
#    z 0.000000 0.000000 4.163500 
# 
# 
# High freq. dielectric constant tensor:
#      x y z
#    x 1.893940 0.000000 0.000000 
#    y 0.000000 1.882770 0.000000 
#    z 0.000000 0.000000 1.903970 
# 
# From -- ./inp_files/14474.got.cif
#   From: 2010.03.12/outbox.cif.g09.slc.cpg/sg56_8_cif.got.tgz:14474.got - 2010.04.16 15:33:40.
