data_PCOD8228595
_publ_section_title
;
Structure prediction by ZEFSAII (Michael W. Deem and Ramdas Pophale) SiO2 
 PCOD8228595
Probable space group: P C C N
;
_chemical_formula_sum "Si O2"
_cell_formula_units_Z 52
_cell_length_a 8.560740
_cell_length_b 18.063897
_cell_length_c 15.574544
_cell_angle_alpha 90.000000
_cell_angle_beta 90.000000
_cell_angle_gamma 90.000000
_cell_volume 2408.452555
_symmetry_space_group_name_H-M "P C C N"
_symmetry_group_IT_number 56
_symmetry_cell_setting 'orthorhombic'
loop_
_space_group_symop_operation_xyz
x,y,z
1/2-x,1/2-y,z
1/2+x,-y,1/2-z
-x,1/2+y,1/2-z
-x,-y,-z
1/2+x,1/2+y,-z
1/2-x,y,1/2+z
x,1/2-y,1/2+z
loop_
_atom_site_type_symbol
_atom_site_label
_atom_site_fract_x
_atom_site_fract_y
_atom_site_fract_z
Si Si1 0.250000 0.750000 0.226080
Si Si2 0.140436 0.901390 0.491454
Si Si3 0.261958 0.592747 0.308261
Si Si4 0.313878 0.135653 0.422352
Si Si5 0.192606 0.046541 0.572403
Si Si6 0.499110 0.277407 0.410785
Si Si7 0.904525 0.544296 0.745893
O O1 0.258718 0.677450 0.282723
O O2 0.411838 0.755669 0.175268
O O3 0.255252 0.905518 0.410902
O O4 0.973287 0.928112 0.461284
O O5 0.126466 0.817774 0.527994
O O6 0.207831 0.957052 0.564271
O O7 0.119612 0.543143 0.272889
O O8 0.418123 0.552666 0.275118
O O9 0.315940 0.086114 0.508876
O O10 0.432201 0.201179 0.448989
O O11 0.143994 0.166305 0.394988
O O12 0.370565 0.091017 0.339244
O O13 0.207626 0.068364 0.673198
#
# Coordination Sequence:
#
# PCOD8228595 Si02
#       7
#     4   8   8   8   8   8   8
#     4  12  24  40  58  96 130 168 208 264 326 382
#     4   9  18  37  61  87 120 166 208 257 315 374
#     4  11  24  40  64  93 129 165 217 262 318 381
#     4  10  20  42  63  93 125 167 214 262 309 381
#     4   9  18  35  64  92 119 159 216 257 307 373
#     4  10  22  39  63  86 129 170 205 261 324 376
#     4  11  22  41  65  94 123 167 214 268 308 379
#
# _framework density 21.590624999999999
#
# number of rings (size 3 to 8) (size 9 to 14) (size 15 to 20)
#    0.000    1.846    3.077    0.923    4.308    0.615 
#    2.769    3.846    0.000    0.000    0.000    0.000 
#    0.000    0.000    0.000    0.000    0.000    0.000 
#
# Total GULP energy -644445.724571 kJ/mol
# GULP energy per Si atom -12393.187011 kJ/mol
# Density = 2.154148 g / cm^3
# Si number density = 21.590625 Si / 1000 Ang^3
#
#
#
# Elastic Constant Matrix: (Units=GPa)
#
#
# Indices 1 2 3 4 5 6 
#
# 1 35.8060 25.2343 5.4356 0.0000 0.0000 0.0000
# 2 25.2343 154.9026 46.2042 0.0000 0.0000 0.0000
# 3 5.4356 46.2042 83.7737 0.0000 0.0000 0.0000
# 4 0.0000 0.0000 0.0000 33.0846 0.0000 0.0000
# 5 0.0000 0.0000 0.0000 0.0000 -33.4345 0.0000
# 6 0.0000 0.0000 0.0000 0.0000 0.0000 31.3366
#
#
#
# Elastic Compliance Matrix: (Units=1/GPa)
#
#
# Indices 1 2 3 4 5 6 
#
# 1 0.031613 -0.005432 0.000945 0.000000 0.000000 0.000000
# 2 -0.005432 0.008660 -0.004424 0.000000 0.000000 0.000000
# 3 0.000945 -0.004424 0.014316 0.000000 0.000000 0.000000
# 4 0.000000 0.000000 0.000000 0.030225 0.000000 0.000000
# 5 0.000000 0.000000 0.000000 0.000000 -0.029909 0.000000
# 6 0.000000 0.000000 0.000000 0.000000 0.000000 0.031912
#
#
# Mechanical properties :
#
#
# Convention : Reuss Voigt Hill
#
# Bulk Modulus (GPa) = 27.19865 47.58117 37.38991
# Shear Modulus (GPa) = 42.77385 19.37121 31.07253
#
# Velocity S-wave (km/s) = 4.45582 2.99859 3.79775
# Velocity P-wave (km/s) = 6.25278 5.83733 6.04862
#
# Compressibility (1/GPa) = 0.03676654
#
# Stress axis : x y z
#
# Youngs Moduli (GPa) = 31.63269 115.47263 69.85400
#
# Poissons Ratio (x) = 0.62720 -0.06598
# Poissons Ratio (y) = 0.17182 0.30903
# Poissons Ratio (z) = -0.02988 0.51084
#
# Static dielectric constant tensor:
#      x y z
#    x 3.773910 0.000000 0.000000 
#    y 0.000000 4.253740 0.000000 
#    z 0.000000 0.000000 4.131920 
# 
# 
# High freq. dielectric constant tensor:
#      x y z
#    x 1.828760 0.000000 0.000000 
#    y 0.000000 1.857840 0.000000 
#    z 0.000000 0.000000 1.848440 
# 
# From -- ./inp_files/15036.got.cif
#   From: 2010.03.12/outbox.cif.g09.slc.cpg/sg56_8_cif.got.tgz:15036.got - 2010.04.16 15:33:40.
