data_PCOD8228318
_publ_section_title
;
Structure prediction by ZEFSAII (Michael W. Deem and Ramdas Pophale) SiO2 
 PCOD8228318
Probable space group: P C C N
;
_chemical_formula_sum "Si O2"
_cell_formula_units_Z 44
_cell_length_a 27.368065
_cell_length_b 7.436336
_cell_length_c 9.117002
_cell_angle_alpha 90.000000
_cell_angle_beta 90.000000
_cell_angle_gamma 90.000000
_cell_volume 1855.475171
_symmetry_space_group_name_H-M "P C C N"
_symmetry_group_IT_number 56
_symmetry_cell_setting 'orthorhombic'
loop_
_space_group_symop_operation_xyz
x,y,z
1/2-x,1/2-y,z
1/2+x,-y,1/2-z
-x,1/2+y,1/2-z
-x,-y,-z
1/2+x,1/2+y,-z
1/2-x,y,1/2+z
x,1/2-y,1/2+z
loop_
_atom_site_type_symbol
_atom_site_label
_atom_site_fract_x
_atom_site_fract_y
_atom_site_fract_z
Si Si1 0.915215 0.967172 0.502760
Si Si2 0.949383 0.212633 0.805996
Si Si3 0.559997 0.768843 0.743780
Si Si4 0.683195 0.155143 0.023839
Si Si5 0.602945 0.423241 0.062384
Si Si6 0.250000 0.750000 0.228780
O O1 0.935779 0.931092 0.669448
O O2 0.923810 0.777206 0.414098
O O3 0.945739 0.107657 0.405829
O O4 0.857745 0.003368 0.511251
O O5 0.921342 0.251116 0.651926
O O6 0.005188 0.158690 0.777669
O O7 0.924427 0.056377 0.905265
O O8 0.598586 0.897133 0.656639
O O9 0.658625 0.356130 0.035288
O O10 0.717500 0.121793 0.165359
O O11 0.714509 0.134740 0.875402
#
# Coordination Sequence:
#
# PCOD8228318 Si02
#       6
#     8   8   8   8   8   4
#     4  10  23  37  55  82 120 151 196 238 282 335
#     4  10  20  35  53  82 118 161 199 229 266 329
#     4  11  21  35  55  83 118 161 193 230 277 331
#     4  10  21  40  62  91 109 144 186 243 295 347
#     4  10  21  35  56  83 118 147 194 239 280 334
#     4  10  20  38  70  86 108 138 192 238 296 364
#
# _framework density 23.713602000000002
#
# number of rings (size 3 to 8) (size 9 to 14) (size 15 to 20)
#    0.000    1.818    0.000    5.455    0.000   10.182 
#    0.000    0.000    0.000   18.545    0.000    0.000 
#    0.000    0.000    0.000    0.000    0.000    0.000 
#
# Total GULP energy -545450.275353 kJ/mol
# GULP energy per Si atom -12396.597167 kJ/mol
# Density = 2.365963 g / cm^3
# Si number density = 23.713602 Si / 1000 Ang^3
#
#
#
# Elastic Constant Matrix: (Units=GPa)
#
#
# Indices 1 2 3 4 5 6 
#
# 1 129.8833 17.0188 42.0382 0.0000 0.0000 0.0000
# 2 17.0188 19.1333 -1.1878 0.0000 0.0000 0.0000
# 3 42.0382 -1.1878 153.9680 0.0000 0.0000 0.0000
# 4 0.0000 0.0000 0.0000 32.4086 0.0000 0.0000
# 5 0.0000 0.0000 0.0000 0.0000 40.3064 0.0000
# 6 0.0000 0.0000 0.0000 0.0000 0.0000 14.9759
#
#
#
# Elastic Compliance Matrix: (Units=1/GPa)
#
#
# Indices 1 2 3 4 5 6 
#
# 1 0.009739 -0.008832 -0.002727 0.000000 0.000000 0.000000
# 2 -0.008832 0.060300 0.002877 0.000000 0.000000 0.000000
# 3 -0.002727 0.002877 0.007262 0.000000 0.000000 0.000000
# 4 0.000000 0.000000 0.000000 0.030856 0.000000 0.000000
# 5 0.000000 0.000000 0.000000 0.000000 0.024810 0.000000
# 6 0.000000 0.000000 0.000000 0.000000 0.000000 0.066774
#
#
# Mechanical properties :
#
#
# Convention : Reuss Voigt Hill
#
# Bulk Modulus (GPa) = 16.68479 46.52478 31.60478
# Shear Modulus (GPa) = 21.08956 33.87921 27.48438
#
# Velocity S-wave (km/s) = 2.98542 3.78389 3.40812
# Velocity P-wave (km/s) = 4.35143 6.22515 5.37063
#
# Compressibility (1/GPa) = 0.05993482
#
# Stress axis : x y z
#
# Youngs Moduli (GPa) = 102.67756 16.58388 137.70927
#
# Poissons Ratio (x) = 0.14647 0.37557
# Poissons Ratio (y) = 0.90687 -0.39614
# Poissons Ratio (z) = 0.28003 -0.04771
#
# Static dielectric constant tensor:
#      x y z
#    x 4.053990 0.000000 0.000000 
#    y 0.000000 4.161240 0.000000 
#    z 0.000000 0.000000 5.081510 
# 
# 
# High freq. dielectric constant tensor:
#      x y z
#    x 1.916260 0.000000 0.000000 
#    y 0.000000 1.924100 0.000000 
#    z 0.000000 0.000000 1.989300 
# 
# From -- ./inp_files/2171.got.cif
#   From: 2010.03.12/outbox.cif.g09.slc.cpg/sg56_2_cif.got.tgz:2171.got - 2010.04.16 15:33:40.
