data_PCOD8228303
_publ_section_title
;
Structure prediction by ZEFSAII (Michael W. Deem and Ramdas Pophale) SiO2 
 PCOD8228303
Probable space group: P C C N
;
_chemical_formula_sum "Si O2"
_cell_formula_units_Z 48
_cell_length_a 8.225090
_cell_length_b 14.347384
_cell_length_c 18.799443
_cell_angle_alpha 90.000000
_cell_angle_beta 90.000000
_cell_angle_gamma 90.000000
_cell_volume 2218.494533
_symmetry_space_group_name_H-M "P C C N"
_symmetry_group_IT_number 56
_symmetry_cell_setting 'orthorhombic'
loop_
_space_group_symop_operation_xyz
x,y,z
1/2-x,1/2-y,z
1/2+x,-y,1/2-z
-x,1/2+y,1/2-z
-x,-y,-z
1/2+x,1/2+y,-z
1/2-x,y,1/2+z
x,1/2-y,1/2+z
loop_
_atom_site_type_symbol
_atom_site_label
_atom_site_fract_x
_atom_site_fract_y
_atom_site_fract_z
Si Si1 0.879004 0.825602 0.557244
Si Si2 0.761042 0.501146 0.639086
Si Si3 0.364589 0.829473 0.939936
Si Si4 0.457452 0.495761 0.733357
Si Si5 0.089985 0.295991 0.184577
Si Si6 0.918476 0.301338 0.810841
O O1 0.750000 0.750000 0.528824
O O2 0.776065 0.907203 0.594073
O O3 0.990827 0.862455 0.492416
O O4 0.002439 0.779591 0.613105
O O5 0.745779 0.417085 0.583121
O O6 0.644924 0.490147 0.708676
O O7 0.936611 0.503563 0.679591
O O8 0.250000 0.750000 0.975010
O O9 0.442918 0.784296 0.870082
O O10 0.370390 0.403883 0.701797
O O11 0.382876 0.588990 0.698693
O O12 0.250000 0.250000 0.150710
O O13 0.046365 0.237157 0.254194
O O14 0.750000 0.250000 0.802908
#
# Coordination Sequence:
#
# PCOD8228303 Si02
#       6
#     8   8   8   8   8   8
#     4  11  23  40  59  83 118 159 199 244 295 352
#     4  10  21  38  61  87 118 151 192 244 299 350
#     4  11  23  40  59  83 118 159 199 244 295 352
#     4  10  20  34  56  87 115 145 187 240 292 346
#     4  11  21  36  59  87 117 153 196 246 299 353
#     4  11  21  36  59  87 117 153 196 246 299 353
#
# _framework density 21.636295
#
# number of rings (size 3 to 8) (size 9 to 14) (size 15 to 20)
#    0.000    1.333    0.000    8.500    0.000    0.000 
#    0.000    0.833    0.000    0.000    0.000    0.000 
#    0.000    0.000    0.000    0.000    0.000    0.000 
#
# Total GULP energy -595118.015009 kJ/mol
# GULP energy per Si atom -12398.291979 kJ/mol
# Density = 2.158705 g / cm^3
# Si number density = 21.636295 Si / 1000 Ang^3
#
#
#
# Elastic Constant Matrix: (Units=GPa)
#
#
# Indices 1 2 3 4 5 6 
#
# 1 47.1741 34.7924 10.3471 0.0000 0.0000 0.0000
# 2 34.7924 121.6104 18.3400 0.0000 0.0000 0.0000
# 3 10.3471 18.3400 87.8192 0.0000 0.0000 0.0000
# 4 0.0000 0.0000 0.0000 28.3872 0.0000 0.0000
# 5 0.0000 0.0000 0.0000 0.0000 49.6365 0.0000
# 6 0.0000 0.0000 0.0000 0.0000 0.0000 27.0966
#
#
#
# Elastic Compliance Matrix: (Units=1/GPa)
#
#
# Indices 1 2 3 4 5 6 
#
# 1 0.027090 -0.007505 -0.001624 0.000000 0.000000 0.000000
# 2 -0.007505 0.010570 -0.001323 0.000000 0.000000 0.000000
# 3 -0.001624 -0.001323 0.011855 0.000000 0.000000 0.000000
# 4 0.000000 0.000000 0.000000 0.035227 0.000000 0.000000
# 5 0.000000 0.000000 0.000000 0.000000 0.020146 0.000000
# 6 0.000000 0.000000 0.000000 0.000000 0.000000 0.036905
#
#
# Mechanical properties :
#
#
# Convention : Reuss Voigt Hill
#
# Bulk Modulus (GPa) = 34.95443 42.61808 38.78626
# Shear Modulus (GPa) = 29.03016 33.89901 31.46458
#
# Velocity S-wave (km/s) = 3.66694 3.96253 3.81760
# Velocity P-wave (km/s) = 5.84116 6.37776 6.11535
#
# Compressibility (1/GPa) = 0.02860867
#
# Stress axis : x y z
#
# Youngs Moduli (GPa) = 36.91430 94.60942 84.35448
#
# Poissons Ratio (x) = 0.71008 0.13702
# Poissons Ratio (y) = 0.27705 0.11161
# Poissons Ratio (z) = 0.05996 0.12517
#
# Static dielectric constant tensor:
#      x y z
#    x 3.860570 0.000000 0.000000 
#    y 0.000000 4.001980 0.000000 
#    z 0.000000 0.000000 3.833180 
# 
# 
# High freq. dielectric constant tensor:
#      x y z
#    x 1.840920 0.000000 0.000000 
#    y 0.000000 1.861300 0.000000 
#    z 0.000000 0.000000 1.837690 
# 
# From -- ./inp_files/14793.got.cif
#   From: 2010.03.12/outbox.cif.g09.slc.cpg/sg56_8_cif.got.tgz:14793.got - 2010.04.16 15:33:40.
