data_PCOD8228656
_publ_section_title
;
Structure prediction by ZEFSAII (Michael W. Deem and Ramdas Pophale) SiO2 
 PCOD8228656
Probable space group: P C C N
;
_chemical_formula_sum "Si O2"
_cell_formula_units_Z 48
_cell_length_a 15.610563
_cell_length_b 8.466790
_cell_length_c 18.026077
_cell_angle_alpha 90.000000
_cell_angle_beta 90.000000
_cell_angle_gamma 90.000000
_cell_volume 2382.531089
_symmetry_space_group_name_H-M "P C C N"
_symmetry_group_IT_number 56
_symmetry_cell_setting 'orthorhombic'
loop_
_space_group_symop_operation_xyz
x,y,z
1/2-x,1/2-y,z
1/2+x,-y,1/2-z
-x,1/2+y,1/2-z
-x,-y,-z
1/2+x,1/2+y,-z
1/2-x,y,1/2+z
x,1/2-y,1/2+z
loop_
_atom_site_type_symbol
_atom_site_label
_atom_site_fract_x
_atom_site_fract_y
_atom_site_fract_z
Si Si1 0.907586 0.401709 0.077055
Si Si2 0.003021 0.312969 0.308882
Si Si3 0.083754 0.927821 0.590791
Si Si4 0.580615 0.140260 0.680834
Si Si5 0.220624 0.575340 0.210224
Si Si6 0.323465 0.129979 0.809756
O O1 0.901680 0.218028 0.101167
O O2 0.841542 0.507757 0.123626
O O3 0.006543 0.447945 0.089902
O O4 0.879339 0.408020 0.991572
O O5 0.011368 0.499652 0.323432
O O6 0.093517 0.232791 0.293826
O O7 0.952886 0.238445 0.378731
O O8 0.948674 0.283943 0.234522
O O9 0.160240 0.991390 0.643983
O O10 0.669098 0.073655 0.712433
O O11 0.250000 0.750000 0.186464
O O12 0.299221 0.459282 0.231646
O O13 0.250000 0.250000 0.836225
#
# Coordination Sequence:
#
# PCOD8228656 Si02
#       6
#     8   8   8   8   8   8
#     4  10  21  41  62  81 122 160 193 242 296 351
#     4  10  21  35  61  88 115 153 204 246 285 349
#     4   9  22  41  60  85 119 158 196 243 294 352
#     4  11  20  36  60  86 116 155 202 245 289 342
#     4  11  21  37  57  88 118 151 196 250 294 346
#     4  11  21  36  60  88 117 155 199 241 292 350
#
# _framework density 20.146642
#
# number of rings (size 3 to 8) (size 9 to 14) (size 15 to 20)
#    0.000    1.667    3.333    3.000    2.333    0.667 
#    3.000    0.833    3.667    0.000    0.000    0.000 
#    0.000    0.000    0.000    0.000    0.000    0.000 
#
# Total GULP energy -595123.300803 kJ/mol
# GULP energy per Si atom -12398.402100 kJ/mol
# Density = 2.010079 g / cm^3
# Si number density = 20.146642 Si / 1000 Ang^3
#
#
#
# Elastic Constant Matrix: (Units=GPa)
#
#
# Indices 1 2 3 4 5 6 
#
# 1 67.6169 13.1874 39.9235 0.0000 0.0000 0.0000
# 2 13.1874 94.8537 40.1596 0.0000 0.0000 0.0000
# 3 39.9235 40.1596 129.8727 0.0000 0.0000 0.0000
# 4 0.0000 0.0000 0.0000 17.4430 0.0000 0.0000
# 5 0.0000 0.0000 0.0000 0.0000 29.4848 0.0000
# 6 0.0000 0.0000 0.0000 0.0000 0.0000 26.5084
#
#
#
# Elastic Compliance Matrix: (Units=1/GPa)
#
#
# Indices 1 2 3 4 5 6 
#
# 1 0.018072 -0.000185 -0.005498 0.000000 0.000000 0.000000
# 2 -0.000185 0.012133 -0.003695 0.000000 0.000000 0.000000
# 3 -0.005498 -0.003695 0.010533 0.000000 0.000000 0.000000
# 4 0.000000 0.000000 0.000000 0.057330 0.000000 0.000000
# 5 0.000000 0.000000 0.000000 0.000000 0.033916 0.000000
# 6 0.000000 0.000000 0.000000 0.000000 0.000000 0.037724
#
#
# Mechanical properties :
#
#
# Convention : Reuss Voigt Hill
#
# Bulk Modulus (GPa) = 45.49331 53.20935 49.35133
# Shear Modulus (GPa) = 25.53777 27.95877 26.74827
#
# Velocity S-wave (km/s) = 3.56419 3.72931 3.64769
# Velocity P-wave (km/s) = 6.29031 6.70910 6.50308
#
# Compressibility (1/GPa) = 0.02198125
#
# Stress axis : x y z
#
# Youngs Moduli (GPa) = 55.33564 82.42259 94.94361
#
# Poissons Ratio (x) = 0.01522 0.52202
# Poissons Ratio (y) = 0.01022 0.35081
# Poissons Ratio (z) = 0.30425 0.30455
#
# Static dielectric constant tensor:
#      x y z
#    x 3.835720 0.000000 0.000000 
#    y 0.000000 3.721380 0.000000 
#    z 0.000000 0.000000 3.546220 
# 
# 
# High freq. dielectric constant tensor:
#      x y z
#    x 1.793900 0.000000 0.000000 
#    y 0.000000 1.784640 0.000000 
#    z 0.000000 0.000000 1.761280 
# 
# From -- ./inp_files/14799.got.cif
#   From: 2010.03.12/outbox.cif.g09.slc.cpg/sg56_8_cif.got.tgz:14799.got - 2010.04.16 15:33:40.
