data_PCOD8228666
_publ_section_title
;
Structure prediction by ZEFSAII (Michael W. Deem and Ramdas Pophale) SiO2 
 PCOD8228666
Probable space group: P C C N
;
_chemical_formula_sum "Si O2"
_cell_formula_units_Z 48
_cell_length_a 12.604012
_cell_length_b 21.343718
_cell_length_c 8.991928
_cell_angle_alpha 90.000000
_cell_angle_beta 90.000000
_cell_angle_gamma 90.000000
_cell_volume 2418.976799
_symmetry_space_group_name_H-M "P C C N"
_symmetry_group_IT_number 56
_symmetry_cell_setting 'orthorhombic'
loop_
_space_group_symop_operation_xyz
x,y,z
1/2-x,1/2-y,z
1/2+x,-y,1/2-z
-x,1/2+y,1/2-z
-x,-y,-z
1/2+x,1/2+y,-z
1/2-x,y,1/2+z
x,1/2-y,1/2+z
loop_
_atom_site_type_symbol
_atom_site_label
_atom_site_fract_x
_atom_site_fract_y
_atom_site_fract_z
Si Si1 0.161232 0.319053 0.509346
Si Si2 0.982557 0.086924 0.571864
Si Si3 0.941082 0.031973 0.281484
Si Si4 0.636026 0.545198 0.888668
Si Si5 0.881323 0.800593 0.336679
Si Si6 0.733632 0.020262 0.138140
O O1 0.117453 0.387559 0.539959
O O2 0.150725 0.302037 0.335825
O O3 0.092906 0.270458 0.610809
O O4 0.283981 0.320381 0.557519
O O5 0.988206 0.084983 0.392192
O O6 0.017507 0.154743 0.632396
O O7 0.861320 0.069956 0.617214
O O8 0.065638 0.034927 0.632180
O O9 0.015403 0.021062 0.137092
O O10 0.824229 0.054040 0.235437
O O11 0.690985 0.541915 0.724785
O O12 0.708757 0.500478 0.987928
#
# Coordination Sequence:
#
# PCOD8228666 Si02
#       6
#     8   8   8   8   8   8
#     4  11  23  38  61  89 123 166 205 261 301 371
#     4  10  22  38  60  92 127 162 198 262 315 380
#     4  10  21  36  60  89 124 163 200 252 320 365
#     4  11  22  34  61  89 124 158 208 250 317 370
#     4  11  24  39  60  90 124 162 211 248 319 365
#     4  11  21  39  59  94 127 159 202 260 313 382
#
# _framework density 19.843101000000001
#
# number of rings (size 3 to 8) (size 9 to 14) (size 15 to 20)
#    0.000    1.333    1.667    5.500    9.333    1.333 
#    0.000    0.000    0.000    1.000    0.000    0.000 
#    0.000    0.000    0.000    0.000    0.000    0.000 
#
# Total GULP energy -594741.143361 kJ/mol
# GULP energy per Si atom -12390.440487 kJ/mol
# Density = 1.979794 g / cm^3
# Si number density = 19.843101 Si / 1000 Ang^3
#
#
#
# Elastic Constant Matrix: (Units=GPa)
#
#
# Indices 1 2 3 4 5 6 
#
# 1 121.0183 41.6505 49.7209 0.0000 0.0000 0.0000
# 2 41.6505 89.3990 46.0544 0.0000 0.0000 0.0000
# 3 49.7209 46.0544 137.1679 0.0000 0.0000 0.0000
# 4 0.0000 0.0000 0.0000 27.8094 0.0000 0.0000
# 5 0.0000 0.0000 0.0000 0.0000 29.4362 0.0000
# 6 0.0000 0.0000 0.0000 0.0000 0.0000 29.7516
#
#
#
# Elastic Compliance Matrix: (Units=1/GPa)
#
#
# Indices 1 2 3 4 5 6 
#
# 1 0.010574 -0.003569 -0.002635 0.000000 0.000000 0.000000
# 2 -0.003569 0.014730 -0.003652 0.000000 0.000000 0.000000
# 3 -0.002635 -0.003652 0.009471 0.000000 0.000000 0.000000
# 4 0.000000 0.000000 0.000000 0.035959 0.000000 0.000000
# 5 0.000000 0.000000 0.000000 0.000000 0.033972 0.000000
# 6 0.000000 0.000000 0.000000 0.000000 0.000000 0.033612
#
#
# Mechanical properties :
#
#
# Convention : Reuss Voigt Hill
#
# Bulk Modulus (GPa) = 66.38224 69.15962 67.77093
# Shear Modulus (GPa) = 30.66538 31.41008 31.03773
#
# Velocity S-wave (km/s) = 3.93541 3.98291 3.95923
# Velocity P-wave (km/s) = 7.36045 7.48868 7.42484
#
# Compressibility (1/GPa) = 0.01506427
#
# Stress axis : x y z
#
# Youngs Moduli (GPa) = 94.57151 67.88894 105.58084
#
# Poissons Ratio (x) = 0.24231 0.27816
# Poissons Ratio (y) = 0.33754 0.38556
# Poissons Ratio (z) = 0.24915 0.24792
#
# Static dielectric constant tensor:
#      x y z
#    x 3.623710 0.000000 0.000000 
#    y 0.000000 3.468350 0.000000 
#    z 0.000000 0.000000 4.002390 
# 
# 
# High freq. dielectric constant tensor:
#      x y z
#    x 1.768610 0.000000 0.000000 
#    y 0.000000 1.729640 0.000000 
#    z 0.000000 0.000000 1.803120 
# 
# From -- ./inp_files/2782.got.cif
#   From: 2010.03.12/outbox.cif.g09.slc.cpg/sg56_2_cif.got.tgz:2782.got - 2010.04.16 15:33:40.
