data_PCOD8228543
_publ_section_title
;
Structure prediction by ZEFSAII (Michael W. Deem and Ramdas Pophale) SiO2 
 PCOD8228543
Probable space group: P C C N
;
_chemical_formula_sum "Si O2"
_cell_formula_units_Z 64
_cell_length_a 18.785039
_cell_length_b 11.068540
_cell_length_c 14.712006
_cell_angle_alpha 90.000000
_cell_angle_beta 90.000000
_cell_angle_gamma 90.000000
_cell_volume 3058.963770
_symmetry_space_group_name_H-M "P C C N"
_symmetry_group_IT_number 56
_symmetry_cell_setting 'orthorhombic'
loop_
_space_group_symop_operation_xyz
x,y,z
1/2-x,1/2-y,z
1/2+x,-y,1/2-z
-x,1/2+y,1/2-z
-x,-y,-z
1/2+x,1/2+y,-z
1/2-x,y,1/2+z
x,1/2-y,1/2+z
loop_
_atom_site_type_symbol
_atom_site_label
_atom_site_fract_x
_atom_site_fract_y
_atom_site_fract_z
Si Si1 0.923203 0.291746 0.891032
Si Si2 0.447441 0.439687 0.329492
Si Si3 0.973813 0.471088 0.363714
Si Si4 0.109721 0.425332 0.477737
Si Si5 0.742694 0.469613 0.086120
Si Si6 0.874394 0.173621 0.588071
Si Si7 0.178314 0.200871 0.383588
Si Si8 0.683380 0.333160 0.239842
O O1 0.935766 0.157915 0.851945
O O2 0.860509 0.356888 0.832879
O O3 0.992895 0.375276 0.889745
O O4 0.907326 0.271930 0.997071
O O5 0.481572 0.467837 0.233217
O O6 0.420092 0.558774 0.380071
O O7 0.382236 0.344677 0.314223
O O8 0.928648 0.565358 0.425250
O O9 0.053244 0.455341 0.399699
O O10 0.172751 0.525174 0.476980
O O11 0.144844 0.294704 0.456415
O O12 0.791782 0.355284 0.064162
O O13 0.792184 0.584287 0.063657
O O14 0.714507 0.455583 0.191928
O O15 0.871943 0.272009 0.668225
O O16 0.250000 0.250000 0.332497
O O17 0.750000 0.250000 0.266514
#
# Coordination Sequence:
#
# PCOD8228543 Si02
#       8
#     8   8   8   8   8   8   8   8
#     4  12  23  39  64  95 129 172 219 269 335 403
#     4  11  22  42  61  93 130 167 214 273 329 395
#     4  11  23  38  64  95 128 167 217 275 325 397
#     4  10  20  40  62  92 121 171 219 264 331 389
#     4   9  19  38  63  88 126 166 210 269 324 388
#     4  10  22  40  61  90 126 169 212 272 330 385
#     4   9  19  39  66  85 124 171 210 262 326 387
#     4  10  21  38  60  93 130 167 215 267 328 391
#
# _framework density 20.922117
#
# number of rings (size 3 to 8) (size 9 to 14) (size 15 to 20)
#    0.000    1.750    2.500    1.875    0.000    3.500 
#    0.000    1.875    0.000    0.000    0.000    0.000 
#    0.000    0.000    0.000    0.000    0.000    0.000 
#
# Total GULP energy -792993.609755 kJ/mol
# GULP energy per Si atom -12390.525152 kJ/mol
# Density = 2.087450 g / cm^3
# Si number density = 20.922117 Si / 1000 Ang^3
#
#
#
# Elastic Constant Matrix: (Units=GPa)
#
#
# Indices 1 2 3 4 5 6 
#
# 1 109.7204 23.5250 30.5798 0.0000 0.0000 0.0000
# 2 23.5250 71.9672 13.6666 0.0000 0.0000 0.0000
# 3 30.5798 13.6666 83.2465 0.0000 0.0000 0.0000
# 4 0.0000 0.0000 0.0000 22.1935 0.0000 0.0000
# 5 0.0000 0.0000 0.0000 0.0000 29.9037 0.0000
# 6 0.0000 0.0000 0.0000 0.0000 0.0000 34.4788
#
#
#
# Elastic Compliance Matrix: (Units=1/GPa)
#
#
# Indices 1 2 3 4 5 6 
#
# 1 0.010686 -0.002836 -0.003460 0.000000 0.000000 0.000000
# 2 -0.002836 0.015095 -0.001436 0.000000 0.000000 0.000000
# 3 -0.003460 -0.001436 0.013519 0.000000 0.000000 0.000000
# 4 0.000000 0.000000 0.000000 0.045058 0.000000 0.000000
# 5 0.000000 0.000000 0.000000 0.000000 0.033441 0.000000
# 6 0.000000 0.000000 0.000000 0.000000 0.000000 0.029003
#
#
# Mechanical properties :
#
#
# Convention : Reuss Voigt Hill
#
# Bulk Modulus (GPa) = 41.95347 44.49743 43.22545
# Shear Modulus (GPa) = 29.37491 30.45939 29.91715
#
# Velocity S-wave (km/s) = 3.75108 3.81970 3.78554
# Velocity P-wave (km/s) = 6.23350 6.38496 6.30969
#
# Compressibility (1/GPa) = 0.02383593
#
# Stress axis : x y z
#
# Youngs Moduli (GPa) = 93.57608 66.24672 73.96835
#
# Poissons Ratio (x) = 0.18789 0.25593
# Poissons Ratio (y) = 0.26540 0.10624
# Poissons Ratio (z) = 0.32377 0.09515
#
# Static dielectric constant tensor:
#      x y z
#    x 4.145320 0.000000 0.000000 
#    y 0.000000 3.915600 0.000000 
#    z 0.000000 0.000000 3.365000 
# 
# 
# High freq. dielectric constant tensor:
#      x y z
#    x 1.846100 0.000000 0.000000 
#    y 0.000000 1.820080 0.000000 
#    z 0.000000 0.000000 1.779240 
# 
# From -- ./inp_files/12885.got.cif
#   From: 2010.03.12/outbox.cif.g09.slc.cpg/sg56_7_cif.got.tgz:12885.got - 2010.04.16 15:33:40.
