data_PCOD8228002
_publ_section_title
;
Structure prediction by ZEFSAII (Michael W. Deem and Ramdas Pophale) SiO2 
 PCOD8228002
Probable space group: P C C N
;
_chemical_formula_sum "Si O2"
_cell_formula_units_Z 56
_cell_length_a 16.598778
_cell_length_b 21.969526
_cell_length_c 8.237080
_cell_angle_alpha 90.000000
_cell_angle_beta 90.000000
_cell_angle_gamma 90.000000
_cell_volume 3003.793599
_symmetry_space_group_name_H-M "P C C N"
_symmetry_group_IT_number 56
_symmetry_cell_setting 'orthorhombic'
loop_
_space_group_symop_operation_xyz
x,y,z
1/2-x,1/2-y,z
1/2+x,-y,1/2-z
-x,1/2+y,1/2-z
-x,-y,-z
1/2+x,1/2+y,-z
1/2-x,y,1/2+z
x,1/2-y,1/2+z
loop_
_atom_site_type_symbol
_atom_site_label
_atom_site_fract_x
_atom_site_fract_y
_atom_site_fract_z
Si Si1 0.200384 0.071658 0.528496
Si Si2 0.530431 0.053071 0.669975
Si Si3 0.474805 0.921006 0.679671
Si Si4 0.606177 0.666479 0.282948
Si Si5 0.854194 0.605963 0.310212
Si Si6 0.158907 0.269041 0.526373
Si Si7 0.915701 0.463785 0.998539
O O1 0.157827 0.106924 0.675797
O O2 0.186051 0.109311 0.365590
O O3 0.295542 0.069384 0.565577
O O4 0.164158 0.004415 0.508682
O O5 0.566014 0.081834 0.501508
O O6 0.437111 0.069705 0.693330
O O7 0.580537 0.075949 0.830138
O O8 0.535153 0.979153 0.668107
O O9 0.522218 0.857938 0.710790
O O10 0.412195 0.926159 0.831596
O O11 0.598827 0.711550 0.438841
O O12 0.652251 0.710095 0.158177
O O13 0.868356 0.674825 0.362176
O O14 0.250000 0.250000 0.565175
O O15 0.000000 0.500000 0.000000
#
# Coordination Sequence:
#
# PCOD8228002 Si02
#       7
#     8   8   8   8   8   8   8
#     4  12  23  35  53  77 106 142 194 229 276 330
#     4  10  19  34  57  80  97 135 193 229 285 333
#     4  10  19  34  58  75  97 133 190 236 286 327
#     4  12  22  37  50  72 103 147 194 232 264 315
#     4  12  23  36  53  75 111 152 187 232 275 324
#     4  12  25  35  48  72 108 154 195 227 261 309
#     4  10  18  36  55  77 100 131 184 237 284 330
#
# _framework density 18.643091999999999
#
# number of rings (size 3 to 8) (size 9 to 14) (size 15 to 20)
#    0.000    0.857    8.571    2.143    0.000    0.000 
#    0.000    0.000    0.000    0.000    0.000    0.000 
#    0.000    0.000    0.000   10.286    0.857    0.000 
#
# Total GULP energy -693886.644358 kJ/mol
# GULP energy per Si atom -12390.832935 kJ/mol
# Density = 1.860066 g / cm^3
# Si number density = 18.643092 Si / 1000 Ang^3
#
#
#
# Elastic Constant Matrix: (Units=GPa)
#
#
# Indices 1 2 3 4 5 6 
#
# 1 32.2917 34.9186 11.6550 0.0000 0.0000 0.0000
# 2 34.9186 67.5285 24.4028 0.0000 0.0000 0.0000
# 3 11.6550 24.4028 149.4359 0.0000 0.0000 0.0000
# 4 0.0000 0.0000 0.0000 27.6824 0.0000 0.0000
# 5 0.0000 0.0000 0.0000 0.0000 19.1827 0.0000
# 6 0.0000 0.0000 0.0000 0.0000 0.0000 26.4628
#
#
#
# Elastic Compliance Matrix: (Units=1/GPa)
#
#
# Indices 1 2 3 4 5 6 
#
# 1 0.070280 -0.036515 0.000482 0.000000 0.000000 0.000000
# 2 -0.036515 0.034709 -0.002820 0.000000 0.000000 0.000000
# 3 0.000482 -0.002820 0.007115 0.000000 0.000000 0.000000
# 4 0.000000 0.000000 0.000000 0.036124 0.000000 0.000000
# 5 0.000000 0.000000 0.000000 0.000000 0.052130 0.000000
# 6 0.000000 0.000000 0.000000 0.000000 0.000000 0.037789
#
#
# Mechanical properties :
#
#
# Convention : Reuss Voigt Hill
#
# Bulk Modulus (GPa) = 29.07283 43.46767 36.27025
# Shear Modulus (GPa) = 15.27558 26.55088 20.91323
#
# Velocity S-wave (km/s) = 2.86557 3.77791 3.35291
# Velocity P-wave (km/s) = 5.15528 6.51125 5.87254
#
# Compressibility (1/GPa) = 0.03439638
#
# Stress axis : x y z
#
# Youngs Moduli (GPa) = 14.22890 28.81061 140.55223
#
# Poissons Ratio (x) = 1.05202 -0.06768
# Poissons Ratio (y) = 0.51957 0.39637
# Poissons Ratio (z) = -0.00685 0.08125
#
# Static dielectric constant tensor:
#      x y z
#    x 2.997590 0.000000 0.000000 
#    y 0.000000 3.286790 0.000000 
#    z 0.000000 0.000000 4.376390 
# 
# 
# High freq. dielectric constant tensor:
#      x y z
#    x 1.657950 0.000000 0.000000 
#    y 0.000000 1.687260 0.000000 
#    z 0.000000 0.000000 1.768440 
# 
# From -- ./inp_files/4536.got.cif
#   From: 2010.03.12/outbox.cif.g09.slc.cpg/sg56_3_cif.got.tgz:4536.got - 2010.04.16 15:33:40.
