data_PCOD8228298
_publ_section_title
;
Structure prediction by ZEFSAII (Michael W. Deem and Ramdas Pophale) SiO2 
 PCOD8228298
Probable space group: P C C N
;
_chemical_formula_sum "Si O2"
_cell_formula_units_Z 60
_cell_length_a 29.490809
_cell_length_b 10.697285
_cell_length_c 8.859295
_cell_angle_alpha 90.000000
_cell_angle_beta 90.000000
_cell_angle_gamma 90.000000
_cell_volume 2794.855869
_symmetry_space_group_name_H-M "P C C N"
_symmetry_group_IT_number 56
_symmetry_cell_setting 'orthorhombic'
loop_
_space_group_symop_operation_xyz
x,y,z
1/2-x,1/2-y,z
1/2+x,-y,1/2-z
-x,1/2+y,1/2-z
-x,-y,-z
1/2+x,1/2+y,-z
1/2-x,y,1/2+z
x,1/2-y,1/2+z
loop_
_atom_site_type_symbol
_atom_site_label
_atom_site_fract_x
_atom_site_fract_y
_atom_site_fract_z
Si Si1 0.688384 0.336939 0.187844
Si Si2 0.529847 0.070987 0.717186
Si Si3 0.122377 0.072737 0.789719
Si Si4 0.117019 0.642979 0.749376
Si Si5 0.068034 0.087450 0.255657
Si Si6 0.559833 0.263827 0.487785
Si Si7 0.750000 0.250000 0.435259
Si Si8 0.898048 0.771133 0.473832
O O1 0.652930 0.450196 0.186915
O O2 0.664123 0.200091 0.193231
O O3 0.721322 0.345902 0.331919
O O4 0.717648 0.338838 0.035235
O O5 0.479273 0.011741 0.727742
O O6 0.532144 0.149128 0.560936
O O7 0.531568 0.158120 0.866419
O O8 0.569318 0.967563 0.715883
O O9 0.130512 0.172179 0.924795
O O10 0.134592 0.140738 0.630572
O O11 0.113661 0.494456 0.718442
O O12 0.105115 0.713887 0.595199
O O13 0.077554 0.652090 0.875325
O O14 0.070869 0.139774 0.424544
O O15 0.067874 0.202149 0.139535
#
# Coordination Sequence:
#
# PCOD8228298 Si02
#       8
#     8   8   8   8   8   8   4   8
#     4  11  23  45  71 108 135 159 207 267 359 393
#     4  11  22  36  58  90 127 180 218 288 312 369
#     4  11  23  43  67  88 135 174 225 260 324 395
#     4  11  22  36  65  93 122 170 209 263 321 398
#     4  11  24  38  57  91 130 175 237 265 320 365
#     4  10  20  34  54  91 118 168 216 269 324 363
#     4  10  26  42  74 116 132 154 192 288 342 408
#     4  10  25  42  57  91 122 190 214 276 298 386
#
# _framework density 21.468012999999999
#
# number of rings (size 3 to 8) (size 9 to 14) (size 15 to 20)
#    0.000    1.333    2.667    3.200    3.733    8.533 
#    0.000    0.000    0.000    2.400    0.000    0.000 
#    0.000    0.000    0.000    0.000    0.000    0.000 
#
# Total GULP energy -743604.574005 kJ/mol
# GULP energy per Si atom -12393.409567 kJ/mol
# Density = 2.141915 g / cm^3
# Si number density = 21.468013 Si / 1000 Ang^3
#
#
#
# Elastic Constant Matrix: (Units=GPa)
#
#
# Indices 1 2 3 4 5 6 
#
# 1 86.4273 33.9414 19.5790 0.0000 0.0000 0.0000
# 2 33.9414 84.0375 16.6652 0.0000 0.0000 0.0000
# 3 19.5790 16.6652 109.1612 0.0000 0.0000 0.0000
# 4 0.0000 0.0000 0.0000 20.1988 0.0000 0.0000
# 5 0.0000 0.0000 0.0000 0.0000 15.3774 0.0000
# 6 0.0000 0.0000 0.0000 0.0000 0.0000 15.8525
#
#
#
# Elastic Compliance Matrix: (Units=1/GPa)
#
#
# Indices 1 2 3 4 5 6 
#
# 1 0.014053 -0.005338 -0.001706 0.000000 0.000000 0.000000
# 2 -0.005338 0.014298 -0.001226 0.000000 0.000000 0.000000
# 3 -0.001706 -0.001226 0.009654 0.000000 0.000000 0.000000
# 4 0.000000 0.000000 0.000000 0.049508 0.000000 0.000000
# 5 0.000000 0.000000 0.000000 0.000000 0.065031 0.000000
# 6 0.000000 0.000000 0.000000 0.000000 0.000000 0.063081
#
#
# Mechanical properties :
#
#
# Convention : Reuss Voigt Hill
#
# Bulk Modulus (GPa) = 46.58193 46.66636 46.62414
# Shear Modulus (GPa) = 20.89270 24.24844 22.57057
#
# Velocity S-wave (km/s) = 3.12300 3.36447 3.24598
# Velocity P-wave (km/s) = 5.89488 6.07270 5.98445
#
# Compressibility (1/GPa) = 0.02146755
#
# Stress axis : x y z
#
# Youngs Moduli (GPa) = 71.15952 69.93879 103.58636
#
# Poissons Ratio (x) = 0.37330 0.17668
# Poissons Ratio (y) = 0.37981 0.12695
# Poissons Ratio (z) = 0.12137 0.08571
#
# Static dielectric constant tensor:
#      x y z
#    x 3.473540 0.000000 0.000000 
#    y 0.000000 3.830880 0.000000 
#    z 0.000000 0.000000 4.286700 
# 
# 
# High freq. dielectric constant tensor:
#      x y z
#    x 1.794280 0.000000 0.000000 
#    y 0.000000 1.834280 0.000000 
#    z 0.000000 0.000000 1.878000 
# 
# From -- ./inp_files/4987.got.cif
#   From: 2010.03.12/outbox.cif.g09.slc.cpg/sg56_3_cif.got.tgz:4987.got - 2010.04.16 15:33:40.
