data_PCOD8228644
_publ_section_title
;
Structure prediction by ZEFSAII (Michael W. Deem and Ramdas Pophale) SiO2 
 PCOD8228644
Probable space group: P C C N
;
_chemical_formula_sum "Si O2"
_cell_formula_units_Z 40
_cell_length_a 10.229897
_cell_length_b 20.839781
_cell_length_c 8.979049
_cell_angle_alpha 90.000000
_cell_angle_beta 90.000000
_cell_angle_gamma 90.000000
_cell_volume 1914.232799
_symmetry_space_group_name_H-M "P C C N"
_symmetry_group_IT_number 56
_symmetry_cell_setting 'orthorhombic'
loop_
_space_group_symop_operation_xyz
x,y,z
1/2-x,1/2-y,z
1/2+x,-y,1/2-z
-x,1/2+y,1/2-z
-x,-y,-z
1/2+x,1/2+y,-z
1/2-x,y,1/2+z
x,1/2-y,1/2+z
loop_
_atom_site_type_symbol
_atom_site_label
_atom_site_fract_x
_atom_site_fract_y
_atom_site_fract_z
Si Si1 0.879501 0.470028 0.584408
Si Si2 0.070972 0.250865 0.335642
Si Si3 0.499437 0.665286 0.913276
Si Si4 0.871840 0.520360 0.916506
Si Si5 0.804466 0.836158 0.415850
O O1 0.899646 0.393593 0.590671
O O2 0.871542 0.498325 0.747766
O O3 0.748948 0.487486 0.498087
O O4 0.000000 0.500000 0.500000
O O5 0.161381 0.296081 0.231769
O O6 0.162665 0.206533 0.440194
O O7 0.974236 0.293687 0.437003
O O8 0.975121 0.207784 0.234283
O O9 0.651983 0.645195 0.913890
O O10 0.878976 0.597044 0.921910
O O11 0.000000 0.500000 0.000000
#
# Coordination Sequence:
#
# PCOD8228644 Si02
#       5
#     8   8   8   8   8
#     4  12  25  45  67  97 137 182 221 282 339 401
#     4  10  21  34  62 103 127 174 213 285 338 393
#     4  11  20  37  64  92 135 164 225 273 340 396
#     4  12  27  43  69  99 138 184 228 277 339 407
#     4  11  20  36  62  95 137 163 224 276 335 399
#
# _framework density 20.896099
#
# number of rings (size 3 to 8) (size 9 to 14) (size 15 to 20)
#    0.000    0.800    2.000    8.400    2.800    0.000 
#    0.000    0.000    0.000   20.400    0.000    0.000 
#    0.000    0.000    0.000    0.000    0.000    0.000 
#
# Total GULP energy -496012.069346 kJ/mol
# GULP energy per Si atom -12400.301734 kJ/mol
# Density = 2.084854 g / cm^3
# Si number density = 20.896099 Si / 1000 Ang^3
#
#
#
# Elastic Constant Matrix: (Units=GPa)
#
#
# Indices 1 2 3 4 5 6 
#
# 1 108.4146 63.4023 60.6299 0.0000 0.0000 0.0000
# 2 63.4023 193.6964 86.1484 0.0000 0.0000 0.0000
# 3 60.6299 86.1484 186.1160 0.0000 0.0000 0.0000
# 4 0.0000 0.0000 0.0000 896.1757 0.0000 0.0000
# 5 0.0000 0.0000 0.0000 0.0000 35.2186 0.0000
# 6 0.0000 0.0000 0.0000 0.0000 0.0000 38.6743
#
#
#
# Elastic Compliance Matrix: (Units=1/GPa)
#
#
# Indices 1 2 3 4 5 6 
#
# 1 0.012415 -0.002852 -0.002724 0.000000 0.000000 0.000000
# 2 -0.002852 0.007156 -0.002383 0.000000 0.000000 0.000000
# 3 -0.002724 -0.002383 0.007364 0.000000 0.000000 0.000000
# 4 0.000000 0.000000 0.000000 0.001116 0.000000 0.000000
# 5 0.000000 0.000000 0.000000 0.000000 0.028394 0.000000
# 6 0.000000 0.000000 0.000000 0.000000 0.000000 0.025857
#
#
# Mechanical properties :
#
#
# Convention : Reuss Voigt Hill
#
# Bulk Modulus (GPa) = 90.77952 100.95424 95.86688
# Shear Modulus (GPa) = 49.07067 212.55016 130.81041
#
# Velocity S-wave (km/s) = 4.85120 10.09646 7.92062
# Velocity P-wave (km/s) = 8.65543 13.57701 11.38534
#
# Compressibility (1/GPa) = 0.01101570
#
# Stress axis : x y z
#
# Youngs Moduli (GPa) = 80.54512 139.73583 135.80250
#
# Poissons Ratio (x) = 0.39857 0.36996
# Poissons Ratio (y) = 0.22974 0.32366
# Poissons Ratio (z) = 0.21942 0.33304
#
# Static dielectric constant tensor:
#      x y z
#    x 3.186380 0.000000 0.000000 
#    y 0.000000 4.153540 0.000000 
#    z 0.000000 0.000000 4.259340 
# 
# 
# High freq. dielectric constant tensor:
#      x y z
#    x 1.780500 0.000000 0.000000 
#    y 0.000000 1.837790 0.000000 
#    z 0.000000 0.000000 1.851400 
# 
# From -- ./inp_files/2057.got.cif
#   From: 2010.03.12/outbox.cif.g09.slc.cpg/sg56_2_cif.got.tgz:2057.got - 2010.04.16 15:33:40.
