data_PCOD8228845
_publ_section_title
;
Structure prediction by ZEFSAII (Michael W. Deem and Ramdas Pophale) SiO2 
 PCOD8228845
Probable space group: P C C N
;
_chemical_formula_sum "Si O2"
_cell_formula_units_Z 36
_cell_length_a 15.713958
_cell_length_b 5.142412
_cell_length_c 19.576475
_cell_angle_alpha 90.000000
_cell_angle_beta 90.000000
_cell_angle_gamma 90.000000
_cell_volume 1581.928865
_symmetry_space_group_name_H-M "P C C N"
_symmetry_group_IT_number 56
_symmetry_cell_setting 'orthorhombic'
loop_
_space_group_symop_operation_xyz
x,y,z
1/2-x,1/2-y,z
1/2+x,-y,1/2-z
-x,1/2+y,1/2-z
-x,-y,-z
1/2+x,1/2+y,-z
1/2-x,y,1/2+z
x,1/2-y,1/2+z
loop_
_atom_site_type_symbol
_atom_site_label
_atom_site_fract_x
_atom_site_fract_y
_atom_site_fract_z
Si Si1 0.533116 0.780012 0.918744
Si Si2 0.750000 0.250000 0.971623
Si Si3 0.750000 0.250000 0.249728
Si Si4 0.883992 0.199735 0.865463
Si Si5 0.125404 0.413719 0.949586
Si Si6 0.750000 0.750000 0.657550
O O1 0.542706 0.521383 0.871842
O O2 0.580311 0.015784 0.880588
O O3 0.433530 0.847213 0.923932
O O4 0.571142 0.741799 0.995967
O O5 0.789238 0.473674 0.017475
O O6 0.818709 0.108579 0.923906
O O7 0.664209 0.204834 0.293550
O O8 0.738180 0.499400 0.203634
O O9 0.161801 0.252110 0.885919
#
# Coordination Sequence:
#
# PCOD8228845 Si02
#       6
#     8   4   4   8   8   4
#     4  10  22  39  66  95 126 156 197 259 315 375
#     4   9  19  36  64  92 123 157 200 256 308 371
#     4  11  25  42  64  88 121 171 222 256 290 359
#     4  10  21  41  63  89 120 165 214 252 297 358
#     4  10  22  38  63  98 128 156 195 253 329 373
#     4  12  24  40  62  90 126 164 206 258 308 370
#
# _framework density 22.757026
#
# number of rings (size 3 to 8) (size 9 to 14) (size 15 to 20)
#    0.000    1.778    0.000    3.333    0.000   19.556 
#    0.000    4.444    0.000    0.000    0.000    0.000 
#    0.000    0.000    0.000    0.000    0.000    0.000 
#
# Total GULP energy -446377.951881 kJ/mol
# GULP energy per Si atom -12399.387552 kJ/mol
# Density = 2.270523 g / cm^3
# Si number density = 22.757026 Si / 1000 Ang^3
#
#
#
# Elastic Constant Matrix: (Units=GPa)
#
#
# Indices 1 2 3 4 5 6 
#
# 1 57.1399 10.2167 40.0076 0.0000 0.0000 0.0000
# 2 10.2167 115.2675 62.5846 0.0000 0.0000 0.0000
# 3 40.0076 62.5846 130.6725 0.0000 0.0000 0.0000
# 4 0.0000 0.0000 0.0000 15.5499 0.0000 0.0000
# 5 0.0000 0.0000 0.0000 0.0000 4.4630 0.0000
# 6 0.0000 0.0000 0.0000 0.0000 0.0000 32.8102
#
#
#
# Elastic Compliance Matrix: (Units=1/GPa)
#
#
# Indices 1 2 3 4 5 6 
#
# 1 0.022752 0.002386 -0.008109 0.000000 0.000000 0.000000
# 2 0.002386 0.011974 -0.006466 0.000000 0.000000 0.000000
# 3 -0.008109 -0.006466 0.013232 0.000000 0.000000 0.000000
# 4 0.000000 0.000000 0.000000 0.064309 0.000000 0.000000
# 5 0.000000 0.000000 0.000000 0.000000 0.224064 0.000000
# 6 0.000000 0.000000 0.000000 0.000000 0.000000 0.030478
#
#
# Mechanical properties :
#
#
# Convention : Reuss Voigt Hill
#
# Bulk Modulus (GPa) = 42.40569 58.74417 50.57493
# Shear Modulus (GPa) = 12.52987 23.24935 17.88961
#
# Velocity S-wave (km/s) = 2.34902 3.19977 2.80681
# Velocity P-wave (km/s) = 5.10213 6.28658 5.72507
#
# Compressibility (1/GPa) = 0.02358174
#
# Stress axis : x y z
#
# Youngs Moduli (GPa) = 43.95281 83.51084 75.57472
#
# Poissons Ratio (x) = -0.19925 0.61280
# Poissons Ratio (y) = -0.10487 0.48864
# Poissons Ratio (z) = 0.35639 0.53995
#
# Static dielectric constant tensor:
#      x y z
#    x 4.296870 0.000000 0.000000 
#    y 0.000000 3.820490 0.000000 
#    z 0.000000 0.000000 4.119570 
# 
# 
# High freq. dielectric constant tensor:
#      x y z
#    x 1.905150 0.000000 0.000000 
#    y 0.000000 1.898050 0.000000 
#    z 0.000000 0.000000 1.884300 
# 
# From -- ./inp_files/17425.got.cif
#   From: 2010.03.12/outbox.cif.g09.slc.cpg/sg56_9_cif.got.tgz:17425.got - 2010.04.16 15:33:40.
