data_PCOD8228258
_publ_section_title
;
Structure prediction by ZEFSAII (Michael W. Deem and Ramdas Pophale) SiO2 
 PCOD8228258
Probable space group: P C C N
;
_chemical_formula_sum "Si O2"
_cell_formula_units_Z 52
_cell_length_a 7.614871
_cell_length_b 18.355416
_cell_length_c 18.711688
_cell_angle_alpha 90.000000
_cell_angle_beta 90.000000
_cell_angle_gamma 90.000000
_cell_volume 2615.409817
_symmetry_space_group_name_H-M "P C C N"
_symmetry_group_IT_number 56
_symmetry_cell_setting 'orthorhombic'
loop_
_space_group_symop_operation_xyz
x,y,z
1/2-x,1/2-y,z
1/2+x,-y,1/2-z
-x,1/2+y,1/2-z
-x,-y,-z
1/2+x,1/2+y,-z
1/2-x,y,1/2+z
x,1/2-y,1/2+z
loop_
_atom_site_type_symbol
_atom_site_label
_atom_site_fract_x
_atom_site_fract_y
_atom_site_fract_z
Si Si1 0.158595 0.108126 0.208436
Si Si2 0.728660 0.557762 0.141665
Si Si3 0.752381 0.100727 0.697174
Si Si4 0.250000 0.250000 0.628871
Si Si5 0.098045 0.697473 0.923744
Si Si6 0.831836 0.451002 0.349981
Si Si7 0.527848 0.075408 0.960981
O O1 0.233744 0.104109 0.287867
O O2 0.254781 0.176823 0.174963
O O3 0.951134 0.119384 0.206282
O O4 0.211565 0.035514 0.165297
O O5 0.785035 0.474304 0.154981
O O6 0.525704 0.560339 0.117349
O O7 0.846056 0.592870 0.079451
O O8 0.848687 0.164374 0.653550
O O9 0.830857 0.094943 0.776608
O O10 0.424554 0.252806 0.581148
O O11 0.250000 0.750000 0.952470
O O12 0.067002 0.635768 0.981239
O O13 0.689083 0.423599 0.405780
O O14 0.500000 0.000000 0.000000
#
# Coordination Sequence:
#
# PCOD8228258 Si02
#       7
#     8   8   8   4   8   8   8
#     4  10  20  38  67  99 123 159 214 267 322 378
#     4  10  21  39  66 100 124 156 213 273 321 376
#     4  10  19  42  68  95 125 160 214 273 318 371
#     4  12  24  40  64  92 126 176 214 260 318 398
#     4  12  26  43  63  93 132 174 213 261 325 393
#     4  10  22  39  70  96 125 161 216 278 319 365
#     4  12  24  41  65  95 132 171 216 267 320 382
#
# _framework density 19.882159999999999
#
# number of rings (size 3 to 8) (size 9 to 14) (size 15 to 20)
#    0.000    1.231    4.615    1.846    2.154    1.846 
#    0.000    4.615    0.000    0.000    0.000    0.000 
#    0.000    0.000    0.000    0.000    0.000    0.000 
#
# Total GULP energy -644944.221347 kJ/mol
# GULP energy per Si atom -12402.773487 kJ/mol
# Density = 1.983691 g / cm^3
# Si number density = 19.882160 Si / 1000 Ang^3
#
#
#
# Elastic Constant Matrix: (Units=GPa)
#
#
# Indices 1 2 3 4 5 6 
#
# 1 116.9191 29.0330 44.4844 0.0000 0.0000 0.0000
# 2 29.0330 83.9243 43.6970 0.0000 0.0000 0.0000
# 3 44.4844 43.6970 84.8892 0.0000 0.0000 0.0000
# 4 0.0000 0.0000 0.0000 31.3892 0.0000 0.0000
# 5 0.0000 0.0000 0.0000 0.0000 4.6738 0.0000
# 6 0.0000 0.0000 0.0000 0.0000 0.0000 33.5038
#
#
#
# Elastic Compliance Matrix: (Units=1/GPa)
#
#
# Indices 1 2 3 4 5 6 
#
# 1 0.010753 -0.001074 -0.005082 0.000000 0.000000 0.000000
# 2 -0.001074 0.016386 -0.007872 0.000000 0.000000 0.000000
# 3 -0.005082 -0.007872 0.018495 0.000000 0.000000 0.000000
# 4 0.000000 0.000000 0.000000 0.031858 0.000000 0.000000
# 5 0.000000 0.000000 0.000000 0.000000 0.213958 0.000000
# 6 0.000000 0.000000 0.000000 0.000000 0.000000 0.029847
#
#
# Mechanical properties :
#
#
# Convention : Reuss Voigt Hill
#
# Bulk Modulus (GPa) = 56.88802 57.79571 57.34186
# Shear Modulus (GPa) = 14.07608 25.14791 19.61200
#
# Velocity S-wave (km/s) = 2.66367 3.56033 3.14413
# Velocity P-wave (km/s) = 6.17534 6.78480 6.48723
#
# Compressibility (1/GPa) = 0.01757839
#
# Stress axis : x y z
#
# Youngs Moduli (GPa) = 92.99538 61.02918 54.06762
#
# Poissons Ratio (x) = 0.06553 0.27479
# Poissons Ratio (y) = 0.09986 0.42561
# Poissons Ratio (z) = 0.47263 0.48041
#
# Static dielectric constant tensor:
#      x y z
#    x 3.915240 0.000000 0.000000 
#    y 0.000000 3.395810 0.000000 
#    z 0.000000 0.000000 3.803750 
# 
# 
# High freq. dielectric constant tensor:
#      x y z
#    x 1.799980 0.000000 0.000000 
#    y 0.000000 1.759640 0.000000 
#    z 0.000000 0.000000 1.766830 
# 
# From -- ./inp_files/15042.got.cif
#   From: 2010.03.12/outbox.cif.g09.slc.cpg/sg56_8_cif.got.tgz:15042.got - 2010.04.16 15:33:40.
