data_PCOD8228905
_publ_section_title
;
Structure prediction by ZEFSAII (Michael W. Deem and Ramdas Pophale) SiO2 
 PCOD8228905
Probable space group: P C C N
;
_chemical_formula_sum "Si O2"
_cell_formula_units_Z 60
_cell_length_a 24.648370
_cell_length_b 8.199936
_cell_length_c 13.581022
_cell_angle_alpha 90.000000
_cell_angle_beta 90.000000
_cell_angle_gamma 90.000000
_cell_volume 2744.929029
_symmetry_space_group_name_H-M "P C C N"
_symmetry_group_IT_number 56
_symmetry_cell_setting 'orthorhombic'
loop_
_space_group_symop_operation_xyz
x,y,z
1/2-x,1/2-y,z
1/2+x,-y,1/2-z
-x,1/2+y,1/2-z
-x,-y,-z
1/2+x,1/2+y,-z
1/2-x,y,1/2+z
x,1/2-y,1/2+z
loop_
_atom_site_type_symbol
_atom_site_label
_atom_site_fract_x
_atom_site_fract_y
_atom_site_fract_z
Si Si1 0.620460 0.793316 0.884318
Si Si2 0.286189 0.398463 0.016514
Si Si3 0.693451 0.088157 0.876860
Si Si4 0.524110 0.823867 0.020817
Si Si5 0.033070 0.179117 0.774293
Si Si6 0.453926 0.823771 0.367049
Si Si7 0.334307 0.792761 0.441586
Si Si8 0.750000 0.250000 0.701967
O O1 0.668667 0.666011 0.905766
O O2 0.583089 0.749256 0.790596
O O3 0.643763 0.969669 0.859832
O O4 0.585679 0.809056 0.983728
O O5 0.250000 0.250000 0.969268
O O6 0.245657 0.510838 0.075168
O O7 0.315460 0.515222 0.935885
O O8 0.714098 0.132589 0.768680
O O9 0.670636 0.235938 0.944495
O O10 0.524250 0.802562 0.136940
O O11 0.488698 0.682252 0.967937
O O12 0.500000 0.000000 0.000000
O O13 0.978826 0.187217 0.706930
O O14 0.042993 0.998798 0.815172
O O15 0.393583 0.774679 0.396673
O O16 0.295355 0.677467 0.373880
#
# Coordination Sequence:
#
# PCOD8228905 Si02
#       8
#     8   8   8   8   8   8   8   4
#     4  10  23  41  68  95 132 178 215 273 344 393
#     4  10  21  43  66  92 135 173 216 278 342 399
#     4  11  22  44  64  94 137 169 225 282 322 411
#     4  11  23  45  68  98 136 180 221 278 342 402
#     4  11  23  46  63 105 138 172 235 284 329 422
#     4  11  25  41  71  98 140 182 227 288 344 404
#     4  12  23  44  68 100 128 182 228 275 340 409
#     4  12  22  40  66  94 128 168 222 276 328 386
#
# _framework density 21.858488000000001
#
# number of rings (size 3 to 8) (size 9 to 14) (size 15 to 20)
#    0.000    1.067    2.667    4.400    0.000    2.133 
#    9.600    3.333    0.000    0.000    0.000    0.000 
#    0.000    0.000    0.000    0.000    0.000    0.000 
#
# Total GULP energy -743517.585311 kJ/mol
# GULP energy per Si atom -12391.959755 kJ/mol
# Density = 2.180874 g / cm^3
# Si number density = 21.858488 Si / 1000 Ang^3
#
#
#
# Elastic Constant Matrix: (Units=GPa)
#
#
# Indices 1 2 3 4 5 6 
#
# 1 148.9469 40.9686 59.0713 0.0000 0.0000 0.0000
# 2 40.9686 71.1864 37.2292 0.0000 0.0000 0.0000
# 3 59.0713 37.2292 132.9727 0.0000 0.0000 0.0000
# 4 0.0000 0.0000 0.0000 -344.2176 0.0000 0.0000
# 5 0.0000 0.0000 0.0000 0.0000 26.0965 0.0000
# 6 0.0000 0.0000 0.0000 0.0000 0.0000 34.5146
#
#
#
# Elastic Compliance Matrix: (Units=1/GPa)
#
#
# Indices 1 2 3 4 5 6 
#
# 1 0.008859 -0.003562 -0.002938 0.000000 0.000000 0.000000
# 2 -0.003562 0.017889 -0.003426 0.000000 0.000000 0.000000
# 3 -0.002938 -0.003426 0.009785 0.000000 0.000000 0.000000
# 4 0.000000 0.000000 0.000000 -0.002905 0.000000 0.000000
# 5 0.000000 0.000000 0.000000 0.000000 0.038319 0.000000
# 6 0.000000 0.000000 0.000000 0.000000 0.000000 0.028973
#
#
# Mechanical properties :
#
#
# Convention : Reuss Voigt Hill
#
# Bulk Modulus (GPa) = 59.95022 69.73824 64.84423
# Shear Modulus (GPa) = 39.57797 -42.33217 -1.37710
#
# Velocity S-wave (km/s) = 4.25978 -4.40551 -0.79459
# Velocity P-wave (km/s) = 7.18891 2.46894 5.37476
#
# Compressibility (1/GPa) = 0.01668051
#
# Stress axis : x y z
#
# Youngs Moduli (GPa) = 112.88305 55.89922 102.19843
#
# Poissons Ratio (x) = 0.19910 0.30028
# Poissons Ratio (y) = 0.40205 0.35017
# Poissons Ratio (z) = 0.33167 0.19153
#
# Static dielectric constant tensor:
#      x y z
#    x 4.285950 0.000000 0.000000 
#    y 0.000000 4.278350 0.000000 
#    z 0.000000 0.000000 4.142660 
# 
# 
# High freq. dielectric constant tensor:
#      x y z
#    x 1.880060 0.000000 0.000000 
#    y 0.000000 1.846310 0.000000 
#    z 0.000000 0.000000 1.861660 
# 
# From -- ./inp_files/13234.got.cif
#   From: 2010.03.12/outbox.cif.g09.slc.cpg/sg56_7_cif.got.tgz:13234.got - 2010.04.16 15:33:40.
