data_PCOD8228842
_publ_section_title
;
Structure prediction by ZEFSAII (Michael W. Deem and Ramdas Pophale) SiO2 
 PCOD8228842
Probable space group: P C C N
;
_chemical_formula_sum "Si O2"
_cell_formula_units_Z 40
_cell_length_a 4.944541
_cell_length_b 29.987791
_cell_length_c 13.092557
_cell_angle_alpha 90.000000
_cell_angle_beta 90.000000
_cell_angle_gamma 90.000000
_cell_volume 1941.310176
_symmetry_space_group_name_H-M "P C C N"
_symmetry_group_IT_number 56
_symmetry_cell_setting 'orthorhombic'
loop_
_space_group_symop_operation_xyz
x,y,z
1/2-x,1/2-y,z
1/2+x,-y,1/2-z
-x,1/2+y,1/2-z
-x,-y,-z
1/2+x,1/2+y,-z
1/2-x,y,1/2+z
x,1/2-y,1/2+z
loop_
_atom_site_type_symbol
_atom_site_label
_atom_site_fract_x
_atom_site_fract_y
_atom_site_fract_z
Si Si1 0.596706 0.490889 0.614838
Si Si2 0.004931 0.719768 0.462114
Si Si3 0.605878 0.554836 0.795434
Si Si4 0.341317 0.340855 0.221595
Si Si5 0.318405 0.699377 0.181330
O O1 0.500000 0.500000 0.500000
O O2 0.571479 0.536650 0.679701
O O3 0.402745 0.454977 0.664850
O O4 0.893296 0.468384 0.625838
O O5 0.250000 0.750000 0.420383
O O6 0.084404 0.695188 0.566010
O O7 0.750000 0.750000 0.486885
O O8 0.939493 0.682136 0.381432
O O9 0.601763 0.607538 0.793879
O O10 0.534475 0.326311 0.314218
O O11 0.036346 0.324884 0.245027
O O12 0.250000 0.750000 0.214971
#
# Coordination Sequence:
#
# PCOD8228842 Si02
#       5
#     8   8   8   8   8
#     4  10  21  41  63  83 120 158 187 239 302 356
#     4  11  23  38  57  82 113 153 197 235 283 346
#     4  10  23  38  59  93 115 147 202 238 288 365
#     4  12  23  38  61  87 119 151 194 251 292 336
#     4  11  23  39  58  83 116 157 195 233 289 347
#
# _framework density 20.60464
#
# number of rings (size 3 to 8) (size 9 to 14) (size 15 to 20)
#    0.000    1.200    0.000    7.800    0.000    3.200 
#    0.000    0.000    0.000    0.000    0.000    0.000 
#    0.000    0.000    0.000    0.000    0.000    0.000 
#
# Total GULP energy -495926.510444 kJ/mol
# GULP energy per Si atom -12398.162761 kJ/mol
# Density = 2.055774 g / cm^3
# Si number density = 20.604640 Si / 1000 Ang^3
#
#
#
# Elastic Constant Matrix: (Units=GPa)
#
#
# Indices 1 2 3 4 5 6 
#
# 1 72.9313 3.0390 1.2805 0.0000 0.0000 0.0000
# 2 3.0390 116.5605 36.5002 0.0000 0.0000 0.0000
# 3 1.2805 36.5002 109.4122 0.0000 0.0000 0.0000
# 4 0.0000 0.0000 0.0000 -75.4992 0.0000 0.0000
# 5 0.0000 0.0000 0.0000 0.0000 21.4784 0.0000
# 6 0.0000 0.0000 0.0000 0.0000 0.0000 27.9778
#
#
#
# Elastic Compliance Matrix: (Units=1/GPa)
#
#
# Indices 1 2 3 4 5 6 
#
# 1 0.013727 -0.000343 -0.000046 0.000000 0.000000 0.000000
# 2 -0.000343 0.009589 -0.003195 0.000000 0.000000 0.000000
# 3 -0.000046 -0.003195 0.010206 0.000000 0.000000 0.000000
# 4 0.000000 0.000000 0.000000 -0.013245 0.000000 0.000000
# 5 0.000000 0.000000 0.000000 0.000000 0.046558 0.000000
# 6 0.000000 0.000000 0.000000 0.000000 0.000000 0.035743
#
#
# Mechanical properties :
#
#
# Convention : Reuss Voigt Hill
#
# Bulk Modulus (GPa) = 37.94672 42.28261 40.11467
# Shear Modulus (GPa) = 42.18344 11.99702 27.09023
#
# Velocity S-wave (km/s) = 4.52960 2.41560 3.62990
# Velocity P-wave (km/s) = 6.76852 5.32406 6.08927
#
# Compressibility (1/GPa) = 0.02635274
#
# Stress axis : x y z
#
# Youngs Moduli (GPa) = 72.85097 104.29036 97.98091
#
# Poissons Ratio (x) = 0.03582 0.00451
# Poissons Ratio (y) = 0.02502 0.31303
# Poissons Ratio (z) = 0.00336 0.33318
#
# Static dielectric constant tensor:
#      x y z
#    x 4.225310 0.000000 0.000000 
#    y 0.000000 3.570940 0.000000 
#    z 0.000000 0.000000 3.736390 
# 
# 
# High freq. dielectric constant tensor:
#      x y z
#    x 1.831560 0.000000 0.000000 
#    y 0.000000 1.797140 0.000000 
#    z 0.000000 0.000000 1.809760 
# 
# From -- ./inp_files/5620.got.cif
#   From: 2010.03.12/outbox.cif.g09.slc.cpg/sg56_3_cif.got.tgz:5620.got - 2010.04.16 15:33:40.
