data_PCOD8228934
_publ_section_title
;
Structure prediction by ZEFSAII (Michael W. Deem and Ramdas Pophale) SiO2 
 PCOD8228934
Probable space group: P C C N
;
_chemical_formula_sum "Si O2"
_cell_formula_units_Z 48
_cell_length_a 11.839734
_cell_length_b 8.790039
_cell_length_c 22.098899
_cell_angle_alpha 90.000000
_cell_angle_beta 90.000000
_cell_angle_gamma 90.000000
_cell_volume 2299.870509
_symmetry_space_group_name_H-M "P C C N"
_symmetry_group_IT_number 56
_symmetry_cell_setting 'orthorhombic'
loop_
_space_group_symop_operation_xyz
x,y,z
1/2-x,1/2-y,z
1/2+x,-y,1/2-z
-x,1/2+y,1/2-z
-x,-y,-z
1/2+x,1/2+y,-z
1/2-x,y,1/2+z
x,1/2-y,1/2+z
loop_
_atom_site_type_symbol
_atom_site_label
_atom_site_fract_x
_atom_site_fract_y
_atom_site_fract_z
Si Si1 0.274124 0.577859 0.446584
Si Si2 0.864416 0.596867 0.207937
Si Si3 0.001381 0.427671 0.119576
Si Si4 0.079127 0.393104 0.657145
Si Si5 0.231154 0.576806 0.087579
Si Si6 0.642376 0.584110 0.152781
O O1 0.250000 0.750000 0.425405
O O2 0.404570 0.544394 0.430544
O O3 0.248985 0.553723 0.516709
O O4 0.188933 0.461501 0.413431
O O5 0.882384 0.654052 0.275733
O O6 0.736820 0.529760 0.201953
O O7 0.875251 0.735117 0.159644
O O8 0.953347 0.468888 0.186510
O O9 0.042075 0.253911 0.119543
O O10 0.103765 0.537512 0.104055
O O11 0.182733 0.469303 0.622761
O O12 0.976539 0.507657 0.664970
O O13 0.250000 0.750000 0.107559
#
# Coordination Sequence:
#
# PCOD8228934 Si02
#       6
#     8   8   8   8   8   8
#     4  10  21  46  68  95 130 173 227 278 327 405
#     4  10  24  40  67  93 137 168 218 273 323 413
#     4  11  23  44  67  98 133 173 225 273 339 391
#     4  12  24  41  68  99 134 171 220 275 332 392
#     4  11  26  43  65  96 136 174 224 274 330 393
#     4  10  22  43  65  95 125 176 217 263 340 385
#
# _framework density 20.870740000000001
#
# number of rings (size 3 to 8) (size 9 to 14) (size 15 to 20)
#    0.000    1.333    1.667    3.000    7.000    0.667 
#   15.000    0.000    0.000    0.000    0.000    0.000 
#    0.000    0.000    0.000    0.000    0.000    0.000 
#
# Total GULP energy -595276.993175 kJ/mol
# GULP energy per Si atom -12401.604024 kJ/mol
# Density = 2.082324 g / cm^3
# Si number density = 20.870740 Si / 1000 Ang^3
#
#
#
# Elastic Constant Matrix: (Units=GPa)
#
#
# Indices 1 2 3 4 5 6 
#
# 1 134.0834 43.5970 26.5123 0.0000 0.0000 0.0000
# 2 43.5970 95.4687 38.7704 0.0000 0.0000 0.0000
# 3 26.5123 38.7704 80.8289 0.0000 0.0000 0.0000
# 4 0.0000 0.0000 0.0000 23.0391 0.0000 0.0000
# 5 0.0000 0.0000 0.0000 0.0000 21.9850 0.0000
# 6 0.0000 0.0000 0.0000 0.0000 0.0000 42.3808
#
#
#
# Elastic Compliance Matrix: (Units=1/GPa)
#
#
# Indices 1 2 3 4 5 6 
#
# 1 0.008851 -0.003555 -0.001198 0.000000 0.000000 0.000000
# 2 -0.003555 0.014437 -0.005759 0.000000 0.000000 0.000000
# 3 -0.001198 -0.005759 0.015527 0.000000 0.000000 0.000000
# 4 0.000000 0.000000 0.000000 0.043405 0.000000 0.000000
# 5 0.000000 0.000000 0.000000 0.000000 0.045486 0.000000
# 6 0.000000 0.000000 0.000000 0.000000 0.000000 0.023596
#
#
# Mechanical properties :
#
#
# Convention : Reuss Voigt Hill
#
# Bulk Modulus (GPa) = 56.20800 58.68229 57.44515
# Shear Modulus (GPa) = 28.04980 30.91439 29.48210
#
# Velocity S-wave (km/s) = 3.67001 3.85285 3.76254
# Velocity P-wave (km/s) = 6.70437 6.92609 6.81613
#
# Compressibility (1/GPa) = 0.01779106
#
# Stress axis : x y z
#
# Youngs Moduli (GPa) = 112.98247 69.26702 64.40459
#
# Poissons Ratio (x) = 0.24628 0.07714
# Poissons Ratio (y) = 0.40171 0.37088
# Poissons Ratio (z) = 0.13532 0.39888
#
# Static dielectric constant tensor:
#      x y z
#    x 3.994000 0.000000 0.000000 
#    y 0.000000 3.771510 0.000000 
#    z 0.000000 0.000000 3.644170 
# 
# 
# High freq. dielectric constant tensor:
#      x y z
#    x 1.838160 0.000000 0.000000 
#    y 0.000000 1.820210 0.000000 
#    z 0.000000 0.000000 1.807270 
# 
# From -- ./inp_files/20888.got.cif
#   From: 2010.03.12/outbox.cif.g09.slc.cpg/sg56_11_cif.got.tgz:20888.got - 2010.04.16 15:33:40.
