data_PCOD8228417
_publ_section_title
;
Structure prediction by ZEFSAII (Michael W. Deem and Ramdas Pophale) SiO2 
 PCOD8228417
Probable space group: P C C N
;
_chemical_formula_sum "Si O2"
_cell_formula_units_Z 60
_cell_length_a 24.320561
_cell_length_b 8.478719
_cell_length_c 13.058680
_cell_angle_alpha 90.000000
_cell_angle_beta 90.000000
_cell_angle_gamma 90.000000
_cell_volume 2692.793873
_symmetry_space_group_name_H-M "P C C N"
_symmetry_group_IT_number 56
_symmetry_cell_setting 'orthorhombic'
loop_
_space_group_symop_operation_xyz
x,y,z
1/2-x,1/2-y,z
1/2+x,-y,1/2-z
-x,1/2+y,1/2-z
-x,-y,-z
1/2+x,1/2+y,-z
1/2-x,y,1/2+z
x,1/2-y,1/2+z
loop_
_atom_site_type_symbol
_atom_site_label
_atom_site_fract_x
_atom_site_fract_y
_atom_site_fract_z
Si Si1 0.155343 0.700142 0.796011
Si Si2 0.018070 0.425233 0.856024
Si Si3 0.411578 0.767976 0.612158
Si Si4 0.397543 0.276600 0.484853
Si Si5 0.095841 0.950220 0.913507
Si Si6 0.983501 0.714881 0.351855
Si Si7 0.326577 0.953680 0.011143
Si Si8 0.750000 0.250000 0.864123
O O1 0.099738 0.666577 0.728485
O O2 0.144693 0.870235 0.847911
O O3 0.202910 0.690418 0.711714
O O4 0.168225 0.582523 0.889348
O O5 0.067578 0.422729 0.937530
O O6 0.040956 0.352995 0.752053
O O7 0.972224 0.303144 0.897973
O O8 0.997857 0.601932 0.844313
O O9 0.400023 0.906973 0.532912
O O10 0.370980 0.625949 0.584805
O O11 0.432555 0.192851 0.573077
O O12 0.339418 0.356880 0.519735
O O13 0.391068 0.136225 0.401692
O O14 0.035676 0.896187 0.876707
O O15 0.268414 0.895063 0.059912
#
# Coordination Sequence:
#
# PCOD8228417 Si02
#       8
#     8   8   8   8   8   8   8   4
#     4  10  21  41  68  95 123 164 229 291 342 422
#     4  12  23  35  58  88 133 194 231 271 320 400
#     4  10  20  37  60  87 129 177 228 273 322 399
#     4  12  25  38  59  94 145 182 222 278 341 409
#     4  11  23  38  60  94 138 184 223 275 331 408
#     4  12  24  38  57  91 141 192 236 267 323 410
#     4  10  22  42  66  97 125 171 223 285 360 411
#     4  10  22  42  78  96 120 160 236 304 362 414
#
# _framework density 22.281690999999999
#
# number of rings (size 3 to 8) (size 9 to 14) (size 15 to 20)
#    0.000    1.067    4.000    3.600    1.867    0.000 
#    0.000    0.000    0.000   17.600    0.000    0.000 
#    0.000    0.000    0.000    0.000    0.000    0.000 
#
# Total GULP energy -743356.566118 kJ/mol
# GULP energy per Si atom -12389.276102 kJ/mol
# Density = 2.223098 g / cm^3
# Si number density = 22.281691 Si / 1000 Ang^3
#
#
#
# Elastic Constant Matrix: (Units=GPa)
#
#
# Indices 1 2 3 4 5 6 
#
# 1 84.2014 44.1978 28.7511 0.0000 0.0000 0.0000
# 2 44.1978 107.1641 23.9823 0.0000 0.0000 0.0000
# 3 28.7511 23.9823 119.2877 0.0000 0.0000 0.0000
# 4 0.0000 0.0000 0.0000 18.2633 0.0000 0.0000
# 5 0.0000 0.0000 0.0000 0.0000 33.5760 0.0000
# 6 0.0000 0.0000 0.0000 0.0000 0.0000 25.6605
#
#
#
# Elastic Compliance Matrix: (Units=1/GPa)
#
#
# Indices 1 2 3 4 5 6 
#
# 1 0.015911 -0.005973 -0.002634 0.000000 0.000000 0.000000
# 2 -0.005973 0.012013 -0.000976 0.000000 0.000000 0.000000
# 3 -0.002634 -0.000976 0.009214 0.000000 0.000000 0.000000
# 4 0.000000 0.000000 0.000000 0.054755 0.000000 0.000000
# 5 0.000000 0.000000 0.000000 0.000000 0.029783 0.000000
# 6 0.000000 0.000000 0.000000 0.000000 0.000000 0.038970
#
#
# Mechanical properties :
#
#
# Convention : Reuss Voigt Hill
#
# Bulk Modulus (GPa) = 55.63809 56.05728 55.84769
# Shear Modulus (GPa) = 26.91035 29.74809 28.32922
#
# Velocity S-wave (km/s) = 3.47902 3.65785 3.56956
# Velocity P-wave (km/s) = 6.41581 6.56147 6.48905
#
# Compressibility (1/GPa) = 0.01797330
#
# Stress axis : x y z
#
# Youngs Moduli (GPa) = 62.85047 83.24243 108.52906
#
# Poissons Ratio (x) = 0.49717 0.28588
# Poissons Ratio (y) = 0.37538 0.10589
# Poissons Ratio (z) = 0.16555 0.08121
#
# Static dielectric constant tensor:
#      x y z
#    x 4.103640 0.000000 0.000000 
#    y 0.000000 3.889050 0.000000 
#    z 0.000000 0.000000 4.405680 
# 
# 
# High freq. dielectric constant tensor:
#      x y z
#    x 1.846350 0.000000 0.000000 
#    y 0.000000 1.865290 0.000000 
#    z 0.000000 0.000000 1.899990 
# 
# From -- ./inp_files/13410.got.cif
#   From: 2010.03.12/outbox.cif.g09.slc.cpg/sg56_7_cif.got.tgz:13410.got - 2010.04.16 15:33:40.
