data_PCOD8228473
_publ_section_title
;
Structure prediction by ZEFSAII (Michael W. Deem and Ramdas Pophale) SiO2 
 PCOD8228473
Probable space group: P C C N
;
_chemical_formula_sum "Si O2"
_cell_formula_units_Z 56
_cell_length_a 9.194352
_cell_length_b 13.995284
_cell_length_c 20.252341
_cell_angle_alpha 90.000000
_cell_angle_beta 90.000000
_cell_angle_gamma 90.000000
_cell_volume 2606.021975
_symmetry_space_group_name_H-M "P C C N"
_symmetry_group_IT_number 56
_symmetry_cell_setting 'orthorhombic'
loop_
_space_group_symop_operation_xyz
x,y,z
1/2-x,1/2-y,z
1/2+x,-y,1/2-z
-x,1/2+y,1/2-z
-x,-y,-z
1/2+x,1/2+y,-z
1/2-x,y,1/2+z
x,1/2-y,1/2+z
loop_
_atom_site_type_symbol
_atom_site_label
_atom_site_fract_x
_atom_site_fract_y
_atom_site_fract_z
Si Si1 0.030298 0.894275 0.654295
Si Si2 0.481157 0.878354 0.302008
Si Si3 0.304016 0.097278 0.485641
Si Si4 0.234698 0.426737 0.129592
Si Si5 0.759316 0.479973 0.132319
Si Si6 0.458842 0.804496 0.888690
Si Si7 0.521142 0.722273 0.532041
O O1 0.047228 0.847840 0.726403
O O2 0.058855 0.812449 0.599000
O O3 0.147862 0.976357 0.642111
O O4 0.865269 0.933720 0.652731
O O5 0.649346 0.908514 0.312291
O O6 0.377738 0.969523 0.318404
O O7 0.433256 0.792264 0.349014
O O8 0.326826 0.066027 0.561475
O O9 0.430010 0.168083 0.459975
O O10 0.151471 0.149784 0.480256
O O11 0.302745 0.002300 0.440886
O O12 0.124288 0.337653 0.125005
O O13 0.846358 0.381905 0.136345
O O14 0.424010 0.786137 0.966096
#
# Coordination Sequence:
#
# PCOD8228473 Si02
#       7
#     8   8   8   8   8   8   8
#     4  10  22  39  59  90 120 164 197 253 308 365
#     4  12  22  37  58  88 126 158 203 246 305 371
#     4   9  17  35  62  91 114 152 203 263 288 349
#     4  10  20  38  62  85 119 160 209 245 303 364
#     4  10  22  38  59  87 120 157 197 250 309 360
#     4  10  20  39  63  84 114 162 204 248 297 366
#     4   9  17  36  62  89 117 147 213 252 293 349
#
# _framework density 21.488692
#
# number of rings (size 3 to 8) (size 9 to 14) (size 15 to 20)
#    0.000    2.000    1.429    2.571    0.000    4.000 
#   15.429    0.000    0.000    0.000    0.000    0.000 
#    0.000    0.000    0.000    0.000    0.000    0.000 
#
# Total GULP energy -694312.038343 kJ/mol
# GULP energy per Si atom -12398.429256 kJ/mol
# Density = 2.143978 g / cm^3
# Si number density = 21.488692 Si / 1000 Ang^3
#
#
#
# Elastic Constant Matrix: (Units=GPa)
#
#
# Indices 1 2 3 4 5 6 
#
# 1 51.4766 24.6186 26.5018 0.0000 0.0000 0.0000
# 2 24.6186 64.3277 42.2172 0.0000 0.0000 0.0000
# 3 26.5018 42.2172 167.9020 0.0000 0.0000 0.0000
# 4 0.0000 0.0000 0.0000 32.1849 0.0000 0.0000
# 5 0.0000 0.0000 0.0000 0.0000 15.5288 0.0000
# 6 0.0000 0.0000 0.0000 0.0000 0.0000 12.5700
#
#
#
# Elastic Compliance Matrix: (Units=1/GPa)
#
#
# Indices 1 2 3 4 5 6 
#
# 1 0.024218 -0.008096 -0.001787 0.000000 0.000000 0.000000
# 2 -0.008096 0.021324 -0.004084 0.000000 0.000000 0.000000
# 3 -0.001787 -0.004084 0.007265 0.000000 0.000000 0.000000
# 4 0.000000 0.000000 0.000000 0.031070 0.000000 0.000000
# 5 0.000000 0.000000 0.000000 0.000000 0.064396 0.000000
# 6 0.000000 0.000000 0.000000 0.000000 0.000000 0.079555
#
#
# Mechanical properties :
#
#
# Convention : Reuss Voigt Hill
#
# Bulk Modulus (GPa) = 40.20316 52.26462 46.23389
# Shear Modulus (GPa) = 18.93564 24.74799 21.84182
#
# Velocity S-wave (km/s) = 2.97171 3.39732 3.19161
# Velocity P-wave (km/s) = 5.52488 6.30585 5.92824
#
# Compressibility (1/GPa) = 0.02487367
#
# Stress axis : x y z
#
# Youngs Moduli (GPa) = 41.29157 46.89604 137.65079
#
# Poissons Ratio (x) = 0.37965 0.24599
# Poissons Ratio (y) = 0.33428 0.56214
# Poissons Ratio (z) = 0.07379 0.19152
#
# Static dielectric constant tensor:
#      x y z
#    x 3.768860 0.000000 0.000000 
#    y 0.000000 3.695890 0.000000 
#    z 0.000000 0.000000 4.001210 
# 
# 
# High freq. dielectric constant tensor:
#      x y z
#    x 1.833260 0.000000 0.000000 
#    y 0.000000 1.829180 0.000000 
#    z 0.000000 0.000000 1.843260 
# 
# From -- ./inp_files/18208.got.cif
#   From: 2010.03.12/outbox.cif.g09.slc.cpg/sg56_10_cif.got.tgz:18208.got - 2010.04.16 15:33:40.
