data_PCOD8228794
_publ_section_title
;
Structure prediction by ZEFSAII (Michael W. Deem and Ramdas Pophale) SiO2 
 PCOD8228794
Probable space group: P C C N
;
_chemical_formula_sum "Si O2"
_cell_formula_units_Z 56
_cell_length_a 10.451656
_cell_length_b 12.124370
_cell_length_c 20.136195
_cell_angle_alpha 90.000000
_cell_angle_beta 90.000000
_cell_angle_gamma 90.000000
_cell_volume 2551.653485
_symmetry_space_group_name_H-M "P C C N"
_symmetry_group_IT_number 56
_symmetry_cell_setting 'orthorhombic'
loop_
_space_group_symop_operation_xyz
x,y,z
1/2-x,1/2-y,z
1/2+x,-y,1/2-z
-x,1/2+y,1/2-z
-x,-y,-z
1/2+x,1/2+y,-z
1/2-x,y,1/2+z
x,1/2-y,1/2+z
loop_
_atom_site_type_symbol
_atom_site_label
_atom_site_fract_x
_atom_site_fract_y
_atom_site_fract_z
Si Si1 0.547698 0.698836 0.312215
Si Si2 0.866289 0.174856 0.959687
Si Si3 0.553495 0.127336 0.319586
Si Si4 0.700852 0.991467 0.007732
Si Si5 0.506370 0.834435 0.958509
Si Si6 0.803571 0.911080 0.783662
Si Si7 0.231633 0.122654 0.859019
O O1 0.450377 0.696497 0.249310
O O2 0.472966 0.678448 0.380750
O O3 0.612462 0.817384 0.318198
O O4 0.654588 0.603964 0.302150
O O5 0.750000 0.250000 0.983999
O O6 0.892437 0.196760 0.881706
O O7 0.989475 0.216253 0.003109
O O8 0.828736 0.046388 0.974957
O O9 0.412099 0.089556 0.339915
O O10 0.649409 0.026798 0.310008
O O11 0.727429 0.957631 0.082812
O O12 0.589633 0.081807 0.006050
O O13 0.651059 0.883354 0.967120
O O14 0.822454 0.900629 0.704191
O O15 0.250000 0.250000 0.879685
#
# Coordination Sequence:
#
# PCOD8228794 Si02
#       7
#     8   8   8   8   8   8   8
#     4  10  21  41  61  89 124 159 205 267 310 377
#     4  10  23  43  60  94 131 158 220 267 304 399
#     4  11  22  40  65  89 120 170 203 258 320 369
#     4  10  22  39  62  89 124 167 210 256 318 390
#     4  10  21  40  64  87 124 170 203 262 328 362
#     4  10  21  40  60  88 127 156 214 257 313 381
#     4  11  21  41  61  92 126 163 208 263 312 380
#
# _framework density 21.946553000000002
#
# number of rings (size 3 to 8) (size 9 to 14) (size 15 to 20)
#    0.000    1.714    2.857    2.571    2.000    0.571 
#   18.000    2.143    0.000    0.000    0.000    0.000 
#    0.000    0.000    0.000    0.000    0.000    0.000 
#
# Total GULP energy -694220.311988 kJ/mol
# GULP energy per Si atom -12396.791286 kJ/mol
# Density = 2.189660 g / cm^3
# Si number density = 21.946553 Si / 1000 Ang^3
#
#
#
# Elastic Constant Matrix: (Units=GPa)
#
#
# Indices 1 2 3 4 5 6 
#
# 1 47.1003 31.5751 23.6690 0.0000 0.0000 0.0000
# 2 31.5751 73.2057 38.3219 0.0000 0.0000 0.0000
# 3 23.6690 38.3219 150.8698 0.0000 0.0000 0.0000
# 4 0.0000 0.0000 0.0000 37.3613 0.0000 0.0000
# 5 0.0000 0.0000 0.0000 0.0000 32.1647 0.0000
# 6 0.0000 0.0000 0.0000 0.0000 0.0000 30.5091
#
#
#
# Elastic Compliance Matrix: (Units=1/GPa)
#
#
# Indices 1 2 3 4 5 6 
#
# 1 0.030219 -0.012171 -0.001649 0.000000 0.000000 0.000000
# 2 -0.012171 0.020657 -0.003338 0.000000 0.000000 0.000000
# 3 -0.001649 -0.003338 0.007735 0.000000 0.000000 0.000000
# 4 0.000000 0.000000 0.000000 0.026766 0.000000 0.000000
# 5 0.000000 0.000000 0.000000 0.000000 0.031090 0.000000
# 6 0.000000 0.000000 0.000000 0.000000 0.000000 0.032777
#
#
# Mechanical properties :
#
#
# Convention : Reuss Voigt Hill
#
# Bulk Modulus (GPa) = 41.16025 50.92308 46.04166
# Shear Modulus (GPa) = 26.08824 31.84769 28.96796
#
# Velocity S-wave (km/s) = 3.45152 3.81353 3.63703
# Velocity P-wave (km/s) = 5.88893 6.53026 6.21786
#
# Compressibility (1/GPa) = 0.02429529
#
# Stress axis : x y z
#
# Youngs Moduli (GPa) = 33.09154 48.41028 129.28632
#
# Poissons Ratio (x) = 0.58919 0.21325
# Poissons Ratio (y) = 0.40275 0.43150
# Poissons Ratio (z) = 0.05458 0.16157
#
# Static dielectric constant tensor:
#      x y z
#    x 3.938040 0.000000 0.000000 
#    y 0.000000 3.929570 0.000000 
#    z 0.000000 0.000000 4.023200 
# 
# 
# High freq. dielectric constant tensor:
#      x y z
#    x 1.845470 0.000000 0.000000 
#    y 0.000000 1.848240 0.000000 
#    z 0.000000 0.000000 1.875720 
# 
# From -- ./inp_files/18765.got.cif
#   From: 2010.03.12/outbox.cif.g09.slc.cpg/sg56_10_cif.got.tgz:18765.got - 2010.04.16 15:33:40.
