data_PCOD8228221
_publ_section_title
;
Structure prediction by ZEFSAII (Michael W. Deem and Ramdas Pophale) SiO2 
 PCOD8228221
Probable space group: P C C N
;
_chemical_formula_sum "Si O2"
_cell_formula_units_Z 40
_cell_length_a 11.439414
_cell_length_b 8.566693
_cell_length_c 19.129055
_cell_angle_alpha 90.000000
_cell_angle_beta 90.000000
_cell_angle_gamma 90.000000
_cell_volume 1874.608134
_symmetry_space_group_name_H-M "P C C N"
_symmetry_group_IT_number 56
_symmetry_cell_setting 'orthorhombic'
loop_
_space_group_symop_operation_xyz
x,y,z
1/2-x,1/2-y,z
1/2+x,-y,1/2-z
-x,1/2+y,1/2-z
-x,-y,-z
1/2+x,1/2+y,-z
1/2-x,y,1/2+z
x,1/2-y,1/2+z
loop_
_atom_site_type_symbol
_atom_site_label
_atom_site_fract_x
_atom_site_fract_y
_atom_site_fract_z
Si Si1 0.904211 0.327344 0.910513
Si Si2 0.377940 0.772928 0.745852
Si Si3 0.632297 0.682015 0.088400
Si Si4 0.469344 0.049471 0.671812
Si Si5 0.807040 0.998927 0.948380
O O1 0.877106 0.315619 0.828277
O O2 0.861134 0.171903 0.951251
O O3 0.833888 0.479787 0.937869
O O4 0.043804 0.329331 0.924674
O O5 0.250000 0.750000 0.779979
O O6 0.474571 0.706238 0.798740
O O7 0.408228 0.954953 0.735219
O O8 0.750000 0.750000 0.123570
O O9 0.571173 0.559871 0.139878
O O10 0.668933 0.597666 0.017294
O O11 0.370203 0.094086 0.615015
#
# Coordination Sequence:
#
# PCOD8228221 Si02
#       5
#     8   8   8   8   8
#     4   9  17  37  63  73 111 164 186 232 305 354
#     4  10  19  39  60  84 119 158 193 241 305 356
#     4  10  21  36  55  88 122 148 194 257 296 351
#     4  10  21  38  61  86 115 155 202 245 295 360
#     4   9  17  38  59  77 112 156 194 229 297 356
#
# _framework density 21.337793000000001
#
# number of rings (size 3 to 8) (size 9 to 14) (size 15 to 20)
#    0.000    2.800    4.000    2.400    0.000    4.000 
#   10.800    0.000    0.000    0.000    0.000    0.000 
#    0.000    0.000    0.000    0.000    0.000    0.000 
#
# Total GULP energy -495638.844348 kJ/mol
# GULP energy per Si atom -12390.971109 kJ/mol
# Density = 2.128923 g / cm^3
# Si number density = 21.337793 Si / 1000 Ang^3
#
#
#
# Elastic Constant Matrix: (Units=GPa)
#
#
# Indices 1 2 3 4 5 6 
#
# 1 135.3950 11.6965 6.9293 0.0000 0.0000 0.0000
# 2 11.6965 16.3510 9.8640 0.0000 0.0000 0.0000
# 3 6.9293 9.8640 30.4453 0.0000 0.0000 0.0000
# 4 0.0000 0.0000 0.0000 21.7667 0.0000 0.0000
# 5 0.0000 0.0000 0.0000 0.0000 16.8750 0.0000
# 6 0.0000 0.0000 0.0000 0.0000 0.0000 33.8113
#
#
#
# Elastic Compliance Matrix: (Units=1/GPa)
#
#
# Indices 1 2 3 4 5 6 
#
# 1 0.007872 -0.005656 0.000041 0.000000 0.000000 0.000000
# 2 -0.005656 0.080080 -0.024658 0.000000 0.000000 0.000000
# 3 0.000041 -0.024658 0.040826 0.000000 0.000000 0.000000
# 4 0.000000 0.000000 0.000000 0.045942 0.000000 0.000000
# 5 0.000000 0.000000 0.000000 0.000000 0.059259 0.000000
# 6 0.000000 0.000000 0.000000 0.000000 0.000000 0.029576
#
#
# Mechanical properties :
#
#
# Convention : Reuss Voigt Hill
#
# Bulk Modulus (GPa) = 14.65604 26.57455 20.61530
# Shear Modulus (GPa) = 14.41569 24.73736 19.57652
#
# Velocity S-wave (km/s) = 2.60204 3.40857 3.03224
# Velocity P-wave (km/s) = 3.98886 5.28890 4.68420
#
# Compressibility (1/GPa) = 0.06823127
#
# Stress axis : x y z
#
# Youngs Moduli (GPa) = 127.02744 12.48757 24.49447
#
# Poissons Ratio (x) = 0.07063 -0.00100
# Poissons Ratio (y) = 0.71846 0.60398
# Poissons Ratio (z) = -0.00518 0.30792
#
# Static dielectric constant tensor:
#      x y z
#    x 4.577070 0.000000 0.000000 
#    y 0.000000 3.753890 0.000000 
#    z 0.000000 0.000000 3.528650 
# 
# 
# High freq. dielectric constant tensor:
#      x y z
#    x 1.857940 0.000000 0.000000 
#    y 0.000000 1.798190 0.000000 
#    z 0.000000 0.000000 1.813120 
# 
# From -- ./inp_files/14478.got.cif
#   From: 2010.03.12/outbox.cif.g09.slc.cpg/sg56_8_cif.got.tgz:14478.got - 2010.04.16 15:33:40.
