data_PCOD8228819
_publ_section_title
;
Structure prediction by ZEFSAII (Michael W. Deem and Ramdas Pophale) SiO2 
 PCOD8228819
Probable space group: P C C N
;
_chemical_formula_sum "Si O2"
_cell_formula_units_Z 48
_cell_length_a 28.584170
_cell_length_b 8.943203
_cell_length_c 8.881414
_cell_angle_alpha 90.000000
_cell_angle_beta 90.000000
_cell_angle_gamma 90.000000
_cell_volume 2270.391696
_symmetry_space_group_name_H-M "P C C N"
_symmetry_group_IT_number 56
_symmetry_cell_setting 'orthorhombic'
loop_
_space_group_symop_operation_xyz
x,y,z
1/2-x,1/2-y,z
1/2+x,-y,1/2-z
-x,1/2+y,1/2-z
-x,-y,-z
1/2+x,1/2+y,-z
1/2-x,y,1/2+z
x,1/2-y,1/2+z
loop_
_atom_site_type_symbol
_atom_site_label
_atom_site_fract_x
_atom_site_fract_y
_atom_site_fract_z
Si Si1 0.285612 0.459114 0.385107
Si Si2 0.496090 0.843683 0.922094
Si Si3 0.250000 0.250000 0.626954
Si Si4 0.096548 0.649378 0.432975
Si Si5 0.032415 0.397145 0.401177
Si Si6 0.656757 0.170355 0.282503
Si Si7 0.250000 0.750000 0.040415
O O1 0.288190 0.330961 0.515131
O O2 0.268568 0.384333 0.228996
O O3 0.335042 0.531278 0.333809
O O4 0.253499 0.600037 0.437461
O O5 0.445206 0.769766 0.947834
O O6 0.504614 0.853251 0.746858
O O7 0.538605 0.751574 0.999647
O O8 0.500000 0.000000 0.000000
O O9 0.079953 0.487376 0.370627
O O10 0.136385 0.696108 0.317073
O O11 0.118708 0.621159 0.596038
O O12 0.000000 0.500000 0.500000
O O13 0.704387 0.232167 0.355651
#
# Coordination Sequence:
#
# PCOD8228819 Si02
#       7
#     8   8   4   8   8   8   4
#     4  11  23  43  68  97 131 186 237 291 351 426
#     4  11  21  41  72  94 136 181 218 274 355 436
#     4  10  24  42  68  94 134 174 248 286 364 426
#     4  11  24  41  65 105 135 171 234 293 336 402
#     4  10  21  40  66  96 131 176 222 274 351 424
#     4  12  24  40  69 100 141 174 242 301 335 415
#     4  12  24  42  76  98 130 198 250 278 364 410
#
# _framework density 21.141725999999998
#
# number of rings (size 3 to 8) (size 9 to 14) (size 15 to 20)
#    0.000    1.000    3.333    5.500    0.000    0.000 
#    0.000    3.333    0.000    0.000    0.000    0.000 
#    0.000    0.000    0.000    0.000    0.000    0.000 
#
# Total GULP energy -594727.875519 kJ/mol
# GULP energy per Si atom -12390.164073 kJ/mol
# Density = 2.109361 g / cm^3
# Si number density = 21.141726 Si / 1000 Ang^3
#
#
#
# Elastic Constant Matrix: (Units=GPa)
#
#
# Indices 1 2 3 4 5 6 
#
# 1 99.2206 60.2182 51.0556 0.0000 0.0000 0.0000
# 2 60.2182 155.0942 72.1609 0.0000 0.0000 0.0000
# 3 51.0556 72.1609 143.7326 0.0000 0.0000 0.0000
# 4 0.0000 0.0000 0.0000 49.8978 0.0000 0.0000
# 5 0.0000 0.0000 0.0000 0.0000 46.1959 0.0000
# 6 0.0000 0.0000 0.0000 0.0000 0.0000 41.9346
#
#
#
# Elastic Compliance Matrix: (Units=1/GPa)
#
#
# Indices 1 2 3 4 5 6 
#
# 1 0.014080 -0.004097 -0.002945 0.000000 0.000000 0.000000
# 2 -0.004097 0.009605 -0.003367 0.000000 0.000000 0.000000
# 3 -0.002945 -0.003367 0.009694 0.000000 0.000000 0.000000
# 4 0.000000 0.000000 0.000000 0.020041 0.000000 0.000000
# 5 0.000000 0.000000 0.000000 0.000000 0.021647 0.000000
# 6 0.000000 0.000000 0.000000 0.000000 0.000000 0.023847
#
#
# Mechanical properties :
#
#
# Convention : Reuss Voigt Hill
#
# Bulk Modulus (GPa) = 79.60497 84.99076 82.29787
# Shear Modulus (GPa) = 40.34946 41.91317 41.13131
#
# Velocity S-wave (km/s) = 4.37340 4.45734 4.41557
# Velocity P-wave (km/s) = 7.95217 8.17180 8.06273
#
# Compressibility (1/GPa) = 0.01256203
#
# Stress axis : x y z
#
# Youngs Moduli (GPa) = 71.02173 104.11370 103.16000
#
# Poissons Ratio (x) = 0.42654 0.30377
# Poissons Ratio (y) = 0.29096 0.34733
# Poissons Ratio (z) = 0.20913 0.35054
#
# Static dielectric constant tensor:
#      x y z
#    x 3.749530 0.000000 0.000000 
#    y 0.000000 7.637780 0.000000 
#    z 0.000000 0.000000 3.901240 
# 
# 
# High freq. dielectric constant tensor:
#      x y z
#    x 1.796680 0.000000 0.000000 
#    y 0.000000 1.841410 0.000000 
#    z 0.000000 0.000000 1.858150 
# 
# From -- ./inp_files/2272.got.cif
#   From: 2010.03.12/outbox.cif.g09.slc.cpg/sg56_2_cif.got.tgz:2272.got - 2010.04.16 15:33:40.
