data_PCOD8228492
_publ_section_title
;
Structure prediction by ZEFSAII (Michael W. Deem and Ramdas Pophale) SiO2 
 PCOD8228492
Probable space group: P C C N
;
_chemical_formula_sum "Si O2"
_cell_formula_units_Z 32
_cell_length_a 5.383345
_cell_length_b 7.608755
_cell_length_c 31.039501
_cell_angle_alpha 90.000000
_cell_angle_beta 90.000000
_cell_angle_gamma 90.000000
_cell_volume 1271.395132
_symmetry_space_group_name_H-M "P C C N"
_symmetry_group_IT_number 56
_symmetry_cell_setting 'orthorhombic'
loop_
_space_group_symop_operation_xyz
x,y,z
1/2-x,1/2-y,z
1/2+x,-y,1/2-z
-x,1/2+y,1/2-z
-x,-y,-z
1/2+x,1/2+y,-z
1/2-x,y,1/2+z
x,1/2-y,1/2+z
loop_
_atom_site_type_symbol
_atom_site_label
_atom_site_fract_x
_atom_site_fract_y
_atom_site_fract_z
Si Si1 0.750000 0.750000 0.915653
Si Si2 0.626775 0.062647 0.136781
Si Si3 0.855351 0.936419 0.730951
Si Si4 0.120391 0.476641 0.445975
Si Si5 0.250000 0.750000 0.006606
O O1 0.638269 0.900098 0.884388
O O2 0.563809 0.646099 0.946242
O O3 0.750000 0.250000 0.146548
O O4 0.780471 0.946136 0.102200
O O5 0.598248 0.953506 0.180193
O O6 0.750000 0.750000 0.743918
O O7 0.626305 0.059845 0.746219
O O8 0.313831 0.569105 0.479640
O O9 0.989875 0.296169 0.462321
#
# Coordination Sequence:
#
# PCOD8228492 Si02
#       5
#     4   8   8   8   4
#     4  10  20  38  64  92 128 184 224 284 364 420
#     4  10  22  42  66  97 137 181 231 291 368 430
#     4  12  28  49  76 111 146 188 240 302 368 448
#     4  10  21  39  60  92 133 183 231 302 353 430
#     4  10  20  40  58  90 138 174 242 296 356 426
#
# _framework density 25.1692
#
# number of rings (size 3 to 8) (size 9 to 14) (size 15 to 20)
#    0.000    1.500    3.750    2.250    8.750    3.000 
#    0.000    0.000    0.000    0.000    0.000    0.000 
#    0.000    0.000    0.000    0.000    0.000    0.000 
#
# Total GULP energy -396472.025980 kJ/mol
# GULP energy per Si atom -12389.750812 kJ/mol
# Density = 2.511191 g / cm^3
# Si number density = 25.169200 Si / 1000 Ang^3
#
#
#
# Elastic Constant Matrix: (Units=GPa)
#
#
# Indices 1 2 3 4 5 6 
#
# 1 92.1447 23.6065 31.5654 0.0000 0.0000 0.0000
# 2 23.6065 88.5548 32.4003 0.0000 0.0000 0.0000
# 3 31.5654 32.4003 150.3182 0.0000 0.0000 0.0000
# 4 0.0000 0.0000 0.0000 36.3324 0.0000 0.0000
# 5 0.0000 0.0000 0.0000 0.0000 15.4094 0.0000
# 6 0.0000 0.0000 0.0000 0.0000 0.0000 43.8766
#
#
#
# Elastic Compliance Matrix: (Units=1/GPa)
#
#
# Indices 1 2 3 4 5 6 
#
# 1 0.012187 -0.002510 -0.002018 0.000000 0.000000 0.000000
# 2 -0.002510 0.012776 -0.002227 0.000000 0.000000 0.000000
# 3 -0.002018 -0.002227 0.007556 0.000000 0.000000 0.000000
# 4 0.000000 0.000000 0.000000 0.027524 0.000000 0.000000
# 5 0.000000 0.000000 0.000000 0.000000 0.064895 0.000000
# 6 0.000000 0.000000 0.000000 0.000000 0.000000 0.022791
#
#
# Mechanical properties :
#
#
# Convention : Reuss Voigt Hill
#
# Bulk Modulus (GPa) = 52.60586 56.24024 54.42305
# Shear Modulus (GPa) = 29.83713 35.35340 32.59527
#
# Velocity S-wave (km/s) = 3.44679 3.75190 3.60258
# Velocity P-wave (km/s) = 6.06521 6.41580 6.24296
#
# Compressibility (1/GPa) = 0.01900929
#
# Stress axis : x y z
#
# Youngs Moduli (GPa) = 82.05511 78.26963 132.34023
#
# Poissons Ratio (x) = 0.19649 0.26707
# Poissons Ratio (y) = 0.20599 0.29468
# Poissons Ratio (z) = 0.16559 0.17428
#
# Static dielectric constant tensor:
#      x y z
#    x 5.304880 0.000000 0.000000 
#    y 0.000000 4.386030 0.000000 
#    z 0.000000 0.000000 4.453280 
# 
# 
# High freq. dielectric constant tensor:
#      x y z
#    x 2.007090 0.000000 0.000000 
#    y 0.000000 1.994210 0.000000 
#    z 0.000000 0.000000 2.007960 
# 
# From -- ./inp_files/22692.got.cif
#   From: 2010.03.12/outbox.cif.g09.slc.cpg/sg56_12_cif.got.tgz:22692.got - 2010.04.16 15:33:40.
