data_PCOD8228124
_publ_section_title
;
Structure prediction by ZEFSAII (Michael W. Deem and Ramdas Pophale) SiO2 
 PCOD8228124
Probable space group: P C C N
;
_chemical_formula_sum "Si O2"
_cell_formula_units_Z 48
_cell_length_a 12.950121
_cell_length_b 8.463778
_cell_length_c 18.949018
_cell_angle_alpha 90.000000
_cell_angle_beta 90.000000
_cell_angle_gamma 90.000000
_cell_volume 2076.944054
_symmetry_space_group_name_H-M "P C C N"
_symmetry_group_IT_number 56
_symmetry_cell_setting 'orthorhombic'
loop_
_space_group_symop_operation_xyz
x,y,z
1/2-x,1/2-y,z
1/2+x,-y,1/2-z
-x,1/2+y,1/2-z
-x,-y,-z
1/2+x,1/2+y,-z
1/2-x,y,1/2+z
x,1/2-y,1/2+z
loop_
_atom_site_type_symbol
_atom_site_label
_atom_site_fract_x
_atom_site_fract_y
_atom_site_fract_z
Si Si1 0.982673 0.885245 0.331253
Si Si2 0.491525 0.775664 0.194958
Si Si3 0.908301 0.631987 0.425336
Si Si4 0.778254 0.071880 0.671379
Si Si5 0.297886 0.586920 0.173553
Si Si6 0.895186 0.592497 0.585740
O O1 0.959058 0.748154 0.272854
O O2 0.100203 0.942762 0.343583
O O3 0.928621 0.812165 0.400158
O O4 0.930875 0.055912 0.312831
O O5 0.413105 0.630954 0.196696
O O6 0.572017 0.745740 0.131541
O O7 0.810350 0.549172 0.385552
O O8 0.874870 0.645902 0.506151
O O9 0.016164 0.540651 0.413598
O O10 0.750000 0.250000 0.656179
O O11 0.747182 0.026727 0.752688
O O12 0.712551 0.966467 0.617912
O O13 0.250000 0.750000 0.141919
#
# Coordination Sequence:
#
# PCOD8228124 Si02
#       6
#     8   8   8   8   8   8
#     4  11  21  38  63  92 123 168 214 268 318 378
#     4  10  22  37  64  90 124 164 215 263 324 383
#     4  10  21  40  61  93 128 165 213 255 329 385
#     4  10  19  34  64  90 122 164 216 259 305 376
#     4   9  20  37  63  92 122 166 214 261 307 384
#     4  10  21  39  62  91 128 168 209 264 320 389
#
# _framework density 23.110876999999999
#
# number of rings (size 3 to 8) (size 9 to 14) (size 15 to 20)
#    0.000    2.000    1.667    3.000    4.667    2.000 
#    3.000    0.833    3.667    0.000    0.000    0.000 
#    0.000    0.000    0.000    0.000    0.000    0.000 
#
# Total GULP energy -594808.879530 kJ/mol
# GULP energy per Si atom -12391.851657 kJ/mol
# Density = 2.305828 g / cm^3
# Si number density = 23.110877 Si / 1000 Ang^3
#
#
#
# Elastic Constant Matrix: (Units=GPa)
#
#
# Indices 1 2 3 4 5 6 
#
# 1 55.5371 17.6395 48.2853 0.0000 0.0000 0.0000
# 2 17.6395 119.7960 81.4791 0.0000 0.0000 0.0000
# 3 48.2853 81.4791 188.0461 0.0000 0.0000 0.0000
# 4 0.0000 0.0000 0.0000 29.4064 0.0000 0.0000
# 5 0.0000 0.0000 0.0000 0.0000 35.9959 0.0000
# 6 0.0000 0.0000 0.0000 0.0000 0.0000 31.2755
#
#
#
# Elastic Compliance Matrix: (Units=1/GPa)
#
#
# Indices 1 2 3 4 5 6 
#
# 1 0.023250 0.000903 -0.006361 0.000000 0.000000 0.000000
# 2 0.000903 0.011871 -0.005375 0.000000 0.000000 0.000000
# 3 -0.006361 -0.005375 0.009280 0.000000 0.000000 0.000000
# 4 0.000000 0.000000 0.000000 0.034006 0.000000 0.000000
# 5 0.000000 0.000000 0.000000 0.000000 0.027781 0.000000
# 6 0.000000 0.000000 0.000000 0.000000 0.000000 0.031974
#
#
# Mechanical properties :
#
#
# Convention : Reuss Voigt Hill
#
# Bulk Modulus (GPa) = 43.98736 73.13190 58.55963
# Shear Modulus (GPa) = 29.86740 33.73391 31.80066
#
# Velocity S-wave (km/s) = 3.59883 3.82469 3.71348
# Velocity P-wave (km/s) = 6.02854 7.15660 6.61665
#
# Compressibility (1/GPa) = 0.02273380
#
# Stress axis : x y z
#
# Youngs Moduli (GPa) = 43.01119 84.24186 107.75442
#
# Poissons Ratio (x) = -0.07609 0.68546
# Poissons Ratio (y) = -0.03885 0.57922
# Poissons Ratio (z) = 0.27361 0.45283
#
# Static dielectric constant tensor:
#      x y z
#    x 3.811950 0.000000 0.000000 
#    y 0.000000 2.273800 0.000000 
#    z 0.000000 0.000000 4.206190 
# 
# 
# High freq. dielectric constant tensor:
#      x y z
#    x 1.909900 0.000000 0.000000 
#    y 0.000000 1.909290 0.000000 
#    z 0.000000 0.000000 1.898770 
# 
# From -- ./inp_files/16147.got.cif
#   From: 2010.03.12/outbox.cif.g09.slc.cpg/sg56_9_cif.got.tgz:16147.got - 2010.04.16 15:33:40.
