data_PCOD8228533
_publ_section_title
;
Structure prediction by ZEFSAII (Michael W. Deem and Ramdas Pophale) SiO2 
 PCOD8228533
Probable space group: P C C N
;
_chemical_formula_sum "Si O2"
_cell_formula_units_Z 48
_cell_length_a 26.248666
_cell_length_b 9.444360
_cell_length_c 9.406715
_cell_angle_alpha 90.000000
_cell_angle_beta 90.000000
_cell_angle_gamma 90.000000
_cell_volume 2331.942062
_symmetry_space_group_name_H-M "P C C N"
_symmetry_group_IT_number 56
_symmetry_cell_setting 'orthorhombic'
loop_
_space_group_symop_operation_xyz
x,y,z
1/2-x,1/2-y,z
1/2+x,-y,1/2-z
-x,1/2+y,1/2-z
-x,-y,-z
1/2+x,1/2+y,-z
1/2-x,y,1/2+z
x,1/2-y,1/2+z
loop_
_atom_site_type_symbol
_atom_site_label
_atom_site_fract_x
_atom_site_fract_y
_atom_site_fract_z
Si Si1 0.441043 0.538438 0.256404
Si Si2 0.293605 0.403166 0.945780
Si Si3 0.620952 0.120715 0.501916
Si Si4 0.965536 0.353250 0.719726
Si Si5 0.195936 0.127964 0.617583
Si Si6 0.893730 0.064918 0.462105
O O1 0.393743 0.565870 0.153100
O O2 0.471830 0.683840 0.286268
O O3 0.478976 0.420260 0.195494
O O4 0.414446 0.482823 0.399916
O O5 0.286086 0.353469 0.781645
O O6 0.329171 0.540387 0.944743
O O7 0.317259 0.278586 0.044216
O O8 0.239635 0.443643 0.018912
O O9 0.572436 0.088989 0.600346
O O10 0.633948 0.287550 0.503473
O O11 0.943642 0.400961 0.870648
O O12 0.145784 0.032434 0.620851
#
# Coordination Sequence:
#
# PCOD8228533 Si02
#       6
#     8   8   8   8   8   8
#     4  10  22  34  63  84 125 157 202 243 299 354
#     4  11  24  42  64  91 123 155 200 249 302 362
#     4  10  22  40  61  89 123 160 201 250 298 353
#     4  10  20  40  55  90 119 161 200 251 295 352
#     4  11  24  42  64  91 123 155 200 249 302 362
#     4  10  22  40  61  89 123 160 201 250 298 353
#
# _framework density 20.583701999999999
#
# number of rings (size 3 to 8) (size 9 to 14) (size 15 to 20)
#    0.000    1.667    1.667    3.000    4.667    3.333 
#    0.000    1.667    0.000    0.000    0.000    0.000 
#    0.000    0.000    0.000    0.000    0.000    0.000 
#
# Total GULP energy -595173.523122 kJ/mol
# GULP energy per Si atom -12399.448398 kJ/mol
# Density = 2.053685 g / cm^3
# Si number density = 20.583702 Si / 1000 Ang^3
#
#
#
# Elastic Constant Matrix: (Units=GPa)
#
#
# Indices 1 2 3 4 5 6 
#
# 1 50.8536 25.7274 -6.2694 0.0000 0.0000 0.0000
# 2 25.7274 51.2813 -2.5443 0.0000 0.0000 0.0000
# 3 -6.2694 -2.5443 107.4229 0.0000 0.0000 0.0000
# 4 0.0000 0.0000 0.0000 25.5364 0.0000 0.0000
# 5 0.0000 0.0000 0.0000 0.0000 27.8139 0.0000
# 6 0.0000 0.0000 0.0000 0.0000 0.0000 39.0485
#
#
#
# Elastic Compliance Matrix: (Units=1/GPa)
#
#
# Indices 1 2 3 4 5 6 
#
# 1 0.026515 -0.013241 0.001234 0.000000 0.000000 0.000000
# 2 -0.013241 0.026136 -0.000154 0.000000 0.000000 0.000000
# 3 0.001234 -0.000154 0.009377 0.000000 0.000000 0.000000
# 4 0.000000 0.000000 0.000000 0.039160 0.000000 0.000000
# 5 0.000000 0.000000 0.000000 0.000000 0.035953 0.000000
# 6 0.000000 0.000000 0.000000 0.000000 0.000000 0.025609
#
#
# Mechanical properties :
#
#
# Convention : Reuss Voigt Hill
#
# Bulk Modulus (GPa) = 26.52098 27.04281 26.78189
# Shear Modulus (GPa) = 25.04489 31.32272 28.18380
#
# Velocity S-wave (km/s) = 3.49196 3.90516 3.70432
# Velocity P-wave (km/s) = 5.40100 5.78794 5.59781
#
# Compressibility (1/GPa) = 0.03770599
#
# Stress axis : x y z
#
# Youngs Moduli (GPa) = 37.71409 38.26188 106.63973
#
# Poissons Ratio (x) = 0.50664 -0.13158
# Poissons Ratio (y) = 0.49938 0.01640
# Poissons Ratio (z) = -0.04653 0.00588
#
# Static dielectric constant tensor:
#      x y z
#    x 3.452380 0.000000 0.000000 
#    y 0.000000 3.608830 0.000000 
#    z 0.000000 0.000000 3.944850 
# 
# 
# High freq. dielectric constant tensor:
#      x y z
#    x 1.789420 0.000000 0.000000 
#    y 0.000000 1.792780 0.000000 
#    z 0.000000 0.000000 1.827300 
# 
# From -- ./inp_files/5135.got.cif
#   From: 2010.03.12/outbox.cif.g09.slc.cpg/sg56_3_cif.got.tgz:5135.got - 2010.04.16 15:33:40.
