data_PCOD8228478
_publ_section_title
;
Structure prediction by ZEFSAII (Michael W. Deem and Ramdas Pophale) SiO2 
 PCOD8228478
Probable space group: P C C N
;
_chemical_formula_sum "Si O2"
_cell_formula_units_Z 52
_cell_length_a 9.076358
_cell_length_b 14.555157
_cell_length_c 20.147798
_cell_angle_alpha 90.000000
_cell_angle_beta 90.000000
_cell_angle_gamma 90.000000
_cell_volume 2661.681585
_symmetry_space_group_name_H-M "P C C N"
_symmetry_group_IT_number 56
_symmetry_cell_setting 'orthorhombic'
loop_
_space_group_symop_operation_xyz
x,y,z
1/2-x,1/2-y,z
1/2+x,-y,1/2-z
-x,1/2+y,1/2-z
-x,-y,-z
1/2+x,1/2+y,-z
1/2-x,y,1/2+z
x,1/2-y,1/2+z
loop_
_atom_site_type_symbol
_atom_site_label
_atom_site_fract_x
_atom_site_fract_y
_atom_site_fract_z
Si Si1 0.137442 0.974310 0.071750
Si Si2 0.319441 0.058786 0.812106
Si Si3 0.250000 0.250000 0.368211
Si Si4 0.172093 0.944909 0.699846
Si Si5 0.457503 0.729086 0.071611
Si Si6 0.250000 0.750000 0.688018
Si Si7 0.169381 0.947167 0.925753
Si Si8 0.750000 0.250000 0.539032
O O1 0.266234 0.968511 0.126284
O O2 0.055905 0.878448 0.061350
O O3 0.203478 0.992621 0.998184
O O4 0.005595 0.044015 0.092242
O O5 0.256635 0.161561 0.820742
O O6 0.495102 0.055206 0.800949
O O7 0.232642 0.022555 0.748152
O O8 0.276449 0.998853 0.875563
O O9 0.375376 0.255797 0.423275
O O10 0.239672 0.846797 0.727705
O O11 0.392672 0.759407 0.142119
O O12 0.382696 0.782091 0.010119
O O13 0.206829 0.838550 0.917874
#
# Coordination Sequence:
#
# PCOD8228478 Si02
#       8
#     8   8   4   8   8   4   8   4
#     4   9  19  39  65  87 123 159 209 251 310 364
#     4  12  26  39  63  93 127 161 210 258 306 370
#     4  12  22  38  60  92 120 162 214 260 290 364
#     4  11  24  41  62  92 123 167 205 256 311 369
#     4   9  17  35  60  87 115 159 207 250 293 368
#     4   9  18  37  64  80 110 162 204 242 302 366
#     4  10  20  38  62  93 122 161 203 258 304 376
#     4   9  20  37  60  90 128 162 202 246 326 372
#
# _framework density 19.536522000000001
#
# number of rings (size 3 to 8) (size 9 to 14) (size 15 to 20)
#    0.000    1.846    3.077    1.846    2.154    1.231 
#    0.000    1.538    0.000    0.923    0.000    0.000 
#    0.000    0.000    0.000    0.000    0.000    0.000 
#
# Total GULP energy -644339.845494 kJ/mol
# GULP energy per Si atom -12391.150875 kJ/mol
# Density = 1.949206 g / cm^3
# Si number density = 19.536522 Si / 1000 Ang^3
#
#
#
# Elastic Constant Matrix: (Units=GPa)
#
#
# Indices 1 2 3 4 5 6 
#
# 1 117.0423 34.5806 26.7843 0.0000 0.0000 0.0000
# 2 34.5806 110.5293 29.8603 0.0000 0.0000 0.0000
# 3 26.7843 29.8603 72.7355 0.0000 0.0000 0.0000
# 4 0.0000 0.0000 0.0000 -14.2153 0.0000 0.0000
# 5 0.0000 0.0000 0.0000 0.0000 11.6322 0.0000
# 6 0.0000 0.0000 0.0000 0.0000 0.0000 29.5002
#
#
#
# Elastic Compliance Matrix: (Units=1/GPa)
#
#
# Indices 1 2 3 4 5 6 
#
# 1 0.009850 -0.002364 -0.002657 0.000000 0.000000 0.000000
# 2 -0.002364 0.010743 -0.003540 0.000000 0.000000 0.000000
# 3 -0.002657 -0.003540 0.016180 0.000000 0.000000 0.000000
# 4 0.000000 0.000000 0.000000 -0.070347 0.000000 0.000000
# 5 0.000000 0.000000 0.000000 0.000000 0.085968 0.000000
# 6 0.000000 0.000000 0.000000 0.000000 0.000000 0.033898
#
#
# Mechanical properties :
#
#
# Convention : Reuss Voigt Hill
#
# Bulk Modulus (GPa) = 50.88502 53.63973 52.26237
# Shear Modulus (GPa) = 45.46867 19.32221 32.39544
#
# Velocity S-wave (km/s) = 4.82951 3.14830 4.07652
# Velocity P-wave (km/s) = 7.56317 6.38212 6.99761
#
# Compressibility (1/GPa) = 0.01965215
#
# Stress axis : x y z
#
# Youngs Moduli (GPa) = 101.51886 93.08083 61.80444
#
# Poissons Ratio (x) = 0.22005 0.16420
# Poissons Ratio (y) = 0.24000 0.21878
# Poissons Ratio (z) = 0.26972 0.32950
#
# Static dielectric constant tensor:
#      x y z
#    x 3.758020 0.000000 0.000000 
#    y 0.000000 4.114940 0.000000 
#    z 0.000000 0.000000 3.653730 
# 
# 
# High freq. dielectric constant tensor:
#      x y z
#    x 1.765080 0.000000 0.000000 
#    y 0.000000 1.762700 0.000000 
#    z 0.000000 0.000000 1.741410 
# 
# From -- ./inp_files/18180.got.cif
#   From: 2010.03.12/outbox.cif.g09.slc.cpg/sg56_10_cif.got.tgz:18180.got - 2010.04.16 15:33:40.
