data_PCOD8228433
_publ_section_title
;
Structure prediction by ZEFSAII (Michael W. Deem and Ramdas Pophale) SiO2 
 PCOD8228433
Probable space group: P C C N
;
_chemical_formula_sum "Si O2"
_cell_formula_units_Z 60
_cell_length_a 7.321617
_cell_length_b 16.145765
_cell_length_c 25.534276
_cell_angle_alpha 90.000000
_cell_angle_beta 90.000000
_cell_angle_gamma 90.000000
_cell_volume 3018.486114
_symmetry_space_group_name_H-M "P C C N"
_symmetry_group_IT_number 56
_symmetry_cell_setting 'orthorhombic'
loop_
_space_group_symop_operation_xyz
x,y,z
1/2-x,1/2-y,z
1/2+x,-y,1/2-z
-x,1/2+y,1/2-z
-x,-y,-z
1/2+x,1/2+y,-z
1/2-x,y,1/2+z
x,1/2-y,1/2+z
loop_
_atom_site_type_symbol
_atom_site_label
_atom_site_fract_x
_atom_site_fract_y
_atom_site_fract_z
Si Si1 0.496222 0.026446 0.909793
Si Si2 0.382307 0.391882 0.245304
Si Si3 0.679130 0.158904 0.667554
Si Si4 0.133139 0.552827 0.431533
Si Si5 0.750000 0.250000 0.894119
Si Si6 0.982794 0.548739 0.800208
Si Si7 0.639564 0.414279 0.952358
Si Si8 0.392096 0.182656 0.856890
O O1 0.667571 0.037048 0.948266
O O2 0.385417 0.111464 0.900680
O O3 0.350778 0.963339 0.933919
O O4 0.572390 0.997291 0.853603
O O5 0.518292 0.336861 0.210322
O O6 0.188828 0.396891 0.216547
O O7 0.469299 0.482456 0.254913
O O8 0.338016 0.347178 0.299555
O O9 0.750000 0.250000 0.653299
O O10 0.594770 0.116609 0.615492
O O11 0.843506 0.106502 0.691511
O O12 0.080228 0.594125 0.486945
O O13 0.014364 0.468955 0.422397
O O14 0.659920 0.322379 0.929245
O O15 0.597726 0.216646 0.854888
O O16 0.250000 0.250000 0.877099
#
# Coordination Sequence:
#
# PCOD8228433 Si02
#       8
#     8   8   8   8   4   8   8   8
#     4   9  19  37  57  84 113 149 194 244 289 349
#     4  11  22  38  59  84 114 160 202 240 294 361
#     4  11  25  39  58  90 127 161 202 252 300 363
#     4  10  21  38  61  86 116 160 198 239 297 368
#     4  10  22  38  58  90 120 146 188 260 302 350
#     4  10  21  39  60  83 116 158 203 244 296 358
#     4  10  20  37  64  88 114 151 200 244 304 361
#     4  10  22  35  55  84 117 149 188 242 297 341
#
# _framework density 19.877511999999999
#
# number of rings (size 3 to 8) (size 9 to 14) (size 15 to 20)
#    0.000    1.867    1.333    2.000    3.733    0.000 
#    2.400    0.000    0.000    0.000    0.000    0.000 
#    0.000    0.000    0.000    0.000    0.000    0.000 
#
# Total GULP energy -744101.196138 kJ/mol
# GULP energy per Si atom -12401.686602 kJ/mol
# Density = 1.983227 g / cm^3
# Si number density = 19.877512 Si / 1000 Ang^3
#
#
#
# Elastic Constant Matrix: (Units=GPa)
#
#
# Indices 1 2 3 4 5 6 
#
# 1 73.1984 21.6624 26.7460 0.0000 0.0000 0.0000
# 2 21.6624 84.2285 22.7358 0.0000 0.0000 0.0000
# 3 26.7460 22.7358 66.3489 0.0000 0.0000 0.0000
# 4 0.0000 0.0000 0.0000 11.0126 0.0000 0.0000
# 5 0.0000 0.0000 0.0000 0.0000 18.5705 0.0000
# 6 0.0000 0.0000 0.0000 0.0000 0.0000 37.4094
#
#
#
# Elastic Compliance Matrix: (Units=1/GPa)
#
#
# Indices 1 2 3 4 5 6 
#
# 1 0.016564 -0.002708 -0.005749 0.000000 0.000000 0.000000
# 2 -0.002708 0.013525 -0.003543 0.000000 0.000000 0.000000
# 3 -0.005749 -0.003543 0.018603 0.000000 0.000000 0.000000
# 4 0.000000 0.000000 0.000000 0.090805 0.000000 0.000000
# 5 0.000000 0.000000 0.000000 0.000000 0.053849 0.000000
# 6 0.000000 0.000000 0.000000 0.000000 0.000000 0.026731
#
#
# Mechanical properties :
#
#
# Convention : Reuss Voigt Hill
#
# Bulk Modulus (GPa) = 40.49889 40.67381 40.58635
# Shear Modulus (GPa) = 19.81702 23.57393 21.69548
#
# Velocity S-wave (km/s) = 3.16089 3.44751 3.30731
# Velocity P-wave (km/s) = 5.80862 6.02941 5.92004
#
# Compressibility (1/GPa) = 0.02469203
#
# Stress axis : x y z
#
# Youngs Moduli (GPa) = 60.37350 73.93534 53.75358
#
# Poissons Ratio (x) = 0.20022 0.30903
# Poissons Ratio (y) = 0.16350 0.19045
# Poissons Ratio (z) = 0.34709 0.26196
#
# Static dielectric constant tensor:
#      x y z
#    x 3.596030 0.000000 0.000000 
#    y 0.000000 3.623360 0.000000 
#    z 0.000000 0.000000 3.441780 
# 
# 
# High freq. dielectric constant tensor:
#      x y z
#    x 1.783470 0.000000 0.000000 
#    y 0.000000 1.768410 0.000000 
#    z 0.000000 0.000000 1.769740 
# 
# From -- ./inp_files/21803.got.cif
#   From: 2010.03.12/outbox.cif.g09.slc.cpg/sg56_11_cif.got.tgz:21803.got - 2010.04.16 15:33:40.
