data_PCOD8228886
_publ_section_title
;
Structure prediction by ZEFSAII (Michael W. Deem and Ramdas Pophale) SiO2 
 PCOD8228886
Probable space group: P C C N
;
_chemical_formula_sum "Si O2"
_cell_formula_units_Z 40
_cell_length_a 11.914591
_cell_length_b 9.049818
_cell_length_c 16.508066
_cell_angle_alpha 90.000000
_cell_angle_beta 90.000000
_cell_angle_gamma 90.000000
_cell_volume 1779.980237
_symmetry_space_group_name_H-M "P C C N"
_symmetry_group_IT_number 56
_symmetry_cell_setting 'orthorhombic'
loop_
_space_group_symop_operation_xyz
x,y,z
1/2-x,1/2-y,z
1/2+x,-y,1/2-z
-x,1/2+y,1/2-z
-x,-y,-z
1/2+x,1/2+y,-z
1/2-x,y,1/2+z
x,1/2-y,1/2+z
loop_
_atom_site_type_symbol
_atom_site_label
_atom_site_fract_x
_atom_site_fract_y
_atom_site_fract_z
Si Si1 0.396248 0.392977 0.499596
Si Si2 0.205331 0.895887 0.934684
Si Si3 0.533039 0.364156 0.943031
Si Si4 0.625952 0.800059 0.816460
Si Si5 0.527579 0.476835 0.196925
O O1 0.500000 0.500000 0.500000
O O2 0.290739 0.475726 0.461012
O O3 0.433413 0.256457 0.443478
O O4 0.369877 0.326672 0.587912
O O5 0.250000 0.750000 0.888169
O O6 0.124110 0.970146 0.870450
O O7 0.148908 0.815978 0.014149
O O8 0.558241 0.410972 0.849511
O O9 0.500000 0.500000 0.000000
O O10 0.750000 0.750000 0.786759
O O11 0.536234 0.676518 0.787558
O O12 0.582055 0.954155 0.777580
#
# Coordination Sequence:
#
# PCOD8228886 Si02
#       5
#     8   8   8   8   8
#     4  12  24  42  74 101 139 184 243 297 356 429
#     4  11  22  42  72 102 136 184 243 294 353 429
#     4  10  21  42  66  97 132 181 231 294 343 423
#     4  12  28  48  69 108 144 187 239 299 358 437
#     4  11  27  46  68 100 145 181 231 290 364 428
#
# _framework density 22.472159999999999
#
# number of rings (size 3 to 8) (size 9 to 14) (size 15 to 20)
#    0.000    0.800    6.000    1.200    8.400    1.600 
#    0.000    1.000    0.000    0.000    0.000    0.000 
#    0.000    0.000    0.000    0.000    0.000    0.000 
#
# Total GULP energy -495538.681595 kJ/mol
# GULP energy per Si atom -12388.467040 kJ/mol
# Density = 2.242101 g / cm^3
# Si number density = 22.472160 Si / 1000 Ang^3
#
#
#
# Elastic Constant Matrix: (Units=GPa)
#
#
# Indices 1 2 3 4 5 6 
#
# 1 123.0386 48.8955 13.5689 0.0000 0.0000 0.0000
# 2 48.8955 123.8084 15.8170 0.0000 0.0000 0.0000
# 3 13.5689 15.8170 43.4791 0.0000 0.0000 0.0000
# 4 0.0000 0.0000 0.0000 36.3857 0.0000 0.0000
# 5 0.0000 0.0000 0.0000 0.0000 21.9936 0.0000
# 6 0.0000 0.0000 0.0000 0.0000 0.0000 52.7596
#
#
#
# Elastic Compliance Matrix: (Units=1/GPa)
#
#
# Indices 1 2 3 4 5 6 
#
# 1 0.009762 -0.003635 -0.001724 0.000000 0.000000 0.000000
# 2 -0.003635 0.009824 -0.002439 0.000000 0.000000 0.000000
# 3 -0.001724 -0.002439 0.024425 0.000000 0.000000 0.000000
# 4 0.000000 0.000000 0.000000 0.027483 0.000000 0.000000
# 5 0.000000 0.000000 0.000000 0.000000 0.045468 0.000000
# 6 0.000000 0.000000 0.000000 0.000000 0.000000 0.018954
#
#
# Mechanical properties :
#
#
# Convention : Reuss Voigt Hill
#
# Bulk Modulus (GPa) = 35.19388 49.65434 42.42411
# Shear Modulus (GPa) = 31.05869 36.36409 33.71139
#
# Velocity S-wave (km/s) = 3.72169 4.02703 3.87737
# Velocity P-wave (km/s) = 5.84492 6.61563 6.24218
#
# Compressibility (1/GPa) = 0.02841403
#
# Stress axis : x y z
#
# Youngs Moduli (GPa) = 102.43514 101.78877 40.94154
#
# Poissons Ratio (x) = 0.37002 0.07059
# Poissons Ratio (y) = 0.37237 0.09988
# Poissons Ratio (z) = 0.17662 0.24831
#
# Static dielectric constant tensor:
#      x y z
#    x 5.902420 0.000000 0.000000 
#    y 0.000000 4.519670 0.000000 
#    z 0.000000 0.000000 4.145060 
# 
# 
# High freq. dielectric constant tensor:
#      x y z
#    x 1.892320 0.000000 0.000000 
#    y 0.000000 1.904990 0.000000 
#    z 0.000000 0.000000 1.866570 
# 
# From -- ./inp_files/15401.got.cif
#   From: 2010.03.12/outbox.cif.g09.slc.cpg/sg56_8_cif.got.tgz:15401.got - 2010.04.16 15:33:40.
