data_PCOD8228776
_publ_section_title
;
Structure prediction by ZEFSAII (Michael W. Deem and Ramdas Pophale) SiO2 
 PCOD8228776
Probable space group: P C C N
;
_chemical_formula_sum "Si O2"
_cell_formula_units_Z 40
_cell_length_a 8.943373
_cell_length_b 12.139319
_cell_length_c 14.700286
_cell_angle_alpha 90.000000
_cell_angle_beta 90.000000
_cell_angle_gamma 90.000000
_cell_volume 1595.957979
_symmetry_space_group_name_H-M "P C C N"
_symmetry_group_IT_number 56
_symmetry_cell_setting 'orthorhombic'
loop_
_space_group_symop_operation_xyz
x,y,z
1/2-x,1/2-y,z
1/2+x,-y,1/2-z
-x,1/2+y,1/2-z
-x,-y,-z
1/2+x,1/2+y,-z
1/2-x,y,1/2+z
x,1/2-y,1/2+z
loop_
_atom_site_type_symbol
_atom_site_label
_atom_site_fract_x
_atom_site_fract_y
_atom_site_fract_z
Si Si1 0.615112 0.968312 0.826263
Si Si2 0.600981 0.201621 0.883925
Si Si3 0.837146 0.648045 0.649791
Si Si4 0.412804 0.716086 0.410768
Si Si5 0.878616 0.584645 0.461296
O O1 0.661079 0.951945 0.720833
O O2 0.488432 0.879551 0.850844
O O3 0.764576 0.964537 0.887719
O O4 0.545669 0.091266 0.832142
O O5 0.750000 0.250000 0.840248
O O6 0.500397 0.307918 0.872005
O O7 0.619642 0.168214 0.989326
O O8 0.750000 0.750000 0.694392
O O9 0.774052 0.615463 0.549380
O O10 0.250000 0.750000 0.368684
O O11 0.532967 0.815134 0.414075
O O12 0.000000 0.500000 0.500000
#
# Coordination Sequence:
#
# PCOD8228776 Si02
#       5
#     8   8   8   8   8
#     4  12  24  43  71  98 135 186 228 282 355 421
#     4  10  23  44  64  94 136 176 227 288 343 409
#     4  11  25  42  65  97 133 173 224 282 339 410
#     4  10  21  39  65 100 138 180 232 286 347 422
#     4  11  23  44  69  97 136 183 231 286 348 418
#
# _framework density 25.063317999999999
#
# number of rings (size 3 to 8) (size 9 to 14) (size 15 to 20)
#    0.000    1.200    0.000    8.400    0.000    7.200 
#    0.000    0.000    0.000    0.000    0.000    0.000 
#    0.000    0.000    0.000    0.000    0.000    0.000 
#
# Total GULP energy -495854.141973 kJ/mol
# GULP energy per Si atom -12396.353549 kJ/mol
# Density = 2.500627 g / cm^3
# Si number density = 25.063318 Si / 1000 Ang^3
#
#
#
# Elastic Constant Matrix: (Units=GPa)
#
#
# Indices 1 2 3 4 5 6 
#
# 1 74.9688 -9.6285 11.3759 0.0000 0.0000 0.0000
# 2 -9.6285 87.9125 10.2093 0.0000 0.0000 0.0000
# 3 11.3759 10.2093 97.9557 0.0000 0.0000 0.0000
# 4 0.0000 0.0000 0.0000 30.9537 0.0000 0.0000
# 5 0.0000 0.0000 0.0000 0.0000 8.1591 0.0000
# 6 0.0000 0.0000 0.0000 0.0000 0.0000 36.0383
#
#
#
# Elastic Compliance Matrix: (Units=1/GPa)
#
#
# Indices 1 2 3 4 5 6 
#
# 1 0.013831 0.001722 -0.001786 0.000000 0.000000 0.000000
# 2 0.001722 0.011729 -0.001422 0.000000 0.000000 0.000000
# 3 -0.001786 -0.001422 0.010564 0.000000 0.000000 0.000000
# 4 0.000000 0.000000 0.000000 0.032306 0.000000 0.000000
# 5 0.000000 0.000000 0.000000 0.000000 0.122563 0.000000
# 6 0.000000 0.000000 0.000000 0.000000 0.000000 0.027748
#
#
# Mechanical properties :
#
#
# Convention : Reuss Voigt Hill
#
# Bulk Modulus (GPa) = 30.16390 31.63894 30.90142
# Shear Modulus (GPa) = 21.48096 31.62225 26.55161
#
# Velocity S-wave (km/s) = 2.93075 3.55589 3.25834
# Velocity P-wave (km/s) = 4.84908 5.43232 5.14897
#
# Compressibility (1/GPa) = 0.03315222
#
# Stress axis : x y z
#
# Youngs Moduli (GPa) = 72.30113 85.26058 94.65812
#
# Poissons Ratio (x) = -0.14684 0.16903
# Poissons Ratio (y) = -0.12452 0.13464
# Poissons Ratio (z) = 0.12911 0.12128
#
# Static dielectric constant tensor:
#      x y z
#    x 4.527840 0.000000 0.000000 
#    y 0.000000 4.612960 0.000000 
#    z 0.000000 0.000000 4.625240 
# 
# 
# High freq. dielectric constant tensor:
#      x y z
#    x 2.004340 0.000000 0.000000 
#    y 0.000000 2.002320 0.000000 
#    z 0.000000 0.000000 1.991800 
# 
# From -- ./inp_files/14481.got.cif
#   From: 2010.03.12/outbox.cif.g09.slc.cpg/sg56_8_cif.got.tgz:14481.got - 2010.04.16 15:33:40.
