data_PCOD8228960
_publ_section_title
;
Structure prediction by ZEFSAII (Michael W. Deem and Ramdas Pophale) SiO2 
 PCOD8228960
Probable space group: P C C N
;
_chemical_formula_sum "Si O2"
_cell_formula_units_Z 64
_cell_length_a 27.327828
_cell_length_b 5.104762
_cell_length_c 19.925032
_cell_angle_alpha 90.000000
_cell_angle_beta 90.000000
_cell_angle_gamma 90.000000
_cell_volume 2779.582968
_symmetry_space_group_name_H-M "P C C N"
_symmetry_group_IT_number 56
_symmetry_cell_setting 'orthorhombic'
loop_
_space_group_symop_operation_xyz
x,y,z
1/2-x,1/2-y,z
1/2+x,-y,1/2-z
-x,1/2+y,1/2-z
-x,-y,-z
1/2+x,1/2+y,-z
1/2-x,y,1/2+z
x,1/2-y,1/2+z
loop_
_atom_site_type_symbol
_atom_site_label
_atom_site_fract_x
_atom_site_fract_y
_atom_site_fract_z
Si Si1 0.540275 0.934474 0.682014
Si Si2 0.976494 0.931241 0.331948
Si Si3 0.844444 0.167395 0.906412
Si Si4 0.805762 0.753019 0.684554
Si Si5 0.280753 0.513465 0.985250
Si Si6 0.194369 0.754096 0.231907
Si Si7 0.622411 0.654635 0.081084
Si Si8 0.100552 0.156504 0.557351
O O1 0.519078 0.647553 0.665751
O O2 0.553987 0.958165 0.761616
O O3 0.586518 0.991180 0.633619
O O4 0.499448 0.145001 0.664320
O O5 0.943925 0.960893 0.398947
O O6 0.840703 0.277196 0.831327
O O7 0.859863 0.425396 0.947805
O O8 0.882479 0.925831 0.907727
O O9 0.792283 0.068177 0.936059
O O10 0.750000 0.750000 0.656173
O O11 0.817864 0.462779 0.712223
O O12 0.843289 0.843593 0.626350
O O13 0.814807 0.953836 0.743254
O O14 0.250000 0.750000 0.952592
O O15 0.335347 0.525430 0.952786
O O16 0.250000 0.250000 0.977049
O O17 0.250000 0.750000 0.207832
O O18 0.589776 0.787710 0.022078
#
# Coordination Sequence:
#
# PCOD8228960 Si02
#       8
#     8   8   8   8   8   8   8   8
#     4  10  24  43  72  98 134 170 220 269 340 416
#     4  10  23  47  67 100 132 175 212 276 347 394
#     4  11  23  39  65  98 129 179 226 271 326 393
#     4  10  23  40  59  90 133 170 217 273 325 381
#     4  11  24  42  65  91 138 183 222 275 328 393
#     4  10  22  38  59  89 124 170 220 273 327 374
#     4  11  26  43  67 104 130 179 228 268 333 401
#     4  11  25  42  68  99 136 169 221 271 334 398
#
# _framework density 23.025034000000002
#
# number of rings (size 3 to 8) (size 9 to 14) (size 15 to 20)
#    0.000    1.500    0.000    3.750    3.500   11.000 
#    0.000    0.000    0.000    0.000    0.000    0.000 
#    0.000    0.000    0.000    0.000    0.000    0.000 
#
# Total GULP energy -792992.395609 kJ/mol
# GULP energy per Si atom -12390.506181 kJ/mol
# Density = 2.297263 g / cm^3
# Si number density = 23.025034 Si / 1000 Ang^3
#
#
#
# Elastic Constant Matrix: (Units=GPa)
#
#
# Indices 1 2 3 4 5 6 
#
# 1 82.1458 20.3512 65.9753 0.0000 0.0000 0.0000
# 2 20.3512 104.7730 25.8229 0.0000 0.0000 0.0000
# 3 65.9753 25.8229 137.1482 0.0000 0.0000 0.0000
# 4 0.0000 0.0000 0.0000 -104.3695 0.0000 0.0000
# 5 0.0000 0.0000 0.0000 0.0000 47.4234 0.0000
# 6 0.0000 0.0000 0.0000 0.0000 0.0000 25.3013
#
#
#
# Elastic Compliance Matrix: (Units=1/GPa)
#
#
# Indices 1 2 3 4 5 6 
#
# 1 0.020089 -0.001594 -0.009364 0.000000 0.000000 0.000000
# 2 -0.001594 0.010135 -0.001141 0.000000 0.000000 0.000000
# 3 -0.009364 -0.001141 0.012011 0.000000 0.000000 0.000000
# 4 0.000000 0.000000 0.000000 -0.009581 0.000000 0.000000
# 5 0.000000 0.000000 0.000000 0.000000 0.021087 0.000000
# 6 0.000000 0.000000 0.000000 0.000000 0.000000 0.039524
#
#
# Mechanical properties :
#
#
# Convention : Reuss Voigt Hill
#
# Bulk Modulus (GPa) = 55.44355 60.92953 58.18654
# Shear Modulus (GPa) = 40.49422 7.79887 24.14655
#
# Velocity S-wave (km/s) = 4.19824 1.84241 3.24189
# Velocity P-wave (km/s) = 6.90161 5.57187 6.27208
#
# Compressibility (1/GPa) = 0.01803636
#
# Stress axis : x y z
#
# Youngs Moduli (GPa) = 49.77910 98.66377 83.25951
#
# Poissons Ratio (x) = 0.15730 0.77960
# Poissons Ratio (y) = 0.07936 0.09503
# Poissons Ratio (z) = 0.46611 0.11262
#
# Static dielectric constant tensor:
#      x y z
#    x 4.012350 0.000000 0.000000 
#    y 0.000000 4.044540 0.000000 
#    z 0.000000 0.000000 4.401250 
# 
# 
# High freq. dielectric constant tensor:
#      x y z
#    x 1.891570 0.000000 0.000000 
#    y 0.000000 1.910700 0.000000 
#    z 0.000000 0.000000 1.923990 
# 
# From -- ./inp_files/19674.got.cif
#   From: 2010.03.12/outbox.cif.g09.slc.cpg/sg56_10_cif.got.tgz:19674.got - 2010.04.16 15:33:40.
