data_PCOD8228282
_publ_section_title
;
Structure prediction by ZEFSAII (Michael W. Deem and Ramdas Pophale) SiO2 
 PCOD8228282
Probable space group: P C C N
;
_chemical_formula_sum "Si O2"
_cell_formula_units_Z 48
_cell_length_a 11.649758
_cell_length_b 11.638189
_cell_length_c 18.913835
_cell_angle_alpha 90.000000
_cell_angle_beta 90.000000
_cell_angle_gamma 90.000000
_cell_volume 2564.377192
_symmetry_space_group_name_H-M "P C C N"
_symmetry_group_IT_number 56
_symmetry_cell_setting 'orthorhombic'
loop_
_space_group_symop_operation_xyz
x,y,z
1/2-x,1/2-y,z
1/2+x,-y,1/2-z
-x,1/2+y,1/2-z
-x,-y,-z
1/2+x,1/2+y,-z
1/2-x,y,1/2+z
x,1/2-y,1/2+z
loop_
_atom_site_type_symbol
_atom_site_label
_atom_site_fract_x
_atom_site_fract_y
_atom_site_fract_z
Si Si1 0.281234 0.565774 0.199822
Si Si2 0.434419 0.768510 0.036186
Si Si3 0.277315 0.931763 0.534411
Si Si4 0.173988 0.139803 0.452511
Si Si5 0.165661 0.355317 0.794552
Si Si6 0.427978 0.726795 0.701073
O O1 0.294022 0.540286 0.116818
O O2 0.283263 0.449265 0.242689
O O3 0.160010 0.624561 0.214950
O O4 0.380168 0.651386 0.229299
O O5 0.336013 0.858703 0.019076
O O6 0.389541 0.642597 0.007406
O O7 0.555635 0.820501 0.006728
O O8 0.451344 0.753411 0.118957
O O9 0.254847 0.049954 0.493674
O O10 0.250000 0.250000 0.443373
O O11 0.147337 0.091900 0.373466
O O12 0.250000 0.250000 0.796292
O O13 0.046008 0.309291 0.761622
#
# Coordination Sequence:
#
# PCOD8228282 Si02
#       6
#     8   8   8   8   8   8
#     4   9  18  34  57  75 101 136 178 214 250 306
#     4   8  16  33  54  76  98 135 174 208 256 311
#     4   9  17  33  58  75  98 136 179 212 249 306
#     4  10  20  33  50  75 109 137 166 210 266 311
#     4  10  21  33  52  76 107 138 169 209 267 310
#     4   8  17  34  53  76 100 138 171 209 262 309
#
# _framework density 18.717994000000001
#
# number of rings (size 3 to 8) (size 9 to 14) (size 15 to 20)
#    0.000    3.000    0.000    2.500    2.333    1.333 
#    0.000    3.333    7.333    0.000    0.000    0.000 
#    0.000    0.000    0.000    0.000    0.000    0.000 
#
# Total GULP energy -594634.981543 kJ/mol
# GULP energy per Si atom -12388.228782 kJ/mol
# Density = 1.867539 g / cm^3
# Si number density = 18.717994 Si / 1000 Ang^3
#
#
#
# Elastic Constant Matrix: (Units=GPa)
#
#
# Indices 1 2 3 4 5 6 
#
# 1 95.5359 41.5745 26.7033 0.0000 0.0000 0.0000
# 2 41.5745 111.7071 47.3543 0.0000 0.0000 0.0000
# 3 26.7033 47.3543 49.0029 0.0000 0.0000 0.0000
# 4 0.0000 0.0000 0.0000 -33.2712 0.0000 0.0000
# 5 0.0000 0.0000 0.0000 0.0000 -3.8596 0.0000
# 6 0.0000 0.0000 0.0000 0.0000 0.0000 22.1879
#
#
#
# Elastic Compliance Matrix: (Units=1/GPa)
#
#
# Indices 1 2 3 4 5 6 
#
# 1 0.012951 -0.003097 -0.004065 0.000000 0.000000 0.000000
# 2 -0.003097 0.015905 -0.013682 0.000000 0.000000 0.000000
# 3 -0.004065 -0.013682 0.035843 0.000000 0.000000 0.000000
# 4 0.000000 0.000000 0.000000 -0.030056 0.000000 0.000000
# 5 0.000000 0.000000 0.000000 0.000000 -0.259096 0.000000
# 6 0.000000 0.000000 0.000000 0.000000 0.000000 0.045070
#
#
# Mechanical properties :
#
#
# Convention : Reuss Voigt Hill
#
# Bulk Modulus (GPa) = 43.45536 54.16777 48.81157
# Shear Modulus (GPa) = -38.45381 6.38568 -16.03407
#
# Velocity S-wave (km/s) = -4.53744 1.84903 -2.92997
# Velocity P-wave (km/s) = 2.04571 5.79312 3.83245
#
# Compressibility (1/GPa) = 0.02301212
#
# Stress axis : x y z
#
# Youngs Moduli (GPa) = 77.21343 62.87525 27.89917
#
# Poissons Ratio (x) = 0.19472 0.11340
# Poissons Ratio (y) = 0.23913 0.38171
# Poissons Ratio (z) = 0.31385 0.86024
#
# Static dielectric constant tensor:
#      x y z
#    x 3.603320 0.000000 0.000000 
#    y 0.000000 3.450070 0.000000 
#    z 0.000000 0.000000 3.102870 
# 
# 
# High freq. dielectric constant tensor:
#      x y z
#    x 1.740510 0.000000 0.000000 
#    y 0.000000 1.727740 0.000000 
#    z 0.000000 0.000000 1.680320 
# 
# From -- ./inp_files/15603.got.cif
#   From: 2010.03.12/outbox.cif.g09.slc.cpg/sg56_8_cif.got.tgz:15603.got - 2010.04.16 15:33:40.
