data_PCOD8228044
_publ_section_title
;
Structure prediction by ZEFSAII (Michael W. Deem and Ramdas Pophale) SiO2 
 PCOD8228044
Probable space group: P C C N
;
_chemical_formula_sum "Si O2"
_cell_formula_units_Z 56
_cell_length_a 19.998869
_cell_length_b 8.713909
_cell_length_c 15.758442
_cell_angle_alpha 90.000000
_cell_angle_beta 90.000000
_cell_angle_gamma 90.000000
_cell_volume 2746.197285
_symmetry_space_group_name_H-M "P C C N"
_symmetry_group_IT_number 56
_symmetry_cell_setting 'orthorhombic'
loop_
_space_group_symop_operation_xyz
x,y,z
1/2-x,1/2-y,z
1/2+x,-y,1/2-z
-x,1/2+y,1/2-z
-x,-y,-z
1/2+x,1/2+y,-z
1/2-x,y,1/2+z
x,1/2-y,1/2+z
loop_
_atom_site_type_symbol
_atom_site_label
_atom_site_fract_x
_atom_site_fract_y
_atom_site_fract_z
Si Si1 0.686847 0.345346 0.015263
Si Si2 0.064199 0.015833 0.059387
Si Si3 0.004815 0.949344 0.633712
Si Si4 0.721784 0.907784 0.084455
Si Si5 0.182361 0.825528 0.314148
Si Si6 0.907485 0.639679 0.984184
Si Si7 0.947576 0.153938 0.775063
O O1 0.750000 0.250000 0.972658
O O2 0.714172 0.506840 0.047028
O O3 0.660262 0.249381 0.096060
O O4 0.621977 0.386724 0.958941
O O5 0.041566 0.977809 0.154812
O O6 0.089474 0.189392 0.054012
O O7 0.000000 0.000000 0.000000
O O8 0.019403 0.813398 0.698827
O O9 0.952755 0.878786 0.567357
O O10 0.070361 0.012944 0.585214
O O11 0.975744 0.093508 0.685532
O O12 0.750000 0.750000 0.120363
O O13 0.668837 0.890776 0.008378
O O14 0.691638 0.993839 0.166344
O O15 0.250000 0.750000 0.279607
O O16 0.129986 0.806039 0.239261
#
# Coordination Sequence:
#
# PCOD8228044 Si02
#       7
#     8   8   8   8   8   8   8
#     4   9  22  38  66  92 125 173 219 264 320 403
#     4  12  25  40  65  99 131 172 222 274 330 396
#     4  11  26  41  66  94 131 173 212 278 332 401
#     4  10  18  39  68  91 122 167 217 262 317 389
#     4   9  22  41  63  93 126 167 216 263 325 395
#     4  11  23  43  66  94 128 170 219 265 331 397
#     4  12  25  42  64  94 134 171 215 277 333 391
#
# _framework density 20.391835
#
# number of rings (size 3 to 8) (size 9 to 14) (size 15 to 20)
#    0.000    1.714    4.286    0.857    8.000    0.571 
#    0.000    0.000    0.000    0.000    0.000    0.000 
#    0.000    0.000    0.000    0.000    0.000    0.000 
#
# Total GULP energy -694174.248064 kJ/mol
# GULP energy per Si atom -12395.968715 kJ/mol
# Density = 2.034542 g / cm^3
# Si number density = 20.391835 Si / 1000 Ang^3
#
#
#
# Elastic Constant Matrix: (Units=GPa)
#
#
# Indices 1 2 3 4 5 6 
#
# 1 73.5205 30.0883 30.4885 0.0000 0.0000 0.0000
# 2 30.0883 132.0138 25.3119 0.0000 0.0000 0.0000
# 3 30.4885 25.3119 65.1297 0.0000 0.0000 0.0000
# 4 0.0000 0.0000 0.0000 32.5467 0.0000 0.0000
# 5 0.0000 0.0000 0.0000 0.0000 28.2132 0.0000
# 6 0.0000 0.0000 0.0000 0.0000 0.0000 31.3110
#
#
#
# Elastic Compliance Matrix: (Units=1/GPa)
#
#
# Indices 1 2 3 4 5 6 
#
# 1 0.017691 -0.002641 -0.007255 0.000000 0.000000 0.000000
# 2 -0.002641 0.008579 -0.002098 0.000000 0.000000 0.000000
# 3 -0.007255 -0.002098 0.019566 0.000000 0.000000 0.000000
# 4 0.000000 0.000000 0.000000 0.030725 0.000000 0.000000
# 5 0.000000 0.000000 0.000000 0.000000 0.035444 0.000000
# 6 0.000000 0.000000 0.000000 0.000000 0.000000 0.031938
#
#
# Mechanical properties :
#
#
# Convention : Reuss Voigt Hill
#
# Bulk Modulus (GPa) = 45.77135 49.16016 47.46575
# Shear Modulus (GPa) = 28.53656 30.73253 29.63454
#
# Velocity S-wave (km/s) = 3.74493 3.88635 3.81629
# Velocity P-wave (km/s) = 6.41825 6.65570 6.53806
#
# Compressibility (1/GPa) = 0.02184773
#
# Stress axis : x y z
#
# Youngs Moduli (GPa) = 56.52536 116.56177 51.11023
#
# Poissons Ratio (x) = 0.30785 0.37081
# Poissons Ratio (y) = 0.14929 0.10722
# Poissons Ratio (z) = 0.41010 0.24453
#
# Static dielectric constant tensor:
#      x y z
#    x 3.756240 0.000000 0.000000 
#    y 0.000000 3.876160 0.000000 
#    z 0.000000 0.000000 3.446060 
# 
# 
# High freq. dielectric constant tensor:
#      x y z
#    x 1.800140 0.000000 0.000000 
#    y 0.000000 1.814030 0.000000 
#    z 0.000000 0.000000 1.773440 
# 
# From -- ./inp_files/13074.got.cif
#   From: 2010.03.12/outbox.cif.g09.slc.cpg/sg56_7_cif.got.tgz:13074.got - 2010.04.16 15:33:40.
