data_PCOD8228041
_publ_section_title
;
Structure prediction by ZEFSAII (Michael W. Deem and Ramdas Pophale) SiO2 
 PCOD8228041
Probable space group: P C C N
;
_chemical_formula_sum "Si O2"
_cell_formula_units_Z 44
_cell_length_a 8.579455
_cell_length_b 27.606194
_cell_length_c 9.401897
_cell_angle_alpha 90.000000
_cell_angle_beta 90.000000
_cell_angle_gamma 90.000000
_cell_volume 2226.802629
_symmetry_space_group_name_H-M "P C C N"
_symmetry_group_IT_number 56
_symmetry_cell_setting 'orthorhombic'
loop_
_space_group_symop_operation_xyz
x,y,z
1/2-x,1/2-y,z
1/2+x,-y,1/2-z
-x,1/2+y,1/2-z
-x,-y,-z
1/2+x,1/2+y,-z
1/2-x,y,1/2+z
x,1/2-y,1/2+z
loop_
_atom_site_type_symbol
_atom_site_label
_atom_site_fract_x
_atom_site_fract_y
_atom_site_fract_z
Si Si1 0.728152 0.412475 0.950298
Si Si2 0.092209 0.392650 0.541824
Si Si3 0.874497 0.188243 0.989140
Si Si4 0.244938 0.061670 0.786055
Si Si5 0.401171 0.539666 0.314998
Si Si6 0.250000 0.750000 0.756238
O O1 0.563851 0.425795 0.028499
O O2 0.755146 0.354178 0.961912
O O3 0.867305 0.442097 0.024363
O O4 0.709961 0.427933 0.786424
O O5 0.165341 0.397128 0.696997
O O6 0.222385 0.413481 0.437024
O O7 0.045391 0.336958 0.502988
O O8 0.843137 0.214086 0.139777
O O9 0.871046 0.223115 0.850894
O O10 0.082570 0.046540 0.714544
O O11 0.358326 0.016156 0.799367
#
# Coordination Sequence:
#
# PCOD8228041 Si02
#       6
#     8   8   8   8   8   4
#     4   9  20  36  55  85 113 153 187 249 279 348
#     4   9  22  38  54  81 120 153 195 236 295 333
#     4   9  20  37  63  94 113 144 185 251 296 356
#     4  11  22  37  54  84 121 165 199 242 270 345
#     4  11  21  34  56  82 121 157 209 230 282 324
#     4  10  18  38  70  96 108 136 194 244 310 362
#
# _framework density 19.759274000000001
#
# number of rings (size 3 to 8) (size 9 to 14) (size 15 to 20)
#    1.091    1.091    0.000    3.273    0.000    7.273 
#    0.000    0.000    0.000    3.273    0.000    0.000 
#    0.000    0.000    0.000    0.000    0.000    0.000 
#
# Total GULP energy -545223.751322 kJ/mol
# GULP energy per Si atom -12391.448894 kJ/mol
# Density = 1.971430 g / cm^3
# Si number density = 19.759274 Si / 1000 Ang^3
#
#
#
# Elastic Constant Matrix: (Units=GPa)
#
#
# Indices 1 2 3 4 5 6 
#
# 1 28.4547 21.6965 3.2275 0.0000 0.0000 0.0000
# 2 21.6965 114.6241 42.4772 0.0000 0.0000 0.0000
# 3 3.2275 42.4772 76.4627 0.0000 0.0000 0.0000
# 4 0.0000 0.0000 0.0000 38.0814 0.0000 0.0000
# 5 0.0000 0.0000 0.0000 0.0000 26.5026 0.0000
# 6 0.0000 0.0000 0.0000 0.0000 0.0000 20.5151
#
#
#
# Elastic Compliance Matrix: (Units=1/GPa)
#
#
# Indices 1 2 3 4 5 6 
#
# 1 0.041725 -0.009123 0.003307 0.000000 0.000000 0.000000
# 2 -0.009123 0.012981 -0.006826 0.000000 0.000000 0.000000
# 3 0.003307 -0.006826 0.016731 0.000000 0.000000 0.000000
# 4 0.000000 0.000000 0.000000 0.026260 0.000000 0.000000
# 5 0.000000 0.000000 0.000000 0.000000 0.037732 0.000000
# 6 0.000000 0.000000 0.000000 0.000000 0.000000 0.048745
#
#
# Mechanical properties :
#
#
# Convention : Reuss Voigt Hill
#
# Bulk Modulus (GPa) = 21.66768 39.37154 30.51961
# Shear Modulus (GPa) = 22.23792 27.16250 24.70021
#
# Velocity S-wave (km/s) = 3.35840 3.71168 3.53945
# Velocity P-wave (km/s) = 5.10177 6.19174 5.67299
#
# Compressibility (1/GPa) = 0.04615169
#
# Stress axis : x y z
#
# Youngs Moduli (GPa) = 23.96648 77.03766 59.77028
#
# Poissons Ratio (x) = 0.70285 -0.19767
# Poissons Ratio (y) = 0.21866 0.40799
# Poissons Ratio (z) = -0.07926 0.52586
#
# Static dielectric constant tensor:
#      x y z
#    x 3.302580 0.000000 0.000000 
#    y 0.000000 3.496710 0.000000 
#    z 0.000000 0.000000 3.615150 
# 
# 
# High freq. dielectric constant tensor:
#      x y z
#    x 1.743480 0.000000 0.000000 
#    y 0.000000 1.757170 0.000000 
#    z 0.000000 0.000000 1.784800 
# 
# From -- ./inp_files/2191.got.cif
#   From: 2010.03.12/outbox.cif.g09.slc.cpg/sg56_2_cif.got.tgz:2191.got - 2010.04.16 15:33:40.
