data_PCOD8228551
_publ_section_title
;
Structure prediction by ZEFSAII (Michael W. Deem and Ramdas Pophale) SiO2 
 PCOD8228551
Probable space group: P C C N
;
_chemical_formula_sum "Si O2"
_cell_formula_units_Z 48
_cell_length_a 8.273799
_cell_length_b 15.254272
_cell_length_c 18.162165
_cell_angle_alpha 90.000000
_cell_angle_beta 90.000000
_cell_angle_gamma 90.000000
_cell_volume 2292.261019
_symmetry_space_group_name_H-M "P C C N"
_symmetry_group_IT_number 56
_symmetry_cell_setting 'orthorhombic'
loop_
_space_group_symop_operation_xyz
x,y,z
1/2-x,1/2-y,z
1/2+x,-y,1/2-z
-x,1/2+y,1/2-z
-x,-y,-z
1/2+x,1/2+y,-z
1/2-x,y,1/2+z
x,1/2-y,1/2+z
loop_
_atom_site_type_symbol
_atom_site_label
_atom_site_fract_x
_atom_site_fract_y
_atom_site_fract_z
Si Si1 0.647326 0.327075 0.927956
Si Si2 0.939485 0.410479 0.696308
Si Si3 0.626001 0.499252 0.433915
Si Si4 0.561316 0.442281 0.708531
Si Si5 0.436641 0.087755 0.536545
Si Si6 0.072059 0.764619 0.235007
O O1 0.750000 0.250000 0.965765
O O2 0.764538 0.412192 0.923461
O O3 0.582870 0.291613 0.850077
O O4 0.487313 0.338293 0.977736
O O5 0.751591 0.432120 0.701433
O O6 0.007914 0.330066 0.747746
O O7 0.036339 0.497152 0.719904
O O8 0.974304 0.389598 0.611988
O O9 0.500000 0.500000 0.500000
O O10 0.524581 0.512740 0.360127
O O11 0.744633 0.581492 0.449813
O O12 0.485517 0.345221 0.722427
O O13 0.500000 0.000000 0.500000
O O14 0.250000 0.750000 0.268705
#
# Coordination Sequence:
#
# PCOD8228551 Si02
#       6
#     8   8   8   8   8   8
#     4  10  20  40  64  86 119 163 205 255 317 390
#     4  11  22  38  63  93 121 162 212 256 310 386
#     4  11  23  39  60  90 122 162 212 261 316 381
#     4  11  20  37  61  85 123 162 199 258 312 363
#     4  10  21  39  62  89 121 161 206 253 315 382
#     4   9  20  37  60  87 116 158 204 241 305 386
#
# _framework density 20.940023
#
# number of rings (size 3 to 8) (size 9 to 14) (size 15 to 20)
#    0.000    1.667    0.000    8.000    0.000    3.333 
#    0.000    5.833    0.000   16.000    0.000    0.000 
#    0.000    0.000    0.000    0.000    0.000    0.000 
#
# Total GULP energy -594768.447678 kJ/mol
# GULP energy per Si atom -12391.009327 kJ/mol
# Density = 2.089236 g / cm^3
# Si number density = 20.940023 Si / 1000 Ang^3
#
#
#
# Elastic Constant Matrix: (Units=GPa)
#
#
# Indices 1 2 3 4 5 6 
#
# 1 81.3221 45.3102 46.2867 0.0000 0.0000 0.0000
# 2 45.3102 131.2994 56.5211 0.0000 0.0000 0.0000
# 3 46.2867 56.5211 126.1294 0.0000 0.0000 0.0000
# 4 0.0000 0.0000 0.0000 40.8153 0.0000 0.0000
# 5 0.0000 0.0000 0.0000 0.0000 28.2064 0.0000
# 6 0.0000 0.0000 0.0000 0.0000 0.0000 32.2201
#
#
#
# Elastic Compliance Matrix: (Units=1/GPa)
#
#
# Indices 1 2 3 4 5 6 
#
# 1 0.017053 -0.003954 -0.004486 0.000000 0.000000 0.000000
# 2 -0.003954 0.010353 -0.003189 0.000000 0.000000 0.000000
# 3 -0.004486 -0.003189 0.011004 0.000000 0.000000 0.000000
# 4 0.000000 0.000000 0.000000 0.024501 0.000000 0.000000
# 5 0.000000 0.000000 0.000000 0.000000 0.035453 0.000000
# 6 0.000000 0.000000 0.000000 0.000000 0.000000 0.031036
#
#
# Mechanical properties :
#
#
# Convention : Reuss Voigt Hill
#
# Bulk Modulus (GPa) = 65.99463 70.55409 68.27436
# Shear Modulus (GPa) = 31.70415 32.95725 32.33070
#
# Velocity S-wave (km/s) = 3.89530 3.97153 3.93360
# Velocity P-wave (km/s) = 7.19830 7.40252 7.30112
#
# Compressibility (1/GPa) = 0.01515275
#
# Stress axis : x y z
#
# Youngs Moduli (GPa) = 58.64009 96.58928 90.87894
#
# Poissons Ratio (x) = 0.38187 0.40773
# Poissons Ratio (y) = 0.23184 0.28977
# Poissons Ratio (z) = 0.26309 0.30798
#
# Static dielectric constant tensor:
#      x y z
#    x 3.919160 0.000000 0.000000 
#    y 0.000000 4.481850 0.000000 
#    z 0.000000 0.000000 3.870920 
# 
# 
# High freq. dielectric constant tensor:
#      x y z
#    x 1.804050 0.000000 0.000000 
#    y 0.000000 1.827060 0.000000 
#    z 0.000000 0.000000 1.828830 
# 
# From -- ./inp_files/14827.got.cif
#   From: 2010.03.12/outbox.cif.g09.slc.cpg/sg56_8_cif.got.tgz:14827.got - 2010.04.16 15:33:40.
