data_PCOD8228844
_publ_section_title
;
Structure prediction by ZEFSAII (Michael W. Deem and Ramdas Pophale) SiO2 
 PCOD8228844
Probable space group: P C C N
;
_chemical_formula_sum "Si O2"
_cell_formula_units_Z 40
_cell_length_a 12.814258
_cell_length_b 4.876720
_cell_length_c 28.950041
_cell_angle_alpha 90.000000
_cell_angle_beta 90.000000
_cell_angle_gamma 90.000000
_cell_volume 1809.132885
_symmetry_space_group_name_H-M "P C C N"
_symmetry_group_IT_number 56
_symmetry_cell_setting 'orthorhombic'
loop_
_space_group_symop_operation_xyz
x,y,z
1/2-x,1/2-y,z
1/2+x,-y,1/2-z
-x,1/2+y,1/2-z
-x,-y,-z
1/2+x,1/2+y,-z
1/2-x,y,1/2+z
x,1/2-y,1/2+z
loop_
_atom_site_type_symbol
_atom_site_label
_atom_site_fract_x
_atom_site_fract_y
_atom_site_fract_z
Si Si1 0.678160 0.476955 0.278465
Si Si2 0.867176 0.779232 0.492455
Si Si3 0.143782 0.608767 0.327333
Si Si4 0.449557 0.711653 0.056475
Si Si5 0.989627 0.590148 0.153152
O O1 0.750000 0.250000 0.302611
O O2 0.646467 0.374037 0.227738
O O3 0.569326 0.467702 0.305231
O O4 0.750000 0.750000 0.278283
O O5 0.750000 0.750000 0.508672
O O6 0.896234 0.585227 0.448821
O O7 0.932010 0.699310 0.538097
O O8 0.884988 0.088872 0.476852
O O9 0.250000 0.750000 0.346838
O O10 0.109962 0.293123 0.337634
O O11 0.055972 0.787088 0.353096
O O12 0.445582 0.809954 0.109024
#
# Coordination Sequence:
#
# PCOD8228844 Si02
#       5
#     8   8   8   8   8
#     4  11  23  40  61  89 124 167 213 252 308 380
#     4  10  21  41  63  84 122 163 194 250 319 378
#     4  11  23  40  61  88 124 166 210 254 314 378
#     4  10  23  39  60  94 119 151 211 252 305 393
#     4  12  23  40  63  91 125 159 204 268 316 361
#
# _framework density 22.110039
#
# number of rings (size 3 to 8) (size 9 to 14) (size 15 to 20)
#    0.000    1.200    0.000    7.200    0.000    4.000 
#    0.000    0.000    0.000    0.000    0.000    0.000 
#    0.000    0.000    0.000    0.000    0.000    0.000 
#
# Total GULP energy -495604.325722 kJ/mol
# GULP energy per Si atom -12390.108143 kJ/mol
# Density = 2.205972 g / cm^3
# Si number density = 22.110039 Si / 1000 Ang^3
#
#
#
# Elastic Constant Matrix: (Units=GPa)
#
#
# Indices 1 2 3 4 5 6 
#
# 1 98.5876 24.2969 -5.0189 0.0000 0.0000 0.0000
# 2 24.2969 99.9554 0.9159 0.0000 0.0000 0.0000
# 3 -5.0189 0.9159 46.2441 0.0000 0.0000 0.0000
# 4 0.0000 0.0000 0.0000 24.3543 0.0000 0.0000
# 5 0.0000 0.0000 0.0000 0.0000 12.8790 0.0000
# 6 0.0000 0.0000 0.0000 0.0000 0.0000 34.4594
#
#
#
# Elastic Compliance Matrix: (Units=1/GPa)
#
#
# Indices 1 2 3 4 5 6 
#
# 1 0.010859 -0.002651 0.001231 0.000000 0.000000 0.000000
# 2 -0.002651 0.010653 -0.000499 0.000000 0.000000 0.000000
# 3 0.001231 -0.000499 0.021768 0.000000 0.000000 0.000000
# 4 0.000000 0.000000 0.000000 0.041061 0.000000 0.000000
# 5 0.000000 0.000000 0.000000 0.000000 0.077646 0.000000
# 6 0.000000 0.000000 0.000000 0.000000 0.000000 0.029020
#
#
# Mechanical properties :
#
#
# Convention : Reuss Voigt Hill
#
# Bulk Modulus (GPa) = 25.35277 31.68611 28.51944
# Shear Modulus (GPa) = 24.03948 29.31143 26.67545
#
# Velocity S-wave (km/s) = 3.30095 3.64498 3.47722
# Velocity P-wave (km/s) = 5.10097 5.66363 5.38964
#
# Compressibility (1/GPa) = 0.03944342
#
# Stress axis : x y z
#
# Youngs Moduli (GPa) = 92.08738 93.86668 45.93923
#
# Poissons Ratio (x) = 0.24883 -0.05655
# Poissons Ratio (y) = 0.24412 0.02291
# Poissons Ratio (z) = -0.11336 0.04681
#
# Static dielectric constant tensor:
#      x y z
#    x 4.190480 0.000000 0.000000 
#    y 0.000000 4.254260 0.000000 
#    z 0.000000 0.000000 3.618820 
# 
# 
# High freq. dielectric constant tensor:
#      x y z
#    x 1.877930 0.000000 0.000000 
#    y 0.000000 1.890880 0.000000 
#    z 0.000000 0.000000 1.845580 
# 
# From -- ./inp_files/22171.got.cif
#   From: 2010.03.12/outbox.cif.g09.slc.cpg/sg56_12_cif.got.tgz:22171.got - 2010.04.16 15:33:40.
