data_PCOD8228168
_publ_section_title
;
Structure prediction by ZEFSAII (Michael W. Deem and Ramdas Pophale) SiO2 
 PCOD8228168
Probable space group: P C C N
;
_chemical_formula_sum "Si O2"
_cell_formula_units_Z 60
_cell_length_a 18.246331
_cell_length_b 18.884972
_cell_length_c 9.038662
_cell_angle_alpha 90.000000
_cell_angle_beta 90.000000
_cell_angle_gamma 90.000000
_cell_volume 3114.555258
_symmetry_space_group_name_H-M "P C C N"
_symmetry_group_IT_number 56
_symmetry_cell_setting 'orthorhombic'
loop_
_space_group_symop_operation_xyz
x,y,z
1/2-x,1/2-y,z
1/2+x,-y,1/2-z
-x,1/2+y,1/2-z
-x,-y,-z
1/2+x,1/2+y,-z
1/2-x,y,1/2+z
x,1/2-y,1/2+z
loop_
_atom_site_type_symbol
_atom_site_label
_atom_site_fract_x
_atom_site_fract_y
_atom_site_fract_z
Si Si1 0.750000 0.250000 0.843073
Si Si2 0.156973 0.820933 0.910431
Si Si3 0.054951 0.443952 0.652864
Si Si4 0.098031 0.237329 0.826359
Si Si5 0.102850 0.519789 0.371844
Si Si6 0.830548 0.880492 0.643182
Si Si7 0.678697 0.600436 0.293525
Si Si8 0.495227 0.208283 0.588979
O O1 0.692258 0.208661 0.740622
O O2 0.790608 0.192572 0.948532
O O3 0.140513 0.903448 0.883676
O O4 0.080882 0.779452 0.945217
O O5 0.105590 0.485774 0.535937
O O6 0.101116 0.428123 0.801024
O O7 0.980357 0.485451 0.691382
O O8 0.023001 0.374035 0.577395
O O9 0.158327 0.298660 0.811230
O O10 0.133286 0.162752 0.784494
O O11 0.022094 0.253912 0.742663
O O12 0.067464 0.243579 0.990263
O O13 0.146265 0.475064 0.250614
O O14 0.820389 0.891016 0.469437
O O15 0.760487 0.902969 0.734569
#
# Coordination Sequence:
#
# PCOD8228168 Si02
#       8
#     4   8   8   8   8   8   8   8
#     4  10  22  42  62  92 120 148 198 254 314 362
#     4  10  22  40  65  90 119 153 196 254 308 369
#     4   9  20  40  61  88 119 160 204 249 297 366
#     4  11  21  36  59  88 120 161 209 254 295 354
#     4  10  21  40  66  88 123 161 202 249 308 365
#     4  11  25  38  58  87 128 166 210 254 299 360
#     4  12  24  38  59  88 124 167 206 250 308 366
#     4  10  19  36  61  87 117 157 206 248 300 351
#
# _framework density 19.264388
#
# number of rings (size 3 to 8) (size 9 to 14) (size 15 to 20)
#    0.000    1.600    2.667    2.000    1.867    3.733 
#    0.000    1.333    0.000    0.000    0.000    0.000 
#    0.000    0.000    0.000    0.000    0.000    0.000 
#
# Total GULP energy -743648.902210 kJ/mol
# GULP energy per Si atom -12394.148370 kJ/mol
# Density = 1.922054 g / cm^3
# Si number density = 19.264388 Si / 1000 Ang^3
#
#
#
# Elastic Constant Matrix: (Units=GPa)
#
#
# Indices 1 2 3 4 5 6 
#
# 1 115.2382 34.0440 52.7231 0.0000 0.0000 0.0000
# 2 34.0440 71.8319 27.2494 0.0000 0.0000 0.0000
# 3 52.7231 27.2494 111.1022 0.0000 0.0000 0.0000
# 4 0.0000 0.0000 0.0000 22.7457 0.0000 0.0000
# 5 0.0000 0.0000 0.0000 0.0000 32.5340 0.0000
# 6 0.0000 0.0000 0.0000 0.0000 0.0000 31.2008
#
#
#
# Elastic Compliance Matrix: (Units=1/GPa)
#
#
# Indices 1 2 3 4 5 6 
#
# 1 0.011994 -0.003887 -0.004738 0.000000 0.000000 0.000000
# 2 -0.003887 0.016609 -0.002229 0.000000 0.000000 0.000000
# 3 -0.004738 -0.002229 0.011796 0.000000 0.000000 0.000000
# 4 0.000000 0.000000 0.000000 0.043964 0.000000 0.000000
# 5 0.000000 0.000000 0.000000 0.000000 0.030737 0.000000
# 6 0.000000 0.000000 0.000000 0.000000 0.000000 0.032050
#
#
# Mechanical properties :
#
#
# Convention : Reuss Voigt Hill
#
# Bulk Modulus (GPa) = 53.50359 58.46727 55.98543
# Shear Modulus (GPa) = 28.55683 29.57316 29.06499
#
# Velocity S-wave (km/s) = 3.85432 3.92231 3.88847
# Velocity P-wave (km/s) = 6.90227 7.13642 7.02032
#
# Compressibility (1/GPa) = 0.01869034
#
# Stress axis : x y z
#
# Youngs Moduli (GPa) = 83.37656 60.20774 84.77465
#
# Poissons Ratio (x) = 0.23402 0.40169
# Poissons Ratio (y) = 0.32407 0.18897
# Poissons Ratio (z) = 0.39506 0.13421
#
# Static dielectric constant tensor:
#      x y z
#    x 3.710090 0.000000 0.000000 
#    y 0.000000 3.488990 0.000000 
#    z 0.000000 0.000000 3.465140 
# 
# 
# High freq. dielectric constant tensor:
#      x y z
#    x 1.763500 0.000000 0.000000 
#    y 0.000000 1.744860 0.000000 
#    z 0.000000 0.000000 1.750400 
# 
# From -- ./inp_files/4121.got.cif
#   From: 2010.03.12/outbox.cif.g09.slc.cpg/sg56_3_cif.got.tgz:4121.got - 2010.04.16 15:33:40.
