data_PCOD8228910
_publ_section_title
;
Structure prediction by ZEFSAII (Michael W. Deem and Ramdas Pophale) SiO2 
 PCOD8228910
Probable space group: P C C N
;
_chemical_formula_sum "Si O2"
_cell_formula_units_Z 60
_cell_length_a 8.752837
_cell_length_b 22.172059
_cell_length_c 14.322509
_cell_angle_alpha 90.000000
_cell_angle_beta 90.000000
_cell_angle_gamma 90.000000
_cell_volume 2779.546669
_symmetry_space_group_name_H-M "P C C N"
_symmetry_group_IT_number 56
_symmetry_cell_setting 'orthorhombic'
loop_
_space_group_symop_operation_xyz
x,y,z
1/2-x,1/2-y,z
1/2+x,-y,1/2-z
-x,1/2+y,1/2-z
-x,-y,-z
1/2+x,1/2+y,-z
1/2-x,y,1/2+z
x,1/2-y,1/2+z
loop_
_atom_site_type_symbol
_atom_site_label
_atom_site_fract_x
_atom_site_fract_y
_atom_site_fract_z
Si Si1 0.846061 0.123813 0.055209
Si Si2 0.105585 0.155032 0.391291
Si Si3 0.034461 0.073182 0.222492
Si Si4 0.250000 0.750000 0.372980
Si Si5 0.916892 0.241067 0.807023
Si Si6 0.135125 0.039775 0.719814
Si Si7 0.965101 0.433832 0.039240
Si Si8 0.939053 0.628468 0.620152
O O1 0.767188 0.190248 0.062932
O O2 0.716151 0.072666 0.051827
O O3 0.954065 0.110102 0.141671
O O4 0.949249 0.114518 0.964743
O O5 0.093955 0.122138 0.293589
O O6 0.283978 0.159585 0.418712
O O7 0.033386 0.220094 0.369812
O O8 0.018996 0.119721 0.472349
O O9 0.186694 0.037662 0.190179
O O10 0.916391 0.029415 0.274434
O O11 0.099381 0.747626 0.305056
O O12 0.750000 0.250000 0.854037
O O13 0.971862 0.172655 0.810901
O O14 0.101827 0.068551 0.821473
O O15 0.044163 0.074997 0.639366
O O16 0.000000 0.500000 0.000000
#
# Coordination Sequence:
#
# PCOD8228910 Si02
#       8
#     8   8   8   4   8   8   8   8
#     4  12  26  44  70 104 140 182 235 287 351 421
#     4  11  23  45  67 102 136 181 224 291 350 411
#     4  11  23  44  71  96 138 179 229 292 346 423
#     4  10  24  42  76 102 132 178 240 278 340 418
#     4  10  21  43  70  95 133 175 229 274 344 408
#     4  11  25  43  69  99 136 182 232 285 355 413
#     4  12  26  42  68 101 138 181 231 288 345 417
#     4  11  26  42  69 102 137 181 228 284 356 414
#
# _framework density 21.586254
#
# number of rings (size 3 to 8) (size 9 to 14) (size 15 to 20)
#    0.400    0.533    2.667    3.600    6.533    2.667 
#    0.000    0.000    0.000    0.000    0.000    0.000 
#    0.000    0.000    0.000    0.000    0.000    0.000 
#
# Total GULP energy -743860.842270 kJ/mol
# GULP energy per Si atom -12397.680705 kJ/mol
# Density = 2.153712 g / cm^3
# Si number density = 21.586254 Si / 1000 Ang^3
#
#
#
# Elastic Constant Matrix: (Units=GPa)
#
#
# Indices 1 2 3 4 5 6 
#
# 1 129.6470 31.7551 30.6350 0.0000 0.0000 0.0000
# 2 31.7551 72.5351 8.9153 0.0000 0.0000 0.0000
# 3 30.6350 8.9153 91.6324 0.0000 0.0000 0.0000
# 4 0.0000 0.0000 0.0000 28.2040 0.0000 0.0000
# 5 0.0000 0.0000 0.0000 0.0000 30.6288 0.0000
# 6 0.0000 0.0000 0.0000 0.0000 0.0000 36.5969
#
#
#
# Elastic Compliance Matrix: (Units=1/GPa)
#
#
# Indices 1 2 3 4 5 6 
#
# 1 0.009272 -0.003723 -0.002738 0.000000 0.000000 0.000000
# 2 -0.003723 0.015448 -0.000258 0.000000 0.000000 0.000000
# 3 -0.002738 -0.000258 0.011854 0.000000 0.000000 0.000000
# 4 0.000000 0.000000 0.000000 0.035456 0.000000 0.000000
# 5 0.000000 0.000000 0.000000 0.000000 0.032649 0.000000
# 6 0.000000 0.000000 0.000000 0.000000 0.000000 0.027325
#
#
# Mechanical properties :
#
#
# Convention : Reuss Voigt Hill
#
# Bulk Modulus (GPa) = 43.22269 48.49170 45.85720
# Shear Modulus (GPa) = 32.64716 33.91987 33.28351
#
# Velocity S-wave (km/s) = 3.89318 3.96834 3.93094
# Velocity P-wave (km/s) = 6.34633 6.59621 6.47247
#
# Compressibility (1/GPa) = 0.02313599
#
# Stress axis : x y z
#
# Youngs Moduli (GPa) = 107.85201 64.73351 84.36270
#
# Poissons Ratio (x) = 0.24098 0.23096
# Poissons Ratio (y) = 0.40150 0.02180
# Poissons Ratio (z) = 0.29526 0.01673
#
# Static dielectric constant tensor:
#      x y z
#    x 4.085830 0.000000 0.000000 
#    y 0.000000 3.786480 0.000000 
#    z 0.000000 0.000000 3.857350 
# 
# 
# High freq. dielectric constant tensor:
#      x y z
#    x 1.858410 0.000000 0.000000 
#    y 0.000000 1.845830 0.000000 
#    z 0.000000 0.000000 1.846980 
# 
# From -- ./inp_files/10999.got.cif
#   From: 2010.03.12/outbox.cif.g09.slc.cpg/sg56_6_cif.got.tgz:10999.got - 2010.04.16 15:33:40.
