data_PCOD8228903
_publ_section_title
;
Structure prediction by ZEFSAII (Michael W. Deem and Ramdas Pophale) SiO2 
 PCOD8228903
Probable space group: P C C N
;
_chemical_formula_sum "Si O2"
_cell_formula_units_Z 64
_cell_length_a 11.415321
_cell_length_b 24.022111
_cell_length_c 10.929785
_cell_angle_alpha 90.000000
_cell_angle_beta 90.000000
_cell_angle_gamma 90.000000
_cell_volume 2997.166825
_symmetry_space_group_name_H-M "P C C N"
_symmetry_group_IT_number 56
_symmetry_cell_setting 'orthorhombic'
loop_
_space_group_symop_operation_xyz
x,y,z
1/2-x,1/2-y,z
1/2+x,-y,1/2-z
-x,1/2+y,1/2-z
-x,-y,-z
1/2+x,1/2+y,-z
1/2-x,y,1/2+z
x,1/2-y,1/2+z
loop_
_atom_site_type_symbol
_atom_site_label
_atom_site_fract_x
_atom_site_fract_y
_atom_site_fract_z
Si Si1 0.215202 0.429006 0.815405
Si Si2 0.062100 0.676272 0.570060
Si Si3 0.704957 0.385997 0.408406
Si Si4 0.494657 0.797626 0.118112
Si Si5 0.194416 0.558184 0.826695
Si Si6 0.951363 0.887945 0.274499
Si Si7 0.918988 0.843499 0.846765
Si Si8 0.189481 0.343450 0.018401
O O1 0.183517 0.492340 0.836643
O O2 0.342146 0.427834 0.753654
O O3 0.117020 0.398845 0.729806
O O4 0.225651 0.399397 0.946642
O O5 0.193113 0.659298 0.601514
O O6 0.066190 0.743178 0.563593
O O7 0.968991 0.659291 0.672874
O O8 0.017788 0.644720 0.448221
O O9 0.582389 0.352904 0.412037
O O10 0.723591 0.419609 0.536154
O O11 0.714872 0.423116 0.282421
O O12 0.517469 0.796694 0.263844
O O13 0.629918 0.799194 0.071499
O O14 0.066232 0.575600 0.785284
O O15 0.922153 0.855567 0.396898
O O16 0.801442 0.818773 0.910233
#
# Coordination Sequence:
#
# PCOD8228903 Si02
#       8
#     8   8   8   8   8   8   8   8
#     4  10  23  42  69  97 131 180 214 277 341 392
#     4  11  24  42  68  96 133 179 217 279 340 388
#     4  11  25  45  66 102 135 170 238 277 322 417
#     4  11  24  43  68  95 131 181 217 275 343 388
#     4  11  25  42  71  97 134 180 221 278 343 392
#     4  10  22  42  61  95 134 165 222 275 320 407
#     4  10  23  43  62  98 135 165 228 274 324 414
#     4  10  21  43  64  94 135 162 225 273 323 403
#
# _framework density 21.353498999999999
#
# number of rings (size 3 to 8) (size 9 to 14) (size 15 to 20)
#    0.000    1.500    2.500    1.125    5.250    4.000 
#    2.250    5.000    0.000    0.000    0.000    0.000 
#    0.000    0.000    0.000    0.000    0.000    0.000 
#
# Total GULP energy -793105.094640 kJ/mol
# GULP energy per Si atom -12392.267104 kJ/mol
# Density = 2.130490 g / cm^3
# Si number density = 21.353499 Si / 1000 Ang^3
#
#
#
# Elastic Constant Matrix: (Units=GPa)
#
#
# Indices 1 2 3 4 5 6 
#
# 1 64.2367 8.2682 20.6359 0.0000 0.0000 0.0000
# 2 8.2682 77.0651 26.1266 0.0000 0.0000 0.0000
# 3 20.6359 26.1266 129.4021 0.0000 0.0000 0.0000
# 4 0.0000 0.0000 0.0000 19.5060 0.0000 0.0000
# 5 0.0000 0.0000 0.0000 0.0000 36.7867 0.0000
# 6 0.0000 0.0000 0.0000 0.0000 0.0000 20.1878
#
#
#
# Elastic Compliance Matrix: (Units=1/GPa)
#
#
# Indices 1 2 3 4 5 6 
#
# 1 0.016471 -0.000941 -0.002437 0.000000 0.000000 0.000000
# 2 -0.000941 0.013983 -0.002673 0.000000 0.000000 0.000000
# 3 -0.002437 -0.002673 0.008656 0.000000 0.000000 0.000000
# 4 0.000000 0.000000 0.000000 0.051266 0.000000 0.000000
# 5 0.000000 0.000000 0.000000 0.000000 0.027184 0.000000
# 6 0.000000 0.000000 0.000000 0.000000 0.000000 0.049535
#
#
# Mechanical properties :
#
#
# Convention : Reuss Voigt Hill
#
# Bulk Modulus (GPa) = 37.02492 42.30726 39.66609
# Shear Modulus (GPa) = 26.56739 29.67431 28.12085
#
# Velocity S-wave (km/s) = 3.53111 3.73187 3.63288
# Velocity P-wave (km/s) = 5.83109 6.19879 6.01775
#
# Compressibility (1/GPa) = 0.02700883
#
# Stress axis : x y z
#
# Youngs Moduli (GPa) = 60.71146 71.51406 115.52474
#
# Poissons Ratio (x) = 0.06730 0.28150
# Poissons Ratio (y) = 0.05713 0.30882
# Poissons Ratio (z) = 0.14794 0.19117
#
# Static dielectric constant tensor:
#      x y z
#    x 3.858620 0.000000 0.000000 
#    y 0.000000 3.472130 0.000000 
#    z 0.000000 0.000000 4.261480 
# 
# 
# High freq. dielectric constant tensor:
#      x y z
#    x 1.846940 0.000000 0.000000 
#    y 0.000000 1.809860 0.000000 
#    z 0.000000 0.000000 1.860190 
# 
# From -- ./inp_files/7402.got.cif
#   From: 2010.03.12/outbox.cif.g09.slc.cpg/sg56_4_cif.got.tgz:7402.got - 2010.04.16 15:33:40.
