data_PCOD8228462
_publ_section_title
;
Structure prediction by ZEFSAII (Michael W. Deem and Ramdas Pophale) SiO2 
 PCOD8228462
Probable space group: P C C N
;
_chemical_formula_sum "Si O2"
_cell_formula_units_Z 44
_cell_length_a 14.808212
_cell_length_b 16.800603
_cell_length_c 8.735084
_cell_angle_alpha 90.000000
_cell_angle_beta 90.000000
_cell_angle_gamma 90.000000
_cell_volume 2173.174391
_symmetry_space_group_name_H-M "P C C N"
_symmetry_group_IT_number 56
_symmetry_cell_setting 'orthorhombic'
loop_
_space_group_symop_operation_xyz
x,y,z
1/2-x,1/2-y,z
1/2+x,-y,1/2-z
-x,1/2+y,1/2-z
-x,-y,-z
1/2+x,1/2+y,-z
1/2-x,y,1/2+z
x,1/2-y,1/2+z
loop_
_atom_site_type_symbol
_atom_site_label
_atom_site_fract_x
_atom_site_fract_y
_atom_site_fract_z
Si Si1 0.250000 0.750000 0.492340
Si Si2 0.864617 0.660095 0.625613
Si Si3 0.567182 0.693486 0.797385
Si Si4 0.687193 0.577192 0.626704
Si Si5 0.158532 0.488216 0.198636
Si Si6 0.366118 0.832013 0.244677
O O1 0.305010 0.812475 0.390696
O O2 0.180912 0.801284 0.591598
O O3 0.874144 0.730136 0.749535
O O4 0.923908 0.679910 0.478241
O O5 0.758886 0.647245 0.578926
O O6 0.899100 0.578497 0.708065
O O7 0.600602 0.615711 0.706939
O O8 0.462923 0.709951 0.759695
O O9 0.652650 0.528058 0.481725
O O10 0.736314 0.517355 0.746705
O O11 0.118193 0.573742 0.236447
#
# Coordination Sequence:
#
# PCOD8228462 Si02
#       6
#     4   8   8   8   8   8
#     4  10  24  46  64  88 122 170 210 258 334 362
#     4  10  22  37  59  93 130 170 197 264 315 387
#     4  12  22  38  63  96 126 163 223 252 313 370
#     4  10  20  38  60  91 127 171 200 255 316 390
#     4  10  21  39  61  90 125 172 204 251 329 363
#     4  11  24  43  69  90 122 167 216 271 301 390
#
# _framework density 20.246877999999999
#
# number of rings (size 3 to 8) (size 9 to 14) (size 15 to 20)
#    1.091    0.364    1.818    3.818    0.000    2.909 
#    0.000    3.636    0.000    0.000    0.000    0.000 
#    0.000    0.000    0.000    0.000    0.000    0.000 
#
# Total GULP energy -545598.853048 kJ/mol
# GULP energy per Si atom -12399.973933 kJ/mol
# Density = 2.020080 g / cm^3
# Si number density = 20.246878 Si / 1000 Ang^3
#
#
#
# Elastic Constant Matrix: (Units=GPa)
#
#
# Indices 1 2 3 4 5 6 
#
# 1 59.2239 -7.1917 -6.8409 0.0000 0.0000 0.0000
# 2 -7.1917 92.9944 23.9305 0.0000 0.0000 0.0000
# 3 -6.8409 23.9305 95.1149 0.0000 0.0000 0.0000
# 4 0.0000 0.0000 0.0000 26.6532 0.0000 0.0000
# 5 0.0000 0.0000 0.0000 0.0000 2.1041 0.0000
# 6 0.0000 0.0000 0.0000 0.0000 0.0000 18.5665
#
#
#
# Elastic Compliance Matrix: (Units=1/GPa)
#
#
# Indices 1 2 3 4 5 6 
#
# 1 0.017127 0.001077 0.000961 0.000000 0.000000 0.000000
# 2 0.001077 0.011565 -0.002832 0.000000 0.000000 0.000000
# 3 0.000961 -0.002832 0.011295 0.000000 0.000000 0.000000
# 4 0.000000 0.000000 0.000000 0.037519 0.000000 0.000000
# 5 0.000000 0.000000 0.000000 0.000000 0.475268 0.000000
# 6 0.000000 0.000000 0.000000 0.000000 0.000000 0.053860
#
#
# Mechanical properties :
#
#
# Convention : Reuss Voigt Hill
#
# Bulk Modulus (GPa) = 26.04232 29.68101 27.86167
# Shear Modulus (GPa) = 8.05123 25.29377 16.67250
#
# Velocity S-wave (km/s) = 1.99629 3.53833 2.87271
# Velocity P-wave (km/s) = 4.26660 5.60218 4.97937
#
# Compressibility (1/GPa) = 0.03839903
#
# Stress axis : x y z
#
# Youngs Moduli (GPa) = 58.38777 86.46406 88.53230
#
# Poissons Ratio (x) = -0.09314 -0.08506
# Poissons Ratio (y) = -0.06290 0.25075
# Poissons Ratio (z) = -0.05610 0.24490
#
# Static dielectric constant tensor:
#      x y z
#    x 3.395630 0.000000 0.000000 
#    y 0.000000 3.484910 0.000000 
#    z 0.000000 0.000000 3.648160 
# 
# 
# High freq. dielectric constant tensor:
#      x y z
#    x 1.768460 0.000000 0.000000 
#    y 0.000000 1.784210 0.000000 
#    z 0.000000 0.000000 1.802880 
# 
# From -- ./inp_files/3338.got.cif
#   From: 2010.03.12/outbox.cif.g09.slc.cpg/sg56_2_cif.got.tgz:3338.got - 2010.04.16 15:33:40.
