data_PCOD8228979
_publ_section_title
;
Structure prediction by ZEFSAII (Michael W. Deem and Ramdas Pophale) SiO2 
 PCOD8228979
Probable space group: P C C N
;
_chemical_formula_sum "Si O2"
_cell_formula_units_Z 32
_cell_length_a 13.847206
_cell_length_b 9.684062
_cell_length_c 8.084101
_cell_angle_alpha 90.000000
_cell_angle_beta 90.000000
_cell_angle_gamma 90.000000
_cell_volume 1084.055320
_symmetry_space_group_name_H-M "P C C N"
_symmetry_group_IT_number 56
_symmetry_cell_setting 'orthorhombic'
loop_
_space_group_symop_operation_xyz
x,y,z
1/2-x,1/2-y,z
1/2+x,-y,1/2-z
-x,1/2+y,1/2-z
-x,-y,-z
1/2+x,1/2+y,-z
1/2-x,y,1/2+z
x,1/2-y,1/2+z
loop_
_atom_site_type_symbol
_atom_site_label
_atom_site_fract_x
_atom_site_fract_y
_atom_site_fract_z
Si Si1 0.355550 0.855138 0.617975
Si Si2 0.465923 0.864778 0.299495
Si Si3 0.612443 0.632283 0.292715
Si Si4 0.283414 0.017352 0.911039
O O1 0.446956 0.875411 0.496539
O O2 0.372221 0.707366 0.708773
O O3 0.353266 0.969804 0.763096
O O4 0.256240 0.880873 0.512389
O O5 0.565339 0.782665 0.270230
O O6 0.473141 0.018029 0.223014
O O7 0.657557 0.621811 0.474361
O O8 0.692478 0.605927 0.153323
#
# Coordination Sequence:
#
# PCOD8228979 Si02
#       4
#     8   8   8   8
#     4  10  22  38  66 100 138 182 242 293 353 426
#     4  11  24  41  70 107 143 186 243 307 365 432
#     4  10  23  45  75 105 143 189 247 303 366 436
#     4   9  21  43  71 102 138 193 246 294 354 448
#
# _framework density 29.518788000000001
#
# number of rings (size 3 to 8) (size 9 to 14) (size 15 to 20)
#    0.000    2.000    0.000    1.500    0.000   25.000 
#    0.000   10.000    0.000   37.500    0.000    0.000 
#    0.000    0.000    0.000    0.000    0.000    0.000 
#
# Total GULP energy -396682.187863 kJ/mol
# GULP energy per Si atom -12396.318371 kJ/mol
# Density = 2.945160 g / cm^3
# Si number density = 29.518788 Si / 1000 Ang^3
#
#
#
# Elastic Constant Matrix: (Units=GPa)
#
#
# Indices 1 2 3 4 5 6 
#
# 1 118.2810 36.2755 47.0862 0.0000 0.0000 0.0000
# 2 36.2755 95.7630 17.5863 0.0000 0.0000 0.0000
# 3 47.0862 17.5863 158.3046 0.0000 0.0000 0.0000
# 4 0.0000 0.0000 0.0000 14.2775 0.0000 0.0000
# 5 0.0000 0.0000 0.0000 0.0000 30.2140 0.0000
# 6 0.0000 0.0000 0.0000 0.0000 0.0000 54.6031
#
#
#
# Elastic Compliance Matrix: (Units=1/GPa)
#
#
# Indices 1 2 3 4 5 6 
#
# 1 0.010638 -0.003520 -0.002773 0.000000 0.000000 0.000000
# 2 -0.003520 0.011825 -0.000267 0.000000 0.000000 0.000000
# 3 -0.002773 -0.000267 0.007171 0.000000 0.000000 0.000000
# 4 0.000000 0.000000 0.000000 0.070040 0.000000 0.000000
# 5 0.000000 0.000000 0.000000 0.000000 0.033097 0.000000
# 6 0.000000 0.000000 0.000000 0.000000 0.000000 0.018314
#
#
# Mechanical properties :
#
#
# Convention : Reuss Voigt Hill
#
# Bulk Modulus (GPa) = 60.55392 63.80496 62.17944
# Shear Modulus (GPa) = 29.46191 37.91231 33.68711
#
# Velocity S-wave (km/s) = 3.16266 3.58766 3.38184
# Velocity P-wave (km/s) = 5.82192 6.23087 6.02986
#
# Compressibility (1/GPa) = 0.01651421
#
# Stress axis : x y z
#
# Youngs Moduli (GPa) = 94.00199 84.56679 139.44325
#
# Poissons Ratio (x) = 0.29772 0.38669
# Poissons Ratio (y) = 0.33093 0.03716
# Poissons Ratio (z) = 0.26068 0.02254
#
# Static dielectric constant tensor:
#      x y z
#    x 5.260370 0.000000 0.000000 
#    y 0.000000 5.175520 0.000000 
#    z 0.000000 0.000000 5.748770 
# 
# 
# High freq. dielectric constant tensor:
#      x y z
#    x 2.207240 0.000000 0.000000 
#    y 0.000000 2.192480 0.000000 
#    z 0.000000 0.000000 2.221060 
# 
# From -- ./inp_files/3097.got.cif
#   From: 2010.03.12/outbox.cif.g09.slc.cpg/sg56_2_cif.got.tgz:3097.got - 2010.04.16 15:33:40.
