data_PCOD8228617
_publ_section_title
;
Structure prediction by ZEFSAII (Michael W. Deem and Ramdas Pophale) SiO2 
 PCOD8228617
Probable space group: P C C N
;
_chemical_formula_sum "Si O2"
_cell_formula_units_Z 36
_cell_length_a 7.754695
_cell_length_b 9.038868
_cell_length_c 22.007700
_cell_angle_alpha 90.000000
_cell_angle_beta 90.000000
_cell_angle_gamma 90.000000
_cell_volume 1542.600340
_symmetry_space_group_name_H-M "P C C N"
_symmetry_group_IT_number 56
_symmetry_cell_setting 'orthorhombic'
loop_
_space_group_symop_operation_xyz
x,y,z
1/2-x,1/2-y,z
1/2+x,-y,1/2-z
-x,1/2+y,1/2-z
-x,-y,-z
1/2+x,1/2+y,-z
1/2-x,y,1/2+z
x,1/2-y,1/2+z
loop_
_atom_site_type_symbol
_atom_site_label
_atom_site_fract_x
_atom_site_fract_y
_atom_site_fract_z
Si Si1 0.576995 0.673623 0.057885
Si Si2 0.205289 0.548811 0.740567
Si Si3 0.991264 0.787831 0.796779
Si Si4 0.567665 0.171056 0.570833
Si Si5 0.250000 0.750000 0.632021
O O1 0.750000 0.750000 0.081116
O O2 0.593814 0.503713 0.076027
O O3 0.417891 0.751793 0.090682
O O4 0.555792 0.702707 0.986072
O O5 0.027512 0.632550 0.762671
O O6 0.349324 0.595706 0.789132
O O7 0.258475 0.604740 0.673914
O O8 0.174810 0.371956 0.733215
O O9 0.971742 0.765964 0.869032
O O10 0.750000 0.250000 0.561448
#
# Coordination Sequence:
#
# PCOD8228617 Si02
#       5
#     8   8   8   8   4
#     4  11  25  43  71  99 129 180 221 270 339 395
#     4  10  22  39  64  92 131 169 221 267 334 390
#     4  10  21  41  60  93 126 173 207 276 322 389
#     4  11  22  45  66  94 139 167 221 279 324 397
#     4  10  20  44  64  94 138 168 220 276 322 402
#
# _framework density 23.337216000000002
#
# number of rings (size 3 to 8) (size 9 to 14) (size 15 to 20)
#    0.000    1.778    5.556    0.000    0.000    5.333 
#    4.000    0.000    0.000    0.000    0.000    0.000 
#    0.000    0.000    0.000    0.000    0.000    0.000 
#
# Total GULP energy -446399.828743 kJ/mol
# GULP energy per Si atom -12399.995243 kJ/mol
# Density = 2.328410 g / cm^3
# Si number density = 23.337216 Si / 1000 Ang^3
#
#
#
# Elastic Constant Matrix: (Units=GPa)
#
#
# Indices 1 2 3 4 5 6 
#
# 1 84.4997 2.2442 21.4597 0.0000 0.0000 0.0000
# 2 2.2442 85.3311 36.3796 0.0000 0.0000 0.0000
# 3 21.4597 36.3796 128.7354 0.0000 0.0000 0.0000
# 4 0.0000 0.0000 0.0000 29.8560 0.0000 0.0000
# 5 0.0000 0.0000 0.0000 0.0000 555.8269 0.0000
# 6 0.0000 0.0000 0.0000 0.0000 0.0000 34.0202
#
#
#
# Elastic Compliance Matrix: (Units=1/GPa)
#
#
# Indices 1 2 3 4 5 6 
#
# 1 0.012387 0.000631 -0.002243 0.000000 0.000000 0.000000
# 2 0.000631 0.013356 -0.003880 0.000000 0.000000 0.000000
# 3 -0.002243 -0.003880 0.009238 0.000000 0.000000 0.000000
# 4 0.000000 0.000000 0.000000 0.033494 0.000000 0.000000
# 5 0.000000 0.000000 0.000000 0.000000 0.001799 0.000000
# 6 0.000000 0.000000 0.000000 0.000000 0.000000 0.029394
#
#
# Mechanical properties :
#
#
# Convention : Reuss Voigt Hill
#
# Bulk Modulus (GPa) = 41.67077 46.52591 44.09834
# Shear Modulus (GPa) = 42.13976 139.83946 90.98961
#
# Velocity S-wave (km/s) = 4.25395 7.74928 6.25090
# Velocity P-wave (km/s) = 6.48250 10.00240 8.42825
#
# Compressibility (1/GPa) = 0.02399763
#
# Stress axis : x y z
#
# Youngs Moduli (GPa) = 80.72803 74.87016 108.24724
#
# Poissons Ratio (x) = -0.04721 0.24281
# Poissons Ratio (y) = -0.05090 0.41995
# Poissons Ratio (z) = 0.18108 0.29046
#
# Static dielectric constant tensor:
#      x y z
#    x 4.232590 0.000000 0.000000 
#    y 0.000000 4.146810 0.000000 
#    z 0.000000 0.000000 4.249700 
# 
# 
# High freq. dielectric constant tensor:
#      x y z
#    x 1.927060 0.000000 0.000000 
#    y 0.000000 1.919340 0.000000 
#    z 0.000000 0.000000 1.928230 
# 
# From -- ./inp_files/17888.got.cif
#   From: 2010.03.12/outbox.cif.g09.slc.cpg/sg56_9_cif.got.tgz:17888.got - 2010.04.16 15:33:40.
