data_PCOD8228102
_publ_section_title
;
Structure prediction by ZEFSAII (Michael W. Deem and Ramdas Pophale) SiO2 
 PCOD8228102
Probable space group: P C C N
;
_chemical_formula_sum "Si O2"
_cell_formula_units_Z 40
_cell_length_a 4.929357
_cell_length_b 17.899119
_cell_length_c 22.765470
_cell_angle_alpha 90.000000
_cell_angle_beta 90.000000
_cell_angle_gamma 90.000000
_cell_volume 2008.623542
_symmetry_space_group_name_H-M "P C C N"
_symmetry_group_IT_number 56
_symmetry_cell_setting 'orthorhombic'
loop_
_space_group_symop_operation_xyz
x,y,z
1/2-x,1/2-y,z
1/2+x,-y,1/2-z
-x,1/2+y,1/2-z
-x,-y,-z
1/2+x,1/2+y,-z
1/2-x,y,1/2+z
x,1/2-y,1/2+z
loop_
_atom_site_type_symbol
_atom_site_label
_atom_site_fract_x
_atom_site_fract_y
_atom_site_fract_z
Si Si1 0.748201 0.568019 0.556392
Si Si2 0.507692 0.298283 0.112255
Si Si3 0.929996 0.968849 0.677567
Si Si4 0.933269 0.567150 0.306408
Si Si5 0.254022 0.598551 0.986427
O O1 0.651355 0.584133 0.622917
O O2 0.752449 0.478780 0.548878
O O3 0.548745 0.610640 0.510975
O O4 0.048700 0.597400 0.543202
O O5 0.250000 0.250000 0.091229
O O6 0.386415 0.355883 0.159607
O O7 0.650526 0.336206 0.056218
O O8 0.750000 0.250000 0.141815
O O9 0.894408 0.919649 0.736587
O O10 0.736997 0.040794 0.681079
O O11 0.231454 0.002418 0.669997
#
# Coordination Sequence:
#
# PCOD8228102 Si02
#       5
#     8   8   8   8   8
#     4  10  19  33  58  83 114 138 175 249 285 329
#     4  12  24  38  57  78 119 156 189 226 264 353
#     4  10  19  35  59  84 116 136 178 252 286 329
#     4  10  21  35  55  85 112 147 187 225 293 328
#     4  10  21  33  54  84 111 146 186 221 290 331
#
# _framework density 19.914134000000001
#
# number of rings (size 3 to 8) (size 9 to 14) (size 15 to 20)
#    0.000    1.600    2.000    3.600    5.600    0.000 
#    0.000    0.000    0.000    7.200    0.000    0.000 
#    0.000    0.000    0.000    0.000    0.000    0.000 
#
# Total GULP energy -495972.288132 kJ/mol
# GULP energy per Si atom -12399.307203 kJ/mol
# Density = 1.986881 g / cm^3
# Si number density = 19.914134 Si / 1000 Ang^3
#
#
#
# Elastic Constant Matrix: (Units=GPa)
#
#
# Indices 1 2 3 4 5 6 
#
# 1 82.7293 20.2301 8.4404 0.0000 0.0000 0.0000
# 2 20.2301 63.9189 35.7317 0.0000 0.0000 0.0000
# 3 8.4404 35.7317 107.3412 0.0000 0.0000 0.0000
# 4 0.0000 0.0000 0.0000 14.3159 0.0000 0.0000
# 5 0.0000 0.0000 0.0000 0.0000 24.1899 0.0000
# 6 0.0000 0.0000 0.0000 0.0000 0.0000 30.0204
#
#
#
# Elastic Compliance Matrix: (Units=1/GPa)
#
#
# Indices 1 2 3 4 5 6 
#
# 1 0.013118 -0.004392 0.000431 0.000000 0.000000 0.000000
# 2 -0.004392 0.020693 -0.006543 0.000000 0.000000 0.000000
# 3 0.000431 -0.006543 0.011460 0.000000 0.000000 0.000000
# 4 0.000000 0.000000 0.000000 0.069852 0.000000 0.000000
# 5 0.000000 0.000000 0.000000 0.000000 0.041340 0.000000
# 6 0.000000 0.000000 0.000000 0.000000 0.000000 0.033311
#
#
# Mechanical properties :
#
#
# Convention : Reuss Voigt Hill
#
# Bulk Modulus (GPa) = 41.21771 42.53265 41.87518
# Shear Modulus (GPa) = 22.84468 26.34439 24.59453
#
# Velocity S-wave (km/s) = 3.39065 3.64111 3.51811
# Velocity P-wave (km/s) = 6.00594 6.25151 6.12995
#
# Compressibility (1/GPa) = 0.02426141
#
# Stress axis : x y z
#
# Youngs Moduli (GPa) = 76.23242 48.32666 87.25880
#
# Poissons Ratio (x) = 0.21227 -0.03758
# Poissons Ratio (y) = 0.33485 0.57091
# Poissons Ratio (z) = -0.03283 0.31619
#
# Static dielectric constant tensor:
#      x y z
#    x 3.876940 0.000000 0.000000 
#    y 0.000000 3.205540 0.000000 
#    z 0.000000 0.000000 3.691500 
# 
# 
# High freq. dielectric constant tensor:
#      x y z
#    x 1.803170 0.000000 0.000000 
#    y 0.000000 1.722010 0.000000 
#    z 0.000000 0.000000 1.778740 
# 
# From -- ./inp_files/17459.got.cif
#   From: 2010.03.12/outbox.cif.g09.slc.cpg/sg56_9_cif.got.tgz:17459.got - 2010.04.16 15:33:40.
