data_PCOD8228861
_publ_section_title
;
Structure prediction by ZEFSAII (Michael W. Deem and Ramdas Pophale) SiO2 
 PCOD8228861
Probable space group: P C C N
;
_chemical_formula_sum "Si O2"
_cell_formula_units_Z 52
_cell_length_a 19.371853
_cell_length_b 9.403782
_cell_length_c 13.782890
_cell_angle_alpha 90.000000
_cell_angle_beta 90.000000
_cell_angle_gamma 90.000000
_cell_volume 2510.810913
_symmetry_space_group_name_H-M "P C C N"
_symmetry_group_IT_number 56
_symmetry_cell_setting 'orthorhombic'
loop_
_space_group_symop_operation_xyz
x,y,z
1/2-x,1/2-y,z
1/2+x,-y,1/2-z
-x,1/2+y,1/2-z
-x,-y,-z
1/2+x,1/2+y,-z
1/2-x,y,1/2+z
x,1/2-y,1/2+z
loop_
_atom_site_type_symbol
_atom_site_label
_atom_site_fract_x
_atom_site_fract_y
_atom_site_fract_z
Si Si1 0.750000 0.750000 0.976553
Si Si2 0.511550 0.808118 0.565070
Si Si3 0.699580 0.552683 0.313000
Si Si4 0.345355 0.519828 0.243525
Si Si5 0.346578 0.242519 0.856970
Si Si6 0.026123 0.106513 0.138228
Si Si7 0.412942 0.810773 0.207391
O O1 0.789006 0.629134 0.915755
O O2 0.690365 0.691451 0.048339
O O3 0.572200 0.753507 0.633430
O O4 0.526189 0.778013 0.450359
O O5 0.441006 0.732286 0.600687
O O6 0.509270 0.973329 0.588484
O O7 0.769273 0.462335 0.300015
O O8 0.685041 0.674975 0.234890
O O9 0.635833 0.444597 0.310494
O O10 0.334711 0.427729 0.341881
O O11 0.396119 0.425781 0.174224
O O12 0.374455 0.678139 0.259384
O O13 0.978308 0.155564 0.225962
#
# Coordination Sequence:
#
# PCOD8228861 Si02
#       7
#     4   8   8   8   8   8   8
#     4  12  24  40  70  96 126 176 226 276 324 398
#     4  10  22  39  65  98 126 175 220 264 333 393
#     4  12  24  45  66  95 135 176 217 272 334 395
#     4  11  22  43  66  95 134 176 215 271 332 396
#     4  12  22  41  67  96 130 173 224 269 331 396
#     4  10  21  41  66  93 136 173 216 270 330 391
#     4  11  24  41  70  98 135 173 218 278 329 392
#
# _framework density 20.710440999999999
#
# number of rings (size 3 to 8) (size 9 to 14) (size 15 to 20)
#    0.000    0.923    6.154    1.385    0.000    1.231 
#    0.000    1.538    3.385    0.000    0.000    0.000 
#    0.000    0.000    0.000    0.000    0.000    0.000 
#
# Total GULP energy -644353.271678 kJ/mol
# GULP energy per Si atom -12391.409071 kJ/mol
# Density = 2.066330 g / cm^3
# Si number density = 20.710441 Si / 1000 Ang^3
#
#
#
# Elastic Constant Matrix: (Units=GPa)
#
#
# Indices 1 2 3 4 5 6 
#
# 1 92.7941 36.0014 26.8102 0.0000 0.0000 0.0000
# 2 36.0014 80.9405 35.9827 0.0000 0.0000 0.0000
# 3 26.8102 35.9827 106.2429 0.0000 0.0000 0.0000
# 4 0.0000 0.0000 0.0000 18.5003 0.0000 0.0000
# 5 0.0000 0.0000 0.0000 0.0000 7.0351 0.0000
# 6 0.0000 0.0000 0.0000 0.0000 0.0000 27.8124
#
#
#
# Elastic Compliance Matrix: (Units=1/GPa)
#
#
# Indices 1 2 3 4 5 6 
#
# 1 0.013247 -0.005187 -0.001586 0.000000 0.000000 0.000000
# 2 -0.005187 0.016576 -0.004305 0.000000 0.000000 0.000000
# 3 -0.001586 -0.004305 0.011271 0.000000 0.000000 0.000000
# 4 0.000000 0.000000 0.000000 0.054053 0.000000 0.000000
# 5 0.000000 0.000000 0.000000 0.000000 0.142144 0.000000
# 6 0.000000 0.000000 0.000000 0.000000 0.000000 0.035955
#
#
# Mechanical properties :
#
#
# Convention : Reuss Voigt Hill
#
# Bulk Modulus (GPa) = 52.80599 53.06291 52.93445
# Shear Modulus (GPa) = 16.57195 22.74843 19.66019
#
# Velocity S-wave (km/s) = 2.83180 3.31781 3.08440
# Velocity P-wave (km/s) = 6.02036 6.35249 6.18866
#
# Compressibility (1/GPa) = 0.01893725
#
# Stress axis : x y z
#
# Youngs Moduli (GPa) = 75.48727 60.32916 88.72586
#
# Poissons Ratio (x) = 0.31293 0.14073
# Poissons Ratio (y) = 0.39156 0.38196
# Poissons Ratio (z) = 0.11973 0.25972
#
# Static dielectric constant tensor:
#      x y z
#    x 3.940460 0.000000 0.000000 
#    y 0.000000 3.638870 0.000000 
#    z 0.000000 0.000000 3.982370 
# 
# 
# High freq. dielectric constant tensor:
#      x y z
#    x 1.832950 0.000000 0.000000 
#    y 0.000000 1.792570 0.000000 
#    z 0.000000 0.000000 1.807030 
# 
# From -- ./inp_files/13028.got.cif
#   From: 2010.03.12/outbox.cif.g09.slc.cpg/sg56_7_cif.got.tgz:13028.got - 2010.04.16 15:33:40.
