data_PCOD8228308
_publ_section_title
;
Structure prediction by ZEFSAII (Michael W. Deem and Ramdas Pophale) SiO2 
 PCOD8228308
Probable space group: P C C N
;
_chemical_formula_sum "Si O2"
_cell_formula_units_Z 60
_cell_length_a 32.112672
_cell_length_b 10.919770
_cell_length_c 8.843223
_cell_angle_alpha 90.000000
_cell_angle_beta 90.000000
_cell_angle_gamma 90.000000
_cell_volume 3100.991039
_symmetry_space_group_name_H-M "P C C N"
_symmetry_group_IT_number 56
_symmetry_cell_setting 'orthorhombic'
loop_
_space_group_symop_operation_xyz
x,y,z
1/2-x,1/2-y,z
1/2+x,-y,1/2-z
-x,1/2+y,1/2-z
-x,-y,-z
1/2+x,1/2+y,-z
1/2-x,y,1/2+z
x,1/2-y,1/2+z
loop_
_atom_site_type_symbol
_atom_site_label
_atom_site_fract_x
_atom_site_fract_y
_atom_site_fract_z
Si Si1 0.016040 0.612480 0.164907
Si Si2 0.558971 0.206611 0.129954
Si Si3 0.923932 0.832378 0.600450
Si Si4 0.129478 0.896757 0.905361
Si Si5 0.878759 0.029188 0.764475
Si Si6 0.691412 0.314843 0.648667
Si Si7 0.250000 0.750000 0.599672
Si Si8 0.921811 0.913428 0.265718
O O1 0.967450 0.599393 0.133547
O O2 0.022172 0.723394 0.282454
O O3 0.034193 0.486012 0.232752
O O4 0.040627 0.633518 0.010137
O O5 0.580261 0.112598 0.245803
O O6 0.592548 0.301439 0.065665
O O7 0.911653 0.850571 0.425769
O O8 0.926224 0.688305 0.635055
O O9 0.889065 0.892197 0.709377
O O10 0.136864 0.968616 0.062706
O O11 0.170760 0.822088 0.855341
O O12 0.115925 0.993357 0.775675
O O13 0.843267 0.080657 0.652238
O O14 0.719584 0.331026 0.797500
O O15 0.720981 0.336599 0.504370
#
# Coordination Sequence:
#
# PCOD8228308 Si02
#       8
#     8   8   8   8   8   8   4   8
#     4  11  22  38  57  81 115 152 212 273 311 352
#     4  10  20  34  58  82 112 156 199 255 313 352
#     4  12  25  38  58  78 117 160 218 259 308 351
#     4  10  21  37  59  85 122 158 198 241 302 364
#     4  11  21  36  57  84 121 160 196 242 301 359
#     4  10  21  36  62  99 130 152 185 231 302 373
#     4  10  20  36  62 100 132 150 176 230 302 378
#     4  11  25  40  56  83 112 162 211 257 305 348
#
# _framework density 19.348655000000001
#
# number of rings (size 3 to 8) (size 9 to 14) (size 15 to 20)
#    0.000    1.333    4.000    2.000    3.733    0.000 
#    0.000    3.333    0.000    0.000    0.000    5.600 
#    0.000    0.000    0.000    0.000    0.000    0.000 
#
# Total GULP energy -744050.563717 kJ/mol
# GULP energy per Si atom -12400.842729 kJ/mol
# Density = 1.930462 g / cm^3
# Si number density = 19.348655 Si / 1000 Ang^3
#
#
#
# Elastic Constant Matrix: (Units=GPa)
#
#
# Indices 1 2 3 4 5 6 
#
# 1 86.7279 33.9234 38.4297 0.0000 0.0000 0.0000
# 2 33.9234 96.4804 33.9727 0.0000 0.0000 0.0000
# 3 38.4297 33.9727 97.2030 0.0000 0.0000 0.0000
# 4 0.0000 0.0000 0.0000 35.2288 0.0000 0.0000
# 5 0.0000 0.0000 0.0000 0.0000 23.5123 0.0000
# 6 0.0000 0.0000 0.0000 0.0000 0.0000 15.1262
#
#
#
# Elastic Compliance Matrix: (Units=1/GPa)
#
#
# Indices 1 2 3 4 5 6 
#
# 1 0.015021 -0.003638 -0.004667 0.000000 0.000000 0.000000
# 2 -0.003638 0.012701 -0.003000 0.000000 0.000000 0.000000
# 3 -0.004667 -0.003000 0.013182 0.000000 0.000000 0.000000
# 4 0.000000 0.000000 0.000000 0.028386 0.000000 0.000000
# 5 0.000000 0.000000 0.000000 0.000000 0.042531 0.000000
# 6 0.000000 0.000000 0.000000 0.000000 0.000000 0.066110
#
#
# Mechanical properties :
#
#
# Convention : Reuss Voigt Hill
#
# Bulk Modulus (GPa) = 54.66948 54.78477 54.72713
# Shear Modulus (GPa) = 24.19668 26.37919 25.28793
#
# Velocity S-wave (km/s) = 3.54016 3.69638 3.61911
# Velocity P-wave (km/s) = 6.71019 6.82595 6.76832
#
# Compressibility (1/GPa) = 0.01829174
#
# Stress axis : x y z
#
# Youngs Moduli (GPa) = 66.57131 78.73661 75.86317
#
# Poissons Ratio (x) = 0.28647 0.35407
# Poissons Ratio (y) = 0.24220 0.22763
# Poissons Ratio (z) = 0.31070 0.23625
#
# Static dielectric constant tensor:
#      x y z
#    x 3.512340 0.000000 0.000000 
#    y 0.000000 3.418680 0.000000 
#    z 0.000000 0.000000 3.659620 
# 
# 
# High freq. dielectric constant tensor:
#      x y z
#    x 1.731660 0.000000 0.000000 
#    y 0.000000 1.732300 0.000000 
#    z 0.000000 0.000000 1.767290 
# 
# From -- ./inp_files/5197.got.cif
#   From: 2010.03.12/outbox.cif.g09.slc.cpg/sg56_3_cif.got.tgz:5197.got - 2010.04.16 15:33:40.
