data_PCOD8228894
_publ_section_title
;
Structure prediction by ZEFSAII (Michael W. Deem and Ramdas Pophale) SiO2 
 PCOD8228894
Probable space group: P C C N
;
_chemical_formula_sum "Si O2"
_cell_formula_units_Z 48
_cell_length_a 15.235282
_cell_length_b 8.903394
_cell_length_c 16.436499
_cell_angle_alpha 90.000000
_cell_angle_beta 90.000000
_cell_angle_gamma 90.000000
_cell_volume 2229.540714
_symmetry_space_group_name_H-M "P C C N"
_symmetry_group_IT_number 56
_symmetry_cell_setting 'orthorhombic'
loop_
_space_group_symop_operation_xyz
x,y,z
1/2-x,1/2-y,z
1/2+x,-y,1/2-z
-x,1/2+y,1/2-z
-x,-y,-z
1/2+x,1/2+y,-z
1/2-x,y,1/2+z
x,1/2-y,1/2+z
loop_
_atom_site_type_symbol
_atom_site_label
_atom_site_fract_x
_atom_site_fract_y
_atom_site_fract_z
Si Si1 0.750000 0.250000 0.357254
Si Si2 0.326534 0.462917 0.718929
Si Si3 0.750000 0.750000 0.659535
Si Si4 0.918660 0.728370 0.904329
Si Si5 0.017749 0.950430 0.289872
Si Si6 0.565670 0.790134 0.084932
Si Si7 0.912482 0.073270 0.879698
O O1 0.705623 0.372811 0.300929
O O2 0.672357 0.170085 0.409853
O O3 0.256819 0.395132 0.782262
O O4 0.335645 0.356139 0.638071
O O5 0.424601 0.477532 0.756982
O O6 0.834214 0.749781 0.602600
O O7 0.005204 0.697381 0.847374
O O8 0.902338 0.905528 0.913936
O O9 0.935499 0.652085 0.992087
O O10 0.090271 0.930997 0.219831
O O11 0.035045 0.090098 0.348908
O O12 0.501756 0.646410 0.088317
#
# Coordination Sequence:
#
# PCOD8228894 Si02
#       7
#     4   8   4   8   8   8   8
#     4  12  24  36  70  94 124 162 222 282 316 386
#     4  10  22  41  64  95 123 175 221 267 330 394
#     4  12  24  42  68  94 132 170 230 264 336 402
#     4  10  24  41  68  94 137 175 222 274 341 386
#     4  10  21  42  69  88 131 173 224 264 334 388
#     4  12  23  43  64 100 133 177 215 281 332 393
#     4  12  22  42  65 100 131 175 225 273 325 403
#
# _framework density 21.529098000000001
#
# number of rings (size 3 to 8) (size 9 to 14) (size 15 to 20)
#    1.000    0.000    3.333    5.000    0.000    2.000 
#    0.000    0.000    0.000    6.000    0.000    0.000 
#    0.000    0.000    0.000    0.000    0.000    0.000 
#
# Total GULP energy -594726.644138 kJ/mol
# GULP energy per Si atom -12390.138420 kJ/mol
# Density = 2.148010 g / cm^3
# Si number density = 21.529098 Si / 1000 Ang^3
#
#
#
# Elastic Constant Matrix: (Units=GPa)
#
#
# Indices 1 2 3 4 5 6 
#
# 1 100.4864 30.0178 9.1267 0.0000 0.0000 0.0000
# 2 30.0178 102.7043 0.5513 0.0000 0.0000 0.0000
# 3 9.1267 0.5513 91.9164 0.0000 0.0000 0.0000
# 4 0.0000 0.0000 0.0000 12.8870 0.0000 0.0000
# 5 0.0000 0.0000 0.0000 0.0000 9.5598 0.0000
# 6 0.0000 0.0000 0.0000 0.0000 0.0000 34.5894
#
#
#
# Elastic Compliance Matrix: (Units=1/GPa)
#
#
# Indices 1 2 3 4 5 6 
#
# 1 0.011009 -0.003212 -0.001074 0.000000 0.000000 0.000000
# 2 -0.003212 0.010674 0.000255 0.000000 0.000000 0.000000
# 3 -0.001074 0.000255 0.010985 0.000000 0.000000 0.000000
# 4 0.000000 0.000000 0.000000 0.077598 0.000000 0.000000
# 5 0.000000 0.000000 0.000000 0.000000 0.104604 0.000000
# 6 0.000000 0.000000 0.000000 0.000000 0.000000 0.028911
#
#
# Mechanical properties :
#
#
# Convention : Reuss Voigt Hill
#
# Bulk Modulus (GPa) = 40.64087 41.61097 41.12592
# Shear Modulus (GPa) = 19.22759 28.43465 23.83112
#
# Velocity S-wave (km/s) = 2.99172 3.63816 3.33066
# Velocity P-wave (km/s) = 5.55446 6.08424 5.82538
#
# Compressibility (1/GPa) = 0.02460577
#
# Stress axis : x y z
#
# Youngs Moduli (GPa) = 90.83843 93.68526 91.03697
#
# Poissons Ratio (x) = 0.30089 0.09776
# Poissons Ratio (y) = 0.29175 -0.02320
# Poissons Ratio (z) = 0.09754 -0.02388
#
# Static dielectric constant tensor:
#      x y z
#    x 4.048320 0.000000 0.000000 
#    y 0.000000 3.804750 0.000000 
#    z 0.000000 0.000000 3.680980 
# 
# 
# High freq. dielectric constant tensor:
#      x y z
#    x 1.845670 0.000000 0.000000 
#    y 0.000000 1.847940 0.000000 
#    z 0.000000 0.000000 1.822010 
# 
# From -- ./inp_files/16194.got.cif
#   From: 2010.03.12/outbox.cif.g09.slc.cpg/sg56_9_cif.got.tgz:16194.got - 2010.04.16 15:33:40.
