data_PCOD8228561
_publ_section_title
;
Structure prediction by ZEFSAII (Michael W. Deem and Ramdas Pophale) SiO2 
 PCOD8228561
Probable space group: P C C N
;
_chemical_formula_sum "Si O2"
_cell_formula_units_Z 44
_cell_length_a 8.777844
_cell_length_b 10.530384
_cell_length_c 21.855195
_cell_angle_alpha 90.000000
_cell_angle_beta 90.000000
_cell_angle_gamma 90.000000
_cell_volume 2020.164581
_symmetry_space_group_name_H-M "P C C N"
_symmetry_group_IT_number 56
_symmetry_cell_setting 'orthorhombic'
loop_
_space_group_symop_operation_xyz
x,y,z
1/2-x,1/2-y,z
1/2+x,-y,1/2-z
-x,1/2+y,1/2-z
-x,-y,-z
1/2+x,1/2+y,-z
1/2-x,y,1/2+z
x,1/2-y,1/2+z
loop_
_atom_site_type_symbol
_atom_site_label
_atom_site_fract_x
_atom_site_fract_y
_atom_site_fract_z
Si Si1 0.626108 0.389919 0.739339
Si Si2 0.995913 0.089987 0.428273
Si Si3 0.750000 0.250000 0.628762
Si Si4 0.042610 0.688666 0.480232
Si Si5 0.255268 0.041583 0.511960
Si Si6 0.556593 0.132719 0.790926
O O1 0.695259 0.367348 0.671443
O O2 0.522020 0.267586 0.757809
O O3 0.763982 0.399136 0.787869
O O4 0.532671 0.519511 0.742916
O O5 0.930432 0.189538 0.477612
O O6 0.996563 0.145514 0.360654
O O7 0.168697 0.050898 0.446132
O O8 0.876915 0.971639 0.435658
O O9 0.892800 0.290915 0.587647
O O10 0.129868 0.575750 0.513870
O O11 0.860563 0.664662 0.475841
#
# Coordination Sequence:
#
# PCOD8228561 Si02
#       6
#     8   8   4   8   8   8
#     4  10  25  45  66  98 125 181 228 279 331 386
#     4  11  22  41  63  95 135 167 212 282 318 406
#     4  10  20  40  66  88 140 166 216 278 324 396
#     4  11  21  39  60  95 128 172 205 258 332 404
#     4  10  23  36  60  97 128 167 213 248 342 390
#     4  10  24  46  68  93 134 171 230 279 331 387
#
# _framework density 21.780404000000001
#
# number of rings (size 3 to 8) (size 9 to 14) (size 15 to 20)
#    0.000    1.818    1.818    1.636    7.636    3.636 
#   13.091    0.000    0.000    0.000    0.000    0.000 
#    0.000    0.000    0.000    0.000    0.000    0.000 
#
# Total GULP energy -545486.162403 kJ/mol
# GULP energy per Si atom -12397.412782 kJ/mol
# Density = 2.173083 g / cm^3
# Si number density = 21.780404 Si / 1000 Ang^3
#
#
#
# Elastic Constant Matrix: (Units=GPa)
#
#
# Indices 1 2 3 4 5 6 
#
# 1 127.0354 44.3891 26.6324 0.0000 0.0000 0.0000
# 2 44.3891 80.8669 35.2987 0.0000 0.0000 0.0000
# 3 26.6324 35.2987 100.8767 0.0000 0.0000 0.0000
# 4 0.0000 0.0000 0.0000 20.0897 0.0000 0.0000
# 5 0.0000 0.0000 0.0000 0.0000 26.5618 0.0000
# 6 0.0000 0.0000 0.0000 0.0000 0.0000 53.7255
#
#
#
# Elastic Compliance Matrix: (Units=1/GPa)
#
#
# Indices 1 2 3 4 5 6 
#
# 1 0.009799 -0.005016 -0.000832 0.000000 0.000000 0.000000
# 2 -0.005016 0.017163 -0.004681 0.000000 0.000000 0.000000
# 3 -0.000832 -0.004681 0.011771 0.000000 0.000000 0.000000
# 4 0.000000 0.000000 0.000000 0.049777 0.000000 0.000000
# 5 0.000000 0.000000 0.000000 0.000000 0.037648 0.000000
# 6 0.000000 0.000000 0.000000 0.000000 0.000000 0.018613
#
#
# Mechanical properties :
#
#
# Convention : Reuss Voigt Hill
#
# Bulk Modulus (GPa) = 56.57882 57.93552 57.25717
# Shear Modulus (GPa) = 29.11729 33.57264 31.34497
#
# Velocity S-wave (km/s) = 3.66027 3.93035 3.79771
# Velocity P-wave (km/s) = 6.62547 6.87418 6.75097
#
# Compressibility (1/GPa) = 0.01767446
#
# Stress axis : x y z
#
# Youngs Moduli (GPa) = 102.05340 58.26641 84.95584
#
# Poissons Ratio (x) = 0.29224 0.07068
# Poissons Ratio (y) = 0.51186 0.39771
# Poissons Ratio (z) = 0.08490 0.27277
#
# Static dielectric constant tensor:
#      x y z
#    x 4.158390 0.000000 0.000000 
#    y 0.000000 4.091780 0.000000 
#    z 0.000000 0.000000 3.649980 
# 
# 
# High freq. dielectric constant tensor:
#      x y z
#    x 1.862250 0.000000 0.000000 
#    y 0.000000 1.865070 0.000000 
#    z 0.000000 0.000000 1.834040 
# 
# From -- ./inp_files/20444.got.cif
#   From: 2010.03.12/outbox.cif.g09.slc.cpg/sg56_11_cif.got.tgz:20444.got - 2010.04.16 15:33:40.
