data_PCOD8228798
_publ_section_title
;
Structure prediction by ZEFSAII (Michael W. Deem and Ramdas Pophale) SiO2 
 PCOD8228798
Probable space group: P C C N
;
_chemical_formula_sum "Si O2"
_cell_formula_units_Z 40
_cell_length_a 6.105474
_cell_length_b 21.483144
_cell_length_c 13.654857
_cell_angle_alpha 90.000000
_cell_angle_beta 90.000000
_cell_angle_gamma 90.000000
_cell_volume 1791.036275
_symmetry_space_group_name_H-M "P C C N"
_symmetry_group_IT_number 56
_symmetry_cell_setting 'orthorhombic'
loop_
_space_group_symop_operation_xyz
x,y,z
1/2-x,1/2-y,z
1/2+x,-y,1/2-z
-x,1/2+y,1/2-z
-x,-y,-z
1/2+x,1/2+y,-z
1/2-x,y,1/2+z
x,1/2-y,1/2+z
loop_
_atom_site_type_symbol
_atom_site_label
_atom_site_fract_x
_atom_site_fract_y
_atom_site_fract_z
Si Si1 0.381069 0.186607 0.491061
Si Si2 0.884175 0.509767 0.602674
Si Si3 0.513165 0.908718 0.049899
Si Si4 0.204319 0.880659 0.875341
Si Si5 0.633729 0.370790 0.826060
O O1 0.250000 0.250000 0.506082
O O2 0.207829 0.132492 0.491507
O O3 0.545959 0.173291 0.582103
O O4 0.515934 0.184371 0.388275
O O5 0.626490 0.527099 0.584342
O O6 0.911884 0.444613 0.663781
O O7 0.000000 0.500000 0.500000
O O8 0.003837 0.564379 0.662974
O O9 0.386295 0.877331 0.140687
O O10 0.339482 0.913253 0.962782
O O11 0.353260 0.851469 0.788765
#
# Coordination Sequence:
#
# PCOD8228798 Si02
#       5
#     8   8   8   8   8
#     4  10  23  46  66  87 128 178 224 280 333 382
#     4  11  20  37  59  95 135 175 202 267 340 404
#     4  10  21  40  61  86 136 170 215 266 335 394
#     4  11  23  38  63  99 128 171 230 259 340 404
#     4  10  24  38  61 101 129 170 222 274 331 403
#
# _framework density 22.333441000000001
#
# number of rings (size 3 to 8) (size 9 to 14) (size 15 to 20)
#    0.000    1.600    6.000    0.600    2.800    6.400 
#    0.000    6.000    0.000    0.000    0.000    0.000 
#    0.000    0.000    0.000    0.000    0.000    0.000 
#
# Total GULP energy -495615.476500 kJ/mol
# GULP energy per Si atom -12390.386913 kJ/mol
# Density = 2.228261 g / cm^3
# Si number density = 22.333441 Si / 1000 Ang^3
#
#
#
# Elastic Constant Matrix: (Units=GPa)
#
#
# Indices 1 2 3 4 5 6 
#
# 1 107.3953 40.3397 36.9101 0.0000 0.0000 0.0000
# 2 40.3397 103.3059 48.0550 0.0000 0.0000 0.0000
# 3 36.9101 48.0550 102.9653 0.0000 0.0000 0.0000
# 4 0.0000 0.0000 0.0000 20.0491 0.0000 0.0000
# 5 0.0000 0.0000 0.0000 0.0000 25.7761 0.0000
# 6 0.0000 0.0000 0.0000 0.0000 0.0000 42.9644
#
#
#
# Elastic Compliance Matrix: (Units=1/GPa)
#
#
# Indices 1 2 3 4 5 6 
#
# 1 0.011421 -0.003264 -0.002571 0.000000 0.000000 0.000000
# 2 -0.003264 0.013297 -0.005036 0.000000 0.000000 0.000000
# 3 -0.002571 -0.005036 0.012984 0.000000 0.000000 0.000000
# 4 0.000000 0.000000 0.000000 0.049878 0.000000 0.000000
# 5 0.000000 0.000000 0.000000 0.000000 0.038796 0.000000
# 6 0.000000 0.000000 0.000000 0.000000 0.000000 0.023275
#
#
# Mechanical properties :
#
#
# Convention : Reuss Voigt Hill
#
# Bulk Modulus (GPa) = 62.65367 62.69735 62.67551
# Shear Modulus (GPa) = 28.29473 30.31537 29.30505
#
# Velocity S-wave (km/s) = 3.56325 3.68829 3.62630
# Velocity P-wave (km/s) = 6.71145 6.80237 6.75706
#
# Compressibility (1/GPa) = 0.01596076
#
# Stress axis : x y z
#
# Youngs Moduli (GPa) = 87.55879 75.20471 77.01881
#
# Poissons Ratio (x) = 0.24546 0.19800
# Poissons Ratio (y) = 0.28578 0.38786
# Poissons Ratio (z) = 0.22509 0.37872
#
# Static dielectric constant tensor:
#      x y z
#    x 5.125680 0.000000 0.000000 
#    y 0.000000 4.360050 0.000000 
#    z 0.000000 0.000000 3.876630 
# 
# 
# High freq. dielectric constant tensor:
#      x y z
#    x 1.889810 0.000000 0.000000 
#    y 0.000000 1.861070 0.000000 
#    z 0.000000 0.000000 1.863690 
# 
# From -- ./inp_files/9553.got.cif
#   From: 2010.03.12/outbox.cif.g09.slc.cpg/sg56_5_cif.got.tgz:9553.got - 2010.04.16 15:33:40.
