data_PCOD8228981
_publ_section_title
;
Structure prediction by ZEFSAII (Michael W. Deem and Ramdas Pophale) SiO2 
 PCOD8228981
Probable space group: P C C N
;
_chemical_formula_sum "Si O2"
_cell_formula_units_Z 60
_cell_length_a 12.638665
_cell_length_b 12.427309
_cell_length_c 18.242368
_cell_angle_alpha 90.000000
_cell_angle_beta 90.000000
_cell_angle_gamma 90.000000
_cell_volume 2865.230147
_symmetry_space_group_name_H-M "P C C N"
_symmetry_group_IT_number 56
_symmetry_cell_setting 'orthorhombic'
loop_
_space_group_symop_operation_xyz
x,y,z
1/2-x,1/2-y,z
1/2+x,-y,1/2-z
-x,1/2+y,1/2-z
-x,-y,-z
1/2+x,1/2+y,-z
1/2-x,y,1/2+z
x,1/2-y,1/2+z
loop_
_atom_site_type_symbol
_atom_site_label
_atom_site_fract_x
_atom_site_fract_y
_atom_site_fract_z
Si Si1 0.526426 0.494998 0.389268
Si Si2 0.128451 0.635407 0.479331
Si Si3 0.369961 0.882299 0.977697
Si Si4 0.022634 0.287800 0.806992
Si Si5 0.436406 0.579925 0.820732
Si Si6 0.750000 0.750000 0.734910
Si Si7 0.098136 0.910708 0.140032
Si Si8 0.711667 0.521452 0.286322
O O1 0.597120 0.464043 0.458840
O O2 0.439311 0.585970 0.406751
O O3 0.465750 0.391759 0.358087
O O4 0.603144 0.544968 0.328856
O O5 0.111110 0.759545 0.500152
O O6 0.247517 0.602461 0.459629
O O7 0.063923 0.610268 0.406203
O O8 0.091178 0.570629 0.551840
O O9 0.139876 0.233371 0.809186
O O10 0.980763 0.319440 0.725988
O O11 0.933134 0.211271 0.841191
O O12 0.519443 0.483878 0.813737
O O13 0.322723 0.537365 0.789901
O O14 0.731823 0.638007 0.778934
O O15 0.216053 0.938092 0.168226
#
# Coordination Sequence:
#
# PCOD8228981 Si02
#       8
#     8   8   8   8   8   4   8   8
#     4  10  22  42  64  98 125 172 217 273 331 387
#     4  11  24  41  62  98 135 173 215 272 327 409
#     4  10  22  38  67  91 129 168 217 268 329 390
#     4  11  25  42  71  91 133 171 223 274 331 392
#     4  11  26  40  62  99 127 173 212 274 320 398
#     4  12  24  44  64 102 124 168 220 274 328 384
#     4  12  23  45  67  93 133 180 211 275 341 389
#     4  11  25  42  71  91 133 171 223 274 331 392
#
# _framework density 20.940726000000002
#
# number of rings (size 3 to 8) (size 9 to 14) (size 15 to 20)
#    0.000    1.067    5.333    0.400    3.733    4.267 
#    0.000    0.000    0.000    1.600    0.000    0.000 
#    0.000    0.000    0.000    0.000    0.000    0.000 
#
# Total GULP energy -743854.710561 kJ/mol
# GULP energy per Si atom -12397.578509 kJ/mol
# Density = 2.089306 g / cm^3
# Si number density = 20.940726 Si / 1000 Ang^3
#
#
#
# Elastic Constant Matrix: (Units=GPa)
#
#
# Indices 1 2 3 4 5 6 
#
# 1 95.9775 40.0058 35.7632 0.0000 0.0000 0.0000
# 2 40.0058 59.5560 21.8203 0.0000 0.0000 0.0000
# 3 35.7632 21.8203 111.0737 0.0000 0.0000 0.0000
# 4 0.0000 0.0000 0.0000 35.1253 0.0000 0.0000
# 5 0.0000 0.0000 0.0000 0.0000 25.8281 0.0000
# 6 0.0000 0.0000 0.0000 0.0000 0.0000 39.6105
#
#
#
# Elastic Compliance Matrix: (Units=1/GPa)
#
#
# Indices 1 2 3 4 5 6 
#
# 1 0.015436 -0.009211 -0.003161 0.000000 0.000000 0.000000
# 2 -0.009211 0.023590 -0.001668 0.000000 0.000000 0.000000
# 3 -0.003161 -0.001668 0.010348 0.000000 0.000000 0.000000
# 4 0.000000 0.000000 0.000000 0.028469 0.000000 0.000000
# 5 0.000000 0.000000 0.000000 0.000000 0.038717 0.000000
# 6 0.000000 0.000000 0.000000 0.000000 0.000000 0.025246
#
#
# Mechanical properties :
#
#
# Convention : Reuss Voigt Hill
#
# Bulk Modulus (GPa) = 46.96135 51.30954 49.13544
# Shear Modulus (GPa) = 28.25097 31.38065 29.81581
#
# Velocity S-wave (km/s) = 3.67698 3.87531 3.77745
# Velocity P-wave (km/s) = 6.36408 6.67679 6.52231
#
# Compressibility (1/GPa) = 0.02129411
#
# Stress axis : x y z
#
# Youngs Moduli (GPa) = 64.78277 42.39165 96.63304
#
# Poissons Ratio (x) = 0.39047 0.30542
# Poissons Ratio (y) = 0.59672 0.16122
# Poissons Ratio (z) = 0.20475 0.07073
#
# Static dielectric constant tensor:
#      x y z
#    x 3.761350 0.000000 0.000000 
#    y 0.000000 3.690170 0.000000 
#    z 0.000000 0.000000 3.746270 
# 
# 
# High freq. dielectric constant tensor:
#      x y z
#    x 1.824630 0.000000 0.000000 
#    y 0.000000 1.817270 0.000000 
#    z 0.000000 0.000000 1.818740 
# 
# From -- ./inp_files/18810.got.cif
#   From: 2010.03.12/outbox.cif.g09.slc.cpg/sg56_10_cif.got.tgz:18810.got - 2010.04.16 15:33:40.
