data_PCOD8228928
_publ_section_title
;
Structure prediction by ZEFSAII (Michael W. Deem and Ramdas Pophale) SiO2 
 PCOD8228928
Probable space group: P C C N
;
_chemical_formula_sum "Si O2"
_cell_formula_units_Z 56
_cell_length_a 12.193155
_cell_length_b 14.377948
_cell_length_c 15.464048
_cell_angle_alpha 90.000000
_cell_angle_beta 90.000000
_cell_angle_gamma 90.000000
_cell_volume 2711.041666
_symmetry_space_group_name_H-M "P C C N"
_symmetry_group_IT_number 56
_symmetry_cell_setting 'orthorhombic'
loop_
_space_group_symop_operation_xyz
x,y,z
1/2-x,1/2-y,z
1/2+x,-y,1/2-z
-x,1/2+y,1/2-z
-x,-y,-z
1/2+x,1/2+y,-z
1/2-x,y,1/2+z
x,1/2-y,1/2+z
loop_
_atom_site_type_symbol
_atom_site_label
_atom_site_fract_x
_atom_site_fract_y
_atom_site_fract_z
Si Si1 0.741644 0.884810 0.053397
Si Si2 0.562033 0.118491 0.819855
Si Si3 0.066702 0.246001 0.941432
Si Si4 0.784966 0.149252 0.162334
Si Si5 0.852755 0.511504 0.215052
Si Si6 0.759741 0.481006 0.393778
Si Si7 0.924858 0.408013 0.505335
O O1 0.846454 0.830452 0.091822
O O2 0.642639 0.823102 0.011855
O O3 0.699478 0.929586 0.139943
O O4 0.772853 0.952194 0.976052
O O5 0.501130 0.205407 0.864217
O O6 0.635248 0.160956 0.743992
O O7 0.480569 0.039478 0.780812
O O8 0.639602 0.064909 0.888686
O O9 0.989506 0.190440 0.008543
O O10 0.750000 0.250000 0.126858
O O11 0.847374 0.089121 0.089660
O O12 0.673269 0.096207 0.191895
O O13 0.793936 0.534681 0.306384
O O14 0.850869 0.402933 0.417664
O O15 0.000000 0.500000 0.500000
#
# Coordination Sequence:
#
# PCOD8228928 Si02
#       7
#     8   8   8   8   8   8   8
#     4  10  21  45  63  97 127 170 222 274 313 399
#     4  10  25  42  66  95 131 173 218 268 334 385
#     4  10  23  39  66  93 132 164 214 271 325 381
#     4  11  25  42  62  99 131 162 221 274 320 399
#     4  10  22  45  66  90 134 175 217 271 330 388
#     4  11  23  40  71  93 128 174 223 261 334 398
#     4  12  23  41  68  91 128 175 212 267 333 393
#
# _framework density 20.656267
#
# number of rings (size 3 to 8) (size 9 to 14) (size 15 to 20)
#    0.000    1.429    2.857    0.857    6.000    4.571 
#    2.571    1.429    0.000    0.000    0.000    0.000 
#    0.000    0.000    0.000    0.000    0.000    0.000 
#
# Total GULP energy -693859.787303 kJ/mol
# GULP energy per Si atom -12390.353345 kJ/mol
# Density = 2.060925 g / cm^3
# Si number density = 20.656267 Si / 1000 Ang^3
#
#
#
# Elastic Constant Matrix: (Units=GPa)
#
#
# Indices 1 2 3 4 5 6 
#
# 1 118.4926 53.1703 37.0515 0.0000 0.0000 0.0000
# 2 53.1703 96.5892 39.4721 0.0000 0.0000 0.0000
# 3 37.0515 39.4721 98.6975 0.0000 0.0000 0.0000
# 4 0.0000 0.0000 0.0000 22.8845 0.0000 0.0000
# 5 0.0000 0.0000 0.0000 0.0000 34.8921 0.0000
# 6 0.0000 0.0000 0.0000 0.0000 0.0000 35.9843
#
#
#
# Elastic Compliance Matrix: (Units=1/GPa)
#
#
# Indices 1 2 3 4 5 6 
#
# 1 0.011577 -0.005495 -0.002148 0.000000 0.000000 0.000000
# 2 -0.005495 0.014984 -0.003930 0.000000 0.000000 0.000000
# 3 -0.002148 -0.003930 0.012510 0.000000 0.000000 0.000000
# 4 0.000000 0.000000 0.000000 0.043698 0.000000 0.000000
# 5 0.000000 0.000000 0.000000 0.000000 0.028660 0.000000
# 6 0.000000 0.000000 0.000000 0.000000 0.000000 0.027790
#
#
# Mechanical properties :
#
#
# Convention : Reuss Voigt Hill
#
# Bulk Modulus (GPa) = 62.79507 63.68523 63.24015
# Shear Modulus (GPa) = 29.82011 31.02456 30.42233
#
# Velocity S-wave (km/s) = 3.80364 3.87970 3.84186
# Velocity P-wave (km/s) = 7.05381 7.13914 7.09660
#
# Compressibility (1/GPa) = 0.01592482
#
# Stress axis : x y z
#
# Youngs Moduli (GPa) = 86.37987 66.73874 79.93538
#
# Poissons Ratio (x) = 0.36672 0.17174
# Poissons Ratio (y) = 0.47464 0.31412
# Poissons Ratio (z) = 0.18558 0.26226
#
# Static dielectric constant tensor:
#      x y z
#    x 4.292250 0.000000 0.000000 
#    y 0.000000 3.886690 0.000000 
#    z 0.000000 0.000000 3.575660 
# 
# 
# High freq. dielectric constant tensor:
#      x y z
#    x 1.828460 0.000000 0.000000 
#    y 0.000000 1.807980 0.000000 
#    z 0.000000 0.000000 1.794430 
# 
# From -- ./inp_files/11697.got.cif
#   From: 2010.03.12/outbox.cif.g09.slc.cpg/sg56_6_cif.got.tgz:11697.got - 2010.04.16 15:33:40.
