data_PCOD8228663
_publ_section_title
;
Structure prediction by ZEFSAII (Michael W. Deem and Ramdas Pophale) SiO2 
 PCOD8228663
Probable space group: P C C N
;
_chemical_formula_sum "Si O2"
_cell_formula_units_Z 64
_cell_length_a 5.016855
_cell_length_b 30.656334
_cell_length_c 19.817924
_cell_angle_alpha 90.000000
_cell_angle_beta 90.000000
_cell_angle_gamma 90.000000
_cell_volume 3047.964656
_symmetry_space_group_name_H-M "P C C N"
_symmetry_group_IT_number 56
_symmetry_cell_setting 'orthorhombic'
loop_
_space_group_symop_operation_xyz
x,y,z
1/2-x,1/2-y,z
1/2+x,-y,1/2-z
-x,1/2+y,1/2-z
-x,-y,-z
1/2+x,1/2+y,-z
1/2-x,y,1/2+z
x,1/2-y,1/2+z
loop_
_atom_site_type_symbol
_atom_site_label
_atom_site_fract_x
_atom_site_fract_y
_atom_site_fract_z
Si Si1 0.146533 0.405480 0.373156
Si Si2 0.181526 0.587767 0.929764
Si Si3 0.681213 0.700597 0.886010
Si Si4 0.882640 0.501340 0.575242
Si Si5 0.332116 0.839451 0.825475
Si Si6 0.546670 0.519117 0.783816
Si Si7 0.358594 0.603358 0.715165
Si Si8 0.305888 0.127255 0.510291
O O1 0.236207 0.450986 0.408665
O O2 0.374799 0.386310 0.325771
O O3 0.105948 0.369457 0.432147
O O4 0.871604 0.413984 0.334081
O O5 0.150555 0.535526 0.920026
O O6 0.116953 0.614428 0.862283
O O7 0.485613 0.597380 0.949718
O O8 0.980104 0.603316 0.987811
O O9 0.750000 0.750000 0.903364
O O10 0.381611 0.692662 0.860387
O O11 0.720177 0.674896 0.956369
O O12 0.884195 0.684887 0.827210
O O13 0.089366 0.488712 0.636004
O O14 0.000000 0.500000 0.500000
O O15 0.239655 0.851704 0.750080
O O16 0.827945 0.515185 0.745199
O O17 0.429983 0.567342 0.771374
#
# Coordination Sequence:
#
# PCOD8228663 Si02
#       8
#     8   8   8   8   8   8   8   8
#     4  12  25  38  59  85 126 175 218 251 308 365
#     4  10  21  36  57  82 121 159 200 260 313 344
#     4  10  21  40  69  96 118 146 187 251 325 389
#     4  12  24  39  59  90 126 172 226 284 306 353
#     4  10  21  38  63  93 120 152 199 253 306 370
#     4  12  24  42  58  83 122 173 224 265 306 364
#     4  12  23  41  59  85 121 170 213 253 304 373
#     4  10  22  39  57  88 121 153 195 251 313 378
#
# _framework density 20.997617999999999
#
# number of rings (size 3 to 8) (size 9 to 14) (size 15 to 20)
#    0.000    1.000    5.000    1.875    0.000    2.500 
#    0.000    0.000    0.000    4.500    0.000    0.000 
#    0.000    0.000    0.000    0.000    0.000    0.000 
#
# Total GULP energy -793486.219012 kJ/mol
# GULP energy per Si atom -12398.222172 kJ/mol
# Density = 2.094983 g / cm^3
# Si number density = 20.997618 Si / 1000 Ang^3
#
#
#
# Elastic Constant Matrix: (Units=GPa)
#
#
# Indices 1 2 3 4 5 6 
#
# 1 72.9736 6.4547 8.3206 0.0000 0.0000 0.0000
# 2 6.4547 87.0829 23.3606 0.0000 0.0000 0.0000
# 3 8.3206 23.3606 110.1036 0.0000 0.0000 0.0000
# 4 0.0000 0.0000 0.0000 18.3591 0.0000 0.0000
# 5 0.0000 0.0000 0.0000 0.0000 18.9228 0.0000
# 6 0.0000 0.0000 0.0000 0.0000 0.0000 21.2709
#
#
#
# Elastic Compliance Matrix: (Units=1/GPa)
#
#
# Indices 1 2 3 4 5 6 
#
# 1 0.013874 -0.000792 -0.000880 0.000000 0.000000 0.000000
# 2 -0.000792 0.012222 -0.002533 0.000000 0.000000 0.000000
# 3 -0.000880 -0.002533 0.009686 0.000000 0.000000 0.000000
# 4 0.000000 0.000000 0.000000 0.054469 0.000000 0.000000
# 5 0.000000 0.000000 0.000000 0.000000 0.052846 0.000000
# 6 0.000000 0.000000 0.000000 0.000000 0.000000 0.047013
#
#
# Mechanical properties :
#
#
# Convention : Reuss Voigt Hill
#
# Bulk Modulus (GPa) = 36.53576 38.49243 37.51410
# Shear Modulus (GPa) = 24.07958 27.17884 25.62921
#
# Velocity S-wave (km/s) = 3.39008 3.60165 3.49747
# Velocity P-wave (km/s) = 5.72375 5.97222 5.84930
#
# Compressibility (1/GPa) = 0.02737045
#
# Stress axis : x y z
#
# Youngs Moduli (GPa) = 72.07707 81.82259 103.23805
#
# Poissons Ratio (x) = 0.06482 0.09089
# Poissons Ratio (y) = 0.05710 0.26152
# Poissons Ratio (z) = 0.06346 0.20727
#
# Static dielectric constant tensor:
#      x y z
#    x 3.804570 0.000000 0.000000 
#    y 0.000000 3.624980 0.000000 
#    z 0.000000 0.000000 3.875100 
# 
# 
# High freq. dielectric constant tensor:
#      x y z
#    x 1.827960 0.000000 0.000000 
#    y 0.000000 1.788990 0.000000 
#    z 0.000000 0.000000 1.820650 
# 
# From -- ./inp_files/14198.got.cif
#   From: 2010.03.12/outbox.cif.g09.slc.cpg/sg56_8_cif.got.tgz:14198.got - 2010.04.16 15:33:40.
