data_PCOD8228914
_publ_section_title
;
Structure prediction by ZEFSAII (Michael W. Deem and Ramdas Pophale) SiO2 
 PCOD8228914
Probable space group: P C C N
;
_chemical_formula_sum "Si O2"
_cell_formula_units_Z 52
_cell_length_a 20.452831
_cell_length_b 8.116448
_cell_length_c 13.494323
_cell_angle_alpha 90.000000
_cell_angle_beta 90.000000
_cell_angle_gamma 90.000000
_cell_volume 2240.116173
_symmetry_space_group_name_H-M "P C C N"
_symmetry_group_IT_number 56
_symmetry_cell_setting 'orthorhombic'
loop_
_space_group_symop_operation_xyz
x,y,z
1/2-x,1/2-y,z
1/2+x,-y,1/2-z
-x,1/2+y,1/2-z
-x,-y,-z
1/2+x,1/2+y,-z
1/2-x,y,1/2+z
x,1/2-y,1/2+z
loop_
_atom_site_type_symbol
_atom_site_label
_atom_site_fract_x
_atom_site_fract_y
_atom_site_fract_z
Si Si1 0.347601 0.205130 0.785096
Si Si2 0.250000 0.250000 0.452505
Si Si3 0.805272 0.491237 0.392575
Si Si4 0.425309 0.711194 0.823920
Si Si5 0.593212 0.223803 0.961173
Si Si6 0.482250 0.348029 0.833448
Si Si7 0.829804 0.050635 0.312579
O O1 0.303202 0.162749 0.880807
O O2 0.343494 0.065609 0.701697
O O3 0.421420 0.225569 0.821228
O O4 0.321961 0.370492 0.732229
O O5 0.213136 0.378835 0.522395
O O6 0.852521 0.361805 0.442716
O O7 0.740501 0.398129 0.354167
O O8 0.459392 0.535781 0.845733
O O9 0.471598 0.831635 0.762159
O O10 0.355930 0.681269 0.768779
O O11 0.409935 0.813047 0.922727
O O12 0.521798 0.288195 0.929485
O O13 0.615668 0.058966 0.901640
#
# Coordination Sequence:
#
# PCOD8228914 Si02
#       7
#     8   4   8   8   8   8   8
#     4  11  22  42  67  93 134 167 222 282 326 395
#     4  12  22  40  70 100 122 172 228 272 338 392
#     4  12  22  42  66  96 133 172 225 279 328 408
#     4  10  22  43  64  91 133 175 222 274 334 399
#     4  11  24  41  65  97 135 174 224 270 342 410
#     4  10  22  42  65  94 131 176 220 276 335 395
#     4  10  21  44  60  94 136 168 215 284 332 392
#
# _framework density 23.213082
#
# number of rings (size 3 to 8) (size 9 to 14) (size 15 to 20)
#    0.000    1.231    3.077    3.692    0.000    1.231 
#    8.308    6.923    0.000    0.000    0.000    0.000 
#    0.000    0.000    0.000    0.000    0.000    0.000 
#
# Total GULP energy -644787.719722 kJ/mol
# GULP energy per Si atom -12399.763841 kJ/mol
# Density = 2.316025 g / cm^3
# Si number density = 23.213082 Si / 1000 Ang^3
#
#
#
# Elastic Constant Matrix: (Units=GPa)
#
#
# Indices 1 2 3 4 5 6 
#
# 1 97.8150 6.9724 37.6448 0.0000 0.0000 0.0000
# 2 6.9724 22.9023 -10.7366 0.0000 0.0000 0.0000
# 3 37.6448 -10.7366 138.0284 0.0000 0.0000 0.0000
# 4 0.0000 0.0000 0.0000 15.9197 0.0000 0.0000
# 5 0.0000 0.0000 0.0000 0.0000 25.5544 0.0000
# 6 0.0000 0.0000 0.0000 0.0000 0.0000 25.4608
#
#
#
# Elastic Compliance Matrix: (Units=1/GPa)
#
#
# Indices 1 2 3 4 5 6 
#
# 1 0.012033 -0.005399 -0.003702 0.000000 0.000000 0.000000
# 2 -0.005399 0.047738 0.005186 0.000000 0.000000 0.000000
# 3 -0.003702 0.005186 0.008658 0.000000 0.000000 0.000000
# 4 0.000000 0.000000 0.000000 0.062815 0.000000 0.000000
# 5 0.000000 0.000000 0.000000 0.000000 0.039132 0.000000
# 6 0.000000 0.000000 0.000000 0.000000 0.000000 0.039276
#
#
# Mechanical properties :
#
#
# Convention : Reuss Voigt Hill
#
# Bulk Modulus (GPa) = 16.50169 36.27855 26.39012
# Shear Modulus (GPa) = 21.03655 28.37799 24.70727
#
# Velocity S-wave (km/s) = 3.01364 3.50022 3.26601
# Velocity P-wave (km/s) = 4.38561 5.65666 5.06120
#
# Compressibility (1/GPa) = 0.06059986
#
# Stress axis : x y z
#
# Youngs Moduli (GPa) = 83.10604 20.94752 115.50234
#
# Poissons Ratio (x) = 0.11309 0.42755
# Poissons Ratio (y) = 0.44866 -0.59897
# Poissons Ratio (z) = 0.30763 -0.10863
#
# Static dielectric constant tensor:
#      x y z
#    x 4.438580 0.000000 0.000000 
#    y 0.000000 4.011680 0.000000 
#    z 0.000000 0.000000 4.370880 
# 
# 
# High freq. dielectric constant tensor:
#      x y z
#    x 1.932840 0.000000 0.000000 
#    y 0.000000 1.902190 0.000000 
#    z 0.000000 0.000000 1.925880 
# 
# From -- ./inp_files/13019.got.cif
#   From: 2010.03.12/outbox.cif.g09.slc.cpg/sg56_7_cif.got.tgz:13019.got - 2010.04.16 15:33:40.
