data_PCOD8228653
_publ_section_title
;
Structure prediction by ZEFSAII (Michael W. Deem and Ramdas Pophale) SiO2 
 PCOD8228653
Probable space group: P C C N
;
_chemical_formula_sum "Si O2"
_cell_formula_units_Z 64
_cell_length_a 9.017372
_cell_length_b 11.096098
_cell_length_c 27.864105
_cell_angle_alpha 90.000000
_cell_angle_beta 90.000000
_cell_angle_gamma 90.000000
_cell_volume 2788.016682
_symmetry_space_group_name_H-M "P C C N"
_symmetry_group_IT_number 56
_symmetry_cell_setting 'orthorhombic'
loop_
_space_group_symop_operation_xyz
x,y,z
1/2-x,1/2-y,z
1/2+x,-y,1/2-z
-x,1/2+y,1/2-z
-x,-y,-z
1/2+x,1/2+y,-z
1/2-x,y,1/2+z
x,1/2-y,1/2+z
loop_
_atom_site_type_symbol
_atom_site_label
_atom_site_fract_x
_atom_site_fract_y
_atom_site_fract_z
Si Si1 0.597665 0.688467 0.020794
Si Si2 0.232542 0.511215 0.613997
Si Si3 0.037934 0.935252 0.940364
Si Si4 0.763850 0.887157 0.292367
Si Si5 0.289566 0.988861 0.354130
Si Si6 0.093198 0.570737 0.768975
Si Si7 0.971552 0.632087 0.105399
Si Si8 0.039293 0.673724 0.674953
O O1 0.750000 0.750000 0.002907
O O2 0.624116 0.549981 0.037024
O O3 0.531568 0.766664 0.064193
O O4 0.478050 0.679260 0.976521
O O5 0.131393 0.477613 0.568961
O O6 0.226222 0.400526 0.651497
O O7 0.396741 0.538786 0.594244
O O8 0.172908 0.630385 0.640986
O O9 0.118223 0.900256 0.890019
O O10 0.750000 0.750000 0.276434
O O11 0.925946 0.945908 0.286908
O O12 0.642226 0.952018 0.259572
O O13 0.201505 0.909176 0.314736
O O14 0.181890 0.062011 0.389887
O O15 0.400248 0.081075 0.327621
O O16 0.095485 0.680959 0.730366
O O17 0.992412 0.694366 0.157541
#
# Coordination Sequence:
#
# PCOD8228653 Si02
#       8
#     8   8   8   8   8   8   8   8
#     4  11  21  40  70 105 129 180 233 294 373 427
#     4  10  22  40  63  96 139 179 232 286 349 425
#     4  10  23  41  68  95 142 181 230 294 361 435
#     4  11  25  43  66 100 149 197 235 291 357 417
#     4  11  20  38  66  96 144 181 230 292 348 424
#     4  11  23  40  65 103 142 191 248 283 345 429
#     4  12  20  37  72 105 132 178 245 297 352 413
#     4  10  21  35  59  98 140 181 225 292 345 402
#
# _framework density 22.955385
#
# number of rings (size 3 to 8) (size 9 to 14) (size 15 to 20)
#    0.000    1.250    6.250    0.750    1.750    0.500 
#    0.000    1.250    2.750    1.500    0.000    0.000 
#    0.000    0.000    0.000    0.000    0.000    0.000 
#
# Total GULP energy -793318.630628 kJ/mol
# GULP energy per Si atom -12395.603604 kJ/mol
# Density = 2.290314 g / cm^3
# Si number density = 22.955385 Si / 1000 Ang^3
#
#
#
# Elastic Constant Matrix: (Units=GPa)
#
#
# Indices 1 2 3 4 5 6 
#
# 1 124.5165 37.2600 44.7708 0.0000 0.0000 0.0000
# 2 37.2600 61.2812 42.5867 0.0000 0.0000 0.0000
# 3 44.7708 42.5867 140.0056 0.0000 0.0000 0.0000
# 4 0.0000 0.0000 0.0000 23.1634 0.0000 0.0000
# 5 0.0000 0.0000 0.0000 0.0000 40.1877 0.0000
# 6 0.0000 0.0000 0.0000 0.0000 0.0000 21.5244
#
#
#
# Elastic Compliance Matrix: (Units=1/GPa)
#
#
# Indices 1 2 3 4 5 6 
#
# 1 0.010138 -0.004960 -0.001733 0.000000 0.000000 0.000000
# 2 -0.004960 0.023119 -0.005446 0.000000 0.000000 0.000000
# 3 -0.001733 -0.005446 0.009353 0.000000 0.000000 0.000000
# 4 0.000000 0.000000 0.000000 0.043172 0.000000 0.000000
# 5 0.000000 0.000000 0.000000 0.000000 0.024883 0.000000
# 6 0.000000 0.000000 0.000000 0.000000 0.000000 0.046459
#
#
# Mechanical properties :
#
#
# Convention : Reuss Voigt Hill
#
# Bulk Modulus (GPa) = 54.54970 63.89313 59.22141
# Shear Modulus (GPa) = 26.66476 30.38750 28.52613
#
# Velocity S-wave (km/s) = 3.41191 3.64230 3.52899
# Velocity P-wave (km/s) = 6.27188 6.75148 6.51609
#
# Compressibility (1/GPa) = 0.01833191
#
# Stress axis : x y z
#
# Youngs Moduli (GPa) = 98.63424 43.25528 106.91211
#
# Poissons Ratio (x) = 0.21453 0.18532
# Poissons Ratio (y) = 0.48920 0.58226
# Poissons Ratio (z) = 0.17097 0.23557
#
# Static dielectric constant tensor:
#      x y z
#    x 4.292200 0.000000 0.000000 
#    y 0.000000 3.615430 0.000000 
#    z 0.000000 0.000000 4.335180 
# 
# 
# High freq. dielectric constant tensor:
#      x y z
#    x 1.916040 0.000000 0.000000 
#    y 0.000000 1.858620 0.000000 
#    z 0.000000 0.000000 1.914690 
# 
# From -- ./inp_files/23393.got.cif
#   From: 2010.03.12/outbox.cif.g09.slc.cpg/sg56_12_cif.got.tgz:23393.got - 2010.04.16 15:33:40.
