data_PCOD8228670
_publ_section_title
;
Structure prediction by ZEFSAII (Michael W. Deem and Ramdas Pophale) SiO2 
 PCOD8228670
Probable space group: P C C N
;
_chemical_formula_sum "Si O2"
_cell_formula_units_Z 48
_cell_length_a 13.458219
_cell_length_b 11.344652
_cell_length_c 16.786187
_cell_angle_alpha 90.000000
_cell_angle_beta 90.000000
_cell_angle_gamma 90.000000
_cell_volume 2562.895074
_symmetry_space_group_name_H-M "P C C N"
_symmetry_group_IT_number 56
_symmetry_cell_setting 'orthorhombic'
loop_
_space_group_symop_operation_xyz
x,y,z
1/2-x,1/2-y,z
1/2+x,-y,1/2-z
-x,1/2+y,1/2-z
-x,-y,-z
1/2+x,1/2+y,-z
1/2-x,y,1/2+z
x,1/2-y,1/2+z
loop_
_atom_site_type_symbol
_atom_site_label
_atom_site_fract_x
_atom_site_fract_y
_atom_site_fract_z
Si Si1 0.362761 0.219495 0.373261
Si Si2 0.897096 0.551225 0.191898
Si Si3 0.892582 0.978884 0.253026
Si Si4 0.223922 0.886364 0.868351
Si Si5 0.219930 0.382909 0.654161
Si Si6 0.115115 0.033485 0.998529
O O1 0.250000 0.250000 0.354253
O O2 0.422359 0.342809 0.369849
O O3 0.399499 0.129925 0.306678
O O4 0.376072 0.162455 0.459444
O O5 0.823867 0.457568 0.151692
O O6 0.849948 0.615288 0.268577
O O7 0.998583 0.488947 0.212323
O O8 0.820110 0.955238 0.327276
O O9 0.854980 0.093874 0.203646
O O10 0.250000 0.750000 0.878115
O O11 0.177332 0.934944 0.950433
O O12 0.250000 0.250000 0.629909
O O13 0.161152 0.453314 0.585848
O O14 0.000000 0.000000 0.000000
#
# Coordination Sequence:
#
# PCOD8228670 Si02
#       6
#     8   8   8   8   8   8
#     4  11  18  42  62  87 121 160 201 251 297 357
#     4  11  21  38  65  93 121 155 206 253 303 353
#     4  10  21  36  63  92 117 157 202 250 299 355
#     4  10  23  42  59  86 130 163 192 251 315 355
#     4  11  20  38  64  93 116 150 213 254 283 361
#     4  11  24  41  63  87 121 167 201 246 310 363
#
# _framework density 18.728819999999999
#
# number of rings (size 3 to 8) (size 9 to 14) (size 15 to 20)
#    0.000    1.333    6.667    2.500    2.333    1.333 
#    3.000    1.667    0.000    0.000    0.000    0.000 
#    0.000    0.000    0.000    0.000    0.000    0.000 
#
# Total GULP energy -595117.738445 kJ/mol
# GULP energy per Si atom -12398.286218 kJ/mol
# Density = 1.868619 g / cm^3
# Si number density = 18.728820 Si / 1000 Ang^3
#
#
#
# Elastic Constant Matrix: (Units=GPa)
#
#
# Indices 1 2 3 4 5 6 
#
# 1 112.9522 36.3449 32.7470 0.0000 0.0000 0.0000
# 2 36.3449 126.4217 42.9248 0.0000 0.0000 0.0000
# 3 32.7470 42.9248 78.5482 0.0000 0.0000 0.0000
# 4 0.0000 0.0000 0.0000 34.0519 0.0000 0.0000
# 5 0.0000 0.0000 0.0000 0.0000 22.4216 0.0000
# 6 0.0000 0.0000 0.0000 0.0000 0.0000 26.9464
#
#
#
# Elastic Compliance Matrix: (Units=1/GPa)
#
#
# Indices 1 2 3 4 5 6 
#
# 1 0.010417 -0.001867 -0.003323 0.000000 0.000000 0.000000
# 2 -0.001867 0.010047 -0.004712 0.000000 0.000000 0.000000
# 3 -0.003323 -0.004712 0.016691 0.000000 0.000000 0.000000
# 4 0.000000 0.000000 0.000000 0.029367 0.000000 0.000000
# 5 0.000000 0.000000 0.000000 0.000000 0.044600 0.000000
# 6 0.000000 0.000000 0.000000 0.000000 0.000000 0.037111
#
#
# Mechanical properties :
#
#
# Convention : Reuss Voigt Hill
#
# Bulk Modulus (GPa) = 57.62985 60.21726 58.92356
# Shear Modulus (GPa) = 28.76541 30.41102 29.58822
#
# Velocity S-wave (km/s) = 3.92329 4.03396 3.97901
# Velocity P-wave (km/s) = 7.16662 7.34296 7.25533
#
# Compressibility (1/GPa) = 0.01735212
#
# Stress axis : x y z
#
# Youngs Moduli (GPa) = 95.99405 99.53652 59.91109
#
# Poissons Ratio (x) = 0.18579 0.19908
# Poissons Ratio (y) = 0.17918 0.28230
# Poissons Ratio (z) = 0.31898 0.46902
#
# Static dielectric constant tensor:
#      x y z
#    x 3.460040 0.000000 0.000000 
#    y 0.000000 2.920640 0.000000 
#    z 0.000000 0.000000 3.320850 
# 
# 
# High freq. dielectric constant tensor:
#      x y z
#    x 1.729160 0.000000 0.000000 
#    y 0.000000 1.728120 0.000000 
#    z 0.000000 0.000000 1.721040 
# 
# From -- ./inp_files/15598.got.cif
#   From: 2010.03.12/outbox.cif.g09.slc.cpg/sg56_8_cif.got.tgz:15598.got - 2010.04.16 15:33:40.
