data_PCOD8228280
_publ_section_title
;
Structure prediction by ZEFSAII (Michael W. Deem and Ramdas Pophale) SiO2 
 PCOD8228280
Probable space group: P C C N
;
_chemical_formula_sum "Si O2"
_cell_formula_units_Z 64
_cell_length_a 16.164205
_cell_length_b 22.224930
_cell_length_c 9.938491
_cell_angle_alpha 90.000000
_cell_angle_beta 90.000000
_cell_angle_gamma 90.000000
_cell_volume 3570.386241
_symmetry_space_group_name_H-M "P C C N"
_symmetry_group_IT_number 56
_symmetry_cell_setting 'orthorhombic'
loop_
_space_group_symop_operation_xyz
x,y,z
1/2-x,1/2-y,z
1/2+x,-y,1/2-z
-x,1/2+y,1/2-z
-x,-y,-z
1/2+x,1/2+y,-z
1/2-x,y,1/2+z
x,1/2-y,1/2+z
loop_
_atom_site_type_symbol
_atom_site_label
_atom_site_fract_x
_atom_site_fract_y
_atom_site_fract_z
Si Si1 0.665193 0.977821 0.562393
Si Si2 0.655977 0.181268 0.366186
Si Si3 0.899127 0.110002 0.112053
Si Si4 0.908618 0.116003 0.616008
Si Si5 0.153674 0.680802 0.134023
Si Si6 0.356480 0.016448 0.942285
Si Si7 0.940787 0.554206 0.787863
Si Si8 0.056161 0.451679 0.691948
O O1 0.761595 0.966231 0.540175
O O2 0.632759 0.932529 0.681100
O O3 0.623472 0.961882 0.422336
O O4 0.648949 0.046654 0.605962
O O5 0.601083 0.142201 0.467785
O O6 0.643711 0.157051 0.216130
O O7 0.626034 0.250001 0.366101
O O8 0.751124 0.174907 0.410509
O O9 0.854571 0.153099 0.218231
O O10 0.995251 0.102821 0.153384
O O11 0.905074 0.145113 0.468636
O O12 0.005240 0.111607 0.663400
O O13 0.866304 0.050784 0.613246
O O14 0.397596 0.061629 0.833203
O O15 0.404169 0.020437 0.082829
O O16 0.001802 0.511607 0.703640
#
# Coordination Sequence:
#
# PCOD8228280 Si02
#       8
#     8   8   8   8   8   8   8   8
#     4  11  20  32  51  75 102 132 166 199 242 299
#     4  11  22  34  49  72 100 131 171 209 235 274
#     4  11  20  34  51  69 100 138 165 195 246 289
#     4  11  20  34  51  69 100 138 165 195 246 289
#     4  11  22  34  49  72 100 131 171 209 235 274
#     4  11  20  32  51  75 102 132 166 199 242 299
#     4  10  20  33  48  72 101 131 165 203 240 292
#     4  10  20  33  48  72 101 131 165 203 240 292
#
# _framework density 17.925232000000001
#
# number of rings (size 3 to 8) (size 9 to 14) (size 15 to 20)
#    0.000    1.250    0.000   11.250    0.000    2.000 
#    0.000    0.000    0.000    0.000    0.000    0.000 
#    0.000   70.000    0.000    0.000    0.000    0.000 
#
# Total GULP energy -793685.819717 kJ/mol
# GULP energy per Si atom -12401.340933 kJ/mol
# Density = 1.788443 g / cm^3
# Si number density = 17.925232 Si / 1000 Ang^3
#
#
#
# Elastic Constant Matrix: (Units=GPa)
#
#
# Indices 1 2 3 4 5 6 
#
# 1 74.8742 23.0235 10.9325 0.0000 0.0000 0.0000
# 2 23.0235 44.0570 5.9663 0.0000 0.0000 0.0000
# 3 10.9325 5.9663 77.7974 0.0000 0.0000 0.0000
# 4 0.0000 0.0000 0.0000 12.4816 0.0000 0.0000
# 5 0.0000 0.0000 0.0000 0.0000 32.6097 0.0000
# 6 0.0000 0.0000 0.0000 0.0000 0.0000 17.5895
#
#
#
# Elastic Compliance Matrix: (Units=1/GPa)
#
#
# Indices 1 2 3 4 5 6 
#
# 1 0.016116 -0.008201 -0.001636 0.000000 0.000000 0.000000
# 2 -0.008201 0.027109 -0.000927 0.000000 0.000000 0.000000
# 3 -0.001636 -0.000927 0.013155 0.000000 0.000000 0.000000
# 4 0.000000 0.000000 0.000000 0.080118 0.000000 0.000000
# 5 0.000000 0.000000 0.000000 0.000000 0.030666 0.000000
# 6 0.000000 0.000000 0.000000 0.000000 0.000000 0.056852
#
#
# Mechanical properties :
#
#
# Convention : Reuss Voigt Hill
#
# Bulk Modulus (GPa) = 28.69117 30.73034 29.71075
# Shear Modulus (GPa) = 19.44317 22.98991 21.21654
#
# Velocity S-wave (km/s) = 3.29702 3.58515 3.44410
# Velocity P-wave (km/s) = 5.52581 5.85820 5.69443
#
# Compressibility (1/GPa) = 0.03485393
#
# Stress axis : x y z
#
# Youngs Moduli (GPa) = 62.04933 36.88838 76.01765
#
# Poissons Ratio (x) = 0.30250 0.12435
# Poissons Ratio (y) = 0.50884 0.07044
# Poissons Ratio (z) = 0.10150 0.03418
#
# Static dielectric constant tensor:
#      x y z
#    x 3.508290 0.000000 0.000000 
#    y 0.000000 3.078930 0.000000 
#    z 0.000000 0.000000 3.502910 
# 
# 
# High freq. dielectric constant tensor:
#      x y z
#    x 1.690430 0.000000 0.000000 
#    y 0.000000 1.647050 0.000000 
#    z 0.000000 0.000000 1.722420 
# 
# From -- ./inp_files/4222.got.cif
#   From: 2010.03.12/outbox.cif.g09.slc.cpg/sg56_3_cif.got.tgz:4222.got - 2010.04.16 15:33:40.
