data_PCOD8228089
_publ_section_title
;
Structure prediction by ZEFSAII (Michael W. Deem and Ramdas Pophale) SiO2 
 PCOD8228089
Probable space group: P C C N
;
_chemical_formula_sum "Si O2"
_cell_formula_units_Z 48
_cell_length_a 8.746207
_cell_length_b 16.638964
_cell_length_c 15.265915
_cell_angle_alpha 90.000000
_cell_angle_beta 90.000000
_cell_angle_gamma 90.000000
_cell_volume 2221.615382
_symmetry_space_group_name_H-M "P C C N"
_symmetry_group_IT_number 56
_symmetry_cell_setting 'orthorhombic'
loop_
_space_group_symop_operation_xyz
x,y,z
1/2-x,1/2-y,z
1/2+x,-y,1/2-z
-x,1/2+y,1/2-z
-x,-y,-z
1/2+x,1/2+y,-z
1/2-x,y,1/2+z
x,1/2-y,1/2+z
loop_
_atom_site_type_symbol
_atom_site_label
_atom_site_fract_x
_atom_site_fract_y
_atom_site_fract_z
Si Si1 0.428624 0.579961 0.094958
Si Si2 0.538775 0.586674 0.458983
Si Si3 0.543137 0.104343 0.736546
Si Si4 0.614221 0.444246 0.717107
Si Si5 0.856806 0.173111 0.407430
Si Si6 0.895628 0.601463 0.434447
O O1 0.455356 0.602274 0.197356
O O2 0.249843 0.595096 0.076192
O O3 0.464336 0.486793 0.083038
O O4 0.534211 0.631870 0.027687
O O5 0.500000 0.500000 0.500000
O O6 0.452797 0.598149 0.367792
O O7 0.489878 0.661284 0.521104
O O8 0.715454 0.601293 0.439554
O O9 0.702727 0.061421 0.712158
O O10 0.571867 0.173257 0.809662
O O11 0.463812 0.147530 0.651296
O O12 0.429266 0.038463 0.779093
O O13 0.750000 0.250000 0.422506
#
# Coordination Sequence:
#
# PCOD8228089 Si02
#       6
#     8   8   8   8   8   8
#     4   9  19  36  57  89 120 163 208 267 329 378
#     4  12  21  35  59  94 125 163 218 277 324 385
#     4  10  20  35  59  92 123 162 212 272 331 385
#     4  10  19  32  57  87 123 153 212 273 320 376
#     4  11  23  40  60  88 130 171 208 259 332 408
#     4  10  20  34  62  89 121 154 215 282 319 371
#
# _framework density 21.605902
#
# number of rings (size 3 to 8) (size 9 to 14) (size 15 to 20)
#    0.000    1.667    3.333    3.000    4.667    1.333 
#    0.000    8.333    0.000    0.000    0.000    0.000 
#    0.000    0.000    0.000    0.000    0.000    0.000 
#
# Total GULP energy -594798.792551 kJ/mol
# GULP energy per Si atom -12391.641511 kJ/mol
# Density = 2.155673 g / cm^3
# Si number density = 21.605902 Si / 1000 Ang^3
#
#
#
# Elastic Constant Matrix: (Units=GPa)
#
#
# Indices 1 2 3 4 5 6 
#
# 1 136.1191 18.2812 85.3745 0.0000 0.0000 0.0000
# 2 18.2812 34.2169 36.8924 0.0000 0.0000 0.0000
# 3 85.3745 36.8924 183.8923 0.0000 0.0000 0.0000
# 4 0.0000 0.0000 0.0000 13.2059 0.0000 0.0000
# 5 0.0000 0.0000 0.0000 0.0000 45.8807 0.0000
# 6 0.0000 0.0000 0.0000 0.0000 0.0000 25.4080
#
#
#
# Elastic Compliance Matrix: (Units=1/GPa)
#
#
# Indices 1 2 3 4 5 6 
#
# 1 0.010370 -0.000446 -0.004725 0.000000 0.000000 0.000000
# 2 -0.000446 0.037311 -0.007278 0.000000 0.000000 0.000000
# 3 -0.004725 -0.007278 0.009092 0.000000 0.000000 0.000000
# 4 0.000000 0.000000 0.000000 0.075724 0.000000 0.000000
# 5 0.000000 0.000000 0.000000 0.000000 0.021796 0.000000
# 6 0.000000 0.000000 0.000000 0.000000 0.000000 0.039358
#
#
# Mechanical properties :
#
#
# Convention : Reuss Voigt Hill
#
# Bulk Modulus (GPa) = 31.37328 70.59160 50.98244
# Shear Modulus (GPa) = 21.81760 31.14425 26.48093
#
# Velocity S-wave (km/s) = 3.18118 3.80079 3.50470
# Velocity P-wave (km/s) = 5.29579 7.21142 6.32653
#
# Compressibility (1/GPa) = 0.03187425
#
# Stress axis : x y z
#
# Youngs Moduli (GPa) = 96.43322 26.80180 109.99037
#
# Poissons Ratio (x) = 0.01195 0.51969
# Poissons Ratio (y) = 0.04301 0.80053
# Poissons Ratio (z) = 0.45563 0.19507
#
# Static dielectric constant tensor:
#      x y z
#    x 3.895520 0.000000 0.000000 
#    y 0.000000 3.307310 0.000000 
#    z 0.000000 0.000000 4.619700 
# 
# 
# High freq. dielectric constant tensor:
#      x y z
#    x 1.853320 0.000000 0.000000 
#    y 0.000000 1.779230 0.000000 
#    z 0.000000 0.000000 1.877670 
# 
# From -- ./inp_files/10650.got.cif
#   From: 2010.03.12/outbox.cif.g09.slc.cpg/sg56_6_cif.got.tgz:10650.got - 2010.04.16 15:33:40.
