data_PCOD8228393
_publ_section_title
;
Structure prediction by ZEFSAII (Michael W. Deem and Ramdas Pophale) SiO2 
 PCOD8228393
Probable space group: P C C N
;
_chemical_formula_sum "Si O2"
_cell_formula_units_Z 60
_cell_length_a 8.626700
_cell_length_b 19.840861
_cell_length_c 18.169296
_cell_angle_alpha 90.000000
_cell_angle_beta 90.000000
_cell_angle_gamma 90.000000
_cell_volume 3109.877700
_symmetry_space_group_name_H-M "P C C N"
_symmetry_group_IT_number 56
_symmetry_cell_setting 'orthorhombic'
loop_
_space_group_symop_operation_xyz
x,y,z
1/2-x,1/2-y,z
1/2+x,-y,1/2-z
-x,1/2+y,1/2-z
-x,-y,-z
1/2+x,1/2+y,-z
1/2-x,y,1/2+z
x,1/2-y,1/2+z
loop_
_atom_site_type_symbol
_atom_site_label
_atom_site_fract_x
_atom_site_fract_y
_atom_site_fract_z
Si Si1 0.957572 0.130663 0.288690
Si Si2 0.872151 0.944755 0.021200
Si Si3 0.497621 0.853328 0.643326
Si Si4 0.689003 0.932190 0.881580
Si Si5 0.916319 0.522977 0.117828
Si Si6 0.750000 0.250000 0.837815
Si Si7 0.689684 0.461657 0.769506
Si Si8 0.225457 0.175443 0.730616
O O1 0.864623 0.201326 0.292156
O O2 0.847869 0.076752 0.247514
O O3 0.108320 0.140869 0.239938
O O4 0.007360 0.097902 0.368941
O O5 0.944616 0.883897 0.067196
O O6 0.735058 0.978884 0.067941
O O7 0.799686 0.910783 0.948675
O O8 0.000000 0.000000 0.000000
O O9 0.366643 0.799147 0.617755
O O10 0.433721 0.909731 0.697995
O O11 0.635810 0.820137 0.691083
O O12 0.537798 0.969356 0.915881
O O13 0.638519 0.867163 0.833194
O O14 0.781531 0.984368 0.832172
O O15 0.876502 0.498704 0.199537
O O16 0.250000 0.250000 0.699864
#
# Coordination Sequence:
#
# PCOD8228393 Si02
#       8
#     8   8   8   8   8   4   8   8
#     4  10  21  34  62  93 122 154 206 261 311 364
#     4  12  25  39  63  95 130 169 205 256 326 395
#     4  11  21  41  64  96 119 168 214 263 315 372
#     4  11  23  39  58  90 135 162 200 261 319 381
#     4  11  22  39  64  98 124 164 209 261 321 372
#     4  10  22  40  62  92 122 162 212 268 306 372
#     4  10  20  36  64  94 122 155 205 266 320 356
#     4  12  22  39  65  92 121 166 216 263 308 371
#
# _framework density 19.293361999999998
#
# number of rings (size 3 to 8) (size 9 to 14) (size 15 to 20)
#    0.000    1.067    6.667    0.400    3.733    0.000 
#    0.000    2.000    0.000    0.000    0.000    0.000 
#    0.000    0.000    0.000    0.000    0.000    0.000 
#
# Total GULP energy -743685.092176 kJ/mol
# GULP energy per Si atom -12394.751536 kJ/mol
# Density = 1.924945 g / cm^3
# Si number density = 19.293362 Si / 1000 Ang^3
#
#
#
# Elastic Constant Matrix: (Units=GPa)
#
#
# Indices 1 2 3 4 5 6 
#
# 1 102.1253 40.5570 35.0116 0.0000 0.0000 0.0000
# 2 40.5570 109.5049 38.9554 0.0000 0.0000 0.0000
# 3 35.0116 38.9554 82.2094 0.0000 0.0000 0.0000
# 4 0.0000 0.0000 0.0000 9.1506 0.0000 0.0000
# 5 0.0000 0.0000 0.0000 0.0000 36.1232 0.0000
# 6 0.0000 0.0000 0.0000 0.0000 0.0000 38.7806
#
#
#
# Elastic Compliance Matrix: (Units=1/GPa)
#
#
# Indices 1 2 3 4 5 6 
#
# 1 0.012360 -0.003254 -0.003722 0.000000 0.000000 0.000000
# 2 -0.003254 0.011840 -0.004225 0.000000 0.000000 0.000000
# 3 -0.003722 -0.004225 0.015751 0.000000 0.000000 0.000000
# 4 0.000000 0.000000 0.000000 0.109283 0.000000 0.000000
# 5 0.000000 0.000000 0.000000 0.000000 0.027683 0.000000
# 6 0.000000 0.000000 0.000000 0.000000 0.000000 0.025786
#
#
# Mechanical properties :
#
#
# Convention : Reuss Voigt Hill
#
# Bulk Modulus (GPa) = 56.97982 58.09860 57.53921
# Shear Modulus (GPa) = 21.64928 28.76525 25.20727
#
# Velocity S-wave (km/s) = 3.35343 3.86546 3.61851
# Velocity P-wave (km/s) = 6.67768 7.07821 6.88086
#
# Compressibility (1/GPa) = 0.01755007
#
# Stress axis : x y z
#
# Youngs Moduli (GPa) = 80.90556 84.45959 63.48710
#
# Poissons Ratio (x) = 0.27480 0.23631
# Poissons Ratio (y) = 0.26324 0.26822
# Poissons Ratio (z) = 0.30115 0.35682
#
# Static dielectric constant tensor:
#      x y z
#    x 3.996750 0.000000 0.000000 
#    y 0.000000 3.775340 0.000000 
#    z 0.000000 0.000000 3.225860 
# 
# 
# High freq. dielectric constant tensor:
#      x y z
#    x 1.775540 0.000000 0.000000 
#    y 0.000000 1.753240 0.000000 
#    z 0.000000 0.000000 1.713220 
# 
# From -- ./inp_files/15107.got.cif
#   From: 2010.03.12/outbox.cif.g09.slc.cpg/sg56_8_cif.got.tgz:15107.got - 2010.04.16 15:33:40.
