data_PCOD8228517
_publ_section_title
;
Structure prediction by ZEFSAII (Michael W. Deem and Ramdas Pophale) SiO2 
 PCOD8228517
Probable space group: P C C N
;
_chemical_formula_sum "Si O2"
_cell_formula_units_Z 60
_cell_length_a 8.938967
_cell_length_b 13.630499
_cell_length_c 24.846357
_cell_angle_alpha 90.000000
_cell_angle_beta 90.000000
_cell_angle_gamma 90.000000
_cell_volume 3027.344259
_symmetry_space_group_name_H-M "P C C N"
_symmetry_group_IT_number 56
_symmetry_cell_setting 'orthorhombic'
loop_
_space_group_symop_operation_xyz
x,y,z
1/2-x,1/2-y,z
1/2+x,-y,1/2-z
-x,1/2+y,1/2-z
-x,-y,-z
1/2+x,1/2+y,-z
1/2-x,y,1/2+z
x,1/2-y,1/2+z
loop_
_atom_site_type_symbol
_atom_site_label
_atom_site_fract_x
_atom_site_fract_y
_atom_site_fract_z
Si Si1 0.048556 0.345089 0.980353
Si Si2 0.202959 0.442681 0.328129
Si Si3 0.250000 0.250000 0.894427
Si Si4 0.171953 0.999769 0.553247
Si Si5 0.223691 0.362896 0.213502
Si Si6 0.038761 0.909790 0.357347
Si Si7 0.061778 0.446393 0.623952
Si Si8 0.587885 0.265940 0.072308
O O1 0.111082 0.285340 0.930118
O O2 0.887385 0.392600 0.964646
O O3 0.165568 0.429258 0.000576
O O4 0.033265 0.267036 0.028427
O O5 0.202650 0.339097 0.357259
O O6 0.247820 0.428925 0.265991
O O7 0.320145 0.520798 0.349789
O O8 0.035595 0.481740 0.338922
O O9 0.337086 0.994583 0.579932
O O10 0.057179 0.040511 0.596530
O O11 0.250000 0.250000 0.228697
O O12 0.334091 0.385552 0.164243
O O13 0.055139 0.390719 0.196607
O O14 0.090350 0.802295 0.375020
O O15 0.951853 0.375852 0.590210
O O16 0.750000 0.250000 0.045369
#
# Coordination Sequence:
#
# PCOD8228517 Si02
#       8
#     8   8   4   8   8   8   8   8
#     4  10  21  38  61  90 127 170 207 246 317 378
#     4  12  24  41  61  91 127 160 208 257 319 369
#     4  12  24  40  62  86 124 172 204 252 308 390
#     4   9  20  38  63  90 121 166 206 251 309 371
#     4  11  22  40  66  92 120 162 208 254 317 384
#     4  10  20  39  64  84 124 160 197 255 307 365
#     4  11  23  39  66  95 124 160 216 266 309 375
#     4  11  21  37  62  94 123 158 207 263 305 361
#
# _framework density 19.819353
#
# number of rings (size 3 to 8) (size 9 to 14) (size 15 to 20)
#    0.000    1.333    4.667    1.600    0.000    1.067 
#    0.000    2.000    0.000    0.000    0.000    0.000 
#    0.000    0.000    0.000    0.000    0.000    0.000 
#
# Total GULP energy -743856.634086 kJ/mol
# GULP energy per Si atom -12397.610568 kJ/mol
# Density = 1.977424 g / cm^3
# Si number density = 19.819353 Si / 1000 Ang^3
#
#
#
# Elastic Constant Matrix: (Units=GPa)
#
#
# Indices 1 2 3 4 5 6 
#
# 1 84.7278 30.5227 13.1392 0.0000 0.0000 0.0000
# 2 30.5227 79.0719 28.8245 0.0000 0.0000 0.0000
# 3 13.1392 28.8245 67.3207 0.0000 0.0000 0.0000
# 4 0.0000 0.0000 0.0000 -60.5857 0.0000 0.0000
# 5 0.0000 0.0000 0.0000 0.0000 30.0017 0.0000
# 6 0.0000 0.0000 0.0000 0.0000 0.0000 28.9639
#
#
#
# Elastic Compliance Matrix: (Units=1/GPa)
#
#
# Indices 1 2 3 4 5 6 
#
# 1 0.013722 -0.005120 -0.000486 0.000000 0.000000 0.000000
# 2 -0.005120 0.016896 -0.006235 0.000000 0.000000 0.000000
# 3 -0.000486 -0.006235 0.017619 0.000000 0.000000 0.000000
# 4 0.000000 0.000000 0.000000 -0.016506 0.000000 0.000000
# 5 0.000000 0.000000 0.000000 0.000000 0.033331 0.000000
# 6 0.000000 0.000000 0.000000 0.000000 0.000000 0.034526
#
#
# Mechanical properties :
#
#
# Convention : Reuss Voigt Hill
#
# Bulk Modulus (GPa) = 40.72465 41.78814 41.25639
# Shear Modulus (GPa) = 38.03574 10.25159 24.14366
#
# Velocity S-wave (km/s) = 4.38553 2.27678 3.49404
# Velocity P-wave (km/s) = 6.79973 5.29546 6.09419
#
# Compressibility (1/GPa) = 0.02455515
#
# Stress axis : x y z
#
# Youngs Moduli (GPa) = 72.87438 59.18598 56.75764
#
# Poissons Ratio (x) = 0.30302 0.02759
# Poissons Ratio (y) = 0.37310 0.35389
# Poissons Ratio (z) = 0.03542 0.36903
#
# Static dielectric constant tensor:
#      x y z
#    x 3.611820 0.000000 0.000000 
#    y 0.000000 3.590380 0.000000 
#    z 0.000000 0.000000 3.635290 
# 
# 
# High freq. dielectric constant tensor:
#      x y z
#    x 1.767600 0.000000 0.000000 
#    y 0.000000 1.771870 0.000000 
#    z 0.000000 0.000000 1.776130 
# 
# From -- ./inp_files/20622.got.cif
#   From: 2010.03.12/outbox.cif.g09.slc.cpg/sg56_11_cif.got.tgz:20622.got - 2010.04.16 15:33:40.
