data_PCOD8228112
_publ_section_title
;
Structure prediction by ZEFSAII (Michael W. Deem and Ramdas Pophale) SiO2 
 PCOD8228112
Probable space group: P C C N
;
_chemical_formula_sum "Si O2"
_cell_formula_units_Z 52
_cell_length_a 9.395563
_cell_length_b 14.551209
_cell_length_c 20.605909
_cell_angle_alpha 90.000000
_cell_angle_beta 90.000000
_cell_angle_gamma 90.000000
_cell_volume 2817.173958
_symmetry_space_group_name_H-M "P C C N"
_symmetry_group_IT_number 56
_symmetry_cell_setting 'orthorhombic'
loop_
_space_group_symop_operation_xyz
x,y,z
1/2-x,1/2-y,z
1/2+x,-y,1/2-z
-x,1/2+y,1/2-z
-x,-y,-z
1/2+x,1/2+y,-z
1/2-x,y,1/2+z
x,1/2-y,1/2+z
loop_
_atom_site_type_symbol
_atom_site_label
_atom_site_fract_x
_atom_site_fract_y
_atom_site_fract_z
Si Si1 0.750000 0.750000 0.623183
Si Si2 0.250000 0.750000 0.577488
Si Si3 0.165970 0.065099 0.938080
Si Si4 0.884931 0.480195 0.304407
Si Si5 0.750000 0.250000 0.207562
Si Si6 0.817826 0.445493 0.685967
Si Si7 0.467456 0.775642 0.686218
Si Si8 0.670220 0.444528 0.944638
O O1 0.730988 0.834763 0.573907
O O2 0.623961 0.736742 0.675156
O O3 0.388880 0.745932 0.621253
O O4 0.244971 0.653762 0.537822
O O5 0.998064 0.072006 0.948021
O O6 0.212609 0.004017 0.877389
O O7 0.227982 0.018761 0.003577
O O8 0.770707 0.487295 0.246597
O O9 0.795778 0.483821 0.372250
O O10 0.011228 0.556214 0.298720
O O11 0.972166 0.384974 0.304223
O O12 0.745783 0.344238 0.167089
O O13 0.610262 0.267083 0.251794
#
# Coordination Sequence:
#
# PCOD8228112 Si02
#       8
#     4   4   8   8   4   8   8   8
#     4  12  18  34  54  82 104 142 190 228 250 328
#     4   9  14  33  56  76 100 142 176 210 268 336
#     4  10  21  34  57  80 108 141 187 224 269 327
#     4   9  18  35  54  78 107 142 177 220 269 325
#     4   9  20  31  52  78 118 142 174 226 280 320
#     4  10  19  34  53  83 106 143 179 225 269 321
#     4   9  18  31  52  80 104 141 183 216 264 322
#     4   9  18  37  55  80 107 147 175 218 283 329
#
# _framework density 18.458214000000002
#
# number of rings (size 3 to 8) (size 9 to 14) (size 15 to 20)
#    0.000    2.462    4.615    0.923    2.154    0.615 
#    0.000    0.769    0.000    6.462    0.000    0.000 
#    0.000    0.000    0.000    0.000    0.000    0.000 
#
# Total GULP energy -644201.217836 kJ/mol
# GULP energy per Si atom -12388.484958 kJ/mol
# Density = 1.841620 g / cm^3
# Si number density = 18.458214 Si / 1000 Ang^3
#
#
#
# Elastic Constant Matrix: (Units=GPa)
#
#
# Indices 1 2 3 4 5 6 
#
# 1 77.0006 32.6159 31.8097 0.0000 0.0000 0.0000
# 2 32.6159 122.8407 52.8938 0.0000 0.0000 0.0000
# 3 31.8097 52.8938 99.7322 0.0000 0.0000 0.0000
# 4 0.0000 0.0000 0.0000 33.8995 0.0000 0.0000
# 5 0.0000 0.0000 0.0000 0.0000 22.0764 0.0000
# 6 0.0000 0.0000 0.0000 0.0000 0.0000 31.3579
#
#
#
# Elastic Compliance Matrix: (Units=1/GPa)
#
#
# Indices 1 2 3 4 5 6 
#
# 1 0.015567 -0.002586 -0.003594 0.000000 0.000000 0.000000
# 2 -0.002586 0.010979 -0.004998 0.000000 0.000000 0.000000
# 3 -0.003594 -0.004998 0.013824 0.000000 0.000000 0.000000
# 4 0.000000 0.000000 0.000000 0.029499 0.000000 0.000000
# 5 0.000000 0.000000 0.000000 0.000000 0.045297 0.000000
# 6 0.000000 0.000000 0.000000 0.000000 0.000000 0.031890
#
#
# Mechanical properties :
#
#
# Convention : Reuss Voigt Hill
#
# Bulk Modulus (GPa) = 55.51032 59.35690 57.43361
# Shear Modulus (GPa) = 28.50358 29.61702 29.06030
#
# Velocity S-wave (km/s) = 3.93392 4.01002 3.97215
# Velocity P-wave (km/s) = 7.12553 7.32582 7.22637
#
# Compressibility (1/GPa) = 0.01801467
#
# Stress axis : x y z
#
# Youngs Moduli (GPa) = 64.23936 91.07974 72.33841
#
# Poissons Ratio (x) = 0.23552 0.25996
# Poissons Ratio (y) = 0.16611 0.36157
# Poissons Ratio (z) = 0.23085 0.45524
#
# Static dielectric constant tensor:
#      x y z
#    x 2.844270 0.000000 0.000000 
#    y 0.000000 3.509400 0.000000 
#    z 0.000000 0.000000 3.568150 
# 
# 
# High freq. dielectric constant tensor:
#      x y z
#    x 1.698510 0.000000 0.000000 
#    y 0.000000 1.716770 0.000000 
#    z 0.000000 0.000000 1.698140 
# 
# From -- ./inp_files/18193.got.cif
#   From: 2010.03.12/outbox.cif.g09.slc.cpg/sg56_10_cif.got.tgz:18193.got - 2010.04.16 15:33:40.
