data_PCOD8228634
_publ_section_title
;
Structure prediction by ZEFSAII (Michael W. Deem and Ramdas Pophale) SiO2 
 PCOD8228634
Probable space group: P C C N
;
_chemical_formula_sum "Si O2"
_cell_formula_units_Z 64
_cell_length_a 22.454749
_cell_length_b 6.566035
_cell_length_c 24.764960
_cell_angle_alpha 90.000000
_cell_angle_beta 90.000000
_cell_angle_gamma 90.000000
_cell_volume 3651.312712
_symmetry_space_group_name_H-M "P C C N"
_symmetry_group_IT_number 56
_symmetry_cell_setting 'orthorhombic'
loop_
_space_group_symop_operation_xyz
x,y,z
1/2-x,1/2-y,z
1/2+x,-y,1/2-z
-x,1/2+y,1/2-z
-x,-y,-z
1/2+x,1/2+y,-z
1/2-x,y,1/2+z
x,1/2-y,1/2+z
loop_
_atom_site_type_symbol
_atom_site_label
_atom_site_fract_x
_atom_site_fract_y
_atom_site_fract_z
Si Si1 0.689234 0.706865 0.428329
Si Si2 0.123269 0.601112 0.585549
Si Si3 0.525867 0.492270 0.587842
Si Si4 0.028889 0.136026 0.139690
Si Si5 0.415252 0.437960 0.717014
Si Si6 0.809667 0.117528 0.336754
Si Si7 0.407661 0.948748 0.018453
Si Si8 0.017762 0.247228 0.809017
O O1 0.750000 0.750000 0.461469
O O2 0.706792 0.565531 0.377127
O O3 0.639106 0.622699 0.467468
O O4 0.672878 0.932348 0.410454
O O5 0.058755 0.499473 0.593073
O O6 0.138749 0.751567 0.634614
O O7 0.121848 0.726662 0.529047
O O8 0.524598 0.267231 0.613993
O O9 0.578033 0.487092 0.543867
O O10 0.463711 0.539593 0.558511
O O11 0.540345 0.658657 0.634088
O O12 0.076703 0.297134 0.163770
O O13 0.004638 0.984050 0.184633
O O14 0.347076 0.527429 0.715179
O O15 0.426455 0.286447 0.768045
O O16 0.465405 0.615638 0.716529
O O17 0.750000 0.250000 0.321024
#
# Coordination Sequence:
#
# PCOD8228634 Si02
#       8
#     8   8   8   8   8   8   8   8
#     4  11  20  33  54  79 106 142 175 214 273 330
#     4  11  18  32  52  77 113 141 173 218 268 327
#     4  10  21  34  49  77 112 138 177 222 268 323
#     4  11  18  32  52  75 107 142 175 218 273 319
#     4  11  21  32  52  80 107 145 188 222 271 335
#     4  11  21  32  50  81 115 138 176 227 276 336
#     4  10  21  33  50  80 108 137 179 222 262 325
#     4  11  20  33  52  76 108 143 183 227 267 320
#
# _framework density 17.527941999999999
#
# number of rings (size 3 to 8) (size 9 to 14) (size 15 to 20)
#    0.000    1.250    7.500    1.500    0.000    1.500 
#    0.000    0.000    0.000    0.000    3.250    0.000 
#    0.000    0.000    0.000    0.000    0.000    0.000 
#
# Total GULP energy -792880.744874 kJ/mol
# GULP energy per Si atom -12388.761639 kJ/mol
# Density = 1.748805 g / cm^3
# Si number density = 17.527942 Si / 1000 Ang^3
#
#
#
# Elastic Constant Matrix: (Units=GPa)
#
#
# Indices 1 2 3 4 5 6 
#
# 1 85.1177 28.0016 43.4117 0.0000 0.0000 0.0000
# 2 28.0016 95.5687 31.1148 0.0000 0.0000 0.0000
# 3 43.4117 31.1148 86.0224 0.0000 0.0000 0.0000
# 4 0.0000 0.0000 0.0000 17.5938 0.0000 0.0000
# 5 0.0000 0.0000 0.0000 0.0000 19.5578 0.0000
# 6 0.0000 0.0000 0.0000 0.0000 0.0000 22.7121
#
#
#
# Elastic Compliance Matrix: (Units=1/GPa)
#
#
# Indices 1 2 3 4 5 6 
#
# 1 0.016283 -0.002375 -0.007358 0.000000 0.000000 0.000000
# 2 -0.002375 0.012207 -0.003217 0.000000 0.000000 0.000000
# 3 -0.007358 -0.003217 0.016502 0.000000 0.000000 0.000000
# 4 0.000000 0.000000 0.000000 0.056838 0.000000 0.000000
# 5 0.000000 0.000000 0.000000 0.000000 0.051130 0.000000
# 6 0.000000 0.000000 0.000000 0.000000 0.000000 0.044029
#
#
# Mechanical properties :
#
#
# Convention : Reuss Voigt Hill
#
# Bulk Modulus (GPa) = 52.37959 52.41833 52.39896
# Shear Modulus (GPa) = 21.81003 22.91813 22.36408
#
# Velocity S-wave (km/s) = 3.53129 3.61989 3.57586
# Velocity P-wave (km/s) = 6.82459 6.88781 6.85627
#
# Compressibility (1/GPa) = 0.01909141
#
# Stress axis : x y z
#
# Youngs Moduli (GPa) = 61.41552 81.92114 60.60024
#
# Poissons Ratio (x) = 0.19458 0.44589
# Poissons Ratio (y) = 0.14587 0.19493
# Poissons Ratio (z) = 0.45189 0.26351
#
# Static dielectric constant tensor:
#      x y z
#    x 3.162350 0.000000 0.000000 
#    y 0.000000 3.617270 0.000000 
#    z 0.000000 0.000000 3.024620 
# 
# 
# High freq. dielectric constant tensor:
#      x y z
#    x 1.649670 0.000000 0.000000 
#    y 0.000000 1.705460 0.000000 
#    z 0.000000 0.000000 1.639550 
# 
# From -- ./inp_files/21390.got.cif
#   From: 2010.03.12/outbox.cif.g09.slc.cpg/sg56_11_cif.got.tgz:21390.got - 2010.04.16 15:33:40.
