data_PCOD8228081
_publ_section_title
;
Structure prediction by ZEFSAII (Michael W. Deem and Ramdas Pophale) SiO2 
 PCOD8228081
Probable space group: P C C N
;
_chemical_formula_sum "Si O2"
_cell_formula_units_Z 52
_cell_length_a 6.016198
_cell_length_b 16.555775
_cell_length_c 26.248252
_cell_angle_alpha 90.000000
_cell_angle_beta 90.000000
_cell_angle_gamma 90.000000
_cell_volume 2614.399931
_symmetry_space_group_name_H-M "P C C N"
_symmetry_group_IT_number 56
_symmetry_cell_setting 'orthorhombic'
loop_
_space_group_symop_operation_xyz
x,y,z
1/2-x,1/2-y,z
1/2+x,-y,1/2-z
-x,1/2+y,1/2-z
-x,-y,-z
1/2+x,1/2+y,-z
1/2-x,y,1/2+z
x,1/2-y,1/2+z
loop_
_atom_site_type_symbol
_atom_site_label
_atom_site_fract_x
_atom_site_fract_y
_atom_site_fract_z
Si Si1 0.957507 0.362829 0.830018
Si Si2 0.427921 0.016774 0.423850
Si Si3 0.811429 0.436081 0.991393
Si Si4 0.725588 0.500601 0.184878
Si Si5 0.389836 0.170047 0.936870
Si Si6 0.570792 0.380220 0.754716
Si Si7 0.750000 0.750000 0.736162
O O1 0.715928 0.353963 0.804232
O O2 0.042938 0.455766 0.830865
O O3 0.960628 0.322398 0.885857
O O4 0.143227 0.317519 0.798400
O O5 0.677548 0.040074 0.439934
O O6 0.426631 0.988360 0.365258
O O7 0.279237 0.096137 0.431048
O O8 0.348478 0.940772 0.459170
O O9 0.932369 0.349294 0.982278
O O10 0.000000 0.500000 0.000000
O O11 0.591602 0.547987 0.228341
O O12 0.777857 0.412450 0.208457
O O13 0.250000 0.250000 0.949686
O O14 0.438200 0.300908 0.733131
#
# Coordination Sequence:
#
# PCOD8228081 Si02
#       7
#     8   8   8   8   8   8   4
#     4  10  19  35  50  80 116 146 176 235 285 352
#     4   9  19  35  55  83 114 143 190 234 279 339
#     4   9  18  35  55  78 110 149 180 228 281 333
#     4  10  20  33  56  84 110 148 198 234 283 339
#     4  10  19  32  54  86 116 141 181 224 298 349
#     4  11  20  35  54  79 114 152 191 239 286 349
#     4  10  22  34  50  76 112 150 188 228 294 342
#
# _framework density 19.889842999999999
#
# number of rings (size 3 to 8) (size 9 to 14) (size 15 to 20)
#    0.000    2.154    2.308    1.385    0.000    0.615 
#    2.769    0.000    1.692    0.000    8.000    0.000 
#    0.000    0.000    0.000    0.000    0.000    0.000 
#
# Total GULP energy -644366.432851 kJ/mol
# GULP energy per Si atom -12391.662170 kJ/mol
# Density = 1.984457 g / cm^3
# Si number density = 19.889843 Si / 1000 Ang^3
#
#
#
# Elastic Constant Matrix: (Units=GPa)
#
#
# Indices 1 2 3 4 5 6 
#
# 1 93.0428 40.7421 29.5108 0.0000 0.0000 0.0000
# 2 40.7421 92.1573 47.7507 0.0000 0.0000 0.0000
# 3 29.5108 47.7507 86.9822 0.0000 0.0000 0.0000
# 4 0.0000 0.0000 0.0000 25.9377 0.0000 0.0000
# 5 0.0000 0.0000 0.0000 0.0000 54.6803 0.0000
# 6 0.0000 0.0000 0.0000 0.0000 0.0000 41.2288
#
#
#
# Elastic Compliance Matrix: (Units=1/GPa)
#
#
# Indices 1 2 3 4 5 6 
#
# 1 0.013532 -0.005036 -0.001826 0.000000 0.000000 0.000000
# 2 -0.005036 0.017039 -0.007645 0.000000 0.000000 0.000000
# 3 -0.001826 -0.007645 0.016313 0.000000 0.000000 0.000000
# 4 0.000000 0.000000 0.000000 0.038554 0.000000 0.000000
# 5 0.000000 0.000000 0.000000 0.000000 0.018288 0.000000
# 6 0.000000 0.000000 0.000000 0.000000 0.000000 0.024255
#
#
# Mechanical properties :
#
#
# Convention : Reuss Voigt Hill
#
# Bulk Modulus (GPa) = 55.96353 56.46548 56.21450
# Shear Modulus (GPa) = 30.68370 34.64794 32.66582
#
# Velocity S-wave (km/s) = 3.93196 4.17825 4.05697
# Velocity P-wave (km/s) = 6.98653 7.19220 7.09011
#
# Compressibility (1/GPa) = 0.01786878
#
# Stress axis : x y z
#
# Youngs Moduli (GPa) = 73.89718 58.68978 61.30005
#
# Poissons Ratio (x) = 0.29557 0.11196
# Poissons Ratio (y) = 0.37216 0.46865
# Poissons Ratio (z) = 0.13497 0.44869
#
# Static dielectric constant tensor:
#      x y z
#    x 3.871070 0.000000 0.000000 
#    y 0.000000 3.565780 0.000000 
#    z 0.000000 0.000000 3.675100 
# 
# 
# High freq. dielectric constant tensor:
#      x y z
#    x 1.791510 0.000000 0.000000 
#    y 0.000000 1.750440 0.000000 
#    z 0.000000 0.000000 1.746010 
# 
# From -- ./inp_files/21773.got.cif
#   From: 2010.03.12/outbox.cif.g09.slc.cpg/sg56_11_cif.got.tgz:21773.got - 2010.04.16 15:33:40.
