data_PCOD8228814
_publ_section_title
;
Structure prediction by ZEFSAII (Michael W. Deem and Ramdas Pophale) SiO2 
 PCOD8228814
Probable space group: P C C N
;
_chemical_formula_sum "Si O2"
_cell_formula_units_Z 48
_cell_length_a 13.416177
_cell_length_b 8.869924
_cell_length_c 17.905674
_cell_angle_alpha 90.000000
_cell_angle_beta 90.000000
_cell_angle_gamma 90.000000
_cell_volume 2130.783628
_symmetry_space_group_name_H-M "P C C N"
_symmetry_group_IT_number 56
_symmetry_cell_setting 'orthorhombic'
loop_
_space_group_symop_operation_xyz
x,y,z
1/2-x,1/2-y,z
1/2+x,-y,1/2-z
-x,1/2+y,1/2-z
-x,-y,-z
1/2+x,1/2+y,-z
1/2-x,y,1/2+z
x,1/2-y,1/2+z
loop_
_atom_site_type_symbol
_atom_site_label
_atom_site_fract_x
_atom_site_fract_y
_atom_site_fract_z
Si Si1 0.538587 0.739515 0.729419
Si Si2 0.703625 0.908905 0.135673
Si Si3 0.524300 0.156463 0.536395
Si Si4 0.611026 0.056498 0.991507
Si Si5 0.100014 0.957567 0.814265
Si Si6 0.143271 0.181180 0.617234
O O1 0.607031 0.617394 0.687041
O O2 0.434508 0.654025 0.746744
O O3 0.528026 0.892783 0.680936
O O4 0.588924 0.807372 0.803998
O O5 0.750000 0.750000 0.108421
O O6 0.783842 0.994872 0.189209
O O7 0.677229 0.006840 0.062950
O O8 0.598268 0.261496 0.486495
O O9 0.417634 0.232752 0.552518
O O10 0.500000 0.000000 0.500000
O O11 0.585567 0.136068 0.611465
O O12 0.500000 0.000000 0.000000
O O13 0.655171 0.991019 0.913640
O O14 0.250000 0.250000 0.628262
#
# Coordination Sequence:
#
# PCOD8228814 Si02
#       6
#     8   8   8   8   8   8
#     4  10  23  41  66  97 130 173 221 274 332 401
#     4  10  22  41  69  99 129 179 226 276 338 417
#     4  10  24  40  57  95 131 165 214 280 329 385
#     4  10  23  38  66  93 127 175 221 271 332 402
#     4  10  23  40  66  92 134 172 219 277 336 399
#     4  10  21  40  65  92 123 172 220 270 331 406
#
# _framework density 22.526923
#
# number of rings (size 3 to 8) (size 9 to 14) (size 15 to 20)
#    0.000    2.000    0.000    2.000   18.667    0.667 
#    0.000    0.000    0.000    0.000    0.000    0.000 
#    0.000    0.000    0.000    0.000    0.000    0.000 
#
# Total GULP energy -594763.645553 kJ/mol
# GULP energy per Si atom -12390.909282 kJ/mol
# Density = 2.247565 g / cm^3
# Si number density = 22.526923 Si / 1000 Ang^3
#
#
#
# Elastic Constant Matrix: (Units=GPa)
#
#
# Indices 1 2 3 4 5 6 
#
# 1 63.1789 25.5359 11.5478 0.0000 0.0000 0.0000
# 2 25.5359 123.8059 27.6255 0.0000 0.0000 0.0000
# 3 11.5478 27.6255 59.4768 0.0000 0.0000 0.0000
# 4 0.0000 0.0000 0.0000 38.1571 0.0000 0.0000
# 5 0.0000 0.0000 0.0000 0.0000 31.5794 0.0000
# 6 0.0000 0.0000 0.0000 0.0000 0.0000 34.7272
#
#
#
# Elastic Compliance Matrix: (Units=1/GPa)
#
#
# Indices 1 2 3 4 5 6 
#
# 1 0.017461 -0.003174 -0.001916 0.000000 0.000000 0.000000
# 2 -0.003174 0.009588 -0.003837 0.000000 0.000000 0.000000
# 3 -0.001916 -0.003837 0.018968 0.000000 0.000000 0.000000
# 4 0.000000 0.000000 0.000000 0.026207 0.000000 0.000000
# 5 0.000000 0.000000 0.000000 0.000000 0.031666 0.000000
# 6 0.000000 0.000000 0.000000 0.000000 0.000000 0.028796
#
#
# Mechanical properties :
#
#
# Convention : Reuss Voigt Hill
#
# Bulk Modulus (GPa) = 35.50818 41.76444 38.63631
# Shear Modulus (GPa) = 31.26411 33.00958 32.13685
#
# Velocity S-wave (km/s) = 3.72943 3.83213 3.78113
# Velocity P-wave (km/s) = 5.86018 6.17740 6.02088
#
# Compressibility (1/GPa) = 0.02816253
#
# Stress axis : x y z
#
# Youngs Moduli (GPa) = 57.27007 104.29686 52.72173
#
# Poissons Ratio (x) = 0.33104 0.10101
# Poissons Ratio (y) = 0.18177 0.20230
# Poissons Ratio (z) = 0.10973 0.40020
#
# Static dielectric constant tensor:
#      x y z
#    x 4.016480 0.000000 0.000000 
#    y 0.000000 4.560950 0.000000 
#    z 0.000000 0.000000 2.877980 
# 
# 
# High freq. dielectric constant tensor:
#      x y z
#    x 1.870080 0.000000 0.000000 
#    y 0.000000 1.896280 0.000000 
#    z 0.000000 0.000000 1.879570 
# 
# From -- ./inp_files/16149.got.cif
#   From: 2010.03.12/outbox.cif.g09.slc.cpg/sg56_9_cif.got.tgz:16149.got - 2010.04.16 15:33:40.
