data_PCOD8228546
_publ_section_title
;
Structure prediction by ZEFSAII (Michael W. Deem and Ramdas Pophale) SiO2 
 PCOD8228546
Probable space group: P C C N
;
_chemical_formula_sum "Si O2"
_cell_formula_units_Z 40
_cell_length_a 11.542272
_cell_length_b 9.415446
_cell_length_c 15.225466
_cell_angle_alpha 90.000000
_cell_angle_beta 90.000000
_cell_angle_gamma 90.000000
_cell_volume 1654.637243
_symmetry_space_group_name_H-M "P C C N"
_symmetry_group_IT_number 56
_symmetry_cell_setting 'orthorhombic'
loop_
_space_group_symop_operation_xyz
x,y,z
1/2-x,1/2-y,z
1/2+x,-y,1/2-z
-x,1/2+y,1/2-z
-x,-y,-z
1/2+x,1/2+y,-z
1/2-x,y,1/2+z
x,1/2-y,1/2+z
loop_
_atom_site_type_symbol
_atom_site_label
_atom_site_fract_x
_atom_site_fract_y
_atom_site_fract_z
Si Si1 0.741183 0.412657 0.608031
Si Si2 0.859521 0.653432 0.826708
Si Si3 0.869989 0.668811 0.018638
Si Si4 0.206541 0.901652 0.192022
Si Si5 0.041310 0.108937 0.855998
O O1 0.750000 0.250000 0.572249
O O2 0.654201 0.504942 0.546843
O O3 0.684150 0.411305 0.703919
O O4 0.868815 0.486790 0.614335
O O5 0.750000 0.750000 0.804128
O O6 0.811684 0.496450 0.839579
O O7 0.944104 0.664601 0.744074
O O8 0.922241 0.684829 0.919874
O O9 0.750000 0.750000 0.023048
O O10 0.955534 0.749872 0.084381
O O11 0.250000 0.750000 0.161637
O O12 0.089756 0.950589 0.140496
#
# Coordination Sequence:
#
# PCOD8228546 Si02
#       5
#     8   8   8   8   8
#     4   9  19  35  58  87 119 157 202 251 302 364
#     4  10  21  38  63  90 120 163 211 255 306 371
#     4   9  19  38  61  89 120 157 206 252 305 370
#     4  10  22  39  59  88 122 160 205 251 305 370
#     4  10  20  40  63  84 124 167 198 253 317 367
#
# _framework density 24.174484
#
# number of rings (size 3 to 8) (size 9 to 14) (size 15 to 20)
#    0.000    2.400    0.000    3.000    0.000   10.400 
#    0.000   17.000    0.000    4.800    0.000    0.000 
#    0.000    0.000    0.000    0.000    0.000    0.000 
#
# Total GULP energy -495809.290131 kJ/mol
# GULP energy per Si atom -12395.232253 kJ/mol
# Density = 2.411946 g / cm^3
# Si number density = 24.174484 Si / 1000 Ang^3
#
#
#
# Elastic Constant Matrix: (Units=GPa)
#
#
# Indices 1 2 3 4 5 6 
#
# 1 25.5833 -9.9569 26.7326 0.0000 0.0000 0.0000
# 2 -9.9569 124.8394 26.5842 0.0000 0.0000 0.0000
# 3 26.7326 26.5842 117.6289 0.0000 0.0000 0.0000
# 4 0.0000 0.0000 0.0000 12.5638 0.0000 0.0000
# 5 0.0000 0.0000 0.0000 0.0000 11.2888 0.0000
# 6 0.0000 0.0000 0.0000 0.0000 0.0000 14.5578
#
#
#
# Elastic Compliance Matrix: (Units=1/GPa)
#
#
# Indices 1 2 3 4 5 6 
#
# 1 0.057623 0.007758 -0.014849 0.000000 0.000000 0.000000
# 2 0.007758 0.009460 -0.003901 0.000000 0.000000 0.000000
# 3 -0.014849 -0.003901 0.012758 0.000000 0.000000 0.000000
# 4 0.000000 0.000000 0.000000 0.079594 0.000000 0.000000
# 5 0.000000 0.000000 0.000000 0.000000 0.088583 0.000000
# 6 0.000000 0.000000 0.000000 0.000000 0.000000 0.068692
#
#
# Mechanical properties :
#
#
# Convention : Reuss Voigt Hill
#
# Bulk Modulus (GPa) = 17.28407 39.41906 28.35157
# Shear Modulus (GPa) = 13.96729 22.66152 18.31441
#
# Velocity S-wave (km/s) = 2.40629 3.06504 2.75543
# Velocity P-wave (km/s) = 3.85818 5.37284 4.67723
#
# Compressibility (1/GPa) = 0.05785673
#
# Stress axis : x y z
#
# Youngs Moduli (GPa) = 17.35404 105.71108 78.38495
#
# Poissons Ratio (x) = -0.82010 1.16393
# Poissons Ratio (y) = -0.13463 0.30578
# Poissons Ratio (z) = 0.25769 0.41238
#
# Static dielectric constant tensor:
#      x y z
#    x 3.848930 0.000000 0.000000 
#    y 0.000000 4.293980 0.000000 
#    z 0.000000 0.000000 4.601300 
# 
# 
# High freq. dielectric constant tensor:
#      x y z
#    x 1.933280 0.000000 0.000000 
#    y 0.000000 1.966250 0.000000 
#    z 0.000000 0.000000 1.960340 
# 
# From -- ./inp_files/15381.got.cif
#   From: 2010.03.12/outbox.cif.g09.slc.cpg/sg56_8_cif.got.tgz:15381.got - 2010.04.16 15:33:40.
