data_PCOD8228459
_publ_section_title
;
Structure prediction by ZEFSAII (Michael W. Deem and Ramdas Pophale) SiO2 
 PCOD8228459
Probable space group: P C C N
;
_chemical_formula_sum "Si O2"
_cell_formula_units_Z 44
_cell_length_a 13.209200
_cell_length_b 11.142791
_cell_length_c 14.642766
_cell_angle_alpha 90.000000
_cell_angle_beta 90.000000
_cell_angle_gamma 90.000000
_cell_volume 2155.229996
_symmetry_space_group_name_H-M "P C C N"
_symmetry_group_IT_number 56
_symmetry_cell_setting 'orthorhombic'
loop_
_space_group_symop_operation_xyz
x,y,z
1/2-x,1/2-y,z
1/2+x,-y,1/2-z
-x,1/2+y,1/2-z
-x,-y,-z
1/2+x,1/2+y,-z
1/2-x,y,1/2+z
x,1/2-y,1/2+z
loop_
_atom_site_type_symbol
_atom_site_label
_atom_site_fract_x
_atom_site_fract_y
_atom_site_fract_z
Si Si1 0.044521 0.331327 0.947739
Si Si2 0.140179 0.440291 0.274581
Si Si3 0.021603 0.582257 0.861826
Si Si4 0.194257 0.873862 0.219294
Si Si5 0.024349 0.569123 0.592848
Si Si6 0.250000 0.250000 0.899245
O O1 0.031295 0.438240 0.874442
O O2 0.165616 0.312809 0.963684
O O3 0.999043 0.210286 0.907227
O O4 0.981762 0.356376 0.039412
O O5 0.215768 0.542631 0.248415
O O6 0.197683 0.342168 0.332120
O O7 0.085817 0.385924 0.185011
O O8 0.048489 0.496473 0.334480
O O9 0.114258 0.637075 0.802952
O O10 0.250000 0.750000 0.194385
O O11 0.140072 0.934077 0.129818
O O12 0.000000 0.500000 0.500000
#
# Coordination Sequence:
#
# PCOD8228459 Si02
#       6
#     8   8   8   8   8   4
#     4  10  21  41  60  91 127 162 210 265 312 378
#     4  10  22  39  63  91 122 167 213 254 316 383
#     4  10  22  40  65  89 125 164 208 265 320 374
#     4  11  23  42  65  94 127 169 213 263 322 388
#     4  10  24  42  61  94 133 166 210 270 313 378
#     4  10  20  38  60  86 128 162 210 260 300 392
#
# _framework density 20.415455000000001
#
# number of rings (size 3 to 8) (size 9 to 14) (size 15 to 20)
#    0.000    1.818    1.818    1.091    2.545    5.091 
#    3.273    0.000    0.000    0.000    0.000    0.000 
#    0.000    0.000    0.000    0.000    0.000    0.000 
#
# Total GULP energy -545276.488590 kJ/mol
# GULP energy per Si atom -12392.647468 kJ/mol
# Density = 2.036899 g / cm^3
# Si number density = 20.415455 Si / 1000 Ang^3
#
#
#
# Elastic Constant Matrix: (Units=GPa)
#
#
# Indices 1 2 3 4 5 6 
#
# 1 132.8476 42.0023 41.1164 0.0000 0.0000 0.0000
# 2 42.0023 73.0497 26.9921 0.0000 0.0000 0.0000
# 3 41.1164 26.9921 94.1119 0.0000 0.0000 0.0000
# 4 0.0000 0.0000 0.0000 23.7021 0.0000 0.0000
# 5 0.0000 0.0000 0.0000 0.0000 31.0362 0.0000
# 6 0.0000 0.0000 0.0000 0.0000 0.0000 33.5329
#
#
#
# Elastic Compliance Matrix: (Units=1/GPa)
#
#
# Indices 1 2 3 4 5 6 
#
# 1 0.009910 -0.004584 -0.003015 0.000000 0.000000 0.000000
# 2 -0.004584 0.017432 -0.002997 0.000000 0.000000 0.000000
# 3 -0.003015 -0.002997 0.012802 0.000000 0.000000 0.000000
# 4 0.000000 0.000000 0.000000 0.042190 0.000000 0.000000
# 5 0.000000 0.000000 0.000000 0.000000 0.032220 0.000000
# 6 0.000000 0.000000 0.000000 0.000000 0.000000 0.029821
#
#
# Mechanical properties :
#
#
# Convention : Reuss Voigt Hill
#
# Bulk Modulus (GPa) = 52.76224 57.80342 55.28283
# Shear Modulus (GPa) = 29.08902 30.31414 29.70158
#
# Velocity S-wave (km/s) = 3.77882 3.85757 3.81840
# Velocity P-wave (km/s) = 6.70370 6.94379 6.82480
#
# Compressibility (1/GPa) = 0.01895295
#
# Stress axis : x y z
#
# Youngs Moduli (GPa) = 100.91014 57.36420 78.11071
#
# Poissons Ratio (x) = 0.26296 0.23548
# Poissons Ratio (y) = 0.46257 0.23410
# Poissons Ratio (z) = 0.30422 0.17193
#
# Static dielectric constant tensor:
#      x y z
#    x 4.228990 0.000000 0.000000 
#    y 0.000000 3.603480 0.000000 
#    z 0.000000 0.000000 3.905580 
# 
# 
# High freq. dielectric constant tensor:
#      x y z
#    x 1.815780 0.000000 0.000000 
#    y 0.000000 1.791140 0.000000 
#    z 0.000000 0.000000 1.795290 
# 
# From -- ./inp_files/12181.got.cif
#   From: 2010.03.12/outbox.cif.g09.slc.cpg/sg56_7_cif.got.tgz:12181.got - 2010.04.16 15:33:40.
