data_PCOD8228576
_publ_section_title
;
Structure prediction by ZEFSAII (Michael W. Deem and Ramdas Pophale) SiO2 
 PCOD8228576
Probable space group: P C C N
;
_chemical_formula_sum "Si O2"
_cell_formula_units_Z 64
_cell_length_a 15.990157
_cell_length_b 8.764020
_cell_length_c 20.510038
_cell_angle_alpha 90.000000
_cell_angle_beta 90.000000
_cell_angle_gamma 90.000000
_cell_volume 2874.236849
_symmetry_space_group_name_H-M "P C C N"
_symmetry_group_IT_number 56
_symmetry_cell_setting 'orthorhombic'
loop_
_space_group_symop_operation_xyz
x,y,z
1/2-x,1/2-y,z
1/2+x,-y,1/2-z
-x,1/2+y,1/2-z
-x,-y,-z
1/2+x,1/2+y,-z
1/2-x,y,1/2+z
x,1/2-y,1/2+z
loop_
_atom_site_type_symbol
_atom_site_label
_atom_site_fract_x
_atom_site_fract_y
_atom_site_fract_z
Si Si1 0.263329 0.071999 0.587904
Si Si2 0.695840 0.019188 0.644310
Si Si3 0.431525 0.727958 0.388298
Si Si4 0.721393 0.076468 0.275971
Si Si5 0.956188 0.839869 0.170254
Si Si6 0.044737 0.499427 0.775810
Si Si7 0.303119 0.602820 0.474580
Si Si8 0.546464 0.987890 0.431721
O O1 0.250000 0.250000 0.592199
O O2 0.354499 0.026988 0.559508
O O3 0.246235 0.004585 0.658979
O O4 0.194704 0.005878 0.537594
O O5 0.647894 0.181793 0.642010
O O6 0.739978 0.995352 0.713150
O O7 0.763777 0.011965 0.586913
O O8 0.632454 0.877025 0.635951
O O9 0.461204 0.596126 0.340986
O O10 0.397965 0.652600 0.455901
O O11 0.510932 0.836109 0.397404
O O12 0.750000 0.250000 0.279689
O O13 0.622351 0.050470 0.269469
O O14 0.958662 0.675143 0.202740
O O15 0.966321 0.963973 0.228916
O O16 0.026151 0.864617 0.113757
O O17 0.250000 0.750000 0.494408
O O18 0.500000 0.000000 0.500000
#
# Coordination Sequence:
#
# PCOD8228576 Si02
#       8
#     8   8   8   8   8   8   8   8
#     4  12  28  44  65 104 146 183 232 296 354 424
#     4  10  20  40  71 100 128 173 230 287 342 412
#     4  10  21  42  72 100 130 179 238 287 339 420
#     4  12  24  43  69 100 139 180 227 282 356 414
#     4  11  25  40  69  98 135 182 224 290 351 414
#     4  12  24  43  66 102 135 172 236 284 345 410
#     4  10  20  43  69  97 130 180 232 280 347 424
#     4  11  24  48  71  98 144 188 233 291 360 417
#
# _framework density 22.266779
#
# number of rings (size 3 to 8) (size 9 to 14) (size 15 to 20)
#    0.000    1.000    3.750    4.500    1.750    2.000 
#    0.000    1.250    0.000    0.000    0.000    0.000 
#    0.000    0.000    0.000    0.000    0.000    0.000 
#
# Total GULP energy -793724.440944 kJ/mol
# GULP energy per Si atom -12401.944390 kJ/mol
# Density = 2.221610 g / cm^3
# Si number density = 22.266779 Si / 1000 Ang^3
#
#
#
# Elastic Constant Matrix: (Units=GPa)
#
#
# Indices 1 2 3 4 5 6 
#
# 1 45.5905 8.4874 2.7693 0.0000 0.0000 0.0000
# 2 8.4874 114.9719 48.9135 0.0000 0.0000 0.0000
# 3 2.7693 48.9135 135.3450 0.0000 0.0000 0.0000
# 4 0.0000 0.0000 0.0000 13.3393 0.0000 0.0000
# 5 0.0000 0.0000 0.0000 0.0000 28.5988 0.0000
# 6 0.0000 0.0000 0.0000 0.0000 0.0000 27.5110
#
#
#
# Elastic Compliance Matrix: (Units=1/GPa)
#
#
# Indices 1 2 3 4 5 6 
#
# 1 0.022243 -0.001712 0.000163 0.000000 0.000000 0.000000
# 2 -0.001712 0.010410 -0.003727 0.000000 0.000000 0.000000
# 3 0.000163 -0.003727 0.008732 0.000000 0.000000 0.000000
# 4 0.000000 0.000000 0.000000 0.074967 0.000000 0.000000
# 5 0.000000 0.000000 0.000000 0.000000 0.034966 0.000000
# 6 0.000000 0.000000 0.000000 0.000000 0.000000 0.036349
#
#
# Mechanical properties :
#
#
# Convention : Reuss Voigt Hill
#
# Bulk Modulus (GPa) = 32.43106 46.24976 39.34041
# Shear Modulus (GPa) = 23.98130 29.60563 26.79347
#
# Velocity S-wave (km/s) = 3.28533 3.65031 3.47262
# Velocity P-wave (km/s) = 5.38401 6.21145 5.81247
#
# Compressibility (1/GPa) = 0.03083464
#
# Stress axis : x y z
#
# Youngs Moduli (GPa) = 44.95781 96.06377 114.51960
#
# Poissons Ratio (x) = 0.16442 -0.01872
# Poissons Ratio (y) = 0.07695 0.42682
# Poissons Ratio (z) = -0.00735 0.35803
#
# Static dielectric constant tensor:
#      x y z
#    x 4.075030 0.000000 0.000000 
#    y 0.000000 3.870080 0.000000 
#    z 0.000000 0.000000 4.176980 
# 
# 
# High freq. dielectric constant tensor:
#      x y z
#    x 1.865700 0.000000 0.000000 
#    y 0.000000 1.867500 0.000000 
#    z 0.000000 0.000000 1.891240 
# 
# From -- ./inp_files/19324.got.cif
#   From: 2010.03.12/outbox.cif.g09.slc.cpg/sg56_10_cif.got.tgz:19324.got - 2010.04.16 15:33:40.
