data_PCOD8228899
_publ_section_title
;
Structure prediction by ZEFSAII (Michael W. Deem and Ramdas Pophale) SiO2 
 PCOD8228899
Probable space group: P C C N
;
_chemical_formula_sum "Si O2"
_cell_formula_units_Z 32
_cell_length_a 17.043377
_cell_length_b 7.202901
_cell_length_c 12.187484
_cell_angle_alpha 90.000000
_cell_angle_beta 90.000000
_cell_angle_gamma 90.000000
_cell_volume 1496.156952
_symmetry_space_group_name_H-M "P C C N"
_symmetry_group_IT_number 56
_symmetry_cell_setting 'orthorhombic'
loop_
_space_group_symop_operation_xyz
x,y,z
1/2-x,1/2-y,z
1/2+x,-y,1/2-z
-x,1/2+y,1/2-z
-x,-y,-z
1/2+x,1/2+y,-z
1/2-x,y,1/2+z
x,1/2-y,1/2+z
loop_
_atom_site_type_symbol
_atom_site_label
_atom_site_fract_x
_atom_site_fract_y
_atom_site_fract_z
Si Si1 0.606707 0.958450 0.411696
Si Si2 0.659571 0.789756 0.088976
Si Si3 0.330802 0.648302 0.285772
Si Si4 0.433931 0.956695 0.357375
O O1 0.673079 0.043304 0.331748
O O2 0.589305 0.093660 0.515672
O O3 0.637349 0.760165 0.461673
O O4 0.527156 0.944166 0.340633
O O5 0.750000 0.750000 0.114429
O O6 0.604377 0.660075 0.168087
O O7 0.646129 0.005013 0.116994
O O8 0.250000 0.750000 0.313657
O O9 0.398069 0.803033 0.277441
#
# Coordination Sequence:
#
# PCOD8228899 Si02
#       4
#     8   8   8   8
#     4   9  23  42  62  96 127 169 217 261 327 382
#     4  10  21  43  61  92 132 160 212 277 309 379
#     4  12  23  40  69  95 126 174 214 263 327 385
#     4   9  22  45  59  94 135 160 220 267 317 383
#
# _framework density 21.388131999999999
#
# number of rings (size 3 to 8) (size 9 to 14) (size 15 to 20)
#    1.500    0.500    2.500    0.000    3.500    5.000 
#    4.500    0.000    0.000    0.000    0.000    0.000 
#    0.000    0.000    0.000    0.000    0.000    0.000 
#
# Total GULP energy -396436.932899 kJ/mol
# GULP energy per Si atom -12388.654153 kJ/mol
# Density = 2.133945 g / cm^3
# Si number density = 21.388132 Si / 1000 Ang^3
#
#
#
# Elastic Constant Matrix: (Units=GPa)
#
#
# Indices 1 2 3 4 5 6 
#
# 1 79.5177 43.7758 14.5889 0.0000 0.0000 0.0000
# 2 43.7758 134.9397 38.1042 0.0000 0.0000 0.0000
# 3 14.5889 38.1042 58.9029 0.0000 0.0000 0.0000
# 4 0.0000 0.0000 0.0000 29.8568 0.0000 0.0000
# 5 0.0000 0.0000 0.0000 0.0000 23.8330 0.0000
# 6 0.0000 0.0000 0.0000 0.0000 0.0000 31.9636
#
#
#
# Elastic Compliance Matrix: (Units=1/GPa)
#
#
# Indices 1 2 3 4 5 6 
#
# 1 0.015334 -0.004774 -0.000710 0.000000 0.000000 0.000000
# 2 -0.004774 0.010553 -0.005645 0.000000 0.000000 0.000000
# 3 -0.000710 -0.005645 0.020804 0.000000 0.000000 0.000000
# 4 0.000000 0.000000 0.000000 0.033493 0.000000 0.000000
# 5 0.000000 0.000000 0.000000 0.000000 0.041959 0.000000
# 6 0.000000 0.000000 0.000000 0.000000 0.000000 0.031286
#
#
# Mechanical properties :
#
#
# Convention : Reuss Voigt Hill
#
# Bulk Modulus (GPa) = 40.92421 51.81090 46.36755
# Shear Modulus (GPa) = 27.19887 28.92343 28.06115
#
# Velocity S-wave (km/s) = 3.56993 3.68137 3.62608
# Velocity P-wave (km/s) = 6.01400 6.50743 6.26557
#
# Compressibility (1/GPa) = 0.02443541
#
# Stress axis : x y z
#
# Youngs Moduli (GPa) = 65.21329 94.75598 48.06713
#
# Poissons Ratio (x) = 0.45239 0.03410
# Poissons Ratio (y) = 0.31134 0.27132
# Poissons Ratio (z) = 0.04627 0.53485
#
# Static dielectric constant tensor:
#      x y z
#    x 3.847880 0.000000 0.000000 
#    y 0.000000 3.767880 0.000000 
#    z 0.000000 0.000000 3.446080 
# 
# 
# High freq. dielectric constant tensor:
#      x y z
#    x 1.843000 0.000000 0.000000 
#    y 0.000000 1.822980 0.000000 
#    z 0.000000 0.000000 1.811650 
# 
# From -- ./inp_files/7518.got.cif
#   From: 2010.03.12/outbox.cif.g09.slc.cpg/sg56_4_cif.got.tgz:7518.got - 2010.04.16 15:33:40.
