data_PCOD8228449
_publ_section_title
;
Structure prediction by ZEFSAII (Michael W. Deem and Ramdas Pophale) SiO2 
 PCOD8228449
Probable space group: P C C N
;
_chemical_formula_sum "Si O2"
_cell_formula_units_Z 32
_cell_length_a 12.866092
_cell_length_b 13.585611
_cell_length_c 8.748573
_cell_angle_alpha 90.000000
_cell_angle_beta 90.000000
_cell_angle_gamma 90.000000
_cell_volume 1529.195628
_symmetry_space_group_name_H-M "P C C N"
_symmetry_group_IT_number 56
_symmetry_cell_setting 'orthorhombic'
loop_
_space_group_symop_operation_xyz
x,y,z
1/2-x,1/2-y,z
1/2+x,-y,1/2-z
-x,1/2+y,1/2-z
-x,-y,-z
1/2+x,1/2+y,-z
1/2-x,y,1/2+z
x,1/2-y,1/2+z
loop_
_atom_site_type_symbol
_atom_site_label
_atom_site_fract_x
_atom_site_fract_y
_atom_site_fract_z
Si Si1 0.655476 0.057736 0.710821
Si Si2 0.055050 0.370715 0.200648
Si Si3 0.013127 0.801071 0.621787
Si Si4 0.358048 0.618949 0.123258
O O1 0.552354 0.113958 0.765899
O O2 0.658173 0.054066 0.527658
O O3 0.755429 0.114219 0.774364
O O4 0.651051 0.944860 0.771601
O O5 0.071692 0.265957 0.287312
O O6 0.951678 0.422971 0.271477
O O7 0.041265 0.351735 0.021560
O O8 0.112362 0.731783 0.574335
#
# Coordination Sequence:
#
# PCOD8228449 Si02
#       4
#     8   8   8   8
#     4  12  21  38  64  91 126 163 204 259 320 358
#     4  10  22  38  64  90 124 164 207 259 306 374
#     4  10  20  38  58  92 123 155 207 256 308 363
#     4  10  22  36  59  94 125 155 212 256 303 367
#
# _framework density 20.926033
#
# number of rings (size 3 to 8) (size 9 to 14) (size 15 to 20)
#    1.500    0.000    2.500    3.750    0.000    2.000 
#    0.000    0.000    0.000   12.000    0.000    0.000 
#    0.000    0.000    0.000    0.000    0.000    0.000 
#
# Total GULP energy -396608.381310 kJ/mol
# GULP energy per Si atom -12394.011916 kJ/mol
# Density = 2.087840 g / cm^3
# Si number density = 20.926033 Si / 1000 Ang^3
#
#
#
# Elastic Constant Matrix: (Units=GPa)
#
#
# Indices 1 2 3 4 5 6 
#
# 1 14.5165 7.0424 1.2059 0.0000 0.0000 0.0000
# 2 7.0424 59.5853 2.3589 0.0000 0.0000 0.0000
# 3 1.2059 2.3589 89.9559 0.0000 0.0000 0.0000
# 4 0.0000 0.0000 0.0000 24.4284 0.0000 0.0000
# 5 0.0000 0.0000 0.0000 0.0000 19.2531 0.0000
# 6 0.0000 0.0000 0.0000 0.0000 0.0000 28.7558
#
#
#
# Elastic Compliance Matrix: (Units=1/GPa)
#
#
# Indices 1 2 3 4 5 6 
#
# 1 0.073128 -0.008613 -0.000754 0.000000 0.000000 0.000000
# 2 -0.008613 0.017815 -0.000352 0.000000 0.000000 0.000000
# 3 -0.000754 -0.000352 0.011136 0.000000 0.000000 0.000000
# 4 0.000000 0.000000 0.000000 0.040936 0.000000 0.000000
# 5 0.000000 0.000000 0.000000 0.000000 0.051940 0.000000
# 6 0.000000 0.000000 0.000000 0.000000 0.000000 0.034776
#
#
# Mechanical properties :
#
#
# Convention : Reuss Voigt Hill
#
# Bulk Modulus (GPa) = 12.10063 20.58577 16.34320
# Shear Modulus (GPa) = 18.06909 24.71749 21.39329
#
# Velocity S-wave (km/s) = 2.94168 3.44056 3.20086
# Velocity P-wave (km/s) = 4.16331 5.06380 4.63547
#
# Compressibility (1/GPa) = 0.08264031
#
# Stress axis : x y z
#
# Youngs Moduli (GPa) = 13.67456 56.13377 89.79970
#
# Poissons Ratio (x) = 0.48349 0.06775
# Poissons Ratio (y) = 0.11778 0.03158
# Poissons Ratio (z) = 0.01032 0.01974
#
# Static dielectric constant tensor:
#      x y z
#    x 3.276740 0.000000 0.000000 
#    y 0.000000 3.657490 0.000000 
#    z 0.000000 0.000000 3.638790 
# 
# 
# High freq. dielectric constant tensor:
#      x y z
#    x 1.770910 0.000000 0.000000 
#    y 0.000000 1.813650 0.000000 
#    z 0.000000 0.000000 1.830200 
# 
# From -- ./inp_files/2437.got.cif
#   From: 2010.03.12/outbox.cif.g09.slc.cpg/sg56_2_cif.got.tgz:2437.got - 2010.04.16 15:33:40.
