data_PCOD8228612
_publ_section_title
;
Structure prediction by ZEFSAII (Michael W. Deem and Ramdas Pophale) SiO2 
 PCOD8228612
Probable space group: P C C N
;
_chemical_formula_sum "Si O2"
_cell_formula_units_Z 40
_cell_length_a 13.425907
_cell_length_b 15.972736
_cell_length_c 8.919288
_cell_angle_alpha 90.000000
_cell_angle_beta 90.000000
_cell_angle_gamma 90.000000
_cell_volume 1912.727648
_symmetry_space_group_name_H-M "P C C N"
_symmetry_group_IT_number 56
_symmetry_cell_setting 'orthorhombic'
loop_
_space_group_symop_operation_xyz
x,y,z
1/2-x,1/2-y,z
1/2+x,-y,1/2-z
-x,1/2+y,1/2-z
-x,-y,-z
1/2+x,1/2+y,-z
1/2-x,y,1/2+z
x,1/2-y,1/2+z
loop_
_atom_site_type_symbol
_atom_site_label
_atom_site_fract_x
_atom_site_fract_y
_atom_site_fract_z
Si Si1 0.739199 0.438107 0.548773
Si Si2 0.944455 0.691333 0.671613
Si Si3 0.171070 0.675225 0.697663
Si Si4 0.834012 0.686775 0.370670
Si Si5 0.179976 0.050998 0.699650
O O1 0.675011 0.372090 0.643338
O O2 0.811447 0.389407 0.436046
O O3 0.810756 0.491808 0.655916
O O4 0.664273 0.496500 0.451442
O O5 0.912194 0.669898 0.502865
O O6 0.889655 0.775063 0.726885
O O7 0.913378 0.613244 0.778369
O O8 0.060825 0.711252 0.679130
O O9 0.250000 0.750000 0.693623
O O10 0.750000 0.750000 0.432489
O O11 0.784306 0.600736 0.316605
#
# Coordination Sequence:
#
# PCOD8228612 Si02
#       5
#     8   8   8   8   8
#     4  10  23  43  65  88 130 172 200 280 312 362
#     4  11  24  38  69  97 124 176 207 258 321 381
#     4  11  26  45  64  88 130 172 225 255 307 382
#     4  10  21  39  66  99 130 158 206 267 325 377
#     4  10  20  43  66  96 130 153 213 265 330 372
#
# _framework density 20.912544
#
# number of rings (size 3 to 8) (size 9 to 14) (size 15 to 20)
#    0.000    1.600    2.000    2.400    8.400    1.600 
#    0.000    0.000    0.000    0.000    0.000    0.000 
#    0.000    0.000    0.000    0.000    0.000    0.000 
#
# Total GULP energy -496112.889895 kJ/mol
# GULP energy per Si atom -12402.822247 kJ/mol
# Density = 2.086495 g / cm^3
# Si number density = 20.912544 Si / 1000 Ang^3
#
#
#
# Elastic Constant Matrix: (Units=GPa)
#
#
# Indices 1 2 3 4 5 6 
#
# 1 125.3525 40.1371 30.4853 0.0000 0.0000 0.0000
# 2 40.1371 103.0600 38.4177 0.0000 0.0000 0.0000
# 3 30.4853 38.4177 110.1990 0.0000 0.0000 0.0000
# 4 0.0000 0.0000 0.0000 26.1700 0.0000 0.0000
# 5 0.0000 0.0000 0.0000 0.0000 24.0492 0.0000
# 6 0.0000 0.0000 0.0000 0.0000 0.0000 21.3967
#
#
#
# Elastic Compliance Matrix: (Units=1/GPa)
#
#
# Indices 1 2 3 4 5 6 
#
# 1 0.009328 -0.003070 -0.001510 0.000000 0.000000 0.000000
# 2 -0.003070 0.012163 -0.003391 0.000000 0.000000 0.000000
# 3 -0.001510 -0.003391 0.010674 0.000000 0.000000 0.000000
# 4 0.000000 0.000000 0.000000 0.038212 0.000000 0.000000
# 5 0.000000 0.000000 0.000000 0.000000 0.041581 0.000000
# 6 0.000000 0.000000 0.000000 0.000000 0.000000 0.046736
#
#
# Mechanical properties :
#
#
# Convention : Reuss Voigt Hill
#
# Bulk Modulus (GPa) = 61.64104 61.85463 61.74784
# Shear Modulus (GPa) = 27.77105 29.62793 28.69949
#
# Velocity S-wave (km/s) = 3.64807 3.76806 3.70855
# Velocity P-wave (km/s) = 6.87635 6.96944 6.92305
#
# Compressibility (1/GPa) = 0.01622296
#
# Stress axis : x y z
#
# Youngs Moduli (GPa) = 107.20760 82.21885 93.68172
#
# Poissons Ratio (x) = 0.25239 0.14148
# Poissons Ratio (y) = 0.32910 0.31767
# Poissons Ratio (z) = 0.16191 0.27880
#
# Static dielectric constant tensor:
#      x y z
#    x 3.382760 0.000000 0.000000 
#    y 0.000000 3.943240 0.000000 
#    z 0.000000 0.000000 3.951610 
# 
# 
# High freq. dielectric constant tensor:
#      x y z
#    x 1.786360 0.000000 0.000000 
#    y 0.000000 1.827710 0.000000 
#    z 0.000000 0.000000 1.835520 
# 
# From -- ./inp_files/2562.got.cif
#   From: 2010.03.12/outbox.cif.g09.slc.cpg/sg56_2_cif.got.tgz:2562.got - 2010.04.16 15:33:40.
