data_PCOD8228248
_publ_section_title
;
Structure prediction by ZEFSAII (Michael W. Deem and Ramdas Pophale) SiO2 
 PCOD8228248
Probable space group: P C C N
;
_chemical_formula_sum "Si O2"
_cell_formula_units_Z 48
_cell_length_a 16.174898
_cell_length_b 16.251053
_cell_length_c 9.421863
_cell_angle_alpha 90.000000
_cell_angle_beta 90.000000
_cell_angle_gamma 90.000000
_cell_volume 2476.622661
_symmetry_space_group_name_H-M "P C C N"
_symmetry_group_IT_number 56
_symmetry_cell_setting 'orthorhombic'
loop_
_space_group_symop_operation_xyz
x,y,z
1/2-x,1/2-y,z
1/2+x,-y,1/2-z
-x,1/2+y,1/2-z
-x,-y,-z
1/2+x,1/2+y,-z
1/2-x,y,1/2+z
x,1/2-y,1/2+z
loop_
_atom_site_type_symbol
_atom_site_label
_atom_site_fract_x
_atom_site_fract_y
_atom_site_fract_z
Si Si1 0.961226 0.566998 0.325713
Si Si2 0.502545 0.347245 0.892641
Si Si3 0.070635 0.066252 0.663973
Si Si4 0.840574 0.066125 0.783017
Si Si5 0.321469 0.932377 0.049337
Si Si6 0.516524 0.161181 0.916127
O O1 0.870256 0.525839 0.329422
O O2 0.993838 0.586317 0.482336
O O3 0.018599 0.503489 0.242560
O O4 0.966565 0.650103 0.232026
O O5 0.424602 0.360458 0.782503
O O6 0.586979 0.366538 0.806812
O O7 0.505116 0.256281 0.957697
O O8 0.155046 0.023878 0.610334
O O9 0.021698 0.099161 0.529175
O O10 0.812348 0.065729 0.619933
O O11 0.765226 0.093026 0.882711
O O12 0.387024 0.862757 0.097336
#
# Coordination Sequence:
#
# PCOD8228248 Si02
#       6
#     8   8   8   8   8   8
#     4  10  20  37  62  85 115 155 208 244 276 354
#     4  11  23  35  63  93 119 147 204 247 302 351
#     4  10  19  41  60  82 115 160 202 243 285 345
#     4  11  23  39  57  89 116 158 195 239 293 356
#     4  11  23  38  62  82 122 156 196 238 295 351
#     4  11  20  40  61  88 118 159 189 252 302 347
#
# _framework density 19.381233999999999
#
# number of rings (size 3 to 8) (size 9 to 14) (size 15 to 20)
#    0.000    1.333    5.000    4.000    7.000    0.667 
#    0.000    1.667    0.000    6.000    0.000    0.000 
#    0.000    0.000    0.000    0.000    0.000    0.000 
#
# Total GULP energy -594824.352341 kJ/mol
# GULP energy per Si atom -12392.174007 kJ/mol
# Density = 1.933712 g / cm^3
# Si number density = 19.381234 Si / 1000 Ang^3
#
#
#
# Elastic Constant Matrix: (Units=GPa)
#
#
# Indices 1 2 3 4 5 6 
#
# 1 13.4602 12.9155 11.3310 0.0000 0.0000 0.0000
# 2 12.9155 77.0793 11.9647 0.0000 0.0000 0.0000
# 3 11.3310 11.9647 112.7989 0.0000 0.0000 0.0000
# 4 0.0000 0.0000 0.0000 29.5578 0.0000 0.0000
# 5 0.0000 0.0000 0.0000 0.0000 34.3456 0.0000
# 6 0.0000 0.0000 0.0000 0.0000 0.0000 13.9685
#
#
#
# Elastic Compliance Matrix: (Units=1/GPa)
#
#
# Indices 1 2 3 4 5 6 
#
# 1 0.095129 -0.014699 -0.007997 0.000000 0.000000 0.000000
# 2 -0.014699 0.015462 -0.000164 0.000000 0.000000 0.000000
# 3 -0.007997 -0.000164 0.009686 0.000000 0.000000 0.000000
# 4 0.000000 0.000000 0.000000 0.033832 0.000000 0.000000
# 5 0.000000 0.000000 0.000000 0.000000 0.029116 0.000000
# 6 0.000000 0.000000 0.000000 0.000000 0.000000 0.071590
#
#
# Mechanical properties :
#
#
# Convention : Reuss Voigt Hill
#
# Bulk Modulus (GPa) = 13.41228 30.64010 22.02619
# Shear Modulus (GPa) = 15.36642 26.71618 21.04130
#
# Velocity S-wave (km/s) = 2.81881 3.71678 3.29850
# Velocity P-wave (km/s) = 4.18683 5.85344 5.08883
#
# Compressibility (1/GPa) = 0.07455854
#
# Stress axis : x y z
#
# Youngs Moduli (GPa) = 10.51208 64.67486 103.24184
#
# Poissons Ratio (x) = 0.95063 0.82561
# Poissons Ratio (y) = 0.15451 0.01689
# Poissons Ratio (z) = 0.08406 0.01058
#
# Static dielectric constant tensor:
#      x y z
#    x 3.379810 0.000000 0.000000 
#    y 0.000000 3.761850 0.000000 
#    z 0.000000 0.000000 3.901020 
# 
# 
# High freq. dielectric constant tensor:
#      x y z
#    x 1.713950 0.000000 0.000000 
#    y 0.000000 1.744250 0.000000 
#    z 0.000000 0.000000 1.783180 
# 
# From -- ./inp_files/3401.got.cif
#   From: 2010.03.12/outbox.cif.g09.slc.cpg/sg56_2_cif.got.tgz:3401.got - 2010.04.16 15:33:40.
