data_PCOD8228564
_publ_section_title
;
Structure prediction by ZEFSAII (Michael W. Deem and Ramdas Pophale) SiO2 
 PCOD8228564
Probable space group: P C C N
;
_chemical_formula_sum "Si O2"
_cell_formula_units_Z 64
_cell_length_a 16.577465
_cell_length_b 8.942186
_cell_length_c 20.509666
_cell_angle_alpha 90.000000
_cell_angle_beta 90.000000
_cell_angle_gamma 90.000000
_cell_volume 3040.327772
_symmetry_space_group_name_H-M "P C C N"
_symmetry_group_IT_number 56
_symmetry_cell_setting 'orthorhombic'
loop_
_space_group_symop_operation_xyz
x,y,z
1/2-x,1/2-y,z
1/2+x,-y,1/2-z
-x,1/2+y,1/2-z
-x,-y,-z
1/2+x,1/2+y,-z
1/2-x,y,1/2+z
x,1/2-y,1/2+z
loop_
_atom_site_type_symbol
_atom_site_label
_atom_site_fract_x
_atom_site_fract_y
_atom_site_fract_z
Si Si1 0.272615 0.079994 0.584488
Si Si2 0.686740 0.029767 0.649223
Si Si3 0.425877 0.705735 0.389003
Si Si4 0.720462 0.919566 0.268686
Si Si5 0.967953 0.867441 0.171611
Si Si6 0.043830 0.458723 0.782756
Si Si7 0.292544 0.596261 0.470876
Si Si8 0.543612 0.953075 0.434594
O O1 0.250000 0.250000 0.587457
O O2 0.264966 0.017435 0.658277
O O3 0.361634 0.063895 0.553829
O O4 0.209245 0.000402 0.536659
O O5 0.641436 0.188516 0.644448
O O6 0.748872 0.011107 0.589358
O O7 0.734020 0.025990 0.717553
O O8 0.623229 0.892296 0.645335
O O9 0.449723 0.576598 0.340153
O O10 0.385742 0.627980 0.452416
O O11 0.505314 0.798359 0.408193
O O12 0.750000 0.750000 0.259900
O O13 0.625611 0.927278 0.255905
O O14 0.987736 0.697253 0.188610
O O15 0.977244 0.977520 0.233450
O O16 0.031490 0.913193 0.116472
O O17 0.250000 0.750000 0.488430
O O18 0.500000 0.000000 0.500000
#
# Coordination Sequence:
#
# PCOD8228564 Si02
#       8
#     8   8   8   8   8   8   8   8
#     4  11  25  43  66  94 133 178 217 270 339 411
#     4  10  20  40  66  93 127 167 216 278 326 387
#     4  10  23  40  69  96 130 169 225 278 325 397
#     4  11  22  40  66  97 134 165 219 276 338 390
#     4  11  23  39  65  94 128 174 214 271 335 395
#     4  12  23  41  65  97 131 166 223 273 330 398
#     4  10  21  42  63  96 128 165 217 271 324 393
#     4  11  23  46  68  94 137 180 221 274 347 400
#
# _framework density 21.050360999999999
#
# number of rings (size 3 to 8) (size 9 to 14) (size 15 to 20)
#    0.000    1.250    3.750    3.750    0.000    2.500 
#    2.250    5.000    0.000    0.000    0.000    0.000 
#    0.000    0.000    0.000    0.000    0.000    0.000 
#
# Total GULP energy -793770.415893 kJ/mol
# GULP energy per Si atom -12402.662748 kJ/mol
# Density = 2.100245 g / cm^3
# Si number density = 21.050361 Si / 1000 Ang^3
#
#
#
# Elastic Constant Matrix: (Units=GPa)
#
#
# Indices 1 2 3 4 5 6 
#
# 1 48.5837 9.0762 14.7689 0.0000 0.0000 0.0000
# 2 9.0762 98.3769 56.2132 0.0000 0.0000 0.0000
# 3 14.7689 56.2132 134.5166 0.0000 0.0000 0.0000
# 4 0.0000 0.0000 0.0000 2.5028 0.0000 0.0000
# 5 0.0000 0.0000 0.0000 0.0000 30.8640 0.0000
# 6 0.0000 0.0000 0.0000 0.0000 0.0000 25.4847
#
#
#
# Elastic Compliance Matrix: (Units=1/GPa)
#
#
# Indices 1 2 3 4 5 6 
#
# 1 0.021345 -0.000828 -0.001998 0.000000 0.000000 0.000000
# 2 -0.000828 0.013386 -0.005503 0.000000 0.000000 0.000000
# 3 -0.001998 -0.005503 0.009953 0.000000 0.000000 0.000000
# 4 0.000000 0.000000 0.000000 0.399557 0.000000 0.000000
# 5 0.000000 0.000000 0.000000 0.000000 0.032400 0.000000
# 6 0.000000 0.000000 0.000000 0.000000 0.000000 0.039239
#
#
# Mechanical properties :
#
#
# Convention : Reuss Voigt Hill
#
# Bulk Modulus (GPa) = 35.67985 49.06598 42.37291
# Shear Modulus (GPa) = 9.22715 25.19822 17.21268
#
# Velocity S-wave (km/s) = 2.09592 3.46359 2.86263
# Velocity P-wave (km/s) = 4.77951 6.27333 5.57667
#
# Compressibility (1/GPa) = 0.02802703
#
# Stress axis : x y z
#
# Youngs Moduli (GPa) = 46.84957 74.70633 100.47273
#
# Poissons Ratio (x) = 0.06185 0.20070
# Poissons Ratio (y) = 0.03878 0.55289
# Poissons Ratio (z) = 0.09358 0.41110
#
# Static dielectric constant tensor:
#      x y z
#    x 3.831100 0.000000 0.000000 
#    y 0.000000 3.755000 0.000000 
#    z 0.000000 0.000000 4.084210 
# 
# 
# High freq. dielectric constant tensor:
#      x y z
#    x 1.821160 0.000000 0.000000 
#    y 0.000000 1.817970 0.000000 
#    z 0.000000 0.000000 1.833680 
# 
# From -- ./inp_files/19323.got.cif
#   From: 2010.03.12/outbox.cif.g09.slc.cpg/sg56_10_cif.got.tgz:19323.got - 2010.04.16 15:33:40.
