data_PCOD8228500
_publ_section_title
;
Structure prediction by ZEFSAII (Michael W. Deem and Ramdas Pophale) SiO2 
 PCOD8228500
Probable space group: P C C N
;
_chemical_formula_sum "Si O2"
_cell_formula_units_Z 40
_cell_length_a 8.653524
_cell_length_b 8.504719
_cell_length_c 23.677509
_cell_angle_alpha 90.000000
_cell_angle_beta 90.000000
_cell_angle_gamma 90.000000
_cell_volume 1742.564980
_symmetry_space_group_name_H-M "P C C N"
_symmetry_group_IT_number 56
_symmetry_cell_setting 'orthorhombic'
loop_
_space_group_symop_operation_xyz
x,y,z
1/2-x,1/2-y,z
1/2+x,-y,1/2-z
-x,1/2+y,1/2-z
-x,-y,-z
1/2+x,1/2+y,-z
1/2-x,y,1/2+z
x,1/2-y,1/2+z
loop_
_atom_site_type_symbol
_atom_site_label
_atom_site_fract_x
_atom_site_fract_y
_atom_site_fract_z
Si Si1 0.932756 0.573543 0.555865
Si Si2 0.942814 0.934629 0.326448
Si Si3 0.146956 0.894258 0.151718
Si Si4 0.075895 0.216410 0.266050
Si Si5 0.921115 0.947603 0.557785
O O1 0.940748 0.761607 0.561058
O O2 0.759177 0.508544 0.560926
O O3 0.000000 0.500000 0.500000
O O4 0.046278 0.513852 0.604864
O O5 0.955437 0.757728 0.300753
O O6 0.761576 0.977553 0.321268
O O7 0.038009 0.038173 0.281282
O O8 0.999858 0.957973 0.390517
O O9 0.250000 0.750000 0.125844
O O10 0.033455 0.829434 0.198341
O O11 0.250000 0.250000 0.285353
O O12 0.000000 0.000000 0.500000
#
# Coordination Sequence:
#
# PCOD8228500 Si02
#       5
#     8   8   8   8   8
#     4  11  23  41  72  96 129 177 220 270 333 396
#     4  11  23  42  68  96 133 175 217 276 327 394
#     4  10  20  38  66  91 130 173 210 269 335 378
#     4  11  22  41  67  94 132 173 220 267 329 388
#     4  11  24  45  69  98 134 171 219 276 336 388
#
# _framework density 22.954667000000001
#
# number of rings (size 3 to 8) (size 9 to 14) (size 15 to 20)
#    0.000    1.200    4.000    3.600    0.000    0.000 
#   10.800    2.000    4.400    0.000    0.000    0.000 
#    0.000    0.000    0.000    0.000    0.000    0.000 
#
# Total GULP energy -495768.486965 kJ/mol
# GULP energy per Si atom -12394.212174 kJ/mol
# Density = 2.290242 g / cm^3
# Si number density = 22.954667 Si / 1000 Ang^3
#
#
#
# Elastic Constant Matrix: (Units=GPa)
#
#
# Indices 1 2 3 4 5 6 
#
# 1 166.4703 12.2535 44.2123 0.0000 0.0000 0.0000
# 2 12.2535 18.0442 35.3394 0.0000 0.0000 0.0000
# 3 44.2123 35.3394 121.0795 0.0000 0.0000 0.0000
# 4 0.0000 0.0000 0.0000 25.3058 0.0000 0.0000
# 5 0.0000 0.0000 0.0000 0.0000 27.5910 0.0000
# 6 0.0000 0.0000 0.0000 0.0000 0.0000 23.6102
#
#
#
# Elastic Compliance Matrix: (Units=1/GPa)
#
#
# Indices 1 2 3 4 5 6 
#
# 1 0.006655 0.000560 -0.002593 0.000000 0.000000 0.000000
# 2 0.000560 0.129418 -0.037978 0.000000 0.000000 0.000000
# 3 -0.002593 -0.037978 0.020291 0.000000 0.000000 0.000000
# 4 0.000000 0.000000 0.000000 0.039517 0.000000 0.000000
# 5 0.000000 0.000000 0.000000 0.000000 0.036244 0.000000
# 6 0.000000 0.000000 0.000000 0.000000 0.000000 0.042355
#
#
# Mechanical properties :
#
#
# Convention : Reuss Voigt Hill
#
# Bulk Modulus (GPa) = 13.09903 54.35604 33.72753
# Shear Modulus (GPa) = 13.15970 29.55399 21.35685
#
# Velocity S-wave (km/s) = 2.39695 3.59206 3.05354
# Velocity P-wave (km/s) = 3.65778 6.39805 5.21125
#
# Compressibility (1/GPa) = 0.07634153
#
# Stress axis : x y z
#
# Youngs Moduli (GPa) = 150.27136 7.72687 49.28393
#
# Poissons Ratio (x) = -0.00433 0.12781
# Poissons Ratio (y) = -0.08418 1.87170
# Poissons Ratio (z) = 0.38972 0.29345
#
# Static dielectric constant tensor:
#      x y z
#    x 4.569820 0.000000 0.000000 
#    y 0.000000 4.221650 0.000000 
#    z 0.000000 0.000000 6.264590 
# 
# 
# High freq. dielectric constant tensor:
#      x y z
#    x 1.933350 0.000000 0.000000 
#    y 0.000000 1.890340 0.000000 
#    z 0.000000 0.000000 1.910950 
# 
# From -- ./inp_files/20310.got.cif
#   From: 2010.03.12/outbox.cif.g09.slc.cpg/sg56_11_cif.got.tgz:20310.got - 2010.04.16 15:33:40.
