data_PCOD8228164
_publ_section_title
;
Structure prediction by ZEFSAII (Michael W. Deem and Ramdas Pophale) SiO2 
 PCOD8228164
Probable space group: P C C N
;
_chemical_formula_sum "Si O2"
_cell_formula_units_Z 60
_cell_length_a 11.310248
_cell_length_b 22.613736
_cell_length_c 9.531027
_cell_angle_alpha 90.000000
_cell_angle_beta 90.000000
_cell_angle_gamma 90.000000
_cell_volume 2437.721824
_symmetry_space_group_name_H-M "P C C N"
_symmetry_group_IT_number 56
_symmetry_cell_setting 'orthorhombic'
loop_
_space_group_symop_operation_xyz
x,y,z
1/2-x,1/2-y,z
1/2+x,-y,1/2-z
-x,1/2+y,1/2-z
-x,-y,-z
1/2+x,1/2+y,-z
1/2-x,y,1/2+z
x,1/2-y,1/2+z
loop_
_atom_site_type_symbol
_atom_site_label
_atom_site_fract_x
_atom_site_fract_y
_atom_site_fract_z
Si Si1 0.514229 0.300344 0.206447
Si Si2 0.703890 0.940511 0.129428
Si Si3 0.250000 0.750000 0.240479
Si Si4 0.184970 0.128425 0.103909
Si Si5 0.256400 0.927139 0.896729
Si Si6 0.480958 0.615209 0.536967
Si Si7 0.076139 0.322945 0.219270
Si Si8 0.136542 0.635112 0.632648
O O1 0.646207 0.278453 0.160713
O O2 0.432095 0.330461 0.086562
O O3 0.531935 0.351661 0.317761
O O4 0.438996 0.245049 0.265880
O O5 0.672624 0.928183 0.292692
O O6 0.769005 0.003152 0.116702
O O7 0.787269 0.890697 0.055402
O O8 0.582283 0.935297 0.041465
O O9 0.310232 0.701492 0.138766
O O10 0.287347 0.163818 0.188879
O O11 0.362872 0.919701 0.005155
O O12 0.287328 0.902994 0.743831
O O13 0.147715 0.892707 0.974681
O O14 0.505450 0.666806 0.425653
O O15 0.003872 0.364949 0.329584
#
# Coordination Sequence:
#
# PCOD8228164 Si02
#       8
#     8   8   4   8   8   8   8   8
#     4  10  19  36  60  86 117 156 199 249 305 371
#     4  10  21  37  61  85 118 160 209 256 298 363
#     4  10  20  40  56  92 118 152 196 248 306 372
#     4  10  21  39  59  88 120 157 205 250 308 364
#     4  11  20  39  58  86 118 160 207 254 306 359
#     4   9  19  36  58  83 115 162 207 244 304 370
#     4   9  20  37  55  86 122 157 196 252 309 372
#     4  10  22  37  60  85 121 157 200 251 309 369
#
# _framework density 24.613144999999999
#
# number of rings (size 3 to 8) (size 9 to 14) (size 15 to 20)
#    0.000    2.133    1.333    1.600    0.000    1.600 
#    9.600    4.667    0.000    0.000    0.000    0.000 
#    0.000    0.000    0.000    0.000    0.000    0.000 
#
# Total GULP energy -743296.118486 kJ/mol
# GULP energy per Si atom -12388.268641 kJ/mol
# Density = 2.455712 g / cm^3
# Si number density = 24.613145 Si / 1000 Ang^3
#
#
#
# Elastic Constant Matrix: (Units=GPa)
#
#
# Indices 1 2 3 4 5 6 
#
# 1 97.7237 20.8549 -4.8230 0.0000 0.0000 0.0000
# 2 20.8549 99.6829 9.6452 0.0000 0.0000 0.0000
# 3 -4.8230 9.6452 72.9860 0.0000 0.0000 0.0000
# 4 0.0000 0.0000 0.0000 19.5666 0.0000 0.0000
# 5 0.0000 0.0000 0.0000 0.0000 26.7619 0.0000
# 6 0.0000 0.0000 0.0000 0.0000 0.0000 30.8163
#
#
#
# Elastic Compliance Matrix: (Units=1/GPa)
#
#
# Indices 1 2 3 4 5 6 
#
# 1 0.010786 -0.002356 0.001024 0.000000 0.000000 0.000000
# 2 -0.002356 0.010676 -0.001567 0.000000 0.000000 0.000000
# 3 0.001024 -0.001567 0.013976 0.000000 0.000000 0.000000
# 4 0.000000 0.000000 0.000000 0.051108 0.000000 0.000000
# 5 0.000000 0.000000 0.000000 0.000000 0.037367 0.000000
# 6 0.000000 0.000000 0.000000 0.000000 0.000000 0.032450
#
#
# Mechanical properties :
#
#
# Convention : Reuss Voigt Hill
#
# Bulk Modulus (GPa) = 33.73588 35.74966 34.74277
# Shear Modulus (GPa) = 29.06301 31.74331 30.40316
#
# Velocity S-wave (km/s) = 3.43999 3.59512 3.51841
# Velocity P-wave (km/s) = 5.43270 5.63820 5.53641
#
# Compressibility (1/GPa) = 0.02964203
#
# Stress axis : x y z
#
# Youngs Moduli (GPa) = 92.71114 93.66604 71.55151
#
# Poissons Ratio (x) = 0.22065 -0.07327
# Poissons Ratio (y) = 0.21840 0.11209
# Poissons Ratio (z) = -0.09494 0.14673
#
# Static dielectric constant tensor:
#      x y z
#    x 4.754300 0.000000 0.000000 
#    y 0.000000 4.224770 0.000000 
#    z 0.000000 0.000000 4.201540 
# 
# 
# High freq. dielectric constant tensor:
#      x y z
#    x 1.985620 0.000000 0.000000 
#    y 0.000000 1.963240 0.000000 
#    z 0.000000 0.000000 1.968990 
# 
# From -- ./inp_files/7331.got.cif
#   From: 2010.03.12/outbox.cif.g09.slc.cpg/sg56_4_cif.got.tgz:7331.got - 2010.04.16 15:33:40.
