data_PCOD8228799
_publ_section_title
;
Structure prediction by ZEFSAII (Michael W. Deem and Ramdas Pophale) SiO2 
 PCOD8228799
Probable space group: P C C N
;
_chemical_formula_sum "Si O2"
_cell_formula_units_Z 40
_cell_length_a 23.606102
_cell_length_b 5.706758
_cell_length_c 13.140140
_cell_angle_alpha 90.000000
_cell_angle_beta 90.000000
_cell_angle_gamma 90.000000
_cell_volume 1770.164912
_symmetry_space_group_name_H-M "P C C N"
_symmetry_group_IT_number 56
_symmetry_cell_setting 'orthorhombic'
loop_
_space_group_symop_operation_xyz
x,y,z
1/2-x,1/2-y,z
1/2+x,-y,1/2-z
-x,1/2+y,1/2-z
-x,-y,-z
1/2+x,1/2+y,-z
1/2-x,y,1/2+z
x,1/2-y,1/2+z
loop_
_atom_site_type_symbol
_atom_site_label
_atom_site_fract_x
_atom_site_fract_y
_atom_site_fract_z
Si Si1 0.967772 0.521839 0.236512
Si Si2 0.876771 0.322144 0.371773
Si Si3 0.309341 0.360849 0.994781
Si Si4 0.812037 0.324685 0.688895
Si Si5 0.608970 0.022340 0.052152
O O1 0.917422 0.513066 0.318898
O O2 0.944566 0.541134 0.121588
O O3 0.001193 0.765083 0.256129
O O4 0.821210 0.436485 0.423237
O O5 0.852414 0.139850 0.287209
O O6 0.912014 0.191604 0.460717
O O7 0.250000 0.250000 0.027766
O O8 0.307114 0.440173 0.876936
O O9 0.364303 0.198594 0.004551
O O10 0.750000 0.250000 0.724790
O O11 0.839636 0.126996 0.617897
#
# Coordination Sequence:
#
# PCOD8228799 Si02
#       5
#     8   8   8   8   8
#     4  11  28  50  74 102 140 190 245 307 369 412
#     4  10  26  42  69 103 138 183 241 289 353 439
#     4  11  23  42  69 100 144 184 227 289 357 428
#     4  10  21  40  61  97 143 185 222 278 351 423
#     4  10  24  44  68 101 141 174 238 298 341 434
#
# _framework density 22.596765000000001
#
# number of rings (size 3 to 8) (size 9 to 14) (size 15 to 20)
#    0.000    1.600    2.000    0.000   14.000    3.200 
#    0.000    0.000    0.000    0.000    0.000    0.000 
#    0.000    0.000    0.000    0.000    0.000    0.000 
#
# Total GULP energy -495715.422566 kJ/mol
# GULP energy per Si atom -12392.885564 kJ/mol
# Density = 2.254533 g / cm^3
# Si number density = 22.596765 Si / 1000 Ang^3
#
#
#
# Elastic Constant Matrix: (Units=GPa)
#
#
# Indices 1 2 3 4 5 6 
#
# 1 79.6285 25.5481 33.5996 0.0000 0.0000 0.0000
# 2 25.5481 86.1168 20.5426 0.0000 0.0000 0.0000
# 3 33.5996 20.5426 122.3154 0.0000 0.0000 0.0000
# 4 0.0000 0.0000 0.0000 17.9593 0.0000 0.0000
# 5 0.0000 0.0000 0.0000 0.0000 1.8985 0.0000
# 6 0.0000 0.0000 0.0000 0.0000 0.0000 40.6824
#
#
#
# Elastic Compliance Matrix: (Units=1/GPa)
#
#
# Indices 1 2 3 4 5 6 
#
# 1 0.015243 -0.003670 -0.003571 0.000000 0.000000 0.000000
# 2 -0.003670 0.012981 -0.001172 0.000000 0.000000 0.000000
# 3 -0.003571 -0.001172 0.009353 0.000000 0.000000 0.000000
# 4 0.000000 0.000000 0.000000 0.055682 0.000000 0.000000
# 5 0.000000 0.000000 0.000000 0.000000 0.526733 0.000000
# 6 0.000000 0.000000 0.000000 0.000000 0.000000 0.024581
#
#
# Mechanical properties :
#
#
# Convention : Reuss Voigt Hill
#
# Bulk Modulus (GPa) = 48.19086 49.71571 48.95329
# Shear Modulus (GPa) = 7.48151 25.99939 16.74045
#
# Velocity S-wave (km/s) = 1.82156 3.39570 2.72478
# Velocity P-wave (km/s) = 5.07906 6.11747 5.62229
#
# Compressibility (1/GPa) = 0.02075082
#
# Stress axis : x y z
#
# Youngs Moduli (GPa) = 65.60591 77.03856 106.91480
#
# Poissons Ratio (x) = 0.28275 0.38176
# Poissons Ratio (y) = 0.24079 0.12529
# Poissons Ratio (z) = 0.23426 0.09028
#
# Static dielectric constant tensor:
#      x y z
#    x 3.917860 0.000000 0.000000 
#    y 0.000000 3.974570 0.000000 
#    z 0.000000 0.000000 4.255520 
# 
# 
# High freq. dielectric constant tensor:
#      x y z
#    x 1.883400 0.000000 0.000000 
#    y 0.000000 1.879800 0.000000 
#    z 0.000000 0.000000 1.905870 
# 
# From -- ./inp_files/5631.got.cif
#   From: 2010.03.12/outbox.cif.g09.slc.cpg/sg56_3_cif.got.tgz:5631.got - 2010.04.16 15:33:40.
