data_PCOD8228076
_publ_section_title
;
Structure prediction by ZEFSAII (Michael W. Deem and Ramdas Pophale) SiO2 
 PCOD8228076
Probable space group: P C C N
;
_chemical_formula_sum "Si O2"
_cell_formula_units_Z 60
_cell_length_a 6.016243
_cell_length_b 27.105586
_cell_length_c 19.739771
_cell_angle_alpha 90.000000
_cell_angle_beta 90.000000
_cell_angle_gamma 90.000000
_cell_volume 3219.039311
_symmetry_space_group_name_H-M "P C C N"
_symmetry_group_IT_number 56
_symmetry_cell_setting 'orthorhombic'
loop_
_space_group_symop_operation_xyz
x,y,z
1/2-x,1/2-y,z
1/2+x,-y,1/2-z
-x,1/2+y,1/2-z
-x,-y,-z
1/2+x,1/2+y,-z
1/2-x,y,1/2+z
x,1/2-y,1/2+z
loop_
_atom_site_type_symbol
_atom_site_label
_atom_site_fract_x
_atom_site_fract_y
_atom_site_fract_z
Si Si1 0.025507 0.341551 0.258854
Si Si2 0.000798 0.558100 0.919602
Si Si3 0.571905 0.059476 0.325367
Si Si4 0.169000 0.960975 0.803209
Si Si5 0.250000 0.250000 0.759985
Si Si6 0.866227 0.202819 0.172956
Si Si7 0.843340 0.880294 0.856152
Si Si8 0.703452 0.029483 0.467054
O O1 0.133550 0.295054 0.300854
O O2 0.193054 0.354954 0.199509
O O3 0.013468 0.385919 0.310975
O O4 0.790540 0.327249 0.225143
O O5 0.816847 0.602140 0.918069
O O6 0.886080 0.506930 0.937121
O O7 0.112836 0.554749 0.845523
O O8 0.190620 0.566323 0.976620
O O9 0.779990 0.047484 0.276096
O O10 0.630432 0.062677 0.404290
O O11 0.380985 0.018568 0.314653
O O12 0.956722 0.929477 0.826223
O O13 0.442239 0.228451 0.714103
O O14 0.750000 0.250000 0.134768
O O15 0.971546 0.161098 0.122059
O O16 0.500000 0.000000 0.500000
#
# Coordination Sequence:
#
# PCOD8228076 Si02
#       8
#     8   8   8   8   4   8   8   8
#     4  10  19  32  52  83 113 149 186 239 296 357
#     4  11  21  38  53  73 112 166 199 240 293 346
#     4  12  21  34  55  81 114 159 200 240 290 353
#     4  12  22  36  54  84 118 156 194 241 290 345
#     4   8  18  32  50  76 118 146 170 240 308 348
#     4   9  17  32  52  78 116 145 181 238 306 362
#     4  11  18  34  53  80 115 154 192 236 302 358
#     4  11  23  39  52  73 116 166 200 243 284 353
#
# _framework density 18.639102999999999
#
# number of rings (size 3 to 8) (size 9 to 14) (size 15 to 20)
#    0.000    1.333    5.333    1.600    0.000    0.000 
#    0.000    0.000    0.000    0.000    0.000    0.000 
#    0.000  187.733    0.000    0.000    0.000    0.000 
#
# Total GULP energy -743305.678034 kJ/mol
# GULP energy per Si atom -12388.427967 kJ/mol
# Density = 1.859668 g / cm^3
# Si number density = 18.639103 Si / 1000 Ang^3
#
#
#
# Elastic Constant Matrix: (Units=GPa)
#
#
# Indices 1 2 3 4 5 6 
#
# 1 98.6911 53.7183 32.1248 0.0000 0.0000 0.0000
# 2 53.7183 146.7755 37.6943 0.0000 0.0000 0.0000
# 3 32.1248 37.6943 83.6903 0.0000 0.0000 0.0000
# 4 0.0000 0.0000 0.0000 11.1893 0.0000 0.0000
# 5 0.0000 0.0000 0.0000 0.0000 13.5092 0.0000
# 6 0.0000 0.0000 0.0000 0.0000 0.0000 48.5236
#
#
#
# Elastic Compliance Matrix: (Units=1/GPa)
#
#
# Indices 1 2 3 4 5 6 
#
# 1 0.013424 -0.004059 -0.003325 0.000000 0.000000 0.000000
# 2 -0.004059 0.008932 -0.002465 0.000000 0.000000 0.000000
# 3 -0.003325 -0.002465 0.014335 0.000000 0.000000 0.000000
# 4 0.000000 0.000000 0.000000 0.089371 0.000000 0.000000
# 5 0.000000 0.000000 0.000000 0.000000 0.074024 0.000000
# 6 0.000000 0.000000 0.000000 0.000000 0.000000 0.020609
#
#
# Mechanical properties :
#
#
# Convention : Reuss Voigt Hill
#
# Bulk Modulus (GPa) = 58.84481 64.02574 61.43527
# Shear Modulus (GPa) = 20.32053 28.35237 24.33645
#
# Velocity S-wave (km/s) = 3.30541 3.90439 3.61732
# Velocity P-wave (km/s) = 6.79756 7.39936 7.10483
#
# Compressibility (1/GPa) = 0.01699385
#
# Stress axis : x y z
#
# Youngs Moduli (GPa) = 74.49138 111.95975 69.75884
#
# Poissons Ratio (x) = 0.45448 0.23192
# Poissons Ratio (y) = 0.30239 0.17193
# Poissons Ratio (z) = 0.24766 0.27595
#
# Static dielectric constant tensor:
#      x y z
#    x 4.251070 0.000000 0.000000 
#    y 0.000000 4.236550 0.000000 
#    z 0.000000 0.000000 3.220240 
# 
# 
# High freq. dielectric constant tensor:
#      x y z
#    x 1.751320 0.000000 0.000000 
#    y 0.000000 1.730290 0.000000 
#    z 0.000000 0.000000 1.664950 
# 
# From -- ./inp_files/17736.got.cif
#   From: 2010.03.12/outbox.cif.g09.slc.cpg/sg56_9_cif.got.tgz:17736.got - 2010.04.16 15:33:40.
