data_PCOD8228521
_publ_section_title
;
Structure prediction by ZEFSAII (Michael W. Deem and Ramdas Pophale) SiO2 
 PCOD8228521
Probable space group: P C C N
;
_chemical_formula_sum "Si O2"
_cell_formula_units_Z 48
_cell_length_a 15.220847
_cell_length_b 8.528642
_cell_length_c 18.553655
_cell_angle_alpha 90.000000
_cell_angle_beta 90.000000
_cell_angle_gamma 90.000000
_cell_volume 2408.508492
_symmetry_space_group_name_H-M "P C C N"
_symmetry_group_IT_number 56
_symmetry_cell_setting 'orthorhombic'
loop_
_space_group_symop_operation_xyz
x,y,z
1/2-x,1/2-y,z
1/2+x,-y,1/2-z
-x,1/2+y,1/2-z
-x,-y,-z
1/2+x,1/2+y,-z
1/2-x,y,1/2+z
x,1/2-y,1/2+z
loop_
_atom_site_type_symbol
_atom_site_label
_atom_site_fract_x
_atom_site_fract_y
_atom_site_fract_z
Si Si1 0.342155 0.834526 0.557989
Si Si2 0.992525 0.678072 0.808760
Si Si3 0.655729 0.805719 0.402540
Si Si4 0.415773 0.094827 0.970080
Si Si5 0.520938 0.317568 0.342848
Si Si6 0.347763 0.793076 0.912246
O O1 0.250000 0.750000 0.549178
O O2 0.389735 0.741398 0.621477
O O3 0.384875 0.815775 0.477967
O O4 0.336575 0.014982 0.576281
O O5 0.915361 0.787273 0.839571
O O6 0.967109 0.497802 0.820279
O O7 0.998287 0.708168 0.724159
O O8 0.084914 0.722571 0.845966
O O9 0.750000 0.750000 0.373445
O O10 0.627628 0.703241 0.470756
O O11 0.444185 0.201432 0.902190
O O12 0.343690 0.971108 0.942253
O O13 0.500000 0.000000 0.000000
O O14 0.250000 0.750000 0.884772
#
# Coordination Sequence:
#
# PCOD8228521 Si02
#       6
#     8   8   8   8   8   8
#     4  11  22  37  62  93 123 163 221 263 306 377
#     4  11  23  40  59  90 128 169 205 260 319 383
#     4  12  23  39  66  94 125 166 209 263 322 375
#     4  11  20  43  66  88 126 165 206 266 310 369
#     4  11  22  40  63  88 129 168 212 254 321 368
#     4  10  20  39  64  89 125 163 205 260 315 372
#
# _framework density 19.929345999999999
#
# number of rings (size 3 to 8) (size 9 to 14) (size 15 to 20)
#    0.000    1.000    5.000    4.000    0.000    4.667 
#    0.000    4.167    0.000    0.000    0.000    0.000 
#    0.000    0.000    0.000    0.000    0.000    0.000 
#
# Total GULP energy -595245.335357 kJ/mol
# GULP energy per Si atom -12400.944487 kJ/mol
# Density = 1.988399 g / cm^3
# Si number density = 19.929346 Si / 1000 Ang^3
#
#
#
# Elastic Constant Matrix: (Units=GPa)
#
#
# Indices 1 2 3 4 5 6 
#
# 1 106.5537 40.2518 44.7263 0.0000 0.0000 0.0000
# 2 40.2518 82.0234 11.5198 0.0000 0.0000 0.0000
# 3 44.7263 11.5198 109.8334 0.0000 0.0000 0.0000
# 4 0.0000 0.0000 0.0000 35.6455 0.0000 0.0000
# 5 0.0000 0.0000 0.0000 0.0000 -37.3144 0.0000
# 6 0.0000 0.0000 0.0000 0.0000 0.0000 30.5289
#
#
#
# Elastic Compliance Matrix: (Units=1/GPa)
#
#
# Indices 1 2 3 4 5 6 
#
# 1 0.013757 -0.006053 -0.004967 0.000000 0.000000 0.000000
# 2 -0.006053 0.015037 0.000888 0.000000 0.000000 0.000000
# 3 -0.004967 0.000888 0.011034 0.000000 0.000000 0.000000
# 4 0.000000 0.000000 0.000000 0.028054 0.000000 0.000000
# 5 0.000000 0.000000 0.000000 0.000000 -0.026799 0.000000
# 6 0.000000 0.000000 0.000000 0.000000 0.000000 0.032756
#
#
# Mechanical properties :
#
#
# Convention : Reuss Voigt Hill
#
# Bulk Modulus (GPa) = 51.11600 54.60069 52.85835
# Shear Modulus (GPa) = 49.68945 19.23283 34.46114
#
# Velocity S-wave (km/s) = 4.99869 3.10990 4.16283
# Velocity P-wave (km/s) = 7.68246 6.35231 7.04883
#
# Compressibility (1/GPa) = 0.01956335
#
# Stress axis : x y z
#
# Youngs Moduli (GPa) = 72.69269 66.50044 90.62689
#
# Poissons Ratio (x) = 0.40254 0.45015
# Poissons Ratio (y) = 0.44003 -0.08046
# Poissons Ratio (z) = 0.36107 -0.05904
#
# Static dielectric constant tensor:
#      x y z
#    x 3.775910 0.000000 0.000000 
#    y 0.000000 3.356880 0.000000 
#    z 0.000000 0.000000 3.935720 
# 
# 
# High freq. dielectric constant tensor:
#      x y z
#    x 1.775290 0.000000 0.000000 
#    y 0.000000 1.783910 0.000000 
#    z 0.000000 0.000000 1.778730 
# 
# From -- ./inp_files/14782.got.cif
#   From: 2010.03.12/outbox.cif.g09.slc.cpg/sg56_8_cif.got.tgz:14782.got - 2010.04.16 15:33:40.
