data_PCOD8228479
_publ_section_title
;
Structure prediction by ZEFSAII (Michael W. Deem and Ramdas Pophale) SiO2 
 PCOD8228479
Probable space group: P C C N
;
_chemical_formula_sum "Si O2"
_cell_formula_units_Z 48
_cell_length_a 8.743437
_cell_length_b 23.542087
_cell_length_c 10.525875
_cell_angle_alpha 90.000000
_cell_angle_beta 90.000000
_cell_angle_gamma 90.000000
_cell_volume 2166.633000
_symmetry_space_group_name_H-M "P C C N"
_symmetry_group_IT_number 56
_symmetry_cell_setting 'orthorhombic'
loop_
_space_group_symop_operation_xyz
x,y,z
1/2-x,1/2-y,z
1/2+x,-y,1/2-z
-x,1/2+y,1/2-z
-x,-y,-z
1/2+x,1/2+y,-z
1/2-x,y,1/2+z
x,1/2-y,1/2+z
loop_
_atom_site_type_symbol
_atom_site_label
_atom_site_fract_x
_atom_site_fract_y
_atom_site_fract_z
Si Si1 0.250000 0.250000 0.223267
Si Si2 0.437999 0.652846 0.624531
Si Si3 0.686370 0.980229 0.146922
Si Si4 0.995138 0.818561 0.897256
Si Si5 0.250000 0.750000 0.524630
Si Si6 0.670982 0.035754 0.886041
Si Si7 0.269033 0.142587 0.398450
O O1 0.393698 0.263162 0.133893
O O2 0.299138 0.194754 0.303383
O O3 0.482250 0.643204 0.772334
O O4 0.367283 0.715384 0.612184
O O5 0.319511 0.603567 0.585088
O O6 0.596625 0.649781 0.543097
O O7 0.504052 0.978145 0.144562
O O8 0.769486 0.919350 0.168692
O O9 0.729461 0.020963 0.262994
O O10 0.739121 0.004561 0.009797
O O11 0.159579 0.796431 0.942655
O O12 0.902948 0.857256 0.997365
#
# Coordination Sequence:
#
# PCOD8228479 Si02
#       7
#     4   8   8   8   4   8   8
#     4  10  20  38  62  96 122 158 212 268 318 386
#     4  10  24  42  61  93 132 163 218 268 326 393
#     4  10  24  44  69  97 133 170 225 271 333 387
#     4  11  22  38  64  92 127 166 209 262 328 387
#     4  12  24  40  60  96 130 170 202 264 334 392
#     4  10  24  45  66  99 130 175 218 278 324 395
#     4  10  22  41  66  93 121 170 221 268 314 391
#
# _framework density 22.15419
#
# number of rings (size 3 to 8) (size 9 to 14) (size 15 to 20)
#    0.000    1.667    0.000    4.000    9.333    2.000 
#    3.000    0.000    0.000    0.000    0.000    0.000 
#    0.000    0.000    0.000    0.000    0.000    0.000 
#
# Total GULP energy -595084.049505 kJ/mol
# GULP energy per Si atom -12397.584365 kJ/mol
# Density = 2.210377 g / cm^3
# Si number density = 22.154190 Si / 1000 Ang^3
#
#
#
# Elastic Constant Matrix: (Units=GPa)
#
#
# Indices 1 2 3 4 5 6 
#
# 1 54.5654 14.4481 17.9796 0.0000 0.0000 0.0000
# 2 14.4481 89.7579 2.4331 0.0000 0.0000 0.0000
# 3 17.9796 2.4331 79.1146 0.0000 0.0000 0.0000
# 4 0.0000 0.0000 0.0000 20.7800 0.0000 0.0000
# 5 0.0000 0.0000 0.0000 0.0000 32.7056 0.0000
# 6 0.0000 0.0000 0.0000 0.0000 0.0000 30.8753
#
#
#
# Elastic Compliance Matrix: (Units=1/GPa)
#
#
# Indices 1 2 3 4 5 6 
#
# 1 0.020693 -0.003206 -0.004604 0.000000 0.000000 0.000000
# 2 -0.003206 0.011647 0.000370 0.000000 0.000000 0.000000
# 3 -0.004604 0.000370 0.013675 0.000000 0.000000 0.000000
# 4 0.000000 0.000000 0.000000 0.048123 0.000000 0.000000
# 5 0.000000 0.000000 0.000000 0.000000 0.030576 0.000000
# 6 0.000000 0.000000 0.000000 0.000000 0.000000 0.032388
#
#
# Mechanical properties :
#
#
# Convention : Reuss Voigt Hill
#
# Bulk Modulus (GPa) = 32.11794 32.57328 32.34561
# Shear Modulus (GPa) = 27.41838 29.44400 28.43119
#
# Velocity S-wave (km/s) = 3.52179 3.64957 3.58625
# Velocity P-wave (km/s) = 5.57371 5.70035 5.63739
#
# Compressibility (1/GPa) = 0.03113525
#
# Stress axis : x y z
#
# Youngs Moduli (GPa) = 48.32654 85.85824 73.12725
#
# Poissons Ratio (x) = 0.27526 0.33668
# Poissons Ratio (y) = 0.15494 -0.02709
# Poissons Ratio (z) = 0.22249 -0.03180
#
# Static dielectric constant tensor:
#      x y z
#    x 3.978880 0.000000 0.000000 
#    y 0.000000 4.049840 0.000000 
#    z 0.000000 0.000000 3.838680 
# 
# 
# High freq. dielectric constant tensor:
#      x y z
#    x 1.867240 0.000000 0.000000 
#    y 0.000000 1.877890 0.000000 
#    z 0.000000 0.000000 1.859890 
# 
# From -- ./inp_files/6453.got.cif
#   From: 2010.03.12/outbox.cif.g09.slc.cpg/sg56_4_cif.got.tgz:6453.got - 2010.04.16 15:33:40.
