data_PCOD8228170
_publ_section_title
;
Structure prediction by ZEFSAII (Michael W. Deem and Ramdas Pophale) SiO2 
 PCOD8228170
Probable space group: P C C N
;
_chemical_formula_sum "Si O2"
_cell_formula_units_Z 60
_cell_length_a 9.108806
_cell_length_b 14.533464
_cell_length_c 23.016925
_cell_angle_alpha 90.000000
_cell_angle_beta 90.000000
_cell_angle_gamma 90.000000
_cell_volume 3047.038168
_symmetry_space_group_name_H-M "P C C N"
_symmetry_group_IT_number 56
_symmetry_cell_setting 'orthorhombic'
loop_
_space_group_symop_operation_xyz
x,y,z
1/2-x,1/2-y,z
1/2+x,-y,1/2-z
-x,1/2+y,1/2-z
-x,-y,-z
1/2+x,1/2+y,-z
1/2-x,y,1/2+z
x,1/2-y,1/2+z
loop_
_atom_site_type_symbol
_atom_site_label
_atom_site_fract_x
_atom_site_fract_y
_atom_site_fract_z
Si Si1 0.979458 0.819120 0.193566
Si Si2 0.811981 0.063728 0.695833
Si Si3 0.827683 0.348015 0.467146
Si Si4 0.139610 0.439125 0.218617
Si Si5 0.145183 0.326541 0.429404
Si Si6 0.250000 0.750000 0.740968
Si Si7 0.834764 0.467378 0.579800
Si Si8 0.363975 0.519079 0.133412
O O1 0.101226 0.737658 0.201946
O O2 0.069548 0.915990 0.184182
O O3 0.879515 0.836709 0.251824
O O4 0.882230 0.797258 0.137749
O O5 0.789947 0.165244 0.719276
O O6 0.770288 0.070391 0.628985
O O7 0.979152 0.026928 0.698452
O O8 0.698515 0.998401 0.728095
O O9 0.750000 0.250000 0.464940
O O10 0.797983 0.403293 0.525668
O O11 0.782339 0.412763 0.412390
O O12 0.998591 0.324853 0.466276
O O13 0.251358 0.446526 0.163546
O O14 0.250000 0.250000 0.457361
O O15 0.214190 0.427916 0.434039
O O16 0.006900 0.464892 0.599191
#
# Coordination Sequence:
#
# PCOD8228170 Si02
#       8
#     8   8   8   8   8   4   8   8
#     4   9  19  34  54  87 122 155 191 238 301 359
#     4  11  21  34  59  84 121 161 198 239 306 356
#     4  10  23  41  65  86 114 162 213 247 304 363
#     4  11  18  36  58  90 120 155 194 244 291 373
#     4  10  21  38  62  91 119 150 202 254 306 348
#     4  10  20  32  52  82 122 158 196 230 292 366
#     4  10  21  43  60  84 120 168 198 251 307 353
#     4  10  19  36  62  85 114 158 204 241 302 354
#
# _framework density 19.691253
#
# number of rings (size 3 to 8) (size 9 to 14) (size 15 to 20)
#    0.000    2.133    5.333    1.600    4.667    2.133 
#    2.400    4.000    0.000    0.000    0.000    0.000 
#    0.000    0.000    0.000    0.000    0.000    0.000 
#
# Total GULP energy -743397.424206 kJ/mol
# GULP energy per Si atom -12389.957070 kJ/mol
# Density = 1.964643 g / cm^3
# Si number density = 19.691253 Si / 1000 Ang^3
#
#
#
# Elastic Constant Matrix: (Units=GPa)
#
#
# Indices 1 2 3 4 5 6 
#
# 1 42.3519 -1.4496 8.5308 0.0000 0.0000 0.0000
# 2 -1.4496 16.5707 2.9350 0.0000 0.0000 0.0000
# 3 8.5308 2.9350 80.6285 0.0000 0.0000 0.0000
# 4 0.0000 0.0000 0.0000 12.5065 0.0000 0.0000
# 5 0.0000 0.0000 0.0000 0.0000 43.9870 0.0000
# 6 0.0000 0.0000 0.0000 0.0000 0.0000 39.9272
#
#
#
# Elastic Compliance Matrix: (Units=1/GPa)
#
#
# Indices 1 2 3 4 5 6 
#
# 1 0.024236 0.002591 -0.002659 0.000000 0.000000 0.000000
# 2 0.002591 0.061016 -0.002495 0.000000 0.000000 0.000000
# 3 -0.002659 -0.002495 0.012775 0.000000 0.000000 0.000000
# 4 0.000000 0.000000 0.000000 0.079958 0.000000 0.000000
# 5 0.000000 0.000000 0.000000 0.000000 0.022734 0.000000
# 6 0.000000 0.000000 0.000000 0.000000 0.000000 0.025046
#
#
# Mechanical properties :
#
#
# Convention : Reuss Voigt Hill
#
# Bulk Modulus (GPa) = 10.76413 17.73149 14.24781
# Shear Modulus (GPa) = 19.09438 27.91981 23.50709
#
# Velocity S-wave (km/s) = 3.11736 3.76956 3.45887
# Velocity P-wave (km/s) = 4.29367 5.28870 4.81695
#
# Compressibility (1/GPa) = 0.09290116
#
# Stress axis : x y z
#
# Youngs Moduli (GPa) = 41.26112 16.38911 78.27986
#
# Poissons Ratio (x) = -0.04246 0.20811
# Poissons Ratio (y) = -0.10691 0.19532
# Poissons Ratio (z) = 0.10970 0.04089
#
# Static dielectric constant tensor:
#      x y z
#    x 6.932720 0.000000 0.000000 
#    y 0.000000 3.452060 0.000000 
#    z 0.000000 0.000000 3.638600 
# 
# 
# High freq. dielectric constant tensor:
#      x y z
#    x 1.762670 0.000000 0.000000 
#    y 0.000000 1.742440 0.000000 
#    z 0.000000 0.000000 1.767690 
# 
# From -- ./inp_files/20609.got.cif
#   From: 2010.03.12/outbox.cif.g09.slc.cpg/sg56_11_cif.got.tgz:20609.got - 2010.04.16 15:33:40.
