data_PCOD8228947
_publ_section_title
;
Structure prediction by ZEFSAII (Michael W. Deem and Ramdas Pophale) SiO2 
 PCOD8228947
Probable space group: P C C N
;
_chemical_formula_sum "Si O2"
_cell_formula_units_Z 48
_cell_length_a 8.486518
_cell_length_b 10.836504
_cell_length_c 23.758873
_cell_angle_alpha 90.000000
_cell_angle_beta 90.000000
_cell_angle_gamma 90.000000
_cell_volume 2184.965422
_symmetry_space_group_name_H-M "P C C N"
_symmetry_group_IT_number 56
_symmetry_cell_setting 'orthorhombic'
loop_
_space_group_symop_operation_xyz
x,y,z
1/2-x,1/2-y,z
1/2+x,-y,1/2-z
-x,1/2+y,1/2-z
-x,-y,-z
1/2+x,1/2+y,-z
1/2-x,y,1/2+z
x,1/2-y,1/2+z
loop_
_atom_site_type_symbol
_atom_site_label
_atom_site_fract_x
_atom_site_fract_y
_atom_site_fract_z
Si Si1 0.038920 0.812896 0.479003
Si Si2 0.548127 0.383014 0.932196
Si Si3 0.427049 0.779034 0.359454
Si Si4 0.570803 0.026788 0.315049
Si Si5 0.748901 0.959333 0.509337
Si Si6 0.354428 0.135033 0.219467
O O1 0.097160 0.742896 0.535523
O O2 0.055809 0.718918 0.427074
O O3 0.146041 0.930667 0.465449
O O4 0.858179 0.850054 0.486514
O O5 0.587372 0.374336 0.865994
O O6 0.644716 0.498650 0.956587
O O7 0.361502 0.407396 0.941100
O O8 0.250000 0.750000 0.340048
O O9 0.466790 0.913273 0.336410
O O10 0.548233 0.676972 0.335529
O O11 0.743162 0.981105 0.295428
O O12 0.481771 0.096347 0.265441
O O13 0.250000 0.250000 0.242230
#
# Coordination Sequence:
#
# PCOD8228947 Si02
#       6
#     8   8   8   8   8   8
#     4  11  22  38  60  91 125 161 202 247 314 385
#     4  11  21  37  61  88 121 159 200 256 310 365
#     4  11  21  39  66  89 120 165 211 259 314 385
#     4  11  23  41  63  89 123 161 213 268 316 372
#     4  10  22  37  56  88 126 161 201 245 309 383
#     4  10  24  43  64  90 121 164 215 264 317 379
#
# _framework density 21.968312000000001
#
# number of rings (size 3 to 8) (size 9 to 14) (size 15 to 20)
#    0.000    1.333    0.000    7.000    0.000    4.000 
#    0.000   13.333    0.000    0.000    0.000    0.000 
#    0.000    0.000    0.000    0.000    0.000    0.000 
#
# Total GULP energy -595352.171950 kJ/mol
# GULP energy per Si atom -12403.170249 kJ/mol
# Density = 2.191831 g / cm^3
# Si number density = 21.968312 Si / 1000 Ang^3
#
#
#
# Elastic Constant Matrix: (Units=GPa)
#
#
# Indices 1 2 3 4 5 6 
#
# 1 114.5825 21.4508 19.5307 0.0000 0.0000 0.0000
# 2 21.4508 56.5067 23.1792 0.0000 0.0000 0.0000
# 3 19.5307 23.1792 106.1487 0.0000 0.0000 0.0000
# 4 0.0000 0.0000 0.0000 28.9275 0.0000 0.0000
# 5 0.0000 0.0000 0.0000 0.0000 23.8288 0.0000
# 6 0.0000 0.0000 0.0000 0.0000 0.0000 42.3208
#
#
#
# Elastic Compliance Matrix: (Units=1/GPa)
#
#
# Indices 1 2 3 4 5 6 
#
# 1 0.009501 -0.003174 -0.001055 0.000000 0.000000 0.000000
# 2 -0.003174 0.020499 -0.003892 0.000000 0.000000 0.000000
# 3 -0.001055 -0.003892 0.010465 0.000000 0.000000 0.000000
# 4 0.000000 0.000000 0.000000 0.034569 0.000000 0.000000
# 5 0.000000 0.000000 0.000000 0.000000 0.041966 0.000000
# 6 0.000000 0.000000 0.000000 0.000000 0.000000 0.023629
#
#
# Mechanical properties :
#
#
# Convention : Reuss Voigt Hill
#
# Bulk Modulus (GPa) = 41.28469 45.06215 43.17342
# Shear Modulus (GPa) = 30.31304 33.22057 31.76680
#
# Velocity S-wave (km/s) = 3.71867 3.89293 3.80679
# Velocity P-wave (km/s) = 6.10505 6.38462 6.24640
#
# Compressibility (1/GPa) = 0.02422205
#
# Stress axis : x y z
#
# Youngs Moduli (GPa) = 105.24776 48.78402 95.55854
#
# Poissons Ratio (x) = 0.15484 0.10082
# Poissons Ratio (y) = 0.33406 0.37193
# Poissons Ratio (z) = 0.11105 0.18988
#
# Static dielectric constant tensor:
#      x y z
#    x 4.272460 0.000000 0.000000 
#    y 0.000000 3.876050 0.000000 
#    z 0.000000 0.000000 3.785610 
# 
# 
# High freq. dielectric constant tensor:
#      x y z
#    x 1.888610 0.000000 0.000000 
#    y 0.000000 1.861210 0.000000 
#    z 0.000000 0.000000 1.842560 
# 
# From -- ./inp_files/20467.got.cif
#   From: 2010.03.12/outbox.cif.g09.slc.cpg/sg56_11_cif.got.tgz:20467.got - 2010.04.16 15:33:40.
