data_PCOD8228973
_publ_section_title
;
Structure prediction by ZEFSAII (Michael W. Deem and Ramdas Pophale) SiO2 
 PCOD8228973
Probable space group: P C C N
;
_chemical_formula_sum "Si O2"
_cell_formula_units_Z 60
_cell_length_a 7.732946
_cell_length_b 25.783419
_cell_length_c 14.135933
_cell_angle_alpha 90.000000
_cell_angle_beta 90.000000
_cell_angle_gamma 90.000000
_cell_volume 2818.447580
_symmetry_space_group_name_H-M "P C C N"
_symmetry_group_IT_number 56
_symmetry_cell_setting 'orthorhombic'
loop_
_space_group_symop_operation_xyz
x,y,z
1/2-x,1/2-y,z
1/2+x,-y,1/2-z
-x,1/2+y,1/2-z
-x,-y,-z
1/2+x,1/2+y,-z
1/2-x,y,1/2+z
x,1/2-y,1/2+z
loop_
_atom_site_type_symbol
_atom_site_label
_atom_site_fract_x
_atom_site_fract_y
_atom_site_fract_z
Si Si1 0.197326 0.484315 0.017706
Si Si2 0.198295 0.146440 0.768428
Si Si3 0.250000 0.750000 0.379453
Si Si4 0.207969 0.545000 0.355997
Si Si5 0.089141 0.033040 0.712730
Si Si6 0.301298 0.131763 0.482567
Si Si7 0.043618 0.848345 0.842376
Si Si8 0.599696 0.792829 0.905027
O O1 0.317068 0.528160 0.966568
O O2 0.254462 0.428749 0.973918
O O3 0.228631 0.482241 0.130598
O O4 0.000000 0.500000 0.000000
O O5 0.132380 0.089014 0.751286
O O6 0.168160 0.157424 0.879484
O O7 0.399509 0.150206 0.739085
O O8 0.093317 0.188381 0.705104
O O9 0.342788 0.796794 0.322134
O O10 0.411293 0.727114 0.438891
O O11 0.402206 0.531577 0.331790
O O12 0.082971 0.509655 0.293750
O O13 0.174259 0.604318 0.333276
O O14 0.460371 0.146670 0.552351
O O15 0.132635 0.158221 0.528191
O O16 0.750000 0.750000 0.917308
#
# Coordination Sequence:
#
# PCOD8228973 Si02
#       8
#     8   8   4   8   8   8   8   8
#     4  10  22  38  62  97 135 179 218 270 336 408
#     4  11  22  44  69 100 135 178 221 281 349 411
#     4  12  24  50  72 100 132 180 232 282 352 404
#     4  11  24  39  66 100 134 181 224 280 337 419
#     4  11  21  40  64  95 137 178 224 275 345 408
#     4  11  23  44  70  97 137 181 227 279 351 410
#     4  11  25  44  69  99 138 179 228 288 343 408
#     4  11  23  47  73  96 134 181 223 290 343 400
#
# _framework density 21.288315999999998
#
# number of rings (size 3 to 8) (size 9 to 14) (size 15 to 20)
#    0.000    1.067    6.667    1.600    3.733    2.133 
#    0.000    4.000    0.000    0.000    0.000    0.000 
#    0.000    0.000    0.000    0.000    0.000    0.000 
#
# Total GULP energy -743412.817308 kJ/mol
# GULP energy per Si atom -12390.213622 kJ/mol
# Density = 2.123986 g / cm^3
# Si number density = 21.288316 Si / 1000 Ang^3
#
#
#
# Elastic Constant Matrix: (Units=GPa)
#
#
# Indices 1 2 3 4 5 6 
#
# 1 88.7486 30.6721 21.3938 0.0000 0.0000 0.0000
# 2 30.6721 100.8859 -8.1194 0.0000 0.0000 0.0000
# 3 21.3938 -8.1194 99.7110 0.0000 0.0000 0.0000
# 4 0.0000 0.0000 0.0000 17.8112 0.0000 0.0000
# 5 0.0000 0.0000 0.0000 0.0000 11.3295 0.0000
# 6 0.0000 0.0000 0.0000 0.0000 0.0000 45.0560
#
#
#
# Elastic Compliance Matrix: (Units=1/GPa)
#
#
# Indices 1 2 3 4 5 6 
#
# 1 0.013573 -0.004390 -0.003270 0.000000 0.000000 0.000000
# 2 -0.004390 0.011397 0.001870 0.000000 0.000000 0.000000
# 3 -0.003270 0.001870 0.010883 0.000000 0.000000 0.000000
# 4 0.000000 0.000000 0.000000 0.056145 0.000000 0.000000
# 5 0.000000 0.000000 0.000000 0.000000 0.088265 0.000000
# 6 0.000000 0.000000 0.000000 0.000000 0.000000 0.022195
#
#
# Mechanical properties :
#
#
# Convention : Reuss Voigt Hill
#
# Bulk Modulus (GPa) = 41.19600 41.91538 41.55569
# Shear Modulus (GPa) = 22.50960 31.19929 26.85445
#
# Velocity S-wave (km/s) = 3.25525 3.83242 3.55556
# Velocity P-wave (km/s) = 5.78985 6.27019 6.03480
#
# Compressibility (1/GPa) = 0.02427420
#
# Stress axis : x y z
#
# Youngs Moduli (GPa) = 73.67519 87.74022 91.88824
#
# Poissons Ratio (x) = 0.38516 0.30044
# Poissons Ratio (y) = 0.32341 -0.17182
# Poissons Ratio (z) = 0.24089 -0.16407
#
# Static dielectric constant tensor:
#      x y z
#    x 3.924940 0.000000 0.000000 
#    y 0.000000 4.134430 0.000000 
#    z 0.000000 0.000000 2.820500 
# 
# 
# High freq. dielectric constant tensor:
#      x y z
#    x 1.835070 0.000000 0.000000 
#    y 0.000000 1.848360 0.000000 
#    z 0.000000 0.000000 1.818440 
# 
# From -- ./inp_files/10991.got.cif
#   From: 2010.03.12/outbox.cif.g09.slc.cpg/sg56_6_cif.got.tgz:10991.got - 2010.04.16 15:33:40.
