data_PCOD8228702
_publ_section_title
;
Structure prediction by ZEFSAII (Michael W. Deem and Ramdas Pophale) SiO2 
 PCOD8228702
Probable space group: P C C N
;
_chemical_formula_sum "Si O2"
_cell_formula_units_Z 40
_cell_length_a 14.183770
_cell_length_b 18.514366
_cell_length_c 7.369869
_cell_angle_alpha 90.000000
_cell_angle_beta 90.000000
_cell_angle_gamma 90.000000
_cell_volume 1935.353461
_symmetry_space_group_name_H-M "P C C N"
_symmetry_group_IT_number 56
_symmetry_cell_setting 'orthorhombic'
loop_
_space_group_symop_operation_xyz
x,y,z
1/2-x,1/2-y,z
1/2+x,-y,1/2-z
-x,1/2+y,1/2-z
-x,-y,-z
1/2+x,1/2+y,-z
1/2-x,y,1/2+z
x,1/2-y,1/2+z
loop_
_atom_site_type_symbol
_atom_site_label
_atom_site_fract_x
_atom_site_fract_y
_atom_site_fract_z
Si Si1 0.558222 0.584863 0.367929
Si Si2 0.017007 0.848985 0.704053
Si Si3 0.985122 0.311544 0.399796
Si Si4 0.128642 0.937278 0.191618
Si Si5 0.834135 0.036855 0.203054
O O1 0.557692 0.606876 0.580075
O O2 0.462351 0.539252 0.313197
O O3 0.646847 0.533876 0.326173
O O4 0.561733 0.658644 0.246426
O O5 0.114489 0.893358 0.711713
O O6 0.974735 0.834339 0.902477
O O7 0.036464 0.772923 0.605463
O O8 0.885507 0.352413 0.360828
O O9 0.222955 0.947769 0.306784
O O10 0.131173 0.981054 0.001501
#
# Coordination Sequence:
#
# PCOD8228702 Si02
#       5
#     8   8   8   8   8
#     4  10  21  38  57  87 117 156 195 238 293 347
#     4  11  19  34  59  83 118 154 185 236 296 350
#     4   9  20  35  55  85 117 152 186 237 291 356
#     4   9  21  35  54  84 121 149 197 234 293 346
#     4  11  21  36  58  87 121 156 193 243 290 351
#
# _framework density 20.668057999999998
#
# number of rings (size 3 to 8) (size 9 to 14) (size 15 to 20)
#    1.200    0.800    2.000    2.400    0.000    0.800 
#    0.000    4.000    0.000    0.000    0.000   11.200 
#    0.000    0.000    0.000    0.000    0.000    0.000 
#
# Total GULP energy -495627.814603 kJ/mol
# GULP energy per Si atom -12390.695365 kJ/mol
# Density = 2.062102 g / cm^3
# Si number density = 20.668058 Si / 1000 Ang^3
#
#
#
# Elastic Constant Matrix: (Units=GPa)
#
#
# Indices 1 2 3 4 5 6 
#
# 1 24.2401 19.5619 4.2610 0.0000 0.0000 0.0000
# 2 19.5619 75.0138 8.7509 0.0000 0.0000 0.0000
# 3 4.2610 8.7509 97.3203 0.0000 0.0000 0.0000
# 4 0.0000 0.0000 0.0000 28.3606 0.0000 0.0000
# 5 0.0000 0.0000 0.0000 0.0000 20.0631 0.0000
# 6 0.0000 0.0000 0.0000 0.0000 0.0000 15.8305
#
#
#
# Elastic Compliance Matrix: (Units=1/GPa)
#
#
# Indices 1 2 3 4 5 6 
#
# 1 0.052361 -0.013529 -0.001076 0.000000 0.000000 0.000000
# 2 -0.013529 0.016968 -0.000933 0.000000 0.000000 0.000000
# 3 -0.001076 -0.000933 0.010406 0.000000 0.000000 0.000000
# 4 0.000000 0.000000 0.000000 0.035260 0.000000 0.000000
# 5 0.000000 0.000000 0.000000 0.000000 0.049843 0.000000
# 6 0.000000 0.000000 0.000000 0.000000 0.000000 0.063169
#
#
# Mechanical properties :
#
#
# Convention : Reuss Voigt Hill
#
# Bulk Modulus (GPa) = 20.55147 29.08022 24.81584
# Shear Modulus (GPa) = 18.16177 23.78420 20.97298
#
# Velocity S-wave (km/s) = 2.96756 3.39598 3.18898
# Velocity P-wave (km/s) = 4.65909 5.42933 5.05889
#
# Compressibility (1/GPa) = 0.04865833
#
# Stress axis : x y z
#
# Youngs Moduli (GPa) = 19.09820 58.93515 96.09482
#
# Poissons Ratio (x) = 0.79733 0.10340
# Poissons Ratio (y) = 0.25838 0.08969
# Poissons Ratio (z) = 0.02055 0.05501
#
# Static dielectric constant tensor:
#      x y z
#    x 3.090810 0.000000 0.000000 
#    y 0.000000 3.663910 0.000000 
#    z 0.000000 0.000000 3.960390 
# 
# 
# High freq. dielectric constant tensor:
#      x y z
#    x 1.741390 0.000000 0.000000 
#    y 0.000000 1.802470 0.000000 
#    z 0.000000 0.000000 1.836350 
# 
# From -- ./inp_files/2564.got.cif
#   From: 2010.03.12/outbox.cif.g09.slc.cpg/sg56_2_cif.got.tgz:2564.got - 2010.04.16 15:33:40.
