data_PCOD8228261
_publ_section_title
;
Structure prediction by ZEFSAII (Michael W. Deem and Ramdas Pophale) SiO2 
 PCOD8228261
Probable space group: P C C N
;
_chemical_formula_sum "Si O2"
_cell_formula_units_Z 48
_cell_length_a 8.531067
_cell_length_b 14.211948
_cell_length_c 18.415540
_cell_angle_alpha 90.000000
_cell_angle_beta 90.000000
_cell_angle_gamma 90.000000
_cell_volume 2232.756800
_symmetry_space_group_name_H-M "P C C N"
_symmetry_group_IT_number 56
_symmetry_cell_setting 'orthorhombic'
loop_
_space_group_symop_operation_xyz
x,y,z
1/2-x,1/2-y,z
1/2+x,-y,1/2-z
-x,1/2+y,1/2-z
-x,-y,-z
1/2+x,1/2+y,-z
1/2-x,y,1/2+z
x,1/2-y,1/2+z
loop_
_atom_site_type_symbol
_atom_site_label
_atom_site_fract_x
_atom_site_fract_y
_atom_site_fract_z
Si Si1 0.646592 0.161820 0.070565
Si Si2 0.584987 0.207232 0.811333
Si Si3 0.433139 0.244427 0.952369
Si Si4 0.999607 0.116892 0.719284
Si Si5 0.121338 0.568704 0.536228
Si Si6 0.750521 0.476987 0.309971
O O1 0.750000 0.250000 0.095685
O O2 0.583268 0.111001 0.141568
O O3 0.499075 0.193529 0.022950
O O4 0.750218 0.090289 0.024570
O O5 0.750000 0.250000 0.840392
O O6 0.467569 0.188430 0.878184
O O7 0.506233 0.276445 0.751243
O O8 0.627490 0.103480 0.781940
O O9 0.250000 0.250000 0.965347
O O10 0.520135 0.342633 0.938183
O O11 0.914160 0.040893 0.770140
O O12 0.178367 0.079191 0.710972
O O13 0.214972 0.524970 0.603977
O O14 0.000000 0.500000 0.500000
#
# Coordination Sequence:
#
# PCOD8228261 Si02
#       6
#     8   8   8   8   8   8
#     4  10  22  44  68  96 130 184 219 283 343 405
#     4  10  19  45  67  88 134 187 218 272 344 418
#     4  11  22  40  68  98 128 178 236 272 339 416
#     4  11  25  41  69  98 136 175 231 277 346 407
#     4  11  24  42  69  95 140 178 230 287 351 409
#     4  11  24  44  68 100 138 186 226 281 346 415
#
# _framework density 21.498085
#
# number of rings (size 3 to 8) (size 9 to 14) (size 15 to 20)
#    0.000    1.333    5.000    2.000    4.667    3.333 
#    0.000    0.833    0.000    0.000    0.000    0.000 
#    0.000    0.000    0.000    0.000    0.000    0.000 
#
# Total GULP energy -595135.552637 kJ/mol
# GULP energy per Si atom -12398.657347 kJ/mol
# Density = 2.144915 g / cm^3
# Si number density = 21.498085 Si / 1000 Ang^3
#
#
#
# Elastic Constant Matrix: (Units=GPa)
#
#
# Indices 1 2 3 4 5 6 
#
# 1 76.2463 21.1608 17.9637 0.0000 0.0000 0.0000
# 2 21.1608 59.0810 21.6045 0.0000 0.0000 0.0000
# 3 17.9637 21.6045 97.6741 0.0000 0.0000 0.0000
# 4 0.0000 0.0000 0.0000 49.7635 0.0000 0.0000
# 5 0.0000 0.0000 0.0000 0.0000 31.2008 0.0000
# 6 0.0000 0.0000 0.0000 0.0000 0.0000 35.5951
#
#
#
# Elastic Compliance Matrix: (Units=1/GPa)
#
#
# Indices 1 2 3 4 5 6 
#
# 1 0.014814 -0.004689 -0.001687 0.000000 0.000000 0.000000
# 2 -0.004689 0.019900 -0.003539 0.000000 0.000000 0.000000
# 3 -0.001687 -0.003539 0.011331 0.000000 0.000000 0.000000
# 4 0.000000 0.000000 0.000000 0.020095 0.000000 0.000000
# 5 0.000000 0.000000 0.000000 0.000000 0.032050 0.000000
# 6 0.000000 0.000000 0.000000 0.000000 0.000000 0.028094
#
#
# Mechanical properties :
#
#
# Convention : Reuss Voigt Hill
#
# Bulk Modulus (GPa) = 38.14754 39.38438 38.76596
# Shear Modulus (GPa) = 32.28859 34.79671 33.54265
#
# Velocity S-wave (km/s) = 3.87968 4.02754 3.95430
# Velocity P-wave (km/s) = 6.15242 6.32359 6.23860
#
# Compressibility (1/GPa) = 0.02621401
#
# Stress axis : x y z
#
# Youngs Moduli (GPa) = 67.50245 50.25241 88.25103
#
# Poissons Ratio (x) = 0.23563 0.14892
# Poissons Ratio (y) = 0.31651 0.31234
# Poissons Ratio (z) = 0.11391 0.17785
#
# Static dielectric constant tensor:
#      x y z
#    x 3.794030 0.000000 0.000000 
#    y 0.000000 3.393310 0.000000 
#    z 0.000000 0.000000 4.046340 
# 
# 
# High freq. dielectric constant tensor:
#      x y z
#    x 1.840790 0.000000 0.000000 
#    y 0.000000 1.829630 0.000000 
#    z 0.000000 0.000000 1.851240 
# 
# From -- ./inp_files/14831.got.cif
#   From: 2010.03.12/outbox.cif.g09.slc.cpg/sg56_8_cif.got.tgz:14831.got - 2010.04.16 15:33:40.
