data_PCOD8228833
_publ_section_title
;
Structure prediction by ZEFSAII (Michael W. Deem and Ramdas Pophale) SiO2 
 PCOD8228833
Probable space group: P C C N
;
_chemical_formula_sum "Si O2"
_cell_formula_units_Z 64
_cell_length_a 13.953022
_cell_length_b 25.660438
_cell_length_c 9.096179
_cell_angle_alpha 90.000000
_cell_angle_beta 90.000000
_cell_angle_gamma 90.000000
_cell_volume 3256.801896
_symmetry_space_group_name_H-M "P C C N"
_symmetry_group_IT_number 56
_symmetry_cell_setting 'orthorhombic'
loop_
_space_group_symop_operation_xyz
x,y,z
1/2-x,1/2-y,z
1/2+x,-y,1/2-z
-x,1/2+y,1/2-z
-x,-y,-z
1/2+x,1/2+y,-z
1/2-x,y,1/2+z
x,1/2-y,1/2+z
loop_
_atom_site_type_symbol
_atom_site_label
_atom_site_fract_x
_atom_site_fract_y
_atom_site_fract_z
Si Si1 0.669728 0.974892 0.803870
Si Si2 0.651222 0.224244 0.963934
Si Si3 0.382863 0.378236 0.180912
Si Si4 0.735273 0.593224 0.555904
Si Si5 0.764955 0.128052 0.046951
Si Si6 0.020379 0.491010 0.669258
Si Si7 0.932594 0.189456 0.170861
Si Si8 0.187676 0.562103 0.716217
O O1 0.702363 0.945319 0.656675
O O2 0.573469 0.006685 0.770403
O O3 0.748981 0.016362 0.851521
O O4 0.662289 0.936985 0.945528
O O5 0.750000 0.250000 0.903707
O O6 0.579881 0.209684 0.834840
O O7 0.684030 0.172833 0.051567
O O8 0.588237 0.262444 0.063348
O O9 0.327295 0.369470 0.336431
O O10 0.427955 0.435915 0.192157
O O11 0.460627 0.333132 0.154488
O O12 0.309388 0.373887 0.044283
O O13 0.857712 0.143459 0.141246
O O14 0.719525 0.076862 0.119738
O O15 0.801485 0.113879 0.884037
O O16 0.080488 0.540813 0.723724
O O17 0.000000 0.500000 0.500000
#
# Coordination Sequence:
#
# PCOD8228833 Si02
#       8
#     8   8   8   8   8   8   8   8
#     4  11  21  38  54  84 132 178 214 258 296 361
#     4  10  22  42  67  94 130 159 196 263 335 384
#     4  11  23  41  64  89 121 171 216 264 322 378
#     4  10  21  41  60  82 126 172 213 263 317 351
#     4  11  23  37  60  95 132 168 202 246 316 388
#     4  12  22  35  58  87 129 174 218 251 303 370
#     4  11  23  43  66  94 123 159 210 266 322 398
#     4  12  22  36  58  89 132 173 210 247 300 374
#
# _framework density 19.65118
#
# number of rings (size 3 to 8) (size 9 to 14) (size 15 to 20)
#    0.000    1.000    5.000    4.125    1.750    1.500 
#    0.000    2.500    0.000    2.250    0.000    0.000 
#    0.000    0.000    0.000    0.000    0.000    0.000 
#
# Total GULP energy -793576.628926 kJ/mol
# GULP energy per Si atom -12399.634827 kJ/mol
# Density = 1.960645 g / cm^3
# Si number density = 19.651180 Si / 1000 Ang^3
#
#
#
# Elastic Constant Matrix: (Units=GPa)
#
#
# Indices 1 2 3 4 5 6 
#
# 1 104.1230 37.4378 45.6109 0.0000 0.0000 0.0000
# 2 37.4378 64.1185 23.2670 0.0000 0.0000 0.0000
# 3 45.6109 23.2670 105.4589 0.0000 0.0000 0.0000
# 4 0.0000 0.0000 0.0000 28.3133 0.0000 0.0000
# 5 0.0000 0.0000 0.0000 0.0000 30.9935 0.0000
# 6 0.0000 0.0000 0.0000 0.0000 0.0000 39.8583
#
#
#
# Elastic Compliance Matrix: (Units=1/GPa)
#
#
# Indices 1 2 3 4 5 6 
#
# 1 0.013949 -0.006473 -0.004605 0.000000 0.000000 0.000000
# 2 -0.006473 0.019958 -0.001603 0.000000 0.000000 0.000000
# 3 -0.004605 -0.001603 0.011828 0.000000 0.000000 0.000000
# 4 0.000000 0.000000 0.000000 0.035319 0.000000 0.000000
# 5 0.000000 0.000000 0.000000 0.000000 0.032265 0.000000
# 6 0.000000 0.000000 0.000000 0.000000 0.000000 0.025089
#
#
# Mechanical properties :
#
#
# Convention : Reuss Voigt Hill
#
# Bulk Modulus (GPa) = 49.08937 54.03688 51.56313
# Shear Modulus (GPa) = 29.31521 30.99201 30.15361
#
# Velocity S-wave (km/s) = 3.86655 3.97559 3.92145
# Velocity P-wave (km/s) = 6.70583 6.97363 6.84104
#
# Compressibility (1/GPa) = 0.02037101
#
# Stress axis : x y z
#
# Youngs Moduli (GPa) = 71.69178 50.10589 84.54817
#
# Poissons Ratio (x) = 0.32436 0.38930
# Poissons Ratio (y) = 0.46410 0.13557
# Poissons Ratio (z) = 0.33011 0.08034
#
# Static dielectric constant tensor:
#      x y z
#    x 3.645570 0.000000 0.000000 
#    y 0.000000 3.454240 0.000000 
#    z 0.000000 0.000000 3.598790 
# 
# 
# High freq. dielectric constant tensor:
#      x y z
#    x 1.757400 0.000000 0.000000 
#    y 0.000000 1.743650 0.000000 
#    z 0.000000 0.000000 1.779170 
# 
# From -- ./inp_files/3698.got.cif
#   From: 2010.03.12/outbox.cif.g09.slc.cpg/sg56_2_cif.got.tgz:3698.got - 2010.04.16 15:33:40.
