data_PCOD8228390
_publ_section_title
;
Structure prediction by ZEFSAII (Michael W. Deem and Ramdas Pophale) SiO2 
 PCOD8228390
Probable space group: P C C N
;
_chemical_formula_sum "Si O2"
_cell_formula_units_Z 64
_cell_length_a 14.649795
_cell_length_b 11.656149
_cell_length_c 18.769754
_cell_angle_alpha 90.000000
_cell_angle_beta 90.000000
_cell_angle_gamma 90.000000
_cell_volume 3205.126822
_symmetry_space_group_name_H-M "P C C N"
_symmetry_group_IT_number 56
_symmetry_cell_setting 'orthorhombic'
loop_
_space_group_symop_operation_xyz
x,y,z
1/2-x,1/2-y,z
1/2+x,-y,1/2-z
-x,1/2+y,1/2-z
-x,-y,-z
1/2+x,1/2+y,-z
1/2-x,y,1/2+z
x,1/2-y,1/2+z
loop_
_atom_site_type_symbol
_atom_site_label
_atom_site_fract_x
_atom_site_fract_y
_atom_site_fract_z
Si Si1 0.113793 0.302563 0.309067
Si Si2 0.907786 0.116117 0.441326
Si Si3 0.725748 0.969752 0.860849
Si Si4 0.286934 0.431634 0.293385
Si Si5 0.560882 0.804795 0.839770
Si Si6 0.998123 0.342459 0.439019
Si Si7 0.088863 0.082709 0.081054
Si Si8 0.422747 0.968936 0.906382
O O1 0.185976 0.404877 0.323723
O O2 0.162215 0.187732 0.282040
O O3 0.045599 0.332701 0.243820
O O4 0.059407 0.280908 0.380292
O O5 0.914244 0.254028 0.452347
O O6 0.880654 0.055308 0.515785
O O7 0.829326 0.084172 0.384321
O O8 0.006233 0.073741 0.412168
O O9 0.773687 0.991979 0.783901
O O10 0.657554 0.861382 0.861990
O O11 0.803446 0.943005 0.919124
O O12 0.341697 0.509219 0.349862
O O13 0.563566 0.668609 0.854744
O O14 0.476510 0.855497 0.882917
O O15 0.964487 0.463711 0.409063
O O16 0.060924 0.356324 0.507939
#
# Coordination Sequence:
#
# PCOD8228390 Si02
#       8
#     8   8   8   8   8   8   8   8
#     4  10  21  36  61  91 124 154 206 263 307 369
#     4  10  21  39  60  95 123 161 206 258 316 375
#     4  10  22  38  65  92 125 158 208 265 315 368
#     4  10  20  37  59  97 123 155 204 262 318 366
#     4  10  20  39  63  92 120 160 208 256 314 373
#     4  11  24  41  59  91 127 166 212 251 315 386
#     4  11  23  40  62  87 124 166 212 255 310 374
#     4  10  20  36  64  91 125 157 203 262 314 371
#
# _framework density 19.968008000000001
#
# number of rings (size 3 to 8) (size 9 to 14) (size 15 to 20)
#    0.000    1.750    3.750    0.375    3.500    0.500 
#    4.500    0.000    0.000    0.750    0.000    0.000 
#    0.000    0.000    0.000    0.000    0.000    0.000 
#
# Total GULP energy -793450.094716 kJ/mol
# GULP energy per Si atom -12397.657730 kJ/mol
# Density = 1.992256 g / cm^3
# Si number density = 19.968008 Si / 1000 Ang^3
#
#
#
# Elastic Constant Matrix: (Units=GPa)
#
#
# Indices 1 2 3 4 5 6 
#
# 1 76.9589 39.8534 65.6394 0.0000 0.0000 0.0000
# 2 39.8534 91.8345 48.6186 0.0000 0.0000 0.0000
# 3 65.6394 48.6186 125.3611 0.0000 0.0000 0.0000
# 4 0.0000 0.0000 0.0000 22.4248 0.0000 0.0000
# 5 0.0000 0.0000 0.0000 0.0000 42.0071 0.0000
# 6 0.0000 0.0000 0.0000 0.0000 0.0000 22.4983
#
#
#
# Elastic Compliance Matrix: (Units=1/GPa)
#
#
# Indices 1 2 3 4 5 6 
#
# 1 0.025157 -0.004963 -0.011248 0.000000 0.000000 0.000000
# 2 -0.004963 0.014682 -0.003095 0.000000 0.000000 0.000000
# 3 -0.011248 -0.003095 0.015067 0.000000 0.000000 0.000000
# 4 0.000000 0.000000 0.000000 0.044593 0.000000 0.000000
# 5 0.000000 0.000000 0.000000 0.000000 0.023806 0.000000
# 6 0.000000 0.000000 0.000000 0.000000 0.000000 0.044448
#
#
# Mechanical properties :
#
#
# Convention : Reuss Voigt Hill
#
# Bulk Modulus (GPa) = 61.37286 66.93080 64.15183
# Shear Modulus (GPa) = 23.60769 26.72225 25.16497
#
# Velocity S-wave (km/s) = 3.44215 3.66218 3.55387
# Velocity P-wave (km/s) = 6.82643 7.17453 7.00265
#
# Compressibility (1/GPa) = 0.01629385
#
# Stress axis : x y z
#
# Youngs Moduli (GPa) = 39.74998 68.11242 66.37120
#
# Poissons Ratio (x) = 0.33803 0.74652
# Poissons Ratio (y) = 0.19727 0.20545
# Poissons Ratio (z) = 0.44710 0.21084
#
# Static dielectric constant tensor:
#      x y z
#    x 3.531920 0.000000 0.000000 
#    y 0.000000 3.496760 0.000000 
#    z 0.000000 0.000000 3.609920 
# 
# 
# High freq. dielectric constant tensor:
#      x y z
#    x 1.763150 0.000000 0.000000 
#    y 0.000000 1.767660 0.000000 
#    z 0.000000 0.000000 1.784770 
# 
# From -- ./inp_files/15829.got.cif
#   From: 2010.03.12/outbox.cif.g09.slc.cpg/sg56_8_cif.got.tgz:15829.got - 2010.04.16 15:33:40.
