data_PCOD8228518
_publ_section_title
;
Structure prediction by ZEFSAII (Michael W. Deem and Ramdas Pophale) SiO2 
 PCOD8228518
Probable space group: P C C N
;
_chemical_formula_sum "Si O2"
_cell_formula_units_Z 64
_cell_length_a 12.026453
_cell_length_b 28.732930
_cell_length_c 8.882681
_cell_angle_alpha 90.000000
_cell_angle_beta 90.000000
_cell_angle_gamma 90.000000
_cell_volume 3069.456895
_symmetry_space_group_name_H-M "P C C N"
_symmetry_group_IT_number 56
_symmetry_cell_setting 'orthorhombic'
loop_
_space_group_symop_operation_xyz
x,y,z
1/2-x,1/2-y,z
1/2+x,-y,1/2-z
-x,1/2+y,1/2-z
-x,-y,-z
1/2+x,1/2+y,-z
1/2-x,y,1/2+z
x,1/2-y,1/2+z
loop_
_atom_site_type_symbol
_atom_site_label
_atom_site_fract_x
_atom_site_fract_y
_atom_site_fract_z
Si Si1 0.752860 0.361600 0.356704
Si Si2 0.388207 0.115661 0.925871
Si Si3 0.213387 0.928088 0.901098
Si Si4 0.963414 0.455742 0.092800
Si Si5 0.452644 0.693321 0.545187
Si Si6 0.122895 0.023553 0.840938
Si Si7 0.705838 0.573867 0.870468
Si Si8 0.865864 0.272536 0.249114
O O1 0.811881 0.405872 0.435934
O O2 0.708739 0.381790 0.199957
O O3 0.646422 0.344201 0.448700
O O4 0.839804 0.319369 0.342038
O O5 0.428157 0.169310 0.923253
O O6 0.369542 0.100828 0.751584
O O7 0.488882 0.088269 0.004201
O O8 0.279304 0.109974 0.030646
O O9 0.331568 0.954027 0.900446
O O10 0.123469 0.967297 0.857170
O O11 0.007915 0.460163 0.264651
O O12 0.000000 0.500000 0.000000
O O13 0.451523 0.714961 0.380561
O O14 0.434528 0.735484 0.657629
O O15 0.220145 0.037884 0.724677
O O16 0.132155 0.045779 0.007579
O O17 0.750000 0.250000 0.188577
#
# Coordination Sequence:
#
# PCOD8228518 Si02
#       8
#     8   8   8   8   8   8   8   8
#     4  11  21  37  58  86 124 157 193 249 303 364
#     4  10  20  39  64  88 115 159 211 249 314 369
#     4  12  22  37  57  89 123 166 209 254 301 360
#     4  11  21  37  58  81 124 169 207 259 307 361
#     4  11  22  40  62  90 118 157 199 248 305 388
#     4  10  21  37  57  86 125 166 211 256 307 354
#     4   9  19  39  61  84 120 162 205 260 306 355
#     4  10  21  38  62  89 124 156 191 242 320 372
#
# _framework density 20.850594000000001
#
# number of rings (size 3 to 8) (size 9 to 14) (size 15 to 20)
#    0.000    1.500    2.500    4.875    1.750    0.000 
#    2.250    6.875    0.000    2.250    0.000    0.000 
#    0.000    0.000    0.000    0.000    0.000    0.000 
#
# Total GULP energy -793461.049816 kJ/mol
# GULP energy per Si atom -12397.828903 kJ/mol
# Density = 2.080314 g / cm^3
# Si number density = 20.850594 Si / 1000 Ang^3
#
#
#
# Elastic Constant Matrix: (Units=GPa)
#
#
# Indices 1 2 3 4 5 6 
#
# 1 23.8100 35.9321 22.0788 0.0000 0.0000 0.0000
# 2 35.9321 128.7423 45.4386 0.0000 0.0000 0.0000
# 3 22.0788 45.4386 111.4388 0.0000 0.0000 0.0000
# 4 0.0000 0.0000 0.0000 32.7458 0.0000 0.0000
# 5 0.0000 0.0000 0.0000 0.0000 9.8511 0.0000
# 6 0.0000 0.0000 0.0000 0.0000 0.0000 31.1057
#
#
#
# Elastic Compliance Matrix: (Units=1/GPa)
#
#
# Indices 1 2 3 4 5 6 
#
# 1 0.077786 -0.019006 -0.007662 0.000000 0.000000 0.000000
# 2 -0.019006 0.013717 -0.001827 0.000000 0.000000 0.000000
# 3 -0.007662 -0.001827 0.011237 0.000000 0.000000 0.000000
# 4 0.000000 0.000000 0.000000 0.030538 0.000000 0.000000
# 5 0.000000 0.000000 0.000000 0.000000 0.101512 0.000000
# 6 0.000000 0.000000 0.000000 0.000000 0.000000 0.032148
#
#
# Mechanical properties :
#
#
# Convention : Reuss Voigt Hill
#
# Bulk Modulus (GPa) = 21.85818 52.32114 37.08966
# Shear Modulus (GPa) = 14.74147 25.44328 20.09238
#
# Velocity S-wave (km/s) = 2.66184 3.49702 3.10762
# Velocity P-wave (km/s) = 4.46690 6.43843 5.54105
#
# Compressibility (1/GPa) = 0.04574947
#
# Stress axis : x y z
#
# Youngs Moduli (GPa) = 12.85570 72.90181 88.99433
#
# Poissons Ratio (x) = 1.38558 0.68185
# Poissons Ratio (y) = 0.24434 0.16264
# Poissons Ratio (z) = 0.09850 0.13323
#
# Static dielectric constant tensor:
#      x y z
#    x 3.679480 0.000000 0.000000 
#    y 0.000000 3.888350 0.000000 
#    z 0.000000 0.000000 3.438790 
# 
# 
# High freq. dielectric constant tensor:
#      x y z
#    x 1.781230 0.000000 0.000000 
#    y 0.000000 1.814480 0.000000 
#    z 0.000000 0.000000 1.834650 
# 
# From -- ./inp_files/2959.got.cif
#   From: 2010.03.12/outbox.cif.g09.slc.cpg/sg56_2_cif.got.tgz:2959.got - 2010.04.16 15:33:40.
