data_PCOD8228284
_publ_section_title
;
Structure prediction by ZEFSAII (Michael W. Deem and Ramdas Pophale) SiO2 
 PCOD8228284
Probable space group: P C C N
;
_chemical_formula_sum "Si O2"
_cell_formula_units_Z 52
_cell_length_a 20.340140
_cell_length_b 14.425813
_cell_length_c 8.898440
_cell_angle_alpha 90.000000
_cell_angle_beta 90.000000
_cell_angle_gamma 90.000000
_cell_volume 2611.007459
_symmetry_space_group_name_H-M "P C C N"
_symmetry_group_IT_number 56
_symmetry_cell_setting 'orthorhombic'
loop_
_space_group_symop_operation_xyz
x,y,z
1/2-x,1/2-y,z
1/2+x,-y,1/2-z
-x,1/2+y,1/2-z
-x,-y,-z
1/2+x,1/2+y,-z
1/2-x,y,1/2+z
x,1/2-y,1/2+z
loop_
_atom_site_type_symbol
_atom_site_label
_atom_site_fract_x
_atom_site_fract_y
_atom_site_fract_z
Si Si1 0.700814 0.169172 0.144523
Si Si2 0.462799 0.058009 0.127267
Si Si3 0.424389 0.624007 0.746983
Si Si4 0.213149 0.932103 0.649882
Si Si5 0.316684 0.367243 0.612246
Si Si6 0.058178 0.790505 0.419923
Si Si7 0.750000 0.750000 0.143296
O O1 0.750000 0.250000 0.093192
O O2 0.721508 0.121817 0.300623
O O3 0.627556 0.204534 0.166359
O O4 0.698825 0.087989 0.022732
O O5 0.392092 0.101746 0.081957
O O6 0.507909 0.144692 0.173865
O O7 0.454313 0.980111 0.256214
O O8 0.500000 0.000000 0.000000
O O9 0.345719 0.608880 0.753377
O O10 0.442271 0.681144 0.593738
O O11 0.456348 0.681185 0.886824
O O12 0.223827 0.041808 0.662022
O O13 0.287800 0.324831 0.458924
O O14 0.306290 0.296194 0.750937
#
# Coordination Sequence:
#
# PCOD8228284 Si02
#       7
#     8   8   8   8   8   8   4
#     4  11  20  31  53  81 113 145 185 227 281 343
#     4   9  20  38  58  81 115 156 192 227 289 360
#     4   9  19  35  53  75 107 142 188 226 276 336
#     4  10  20  33  52  80 112 146 179 237 288 340
#     4  10  21  39  61  87 115 150 198 248 299 345
#     4  10  20  34  54  79 109 151 183 228 280 340
#     4  10  22  40  64  90 110 148 204 256 298 338
#
# _framework density 19.915685
#
# number of rings (size 3 to 8) (size 9 to 14) (size 15 to 20)
#    0.000    2.154    1.538    2.308    2.154    2.462 
#    0.000    2.308    0.000    0.000    0.000    0.000 
#    0.000    0.000    0.000    0.000    0.000    0.000 
#
# Total GULP energy -644201.097636 kJ/mol
# GULP energy per Si atom -12388.482647 kJ/mol
# Density = 1.987036 g / cm^3
# Si number density = 19.915685 Si / 1000 Ang^3
#
#
#
# Elastic Constant Matrix: (Units=GPa)
#
#
# Indices 1 2 3 4 5 6 
#
# 1 90.5458 35.2243 9.7382 0.0000 0.0000 0.0000
# 2 35.2243 102.1342 23.3637 0.0000 0.0000 0.0000
# 3 9.7382 23.3637 48.4938 0.0000 0.0000 0.0000
# 4 0.0000 0.0000 0.0000 36.3582 0.0000 0.0000
# 5 0.0000 0.0000 0.0000 0.0000 12.0731 0.0000
# 6 0.0000 0.0000 0.0000 0.0000 0.0000 35.9536
#
#
#
# Elastic Compliance Matrix: (Units=1/GPa)
#
#
# Indices 1 2 3 4 5 6 
#
# 1 0.012766 -0.004289 -0.000497 0.000000 0.000000 0.000000
# 2 -0.004289 0.012445 -0.005134 0.000000 0.000000 0.000000
# 3 -0.000497 -0.005134 0.023195 0.000000 0.000000 0.000000
# 4 0.000000 0.000000 0.000000 0.027504 0.000000 0.000000
# 5 0.000000 0.000000 0.000000 0.000000 0.082829 0.000000
# 6 0.000000 0.000000 0.000000 0.000000 0.000000 0.027814
#
#
# Mechanical properties :
#
#
# Convention : Reuss Voigt Hill
#
# Bulk Modulus (GPa) = 35.00879 41.98071 38.49475
# Shear Modulus (GPa) = 23.15723 28.40014 25.77869
#
# Velocity S-wave (km/s) = 3.41363 3.78036 3.60167
# Velocity P-wave (km/s) = 5.75794 6.33876 6.05531
#
# Compressibility (1/GPa) = 0.02856426
#
# Stress axis : x y z
#
# Youngs Moduli (GPa) = 78.33207 80.35478 43.11322
#
# Poissons Ratio (x) = 0.34465 0.02143
# Poissons Ratio (y) = 0.33597 0.22136
# Poissons Ratio (z) = 0.03894 0.41258
#
# Static dielectric constant tensor:
#      x y z
#    x 3.808500 0.000000 0.000000 
#    y 0.000000 3.993650 0.000000 
#    z 0.000000 0.000000 3.207480 
# 
# 
# High freq. dielectric constant tensor:
#      x y z
#    x 1.766200 0.000000 0.000000 
#    y 0.000000 1.798800 0.000000 
#    z 0.000000 0.000000 1.745200 
# 
# From -- ./inp_files/3524.got.cif
#   From: 2010.03.12/outbox.cif.g09.slc.cpg/sg56_2_cif.got.tgz:3524.got - 2010.04.16 15:33:40.
