data_PCOD8228610
_publ_section_title
;
Structure prediction by ZEFSAII (Michael W. Deem and Ramdas Pophale) SiO2 
 PCOD8228610
Probable space group: P C C N
;
_chemical_formula_sum "Si O2"
_cell_formula_units_Z 60
_cell_length_a 14.547103
_cell_length_b 16.612134
_cell_length_c 11.828240
_cell_angle_alpha 90.000000
_cell_angle_beta 90.000000
_cell_angle_gamma 90.000000
_cell_volume 2858.393841
_symmetry_space_group_name_H-M "P C C N"
_symmetry_group_IT_number 56
_symmetry_cell_setting 'orthorhombic'
loop_
_space_group_symop_operation_xyz
x,y,z
1/2-x,1/2-y,z
1/2+x,-y,1/2-z
-x,1/2+y,1/2-z
-x,-y,-z
1/2+x,1/2+y,-z
1/2-x,y,1/2+z
x,1/2-y,1/2+z
loop_
_atom_site_type_symbol
_atom_site_label
_atom_site_fract_x
_atom_site_fract_y
_atom_site_fract_z
Si Si1 0.467726 0.381266 0.955820
Si Si2 0.824645 0.054448 0.561794
Si Si3 0.870430 0.617886 0.129937
Si Si4 0.058852 0.542929 0.165617
Si Si5 0.624466 0.043909 0.594410
Si Si6 0.966964 0.125192 0.705891
Si Si7 0.908029 0.776978 0.426495
Si Si8 0.750000 0.750000 0.261148
O O1 0.392893 0.451098 0.939844
O O2 0.523626 0.364163 0.840413
O O3 0.541216 0.402620 0.050197
O O4 0.410595 0.305055 0.001495
O O5 0.887119 0.063775 0.449822
O O6 0.718512 0.077038 0.538651
O O7 0.863004 0.111704 0.662424
O O8 0.817235 0.965145 0.613161
O O9 0.801683 0.680273 0.190896
O O10 0.969510 0.600296 0.189214
O O11 0.896560 0.649166 0.008539
O O12 0.128234 0.554050 0.270102
O O13 0.025134 0.451003 0.160051
O O14 0.000632 0.207905 0.647372
O O15 0.825027 0.789189 0.340512
#
# Coordination Sequence:
#
# PCOD8228610 Si02
#       8
#     8   8   8   8   8   8   8   4
#     4  10  24  43  62  94 135 174 208 281 342 395
#     4  11  22  39  69  93 126 171 228 274 313 400
#     4  11  23  41  61  94 130 169 213 264 334 393
#     4  10  20  43  65  89 131 175 217 271 330 385
#     4  10  24  40  65  95 128 170 226 270 332 393
#     4  10  21  41  65  92 125 175 220 266 331 391
#     4  12  23  41  62  92 134 170 213 263 340 404
#     4  12  28  34  62 100 134 170 214 270 330 406
#
# _framework density 20.990808999999999
#
# number of rings (size 3 to 8) (size 9 to 14) (size 15 to 20)
#    0.000    1.333    2.667    2.800    9.333    1.067 
#    0.000    0.667    0.000    1.600    0.000    0.000 
#    0.000    0.000    0.000    0.000    0.000    0.000 
#
# Total GULP energy -743657.442435 kJ/mol
# GULP energy per Si atom -12394.290707 kJ/mol
# Density = 2.094303 g / cm^3
# Si number density = 20.990809 Si / 1000 Ang^3
#
#
#
# Elastic Constant Matrix: (Units=GPa)
#
#
# Indices 1 2 3 4 5 6 
#
# 1 122.2511 30.1286 41.1184 0.0000 0.0000 0.0000
# 2 30.1286 63.8035 24.9093 0.0000 0.0000 0.0000
# 3 41.1184 24.9093 104.8088 0.0000 0.0000 0.0000
# 4 0.0000 0.0000 0.0000 33.9163 0.0000 0.0000
# 5 0.0000 0.0000 0.0000 0.0000 28.7829 0.0000
# 6 0.0000 0.0000 0.0000 0.0000 0.0000 14.4976
#
#
#
# Elastic Compliance Matrix: (Units=1/GPa)
#
#
# Indices 1 2 3 4 5 6 
#
# 1 0.010105 -0.003554 -0.003120 0.000000 0.000000 0.000000
# 2 -0.003554 0.018526 -0.003009 0.000000 0.000000 0.000000
# 3 -0.003120 -0.003009 0.011480 0.000000 0.000000 0.000000
# 4 0.000000 0.000000 0.000000 0.029484 0.000000 0.000000
# 5 0.000000 0.000000 0.000000 0.000000 0.034743 0.000000
# 6 0.000000 0.000000 0.000000 0.000000 0.000000 0.068977
#
#
# Mechanical properties :
#
#
# Convention : Reuss Voigt Hill
#
# Bulk Modulus (GPa) = 48.20069 53.68621 50.94345
# Shear Modulus (GPa) = 25.05070 28.41983 26.73527
#
# Velocity S-wave (km/s) = 3.45833 3.68355 3.57272
# Velocity P-wave (km/s) = 6.24174 6.61234 6.42971
#
# Compressibility (1/GPa) = 0.02074659
#
# Stress axis : x y z
#
# Youngs Moduli (GPa) = 98.96090 53.97870 87.10648
#
# Poissons Ratio (x) = 0.19182 0.27175
# Poissons Ratio (y) = 0.35168 0.26208
# Poissons Ratio (z) = 0.30874 0.16241
#
# Static dielectric constant tensor:
#      x y z
#    x 3.768050 0.000000 0.000000 
#    y 0.000000 3.640170 0.000000 
#    z 0.000000 0.000000 3.908480 
# 
# 
# High freq. dielectric constant tensor:
#      x y z
#    x 1.816480 0.000000 0.000000 
#    y 0.000000 1.805020 0.000000 
#    z 0.000000 0.000000 1.836210 
# 
# From -- ./inp_files/8037.got.cif
#   From: 2010.03.12/outbox.cif.g09.slc.cpg/sg56_5_cif.got.tgz:8037.got - 2010.04.16 15:33:40.
