data_PCOD8228175
_publ_section_title
;
Structure prediction by ZEFSAII (Michael W. Deem and Ramdas Pophale) SiO2 
 PCOD8228175
Probable space group: P C C N
;
_chemical_formula_sum "Si O2"
_cell_formula_units_Z 52
_cell_length_a 20.285804
_cell_length_b 8.081623
_cell_length_c 13.675317
_cell_angle_alpha 90.000000
_cell_angle_beta 90.000000
_cell_angle_gamma 90.000000
_cell_volume 2241.961831
_symmetry_space_group_name_H-M "P C C N"
_symmetry_group_IT_number 56
_symmetry_cell_setting 'orthorhombic'
loop_
_space_group_symop_operation_xyz
x,y,z
1/2-x,1/2-y,z
1/2+x,-y,1/2-z
-x,1/2+y,1/2-z
-x,-y,-z
1/2+x,1/2+y,-z
1/2-x,y,1/2+z
x,1/2-y,1/2+z
loop_
_atom_site_type_symbol
_atom_site_label
_atom_site_fract_x
_atom_site_fract_y
_atom_site_fract_z
Si Si1 0.877189 0.181617 0.639610
Si Si2 0.013749 0.432989 0.149581
Si Si3 0.625368 0.340156 0.860933
Si Si4 0.144828 0.001962 0.549966
Si Si5 0.356419 0.023705 0.449672
Si Si6 0.750000 0.750000 0.998168
Si Si7 0.525945 0.698019 0.145113
O O1 0.858761 0.118749 0.748295
O O2 0.847362 0.051972 0.563041
O O3 0.850424 0.365484 0.620435
O O4 0.956691 0.200133 0.624968
O O5 0.070662 0.427695 0.067632
O O6 0.047018 0.388912 0.253078
O O7 0.972673 0.604150 0.155695
O O8 0.654586 0.157002 0.880586
O O9 0.547937 0.348513 0.884757
O O10 0.654447 0.473195 0.936034
O O11 0.200735 0.139614 0.570270
O O12 0.293841 0.139185 0.428674
O O13 0.422774 0.131147 0.435350
#
# Coordination Sequence:
#
# PCOD8228175 Si02
#       7
#     8   8   8   8   8   4   8
#     4  10  21  41  68  96 124 156 201 258 320 377
#     4  10  20  37  66 100 131 158 199 256 319 378
#     4   9  21  40  67  96 120 156 200 254 317 372
#     4  10  22  42  61  87 128 167 202 251 304 359
#     4  11  23  41  62  88 129 167 204 253 304 362
#     4  12  28  44  60  86 122 170 220 254 292 368
#     4  10  19  36  64 101 130 156 198 253 317 378
#
# _framework density 23.193973
#
# number of rings (size 3 to 8) (size 9 to 14) (size 15 to 20)
#    0.000    1.846    0.000    4.615    0.000    8.615 
#    0.000   10.000    0.000    0.000    0.000    0.000 
#    0.000    0.000    0.000    0.000    0.000    0.000 
#
# Total GULP energy -644675.068575 kJ/mol
# GULP energy per Si atom -12397.597473 kJ/mol
# Density = 2.314118 g / cm^3
# Si number density = 23.193973 Si / 1000 Ang^3
#
#
#
# Elastic Constant Matrix: (Units=GPa)
#
#
# Indices 1 2 3 4 5 6 
#
# 1 80.5046 64.8427 32.6790 0.0000 0.0000 0.0000
# 2 64.8427 114.2964 50.7156 0.0000 0.0000 0.0000
# 3 32.6790 50.7156 128.4134 0.0000 0.0000 0.0000
# 4 0.0000 0.0000 0.0000 25.1658 0.0000 0.0000
# 5 0.0000 0.0000 0.0000 0.0000 10.6414 0.0000
# 6 0.0000 0.0000 0.0000 0.0000 0.0000 42.1118
#
#
#
# Elastic Compliance Matrix: (Units=1/GPa)
#
#
# Indices 1 2 3 4 5 6 
#
# 1 0.022950 -0.012644 -0.000847 0.000000 0.000000 0.000000
# 2 -0.012644 0.017574 -0.003723 0.000000 0.000000 0.000000
# 3 -0.000847 -0.003723 0.009473 0.000000 0.000000 0.000000
# 4 0.000000 0.000000 0.000000 0.039736 0.000000 0.000000
# 5 0.000000 0.000000 0.000000 0.000000 0.093973 0.000000
# 6 0.000000 0.000000 0.000000 0.000000 0.000000 0.023746
#
#
# Mechanical properties :
#
#
# Convention : Reuss Voigt Hill
#
# Bulk Modulus (GPa) = 64.22807 68.85435 66.54121
# Shear Modulus (GPa) = 20.23714 27.24893 23.74303
#
# Velocity S-wave (km/s) = 2.95704 3.43129 3.20296
# Velocity P-wave (km/s) = 6.27779 6.74160 6.51382
#
# Compressibility (1/GPa) = 0.01556952
#
# Stress axis : x y z
#
# Youngs Moduli (GPa) = 43.57385 56.90072 105.56071
#
# Poissons Ratio (x) = 0.71946 0.08937
# Poissons Ratio (y) = 0.55095 0.39302
# Poissons Ratio (z) = 0.03689 0.21185
#
# Static dielectric constant tensor:
#      x y z
#    x 3.960320 0.000000 0.000000 
#    y 0.000000 4.301300 0.000000 
#    z 0.000000 0.000000 4.031800 
# 
# 
# High freq. dielectric constant tensor:
#      x y z
#    x 1.895260 0.000000 0.000000 
#    y 0.000000 1.926560 0.000000 
#    z 0.000000 0.000000 1.902940 
# 
# From -- ./inp_files/13027.got.cif
#   From: 2010.03.12/outbox.cif.g09.slc.cpg/sg56_7_cif.got.tgz:13027.got - 2010.04.16 15:33:40.
