data_PCOD8228235
_publ_section_title
;
Structure prediction by ZEFSAII (Michael W. Deem and Ramdas Pophale) SiO2 
 PCOD8228235
Probable space group: P C C N
;
_chemical_formula_sum "Si O2"
_cell_formula_units_Z 64
_cell_length_a 17.716215
_cell_length_b 14.188702
_cell_length_c 11.915170
_cell_angle_alpha 90.000000
_cell_angle_beta 90.000000
_cell_angle_gamma 90.000000
_cell_volume 2995.117417
_symmetry_space_group_name_H-M "P C C N"
_symmetry_group_IT_number 56
_symmetry_cell_setting 'orthorhombic'
loop_
_space_group_symop_operation_xyz
x,y,z
1/2-x,1/2-y,z
1/2+x,-y,1/2-z
-x,1/2+y,1/2-z
-x,-y,-z
1/2+x,1/2+y,-z
1/2-x,y,1/2+z
x,1/2-y,1/2+z
loop_
_atom_site_type_symbol
_atom_site_label
_atom_site_fract_x
_atom_site_fract_y
_atom_site_fract_z
Si Si1 0.280255 0.986511 0.532638
Si Si2 0.375118 0.937628 0.927477
Si Si3 0.903896 0.354591 0.846525
Si Si4 0.777798 0.646070 0.294122
Si Si5 0.989506 0.044107 0.880173
Si Si6 0.357677 0.846041 0.687661
Si Si7 0.934078 0.597242 0.207674
Si Si8 0.352082 0.479656 0.807502
O O1 0.198086 0.982913 0.481725
O O2 0.291915 0.900602 0.620393
O O3 0.291704 0.087709 0.592130
O O4 0.338350 0.974557 0.429654
O O5 0.355018 0.877745 0.817001
O O6 0.429466 0.025614 0.898211
O O7 0.412617 0.869920 0.019844
O O8 0.849730 0.266474 0.818240
O O9 0.860469 0.441626 0.788438
O O10 0.990061 0.339834 0.802063
O O11 0.750000 0.750000 0.326268
O O12 0.855742 0.655279 0.222125
O O13 0.713897 0.593543 0.220891
O O14 0.939758 0.965627 0.818125
O O15 0.937679 0.136564 0.875697
O O16 0.066891 0.071582 0.817078
O O17 0.000000 0.000000 0.000000
#
# Coordination Sequence:
#
# PCOD8228235 Si02
#       8
#     8   8   8   8   8   8   8   8
#     4  12  22  47  68  96 143 184 226 288 349 405
#     4  11  23  46  69  96 145 184 225 290 347 412
#     4  11  26  42  72 104 137 189 230 284 352 415
#     4  12  25  44  69 104 134 177 231 287 350 421
#     4  10  19  39  69  91 134 184 221 275 335 399
#     4  11  25  43  68 107 139 184 239 285 341 418
#     4  10  22  45  66  99 141 177 227 285 343 407
#     4  11  23  43  68  95 136 180 228 278 352 408
#
# _framework density 21.368110000000001
#
# number of rings (size 3 to 8) (size 9 to 14) (size 15 to 20)
#    0.000    1.000    6.250    0.375    3.500    1.000 
#    0.000    1.250    0.000    0.000    0.000    0.000 
#    0.000    0.000    0.000    0.000    0.000    0.000 
#
# Total GULP energy -793362.349153 kJ/mol
# GULP energy per Si atom -12396.286706 kJ/mol
# Density = 2.131948 g / cm^3
# Si number density = 21.368110 Si / 1000 Ang^3
#
#
#
# Elastic Constant Matrix: (Units=GPa)
#
#
# Indices 1 2 3 4 5 6 
#
# 1 86.6987 27.4284 20.7171 0.0000 0.0000 0.0000
# 2 27.4284 98.5122 41.9049 0.0000 0.0000 0.0000
# 3 20.7171 41.9049 123.2942 0.0000 0.0000 0.0000
# 4 0.0000 0.0000 0.0000 18.0205 0.0000 0.0000
# 5 0.0000 0.0000 0.0000 0.0000 36.3569 0.0000
# 6 0.0000 0.0000 0.0000 0.0000 0.0000 31.5274
#
#
#
# Elastic Compliance Matrix: (Units=1/GPa)
#
#
# Indices 1 2 3 4 5 6 
#
# 1 0.012774 -0.003090 -0.001096 0.000000 0.000000 0.000000
# 2 -0.003090 0.012614 -0.003768 0.000000 0.000000 0.000000
# 3 -0.001096 -0.003768 0.009576 0.000000 0.000000 0.000000
# 4 0.000000 0.000000 0.000000 0.055492 0.000000 0.000000
# 5 0.000000 0.000000 0.000000 0.000000 0.027505 0.000000
# 6 0.000000 0.000000 0.000000 0.000000 0.000000 0.031718
#
#
# Mechanical properties :
#
#
# Convention : Reuss Voigt Hill
#
# Bulk Modulus (GPa) = 52.48033 54.28956 53.38495
# Shear Modulus (GPa) = 29.07993 31.74461 30.41227
#
# Velocity S-wave (km/s) = 3.69304 3.85854 3.77670
# Velocity P-wave (km/s) = 6.54203 6.73150 6.63744
#
# Compressibility (1/GPa) = 0.01905476
#
# Stress axis : x y z
#
# Youngs Moduli (GPa) = 78.28541 79.27511 104.43296
#
# Poissons Ratio (x) = 0.24499 0.11446
# Poissons Ratio (y) = 0.24193 0.39351
# Poissons Ratio (z) = 0.08580 0.29871
#
# Static dielectric constant tensor:
#      x y z
#    x 6.858990 0.000000 0.000000 
#    y 0.000000 3.589860 0.000000 
#    z 0.000000 0.000000 4.070570 
# 
# 
# High freq. dielectric constant tensor:
#      x y z
#    x 1.860240 0.000000 0.000000 
#    y 0.000000 1.805460 0.000000 
#    z 0.000000 0.000000 1.847870 
# 
# From -- ./inp_files/8414.got.cif
#   From: 2010.03.12/outbox.cif.g09.slc.cpg/sg56_5_cif.got.tgz:8414.got - 2010.04.16 15:33:40.
