data_PCOD8228180
_publ_section_title
;
Structure prediction by ZEFSAII (Michael W. Deem and Ramdas Pophale) SiO2 
 PCOD8228180
Probable space group: P C C N
;
_chemical_formula_sum "Si O2"
_cell_formula_units_Z 64
_cell_length_a 8.618846
_cell_length_b 25.439423
_cell_length_c 14.113169
_cell_angle_alpha 90.000000
_cell_angle_beta 90.000000
_cell_angle_gamma 90.000000
_cell_volume 3094.431830
_symmetry_space_group_name_H-M "P C C N"
_symmetry_group_IT_number 56
_symmetry_cell_setting 'orthorhombic'
loop_
_space_group_symop_operation_xyz
x,y,z
1/2-x,1/2-y,z
1/2+x,-y,1/2-z
-x,1/2+y,1/2-z
-x,-y,-z
1/2+x,1/2+y,-z
1/2-x,y,1/2+z
x,1/2-y,1/2+z
loop_
_atom_site_type_symbol
_atom_site_label
_atom_site_fract_x
_atom_site_fract_y
_atom_site_fract_z
Si Si1 0.169568 0.370493 0.972613
Si Si2 0.188529 0.340583 0.180351
Si Si3 0.611407 0.714952 0.667472
Si Si4 0.620424 0.575489 0.168292
Si Si5 0.383890 0.713813 0.264099
Si Si6 0.921090 0.049628 0.422686
Si Si7 0.295670 0.900754 0.720324
Si Si8 0.683560 0.476978 0.614392
O O1 0.074376 0.326851 0.913937
O O2 0.322979 0.386485 0.915263
O O3 0.052382 0.419145 0.982260
O O4 0.235033 0.351347 0.072812
O O5 0.328715 0.310360 0.232732
O O6 0.160355 0.396375 0.231821
O O7 0.029975 0.305585 0.173276
O O8 0.750000 0.750000 0.625764
O O9 0.456267 0.749263 0.681935
O O10 0.435109 0.571843 0.162109
O O11 0.693812 0.517975 0.158351
O O12 0.250000 0.750000 0.315372
O O13 0.302542 0.662213 0.220841
O O14 0.858285 0.083807 0.336118
O O15 0.791000 0.033765 0.501361
O O16 0.007543 0.999495 0.375338
O O17 0.294775 0.923065 0.827561
#
# Coordination Sequence:
#
# PCOD8228180 Si02
#       8
#     8   8   8   8   8   8   8   8
#     4  10  19  37  58  80 110 146 185 228 272 331
#     4   9  19  37  60  81 108 146 187 223 267 334
#     4   9  19  35  55  81 108 143 187 226 272 325
#     4   9  20  36  57  83 111 144 183 227 274 327
#     4  10  20  36  55  79 113 145 179 231 280 323
#     4  10  21  36  58  83 110 147 187 225 281 339
#     4  11  21  37  57  82 114 148 184 232 283 330
#     4  10  21  38  58  80 111 150 188 229 274 334
#
# _framework density 20.682310000000001
#
# number of rings (size 3 to 8) (size 9 to 14) (size 15 to 20)
#    0.000    2.250    0.000    3.750    0.000    4.000 
#    0.000    9.375    0.000    0.000    0.000    0.000 
#    0.000    0.000    0.000    0.000    0.000    0.000 
#
# Total GULP energy -793164.523634 kJ/mol
# GULP energy per Si atom -12393.195682 kJ/mol
# Density = 2.063524 g / cm^3
# Si number density = 20.682310 Si / 1000 Ang^3
#
#
#
# Elastic Constant Matrix: (Units=GPa)
#
#
# Indices 1 2 3 4 5 6 
#
# 1 43.6357 20.6213 19.5087 0.0000 0.0000 0.0000
# 2 20.6213 92.9426 30.8968 0.0000 0.0000 0.0000
# 3 19.5087 30.8968 108.9005 0.0000 0.0000 0.0000
# 4 0.0000 0.0000 0.0000 19.4691 0.0000 0.0000
# 5 0.0000 0.0000 0.0000 0.0000 16.5108 0.0000
# 6 0.0000 0.0000 0.0000 0.0000 0.0000 39.9608
#
#
#
# Elastic Compliance Matrix: (Units=1/GPa)
#
#
# Indices 1 2 3 4 5 6 
#
# 1 0.026712 -0.004787 -0.003427 0.000000 0.000000 0.000000
# 2 -0.004787 0.012738 -0.002756 0.000000 0.000000 0.000000
# 3 -0.003427 -0.002756 0.010579 0.000000 0.000000 0.000000
# 4 0.000000 0.000000 0.000000 0.051363 0.000000 0.000000
# 5 0.000000 0.000000 0.000000 0.000000 0.060567 0.000000
# 6 0.000000 0.000000 0.000000 0.000000 0.000000 0.025025
#
#
# Mechanical properties :
#
#
# Convention : Reuss Voigt Hill
#
# Bulk Modulus (GPa) = 35.60387 43.05915 39.33151
# Shear Modulus (GPa) = 22.90577 26.81827 24.86202
#
# Velocity S-wave (km/s) = 3.33153 3.60485 3.47088
# Velocity P-wave (km/s) = 5.66134 6.17989 5.92629
#
# Compressibility (1/GPa) = 0.02808683
#
# Stress axis : x y z
#
# Youngs Moduli (GPa) = 37.43705 78.50667 94.53043
#
# Poissons Ratio (x) = 0.37584 0.32395
# Poissons Ratio (y) = 0.17922 0.26055
# Poissons Ratio (z) = 0.12829 0.21639
#
# Static dielectric constant tensor:
#      x y z
#    x 3.613260 0.000000 0.000000 
#    y 0.000000 3.986760 0.000000 
#    z 0.000000 0.000000 3.411230 
# 
# 
# High freq. dielectric constant tensor:
#      x y z
#    x 1.793340 0.000000 0.000000 
#    y 0.000000 1.826400 0.000000 
#    z 0.000000 0.000000 1.783000 
# 
# From -- ./inp_files/11053.got.cif
#   From: 2010.03.12/outbox.cif.g09.slc.cpg/sg56_6_cif.got.tgz:11053.got - 2010.04.16 15:33:40.
