data_PCOD8228401
_publ_section_title
;
Structure prediction by ZEFSAII (Michael W. Deem and Ramdas Pophale) SiO2 
 PCOD8228401
Probable space group: P C C N
;
_chemical_formula_sum "Si O2"
_cell_formula_units_Z 40
_cell_length_a 5.134752
_cell_length_b 23.099278
_cell_length_c 18.410727
_cell_angle_alpha 90.000000
_cell_angle_beta 90.000000
_cell_angle_gamma 90.000000
_cell_volume 2183.679095
_symmetry_space_group_name_H-M "P C C N"
_symmetry_group_IT_number 56
_symmetry_cell_setting 'orthorhombic'
loop_
_space_group_symop_operation_xyz
x,y,z
1/2-x,1/2-y,z
1/2+x,-y,1/2-z
-x,1/2+y,1/2-z
-x,-y,-z
1/2+x,1/2+y,-z
1/2-x,y,1/2+z
x,1/2-y,1/2+z
loop_
_atom_site_type_symbol
_atom_site_label
_atom_site_fract_x
_atom_site_fract_y
_atom_site_fract_z
Si Si1 0.145455 0.468580 0.223224
Si Si2 0.699569 0.521128 0.438971
Si Si3 0.693250 0.185684 0.369747
Si Si4 0.542369 0.912530 0.552092
Si Si5 0.704068 0.634813 0.682558
O O1 0.377292 0.515071 0.235990
O O2 0.071794 0.463152 0.137998
O O3 0.251820 0.406142 0.248354
O O4 0.500000 0.500000 0.500000
O O5 0.844907 0.578818 0.470810
O O6 0.905666 0.471244 0.423164
O O7 0.750000 0.250000 0.398997
O O8 0.652625 0.143113 0.439954
O O9 0.431189 0.183802 0.320746
O O10 0.922984 0.164475 0.316453
O O11 0.779619 0.904564 0.609400
#
# Coordination Sequence:
#
# PCOD8228401 Si02
#       5
#     8   8   8   8   8
#     4  12  22  36  56  85 122 158 189 234 291 366
#     4  11  21  35  56  86 128 155 188 236 306 364
#     4  10  20  37  61  84 109 150 205 261 283 338
#     4   9  20  34  53  87 113 154 188 235 291 361
#     4  10  20  37  55  89 112 146 203 238 295 348
#
# _framework density 18.317710000000002
#
# number of rings (size 3 to 8) (size 9 to 14) (size 15 to 20)
#    1.200    0.400    2.000    5.400    2.800    0.000 
#    0.000    0.000    0.000    1.200   10.400    0.000 
#    0.000    0.000    0.000    0.000    0.000    0.000 
#
# Total GULP energy -495527.180750 kJ/mol
# GULP energy per Si atom -12388.179519 kJ/mol
# Density = 1.827602 g / cm^3
# Si number density = 18.317710 Si / 1000 Ang^3
#
#
#
# Elastic Constant Matrix: (Units=GPa)
#
#
# Indices 1 2 3 4 5 6 
#
# 1 93.2462 19.7679 25.9413 0.0000 0.0000 0.0000
# 2 19.7679 98.0943 38.5488 0.0000 0.0000 0.0000
# 3 25.9413 38.5488 115.5418 0.0000 0.0000 0.0000
# 4 0.0000 0.0000 0.0000 20.1321 0.0000 0.0000
# 5 0.0000 0.0000 0.0000 0.0000 20.6683 0.0000
# 6 0.0000 0.0000 0.0000 0.0000 0.0000 25.4950
#
#
#
# Elastic Compliance Matrix: (Units=1/GPa)
#
#
# Indices 1 2 3 4 5 6 
#
# 1 0.011632 -0.001517 -0.002106 0.000000 0.000000 0.000000
# 2 -0.001517 0.011930 -0.003640 0.000000 0.000000 0.000000
# 3 -0.002106 -0.003640 0.010342 0.000000 0.000000 0.000000
# 4 0.000000 0.000000 0.000000 0.049672 0.000000 0.000000
# 5 0.000000 0.000000 0.000000 0.000000 0.048383 0.000000
# 6 0.000000 0.000000 0.000000 0.000000 0.000000 0.039223
#
#
# Mechanical properties :
#
#
# Convention : Reuss Voigt Hill
#
# Bulk Modulus (GPa) = 51.59977 52.82203 52.21090
# Shear Modulus (GPa) = 26.01913 28.10069 27.05991
#
# Velocity S-wave (km/s) = 3.77296 3.92097 3.84768
# Velocity P-wave (km/s) = 6.87101 7.02836 6.95013
#
# Compressibility (1/GPa) = 0.01937993
#
# Stress axis : x y z
#
# Youngs Moduli (GPa) = 85.97291 83.82039 96.69318
#
# Poissons Ratio (x) = 0.12712 0.20359
# Poissons Ratio (y) = 0.13038 0.35195
# Poissons Ratio (z) = 0.18102 0.30509
#
# Static dielectric constant tensor:
#      x y z
#    x 3.526170 0.000000 0.000000 
#    y 0.000000 3.196840 0.000000 
#    z 0.000000 0.000000 3.192240 
# 
# 
# High freq. dielectric constant tensor:
#      x y z
#    x 1.726720 0.000000 0.000000 
#    y 0.000000 1.684580 0.000000 
#    z 0.000000 0.000000 1.679130 
# 
# From -- ./inp_files/14018.got.cif
#   From: 2010.03.12/outbox.cif.g09.slc.cpg/sg56_8_cif.got.tgz:14018.got - 2010.04.16 15:33:40.
