data_PCOD8228091
_publ_section_title
;
Structure prediction by ZEFSAII (Michael W. Deem and Ramdas Pophale) SiO2 
 PCOD8228091
Probable space group: P C C N
;
_chemical_formula_sum "Si O2"
_cell_formula_units_Z 60
_cell_length_a 12.730911
_cell_length_b 12.293892
_cell_length_c 18.839173
_cell_angle_alpha 90.000000
_cell_angle_beta 90.000000
_cell_angle_gamma 90.000000
_cell_volume 2948.565026
_symmetry_space_group_name_H-M "P C C N"
_symmetry_group_IT_number 56
_symmetry_cell_setting 'orthorhombic'
loop_
_space_group_symop_operation_xyz
x,y,z
1/2-x,1/2-y,z
1/2+x,-y,1/2-z
-x,1/2+y,1/2-z
-x,-y,-z
1/2+x,1/2+y,-z
1/2-x,y,1/2+z
x,1/2-y,1/2+z
loop_
_atom_site_type_symbol
_atom_site_label
_atom_site_fract_x
_atom_site_fract_y
_atom_site_fract_z
Si Si1 0.219548 0.483211 0.981752
Si Si2 0.639209 0.783148 0.722290
Si Si3 0.224652 0.994226 0.772098
Si Si4 0.250000 0.250000 0.542016
Si Si5 0.332086 0.656598 0.892852
Si Si6 0.623187 0.008169 0.873019
Si Si7 0.948908 0.731838 0.868207
Si Si8 0.092449 0.084231 0.354003
O O1 0.314293 0.555737 0.948185
O O2 0.124671 0.476756 0.925787
O O3 0.246965 0.357167 0.993765
O O4 0.179290 0.541105 0.053604
O O5 0.750000 0.750000 0.758078
O O6 0.645581 0.909976 0.700407
O O7 0.553200 0.754628 0.782647
O O8 0.621666 0.712237 0.651121
O O9 0.213521 0.988423 0.687001
O O10 0.346733 0.021907 0.789539
O O11 0.188600 0.885151 0.812489
O O12 0.348666 0.220331 0.591590
O O13 0.250000 0.750000 0.912632
O O14 0.447790 0.708918 0.899099
O O15 0.558138 0.896697 0.883355
O O16 0.533064 0.090016 0.847709
#
# Coordination Sequence:
#
# PCOD8228091 Si02
#       8
#     8   8   8   4   8   8   8   8
#     4  10  23  37  60  88 125 163 211 254 308 380
#     4   9  17  31  58  89 120 151 205 253 305 354
#     4   9  20  35  57  89 118 153 208 260 308 367
#     4  10  22  38  62  88 118 160 214 260 308 364
#     4  11  23  40  62  87 130 164 202 254 321 378
#     4  10  20  39  60  89 118 165 215 250 310 379
#     4  10  19  36  61  86 117 162 199 255 315 368
#     4  10  19  32  59  82 118 159 200 255 300 369
#
# _framework density 20.348880000000001
#
# number of rings (size 3 to 8) (size 9 to 14) (size 15 to 20)
#    0.000    2.133    0.667    2.800    6.533    1.600 
#    0.000    0.667    2.933    0.000    0.000    0.000 
#    0.000    0.000    0.000    0.000    0.000    0.000 
#
# Total GULP energy -743294.421432 kJ/mol
# GULP energy per Si atom -12388.240357 kJ/mol
# Density = 2.030257 g / cm^3
# Si number density = 20.348880 Si / 1000 Ang^3
#
#
#
# Elastic Constant Matrix: (Units=GPa)
#
#
# Indices 1 2 3 4 5 6 
#
# 1 103.0101 24.0127 42.5150 0.0000 0.0000 0.0000
# 2 24.0127 65.2404 25.9292 0.0000 0.0000 0.0000
# 3 42.5150 25.9292 114.9984 0.0000 0.0000 0.0000
# 4 0.0000 0.0000 0.0000 29.6137 0.0000 0.0000
# 5 0.0000 0.0000 0.0000 0.0000 23.4752 0.0000
# 6 0.0000 0.0000 0.0000 0.0000 0.0000 25.3910
#
#
#
# Elastic Compliance Matrix: (Units=1/GPa)
#
#
# Indices 1 2 3 4 5 6 
#
# 1 0.011935 -0.002899 -0.003759 0.000000 0.000000 0.000000
# 2 -0.002899 0.017541 -0.002883 0.000000 0.000000 0.000000
# 3 -0.003759 -0.002883 0.010735 0.000000 0.000000 0.000000
# 4 0.000000 0.000000 0.000000 0.033768 0.000000 0.000000
# 5 0.000000 0.000000 0.000000 0.000000 0.042598 0.000000
# 6 0.000000 0.000000 0.000000 0.000000 0.000000 0.039384
#
#
# Mechanical properties :
#
#
# Convention : Reuss Voigt Hill
#
# Bulk Modulus (GPa) = 47.32747 52.01806 49.67277
# Shear Modulus (GPa) = 27.45947 28.41544 27.93745
#
# Velocity S-wave (km/s) = 3.67745 3.74091 3.70932
# Velocity P-wave (km/s) = 6.42962 6.65416 6.54285
#
# Compressibility (1/GPa) = 0.02112938
#
# Stress axis : x y z
#
# Youngs Moduli (GPa) = 83.78810 57.00971 93.14919
#
# Poissons Ratio (x) = 0.16527 0.35012
# Poissons Ratio (y) = 0.24290 0.26857
# Poissons Ratio (z) = 0.31493 0.16437
#
# Static dielectric constant tensor:
#      x y z
#    x 3.605110 0.000000 0.000000 
#    y 0.000000 3.740970 0.000000 
#    z 0.000000 0.000000 3.714710 
# 
# 
# High freq. dielectric constant tensor:
#      x y z
#    x 1.776750 0.000000 0.000000 
#    y 0.000000 1.789900 0.000000 
#    z 0.000000 0.000000 1.789230 
# 
# From -- ./inp_files/18809.got.cif
#   From: 2010.03.12/outbox.cif.g09.slc.cpg/sg56_10_cif.got.tgz:18809.got - 2010.04.16 15:33:40.
