data_PCOD8228588
_publ_section_title
;
Structure prediction by ZEFSAII (Michael W. Deem and Ramdas Pophale) SiO2 
 PCOD8228588
Probable space group: P C C N
;
_chemical_formula_sum "Si O2"
_cell_formula_units_Z 44
_cell_length_a 24.819391
_cell_length_b 6.353636
_cell_length_c 14.085239
_cell_angle_alpha 90.000000
_cell_angle_beta 90.000000
_cell_angle_gamma 90.000000
_cell_volume 2221.148892
_symmetry_space_group_name_H-M "P C C N"
_symmetry_group_IT_number 56
_symmetry_cell_setting 'orthorhombic'
loop_
_space_group_symop_operation_xyz
x,y,z
1/2-x,1/2-y,z
1/2+x,-y,1/2-z
-x,1/2+y,1/2-z
-x,-y,-z
1/2+x,1/2+y,-z
1/2-x,y,1/2+z
x,1/2-y,1/2+z
loop_
_atom_site_type_symbol
_atom_site_label
_atom_site_fract_x
_atom_site_fract_y
_atom_site_fract_z
Si Si1 0.626508 0.223394 0.170558
Si Si2 0.627415 0.894896 0.533495
Si Si3 0.938291 0.983462 0.525782
Si Si4 0.632900 0.246394 0.387854
Si Si5 0.713353 0.579701 0.594071
Si Si6 0.250000 0.750000 0.043747
O O1 0.636916 0.449172 0.122350
O O2 0.612914 0.250915 0.280296
O O3 0.680395 0.079783 0.160771
O O4 0.575071 0.113604 0.121520
O O5 0.571871 0.764359 0.543885
O O6 0.672553 0.713573 0.529241
O O7 0.622404 0.020012 0.434982
O O8 0.899772 0.072989 0.442502
O O9 0.000000 0.000000 0.500000
O O10 0.697272 0.281804 0.392185
O O11 0.750000 0.750000 0.652618
O O12 0.754336 0.453709 0.524817
#
# Coordination Sequence:
#
# PCOD8228588 Si02
#       6
#     8   8   8   8   8   4
#     4  10  23  41  61 100 126 161 225 265 316 391
#     4  10  20  41  65  83 131 164 203 271 319 378
#     4  10  23  46  66  92 129 172 212 267 338 386
#     4  11  23  40  63  98 129 163 225 264 318 398
#     4  11  19  37  62  87 125 178 209 255 324 381
#     4  12  20  38  62  90 132 174 212 266 320 390
#
# _framework density 19.809567000000001
#
# number of rings (size 3 to 8) (size 9 to 14) (size 15 to 20)
#    0.000    1.455    7.273    0.000    0.000    8.000 
#    9.818    0.000    0.000    0.000    0.000    0.000 
#    0.000    0.000    0.000    0.000    0.000    0.000 
#
# Total GULP energy -545300.186287 kJ/mol
# GULP energy per Si atom -12393.186052 kJ/mol
# Density = 1.976448 g / cm^3
# Si number density = 19.809567 Si / 1000 Ang^3
#
#
#
# Elastic Constant Matrix: (Units=GPa)
#
#
# Indices 1 2 3 4 5 6 
#
# 1 108.6810 40.4465 23.6946 0.0000 0.0000 0.0000
# 2 40.4465 130.0091 46.3110 0.0000 0.0000 0.0000
# 3 23.6946 46.3110 136.1323 0.0000 0.0000 0.0000
# 4 0.0000 0.0000 0.0000 12.0901 0.0000 0.0000
# 5 0.0000 0.0000 0.0000 0.0000 13.6156 0.0000
# 6 0.0000 0.0000 0.0000 0.0000 0.0000 28.3962
#
#
#
# Elastic Compliance Matrix: (Units=1/GPa)
#
#
# Indices 1 2 3 4 5 6 
#
# 1 0.010485 -0.002972 -0.000814 0.000000 0.000000 0.000000
# 2 -0.002972 0.009595 -0.002747 0.000000 0.000000 0.000000
# 3 -0.000814 -0.002747 0.008422 0.000000 0.000000 0.000000
# 4 0.000000 0.000000 0.000000 0.082712 0.000000 0.000000
# 5 0.000000 0.000000 0.000000 0.000000 0.073445 0.000000
# 6 0.000000 0.000000 0.000000 0.000000 0.000000 0.035216
#
#
# Mechanical properties :
#
#
# Convention : Reuss Voigt Hill
#
# Bulk Modulus (GPa) = 64.78287 66.19183 65.48735
# Shear Modulus (GPa) = 21.00087 28.44508 24.72297
#
# Velocity S-wave (km/s) = 3.25951 3.79347 3.53658
# Velocity P-wave (km/s) = 6.85125 7.25768 7.05739
#
# Compressibility (1/GPa) = 0.01543618
#
# Stress axis : x y z
#
# Youngs Moduli (GPa) = 95.37693 104.22326 118.73821
#
# Poissons Ratio (x) = 0.30974 0.09664
# Poissons Ratio (y) = 0.28345 0.32615
# Poissons Ratio (z) = 0.07763 0.28628
#
# Static dielectric constant tensor:
#      x y z
#    x 3.665400 0.000000 0.000000 
#    y 0.000000 4.089750 0.000000 
#    z 0.000000 0.000000 3.217250 
# 
# 
# High freq. dielectric constant tensor:
#      x y z
#    x 1.767310 0.000000 0.000000 
#    y 0.000000 1.796730 0.000000 
#    z 0.000000 0.000000 1.734920 
# 
# From -- ./inp_files/9652.got.cif
#   From: 2010.03.12/outbox.cif.g09.slc.cpg/sg56_5_cif.got.tgz:9652.got - 2010.04.16 15:33:40.
