data_PCOD8228476
_publ_section_title
;
Structure prediction by ZEFSAII (Michael W. Deem and Ramdas Pophale) SiO2 
 PCOD8228476
Probable space group: P C C N
;
_chemical_formula_sum "Si O2"
_cell_formula_units_Z 56
_cell_length_a 6.208043
_cell_length_b 26.177607
_cell_length_c 17.077223
_cell_angle_alpha 90.000000
_cell_angle_beta 90.000000
_cell_angle_gamma 90.000000
_cell_volume 2775.248710
_symmetry_space_group_name_H-M "P C C N"
_symmetry_group_IT_number 56
_symmetry_cell_setting 'orthorhombic'
loop_
_space_group_symop_operation_xyz
x,y,z
1/2-x,1/2-y,z
1/2+x,-y,1/2-z
-x,1/2+y,1/2-z
-x,-y,-z
1/2+x,1/2+y,-z
1/2-x,y,1/2+z
x,1/2-y,1/2+z
loop_
_atom_site_type_symbol
_atom_site_label
_atom_site_fract_x
_atom_site_fract_y
_atom_site_fract_z
Si Si1 0.826358 0.695823 0.497418
Si Si2 0.436094 0.874655 0.044069
Si Si3 0.899211 0.451252 0.824585
Si Si4 0.911176 0.121057 0.735713
Si Si5 0.796724 0.942967 0.820572
Si Si6 0.868445 0.300833 0.362235
Si Si7 0.880001 0.377702 0.591730
O O1 0.750000 0.750000 0.461375
O O2 0.643672 0.652964 0.508015
O O3 0.933770 0.710044 0.580171
O O4 0.998303 0.672931 0.437102
O O5 0.499457 0.922051 0.100206
O O6 0.311130 0.834068 0.095564
O O7 0.287199 0.896652 0.974296
O O8 0.689348 0.422718 0.790908
O O9 0.827300 0.507413 0.852396
O O10 0.083356 0.456923 0.759780
O O11 0.965575 0.170736 0.786892
O O12 0.742291 0.138443 0.670214
O O13 0.130198 0.102449 0.696113
O O14 0.958674 0.924369 0.888576
O O15 0.750000 0.250000 0.333804
#
# Coordination Sequence:
#
# PCOD8228476 Si02
#       7
#     8   8   8   8   8   8   8
#     4  11  21  40  66  86 122 163 203 247 312 367
#     4  10  21  40  60  90 121 159 206 250 301 367
#     4  10  21  36  67  89 118 163 205 254 308 362
#     4  10  21  40  59  87 127 153 205 254 304 363
#     4  11  20  40  62  91 122 165 206 254 315 364
#     4  10  20  38  62  91 114 153 202 257 299 363
#     4  10  24  39  58  88 127 163 200 254 303 374
#
# _framework density 20.178373000000001
#
# number of rings (size 3 to 8) (size 9 to 14) (size 15 to 20)
#    0.000    1.714    2.857    1.714    0.000    0.571 
#    5.143    2.857    0.000    0.000    0.000    0.000 
#    0.000    0.000    0.000    0.000    0.000    0.000 
#
# Total GULP energy -694583.527203 kJ/mol
# GULP energy per Si atom -12403.277271 kJ/mol
# Density = 2.013245 g / cm^3
# Si number density = 20.178373 Si / 1000 Ang^3
#
#
#
# Elastic Constant Matrix: (Units=GPa)
#
#
# Indices 1 2 3 4 5 6 
#
# 1 88.2567 43.5280 22.2660 0.0000 0.0000 0.0000
# 2 43.5280 120.5577 53.9942 0.0000 0.0000 0.0000
# 3 22.2660 53.9942 78.7731 0.0000 0.0000 0.0000
# 4 0.0000 0.0000 0.0000 26.3402 0.0000 0.0000
# 5 0.0000 0.0000 0.0000 0.0000 22.9153 0.0000
# 6 0.0000 0.0000 0.0000 0.0000 0.0000 27.4427
#
#
#
# Elastic Compliance Matrix: (Units=1/GPa)
#
#
# Indices 1 2 3 4 5 6 
#
# 1 0.013812 -0.004673 -0.000701 0.000000 0.000000 0.000000
# 2 -0.004673 0.013550 -0.007967 0.000000 0.000000 0.000000
# 3 -0.000701 -0.007967 0.018354 0.000000 0.000000 0.000000
# 4 0.000000 0.000000 0.000000 0.037965 0.000000 0.000000
# 5 0.000000 0.000000 0.000000 0.000000 0.043639 0.000000
# 6 0.000000 0.000000 0.000000 0.000000 0.000000 0.036440
#
#
# Mechanical properties :
#
#
# Convention : Reuss Voigt Hill
#
# Bulk Modulus (GPa) = 52.53756 58.57376 55.55566
# Shear Modulus (GPa) = 25.40828 26.52623 25.96725
#
# Velocity S-wave (km/s) = 3.55235 3.62966 3.59121
# Velocity P-wave (km/s) = 6.55123 6.83058 6.69237
#
# Compressibility (1/GPa) = 0.01903400
#
# Stress axis : x y z
#
# Youngs Moduli (GPa) = 72.39999 73.79991 54.48477
#
# Poissons Ratio (x) = 0.34486 0.03820
# Poissons Ratio (y) = 0.33832 0.43408
# Poissons Ratio (z) = 0.05076 0.58796
#
# Static dielectric constant tensor:
#      x y z
#    x 3.733470 0.000000 0.000000 
#    y 0.000000 3.591620 0.000000 
#    z 0.000000 0.000000 3.703580 
# 
# 
# High freq. dielectric constant tensor:
#      x y z
#    x 1.794640 0.000000 0.000000 
#    y 0.000000 1.782390 0.000000 
#    z 0.000000 0.000000 1.781540 
# 
# From -- ./inp_files/9828.got.cif
#   From: 2010.03.12/outbox.cif.g09.slc.cpg/sg56_5_cif.got.tgz:9828.got - 2010.04.16 15:33:40.
