data_PCOD8228209
_publ_section_title
;
Structure prediction by ZEFSAII (Michael W. Deem and Ramdas Pophale) SiO2 
 PCOD8228209
Probable space group: P C C N
;
_chemical_formula_sum "Si O2"
_cell_formula_units_Z 64
_cell_length_a 17.862852
_cell_length_b 11.383653
_cell_length_c 15.189943
_cell_angle_alpha 90.000000
_cell_angle_beta 90.000000
_cell_angle_gamma 90.000000
_cell_volume 3088.791497
_symmetry_space_group_name_H-M "P C C N"
_symmetry_group_IT_number 56
_symmetry_cell_setting 'orthorhombic'
loop_
_space_group_symop_operation_xyz
x,y,z
1/2-x,1/2-y,z
1/2+x,-y,1/2-z
-x,1/2+y,1/2-z
-x,-y,-z
1/2+x,1/2+y,-z
1/2-x,y,1/2+z
x,1/2-y,1/2+z
loop_
_atom_site_type_symbol
_atom_site_label
_atom_site_fract_x
_atom_site_fract_y
_atom_site_fract_z
Si Si1 0.907254 0.373141 0.137797
Si Si2 0.947571 0.754740 0.807983
Si Si3 0.330528 0.810204 0.683671
Si Si4 0.393829 0.875168 0.060928
Si Si5 0.675021 0.608402 0.368583
Si Si6 0.838377 0.932238 0.888451
Si Si7 0.668734 0.728785 0.034566
Si Si8 0.452224 0.134176 0.866969
O O1 0.855730 0.318782 0.214542
O O2 0.910615 0.512723 0.156312
O O3 0.987612 0.308470 0.136070
O O4 0.870533 0.354175 0.041008
O O5 0.880659 0.657995 0.792350
O O6 0.913400 0.871978 0.852175
O O7 0.985450 0.802516 0.719145
O O8 0.250000 0.750000 0.682438
O O9 0.385410 0.737002 0.622265
O O10 0.334981 0.931997 0.632173
O O11 0.482937 0.901311 0.064282
O O12 0.343695 0.975776 0.104725
O O13 0.762442 0.621257 0.343181
O O14 0.655571 0.688900 0.450937
O O15 0.835891 0.904796 0.994785
O O16 0.750000 0.750000 0.078827
O O17 0.604196 0.764319 0.100967
#
# Coordination Sequence:
#
# PCOD8228209 Si02
#       8
#     8   8   8   8   8   8   8   8
#     4  12  25  44  66  99 133 176 230 274 336 416
#     4  11  22  38  66  97 132 170 222 280 338 389
#     4  12  26  45  66  94 134 180 223 275 340 411
#     4  12  23  41  71  95 129 181 226 273 337 409
#     4  10  19  38  65  95 125 171 221 271 337 401
#     4  10  21  41  63  92 137 171 214 284 335 395
#     4   9  20  37  62  98 127 165 224 274 335 405
#     4  12  22  40  68  96 136 174 221 287 340 403
#
# _framework density 20.720077
#
# number of rings (size 3 to 8) (size 9 to 14) (size 15 to 20)
#    0.000    1.000    6.250    3.000    0.000    1.500 
#    0.000    5.000    0.000    0.000    0.000    0.000 
#    0.000    0.000    0.000    0.000    0.000    0.000 
#
# Total GULP energy -792974.453803 kJ/mol
# GULP energy per Si atom -12390.225841 kJ/mol
# Density = 2.067292 g / cm^3
# Si number density = 20.720077 Si / 1000 Ang^3
#
#
#
# Elastic Constant Matrix: (Units=GPa)
#
#
# Indices 1 2 3 4 5 6 
#
# 1 77.5467 23.9353 9.8035 0.0000 0.0000 0.0000
# 2 23.9353 113.2932 40.8143 0.0000 0.0000 0.0000
# 3 9.8035 40.8143 87.5277 0.0000 0.0000 0.0000
# 4 0.0000 0.0000 0.0000 32.1807 0.0000 0.0000
# 5 0.0000 0.0000 0.0000 0.0000 22.4175 0.0000
# 6 0.0000 0.0000 0.0000 0.0000 0.0000 32.3247
#
#
#
# Elastic Compliance Matrix: (Units=1/GPa)
#
#
# Indices 1 2 3 4 5 6 
#
# 1 0.013799 -0.002835 -0.000224 0.000000 0.000000 0.000000
# 2 -0.002835 0.011191 -0.004901 0.000000 0.000000 0.000000
# 3 -0.000224 -0.004901 0.013735 0.000000 0.000000 0.000000
# 4 0.000000 0.000000 0.000000 0.031075 0.000000 0.000000
# 5 0.000000 0.000000 0.000000 0.000000 0.044608 0.000000
# 6 0.000000 0.000000 0.000000 0.000000 0.000000 0.030936
#
#
# Mechanical properties :
#
#
# Convention : Reuss Voigt Hill
#
# Bulk Modulus (GPa) = 43.84713 47.49712 45.67213
# Shear Modulus (GPa) = 29.60956 30.97222 30.29089
#
# Velocity S-wave (km/s) = 3.78435 3.87045 3.82764
# Velocity P-wave (km/s) = 6.34844 6.55338 6.45172
#
# Compressibility (1/GPa) = 0.02280651
#
# Stress axis : x y z
#
# Youngs Moduli (GPa) = 72.47073 89.35667 72.80498
#
# Poissons Ratio (x) = 0.25329 0.01629
# Poissons Ratio (y) = 0.20543 0.35681
# Poissons Ratio (z) = 0.01621 0.43793
#
# Static dielectric constant tensor:
#      x y z
#    x 3.786340 0.000000 0.000000 
#    y 0.000000 3.996220 0.000000 
#    z 0.000000 0.000000 3.736170 
# 
# 
# High freq. dielectric constant tensor:
#      x y z
#    x 1.813620 0.000000 0.000000 
#    y 0.000000 1.814650 0.000000 
#    z 0.000000 0.000000 1.791220 
# 
# From -- ./inp_files/12857.got.cif
#   From: 2010.03.12/outbox.cif.g09.slc.cpg/sg56_7_cif.got.tgz:12857.got - 2010.04.16 15:33:40.
