data_PCOD8228265
_publ_section_title
;
Structure prediction by ZEFSAII (Michael W. Deem and Ramdas Pophale) SiO2 
 PCOD8228265
Probable space group: P C C N
;
_chemical_formula_sum "Si O2"
_cell_formula_units_Z 60
_cell_length_a 19.328640
_cell_length_b 5.311059
_cell_length_c 28.132156
_cell_angle_alpha 90.000000
_cell_angle_beta 90.000000
_cell_angle_gamma 90.000000
_cell_volume 2887.921875
_symmetry_space_group_name_H-M "P C C N"
_symmetry_group_IT_number 56
_symmetry_cell_setting 'orthorhombic'
loop_
_space_group_symop_operation_xyz
x,y,z
1/2-x,1/2-y,z
1/2+x,-y,1/2-z
-x,1/2+y,1/2-z
-x,-y,-z
1/2+x,1/2+y,-z
1/2-x,y,1/2+z
x,1/2-y,1/2+z
loop_
_atom_site_type_symbol
_atom_site_label
_atom_site_fract_x
_atom_site_fract_y
_atom_site_fract_z
Si Si1 0.171562 0.752394 0.393868
Si Si2 0.750000 0.750000 0.763175
Si Si3 0.332435 0.246479 0.549501
Si Si4 0.991971 0.933525 0.222246
Si Si5 0.829927 0.254321 0.901961
Si Si6 0.847392 0.383703 0.710913
Si Si7 0.135417 0.568860 0.696156
Si Si8 0.832546 0.748071 0.559064
O O1 0.250000 0.750000 0.412197
O O2 0.169933 0.764981 0.336924
O O3 0.136289 0.498816 0.414693
O O4 0.136003 0.003654 0.415231
O O5 0.780236 0.539232 0.727866
O O6 0.689327 0.661743 0.799342
O O7 0.250000 0.250000 0.552966
O O8 0.363450 0.493923 0.575740
O O9 0.357535 0.246293 0.495282
O O10 0.363321 0.998946 0.575618
O O11 0.915295 0.946290 0.199695
O O12 0.996699 0.141974 0.263895
O O13 0.055261 0.010432 0.186278
O O14 0.750000 0.250000 0.915441
O O15 0.839981 0.257573 0.845028
O O16 0.865124 0.188565 0.751810
O O17 0.750000 0.750000 0.563363
#
# Coordination Sequence:
#
# PCOD8228265 Si02
#       8
#     8   4   8   8   8   8   8   8
#     4  10  20  31  52  80 110 148 185 236 285 343
#     4  12  22  36  60  86 118 158 194 240 294 332
#     4   9  18  32  50  76 111 145 183 233 294 346
#     4  10  22  42  58  78 115 162 201 236 284 340
#     4  10  20  31  52  80 110 148 185 236 285 343
#     4  11  24  37  57  86 120 158 196 240 286 351
#     4  11  24  37  57  86 120 158 196 240 286 351
#     4   9  18  32  50  76 111 145 183 233 294 346
#
# _framework density 20.776185999999999
#
# number of rings (size 3 to 8) (size 9 to 14) (size 15 to 20)
#    0.000    1.867    1.333    2.800    9.333    3.200 
#    0.000    0.000    0.000    0.000    0.000    5.600 
#    0.000    0.000    0.000    0.000    0.000    0.000 
#
# Total GULP energy -743614.372970 kJ/mol
# GULP energy per Si atom -12393.572883 kJ/mol
# Density = 2.072890 g / cm^3
# Si number density = 20.776186 Si / 1000 Ang^3
#
#
#
# Elastic Constant Matrix: (Units=GPa)
#
#
# Indices 1 2 3 4 5 6 
#
# 1 46.4159 0.2505 -6.9302 0.0000 0.0000 0.0000
# 2 0.2505 144.5429 63.6390 0.0000 0.0000 0.0000
# 3 -6.9302 63.6390 132.4604 0.0000 0.0000 0.0000
# 4 0.0000 0.0000 0.0000 36.8649 0.0000 0.0000
# 5 0.0000 0.0000 0.0000 0.0000 2.3441 0.0000
# 6 0.0000 0.0000 0.0000 0.0000 0.0000 15.6629
#
#
#
# Elastic Compliance Matrix: (Units=1/GPa)
#
#
# Indices 1 2 3 4 5 6 
#
# 1 0.021767 -0.000684 0.001467 0.000000 0.000000 0.000000
# 2 -0.000684 0.008796 -0.004262 0.000000 0.000000 0.000000
# 3 0.001467 -0.004262 0.009674 0.000000 0.000000 0.000000
# 4 0.000000 0.000000 0.000000 0.027126 0.000000 0.000000
# 5 0.000000 0.000000 0.000000 0.000000 0.426608 0.000000
# 6 0.000000 0.000000 0.000000 0.000000 0.000000 0.063845
#
#
# Mechanical properties :
#
#
# Convention : Reuss Voigt Hill
#
# Bulk Modulus (GPa) = 30.04763 48.59308 39.32036
# Shear Modulus (GPa) = 8.68258 28.73837 18.71047
#
# Velocity S-wave (km/s) = 2.04650 3.72322 3.00421
# Velocity P-wave (km/s) = 4.48087 6.47478 5.56781
#
# Compressibility (1/GPa) = 0.03328050
#
# Stress axis : x y z
#
# Youngs Moduli (GPa) = 45.94087 113.69001 103.37371
#
# Poissons Ratio (x) = 0.07774 -0.15168
# Poissons Ratio (y) = 0.03141 0.44054
# Poissons Ratio (z) = -0.06741 0.48450
#
# Static dielectric constant tensor:
#      x y z
#    x 3.795840 0.000000 0.000000 
#    y 0.000000 4.070280 0.000000 
#    z 0.000000 0.000000 3.562590 
# 
# 
# High freq. dielectric constant tensor:
#      x y z
#    x 1.761410 0.000000 0.000000 
#    y 0.000000 1.828370 0.000000 
#    z 0.000000 0.000000 1.799120 
# 
# From -- ./inp_files/21345.got.cif
#   From: 2010.03.12/outbox.cif.g09.slc.cpg/sg56_11_cif.got.tgz:21345.got - 2010.04.16 15:33:40.
