data_PCOD8228251
_publ_section_title
;
Structure prediction by ZEFSAII (Michael W. Deem and Ramdas Pophale) SiO2 
 PCOD8228251
Probable space group: P C C N
;
_chemical_formula_sum "Si O2"
_cell_formula_units_Z 36
_cell_length_a 18.098488
_cell_length_b 7.478910
_cell_length_c 14.004860
_cell_angle_alpha 90.000000
_cell_angle_beta 90.000000
_cell_angle_gamma 90.000000
_cell_volume 1895.655315
_symmetry_space_group_name_H-M "P C C N"
_symmetry_group_IT_number 56
_symmetry_cell_setting 'orthorhombic'
loop_
_space_group_symop_operation_xyz
x,y,z
1/2-x,1/2-y,z
1/2+x,-y,1/2-z
-x,1/2+y,1/2-z
-x,-y,-z
1/2+x,1/2+y,-z
1/2-x,y,1/2+z
x,1/2-y,1/2+z
loop_
_atom_site_type_symbol
_atom_site_label
_atom_site_fract_x
_atom_site_fract_y
_atom_site_fract_z
Si Si1 0.086136 0.521646 0.013117
Si Si2 0.171041 0.292969 0.592854
Si Si3 0.167545 0.808270 0.131361
Si Si4 0.750000 0.750000 0.224840
Si Si5 0.193153 0.893403 0.346560
O O1 0.109411 0.322164 0.041438
O O2 0.150232 0.998759 0.082595
O O3 0.123182 0.583007 0.914606
O O4 0.000000 0.500000 0.000000
O O5 0.250000 0.250000 0.542553
O O6 0.108041 0.836649 0.595462
O O7 0.250000 0.750000 0.101616
O O8 0.178060 0.264648 0.205210
O O9 0.162026 0.823913 0.245534
O O10 0.759105 0.575118 0.160671
O O11 0.250000 0.750000 0.391048
#
# Coordination Sequence:
#
# PCOD8228251 Si02
#       5
#     8   8   8   4   8
#     4  12  25  38  56  94 127 156 196 243 301 357
#     4   9  18  37  63  82 113 157 194 249 287 337
#     4  10  19  41  64  86 116 157 202 250 291 343
#     4   8  18  36  64  92 110 150 212 244 284 338
#     4  10  21  36  63  91 110 157 205 242 290 353
#
# _framework density 18.990793
#
# number of rings (size 3 to 8) (size 9 to 14) (size 15 to 20)
#    0.667    1.333    2.222    2.000    1.556    0.889 
#    8.000    0.000    0.000    0.000    0.000    0.000 
#    0.000    0.000    0.000    0.000    0.000    0.000 
#
# Total GULP energy -446240.533059 kJ/mol
# GULP energy per Si atom -12395.570363 kJ/mol
# Density = 1.894757 g / cm^3
# Si number density = 18.990793 Si / 1000 Ang^3
#
#
#
# Elastic Constant Matrix: (Units=GPa)
#
#
# Indices 1 2 3 4 5 6 
#
# 1 136.3903 76.1584 48.7446 0.0000 0.0000 0.0000
# 2 76.1584 150.9569 59.3956 0.0000 0.0000 0.0000
# 3 48.7446 59.3956 78.4416 0.0000 0.0000 0.0000
# 4 0.0000 0.0000 0.0000 12.8804 0.0000 0.0000
# 5 0.0000 0.0000 0.0000 0.0000 11.5874 0.0000
# 6 0.0000 0.0000 0.0000 0.0000 0.0000 29.2815
#
#
#
# Elastic Compliance Matrix: (Units=1/GPa)
#
#
# Indices 1 2 3 4 5 6 
#
# 1 0.010921 -0.004045 -0.003724 0.000000 0.000000 0.000000
# 2 -0.004045 0.010933 -0.005765 0.000000 0.000000 0.000000
# 3 -0.003724 -0.005765 0.019428 0.000000 0.000000 0.000000
# 4 0.000000 0.000000 0.000000 0.077637 0.000000 0.000000
# 5 0.000000 0.000000 0.000000 0.000000 0.086301 0.000000
# 6 0.000000 0.000000 0.000000 0.000000 0.000000 0.034151
#
#
# Mechanical properties :
#
#
# Convention : Reuss Voigt Hill
#
# Bulk Modulus (GPa) = 70.34990 81.59844 75.97417
# Shear Modulus (GPa) = 18.43804 22.84918 20.64361
#
# Velocity S-wave (km/s) = 3.11930 3.47244 3.30059
# Velocity P-wave (km/s) = 7.07799 7.69011 7.39039
#
# Compressibility (1/GPa) = 0.01421466
#
# Stress axis : x y z
#
# Youngs Moduli (GPa) = 91.56435 91.46346 51.47199
#
# Poissons Ratio (x) = 0.36993 0.19169
# Poissons Ratio (y) = 0.37034 0.29675
# Poissons Ratio (z) = 0.34100 0.52732
#
# Static dielectric constant tensor:
#      x y z
#    x 2.972800 0.000000 0.000000 
#    y 0.000000 3.652160 0.000000 
#    z 0.000000 0.000000 3.405740 
# 
# 
# High freq. dielectric constant tensor:
#      x y z
#    x 1.688550 0.000000 0.000000 
#    y 0.000000 1.759500 0.000000 
#    z 0.000000 0.000000 1.738930 
# 
# From -- ./inp_files/16472.got.cif
#   From: 2010.03.12/outbox.cif.g09.slc.cpg/sg56_9_cif.got.tgz:16472.got - 2010.04.16 15:33:40.
