data_PCOD8228005
_publ_section_title
;
Structure prediction by ZEFSAII (Michael W. Deem and Ramdas Pophale) SiO2 
 PCOD8228005
Probable space group: P C C N
;
_chemical_formula_sum "Si O2"
_cell_formula_units_Z 56
_cell_length_a 9.083871
_cell_length_b 13.173978
_cell_length_c 22.903229
_cell_angle_alpha 90.000000
_cell_angle_beta 90.000000
_cell_angle_gamma 90.000000
_cell_volume 2740.845829
_symmetry_space_group_name_H-M "P C C N"
_symmetry_group_IT_number 56
_symmetry_cell_setting 'orthorhombic'
loop_
_space_group_symop_operation_xyz
x,y,z
1/2-x,1/2-y,z
1/2+x,-y,1/2-z
-x,1/2+y,1/2-z
-x,-y,-z
1/2+x,1/2+y,-z
1/2-x,y,1/2+z
x,1/2-y,1/2+z
loop_
_atom_site_type_symbol
_atom_site_label
_atom_site_fract_x
_atom_site_fract_y
_atom_site_fract_z
Si Si1 0.480600 0.391950 0.358439
Si Si2 0.962757 0.337512 0.361250
Si Si3 0.082966 0.711117 0.510575
Si Si4 0.247785 0.491786 0.666212
Si Si5 0.895606 0.910830 0.519515
Si Si6 0.767637 0.864143 0.222326
Si Si7 0.341193 0.146761 0.565976
O O1 0.564585 0.283221 0.356979
O O2 0.602280 0.478565 0.366203
O O3 0.365534 0.411069 0.411127
O O4 0.390352 0.403450 0.299289
O O5 0.120313 0.364625 0.332605
O O6 0.941406 0.358376 0.431144
O O7 0.846868 0.405312 0.324601
O O8 0.250000 0.750000 0.501423
O O9 0.977722 0.806394 0.510345
O O10 0.013390 0.653261 0.454118
O O11 0.304772 0.441472 0.726115
O O12 0.155750 0.413530 0.626911
O O13 0.742642 0.916360 0.484838
O O14 0.000000 0.000000 0.500000
O O15 0.750000 0.750000 0.247082
O O16 0.250000 0.250000 0.576866
#
# Coordination Sequence:
#
# PCOD8228005 Si02
#       7
#     8   8   8   8   8   8   8
#     4  10  20  37  61  81 113 148 195 246 291 348
#     4  10  21  38  58  85 112 148 197 251 293 351
#     4  10  21  38  58  85 125 155 195 252 306 354
#     4  12  21  36  58  86 116 150 195 241 304 358
#     4  10  18  36  59  87 111 154 200 241 300 362
#     4  10  22  39  58  81 113 153 197 245 296 357
#     4  10  22  37  56  84 121 159 193 240 302 375
#
# _framework density 20.431650000000001
#
# number of rings (size 3 to 8) (size 9 to 14) (size 15 to 20)
#    0.000    1.714    1.429    4.286    0.000    4.000 
#    2.571    0.000    0.000    0.000    0.000    0.000 
#    0.000    0.000    0.000    0.000    0.000    0.000 
#
# Total GULP energy -693765.427217 kJ/mol
# GULP energy per Si atom -12388.668343 kJ/mol
# Density = 2.038515 g / cm^3
# Si number density = 20.431650 Si / 1000 Ang^3
#
#
#
# Elastic Constant Matrix: (Units=GPa)
#
#
# Indices 1 2 3 4 5 6 
#
# 1 89.4373 19.0829 37.4129 0.0000 0.0000 0.0000
# 2 19.0829 58.9704 40.7634 0.0000 0.0000 0.0000
# 3 37.4129 40.7634 94.2923 0.0000 0.0000 0.0000
# 4 0.0000 0.0000 0.0000 26.2971 0.0000 0.0000
# 5 0.0000 0.0000 0.0000 0.0000 22.5282 0.0000
# 6 0.0000 0.0000 0.0000 0.0000 0.0000 31.8511
#
#
#
# Elastic Compliance Matrix: (Units=1/GPa)
#
#
# Indices 1 2 3 4 5 6 
#
# 1 0.013443 -0.000946 -0.004925 0.000000 0.000000 0.000000
# 2 -0.000946 0.024251 -0.010109 0.000000 0.000000 0.000000
# 3 -0.004925 -0.010109 0.016930 0.000000 0.000000 0.000000
# 4 0.000000 0.000000 0.000000 0.038027 0.000000 0.000000
# 5 0.000000 0.000000 0.000000 0.000000 0.044389 0.000000
# 6 0.000000 0.000000 0.000000 0.000000 0.000000 0.031396
#
#
# Mechanical properties :
#
#
# Convention : Reuss Voigt Hill
#
# Bulk Modulus (GPa) = 44.12124 48.57982 46.35053
# Shear Modulus (GPa) = 24.04421 25.83134 24.93777
#
# Velocity S-wave (km/s) = 3.43419 3.55953 3.49742
# Velocity P-wave (km/s) = 6.11280 6.38138 6.24853
#
# Compressibility (1/GPa) = 0.02266482
#
# Stress axis : x y z
#
# Youngs Moduli (GPa) = 74.38808 41.23458 59.06804
#
# Poissons Ratio (x) = 0.03900 0.29091
# Poissons Ratio (y) = 0.07035 0.59711
# Poissons Ratio (z) = 0.36636 0.41684
#
# Static dielectric constant tensor:
#      x y z
#    x 3.742080 0.000000 0.000000 
#    y 0.000000 3.688840 0.000000 
#    z 0.000000 0.000000 3.626650 
# 
# 
# High freq. dielectric constant tensor:
#      x y z
#    x 1.792810 0.000000 0.000000 
#    y 0.000000 1.797890 0.000000 
#    z 0.000000 0.000000 1.787170 
# 
# From -- ./inp_files/18207.got.cif
#   From: 2010.03.12/outbox.cif.g09.slc.cpg/sg56_10_cif.got.tgz:18207.got - 2010.04.16 15:33:40.
