data_PCOD8228139
_publ_section_title
;
Structure prediction by ZEFSAII (Michael W. Deem and Ramdas Pophale) SiO2 
 PCOD8228139
Probable space group: P C C N
;
_chemical_formula_sum "Si O2"
_cell_formula_units_Z 60
_cell_length_a 29.517247
_cell_length_b 11.113152
_cell_length_c 9.231502
_cell_angle_alpha 90.000000
_cell_angle_beta 90.000000
_cell_angle_gamma 90.000000
_cell_volume 3028.206393
_symmetry_space_group_name_H-M "P C C N"
_symmetry_group_IT_number 56
_symmetry_cell_setting 'orthorhombic'
loop_
_space_group_symop_operation_xyz
x,y,z
1/2-x,1/2-y,z
1/2+x,-y,1/2-z
-x,1/2+y,1/2-z
-x,-y,-z
1/2+x,1/2+y,-z
1/2-x,y,1/2+z
x,1/2-y,1/2+z
loop_
_atom_site_type_symbol
_atom_site_label
_atom_site_fract_x
_atom_site_fract_y
_atom_site_fract_z
Si Si1 0.308030 0.842208 0.499425
Si Si2 0.750000 0.250000 0.744521
Si Si3 0.929138 0.149533 0.782893
Si Si4 0.436150 0.248253 0.060074
Si Si5 0.882624 0.333194 0.985938
Si Si6 0.611309 0.522438 0.985355
Si Si7 0.994421 0.823441 0.701465
Si Si8 0.075114 0.494512 0.205887
O O1 0.282609 0.829028 0.652487
O O2 0.275000 0.848276 0.359732
O O3 0.333958 0.714939 0.463430
O O4 0.338231 0.964783 0.511658
O O5 0.918789 0.156585 0.613697
O O6 0.980278 0.193879 0.807162
O O7 0.895246 0.233111 0.869672
O O8 0.918737 0.017612 0.845787
O O9 0.473398 0.334381 0.137411
O O10 0.425664 0.147810 0.181345
O O11 0.391822 0.330873 0.020943
O O12 0.455282 0.179267 0.919795
O O13 0.884131 0.458713 0.898742
O O14 0.586488 0.474972 0.129064
O O15 0.028068 0.935493 0.670579
#
# Coordination Sequence:
#
# PCOD8228139 Si02
#       8
#     8   4   8   8   8   8   8   8
#     4  10  19  37  61  95 122 141 174 228 287 366
#     4  10  20  34  64 102 122 136 170 220 298 364
#     4  10  20  34  57  81 110 160 199 243 296 329
#     4  12  25  37  53  80 113 158 214 249 298 331
#     4  10  19  35  59  85 118 154 192 229 288 352
#     4  11  23  39  57  81 118 157 195 237 301 357
#     4  11  22  37  54  77 114 150 212 267 286 321
#     4  11  23  39  55  79 114 163 209 253 292 327
#
# _framework density 19.813708999999999
#
# number of rings (size 3 to 8) (size 9 to 14) (size 15 to 20)
#    0.000    1.333    1.333    8.400    3.733    1.067 
#    0.000    0.000    0.000    0.000    0.000   15.867 
#    0.000    0.000    0.000    0.000    0.000    0.000 
#
# Total GULP energy -743416.899536 kJ/mol
# GULP energy per Si atom -12390.281659 kJ/mol
# Density = 1.976861 g / cm^3
# Si number density = 19.813709 Si / 1000 Ang^3
#
#
#
# Elastic Constant Matrix: (Units=GPa)
#
#
# Indices 1 2 3 4 5 6 
#
# 1 70.7341 39.2243 19.8837 0.0000 0.0000 0.0000
# 2 39.2243 97.3985 28.8261 0.0000 0.0000 0.0000
# 3 19.8837 28.8261 98.7637 0.0000 0.0000 0.0000
# 4 0.0000 0.0000 0.0000 24.9726 0.0000 0.0000
# 5 0.0000 0.0000 0.0000 0.0000 30.6159 0.0000
# 6 0.0000 0.0000 0.0000 0.0000 0.0000 21.0995
#
#
#
# Elastic Compliance Matrix: (Units=1/GPa)
#
#
# Indices 1 2 3 4 5 6 
#
# 1 0.018457 -0.006932 -0.001693 0.000000 0.000000 0.000000
# 2 -0.006932 0.013841 -0.002644 0.000000 0.000000 0.000000
# 3 -0.001693 -0.002644 0.011238 0.000000 0.000000 0.000000
# 4 0.000000 0.000000 0.000000 0.040044 0.000000 0.000000
# 5 0.000000 0.000000 0.000000 0.000000 0.032663 0.000000
# 6 0.000000 0.000000 0.000000 0.000000 0.000000 0.047395
#
#
# Mechanical properties :
#
#
# Convention : Reuss Voigt Hill
#
# Bulk Modulus (GPa) = 47.62284 49.19606 48.40945
# Shear Modulus (GPa) = 25.88320 27.26840 26.57580
#
# Velocity S-wave (km/s) = 3.61824 3.71379 3.66633
# Velocity P-wave (km/s) = 6.44539 6.57821 6.51214
#
# Compressibility (1/GPa) = 0.02099833
#
# Stress axis : x y z
#
# Youngs Moduli (GPa) = 54.17881 72.24688 88.98591
#
# Poissons Ratio (x) = 0.50083 0.15062
# Poissons Ratio (y) = 0.37558 0.23530
# Poissons Ratio (z) = 0.09171 0.19104
#
# Static dielectric constant tensor:
#      x y z
#    x 3.648780 0.000000 0.000000 
#    y 0.000000 3.725910 0.000000 
#    z 0.000000 0.000000 3.912330 
# 
# 
# High freq. dielectric constant tensor:
#      x y z
#    x 1.734560 0.000000 0.000000 
#    y 0.000000 1.751610 0.000000 
#    z 0.000000 0.000000 1.801700 
# 
# From -- ./inp_files/5191.got.cif
#   From: 2010.03.12/outbox.cif.g09.slc.cpg/sg56_3_cif.got.tgz:5191.got - 2010.04.16 15:33:40.
