data_PCOD8228954
_publ_section_title
;
Structure prediction by ZEFSAII (Michael W. Deem and Ramdas Pophale) SiO2 
 PCOD8228954
Probable space group: P C C N
;
_chemical_formula_sum "Si O2"
_cell_formula_units_Z 48
_cell_length_a 16.815389
_cell_length_b 15.118388
_cell_length_c 9.523854
_cell_angle_alpha 90.000000
_cell_angle_beta 90.000000
_cell_angle_gamma 90.000000
_cell_volume 2421.169167
_symmetry_space_group_name_H-M "P C C N"
_symmetry_group_IT_number 56
_symmetry_cell_setting 'orthorhombic'
loop_
_space_group_symop_operation_xyz
x,y,z
1/2-x,1/2-y,z
1/2+x,-y,1/2-z
-x,1/2+y,1/2-z
-x,-y,-z
1/2+x,1/2+y,-z
1/2-x,y,1/2+z
x,1/2-y,1/2+z
loop_
_atom_site_type_symbol
_atom_site_label
_atom_site_fract_x
_atom_site_fract_y
_atom_site_fract_z
Si Si1 0.510753 0.852300 0.044285
Si Si2 0.394715 0.498296 0.596739
Si Si3 0.806514 0.172383 0.730829
Si Si4 0.461791 0.722004 0.822054
Si Si5 0.574372 0.029382 0.594409
Si Si6 0.262337 0.562924 0.012938
O O1 0.520792 0.808979 0.197752
O O2 0.427747 0.907115 0.039737
O O3 0.581361 0.919902 0.008703
O O4 0.514622 0.771524 0.936408
O O5 0.430580 0.481937 0.753255
O O6 0.299119 0.501825 0.600806
O O7 0.750000 0.250000 0.680962
O O8 0.896501 0.207810 0.730998
O O9 0.787313 0.092268 0.624773
O O10 0.787718 0.144933 0.890008
O O11 0.421587 0.635377 0.889008
O O12 0.658905 0.005220 0.522837
O O13 0.500000 0.000000 0.500000
#
# Coordination Sequence:
#
# PCOD8228954 Si02
#       6
#     8   8   8   8   8   8
#     4  10  22  37  63  88 129 166 209 260 320 387
#     4  10  22  42  58  95 131 171 215 263 332 397
#     4  12  22  33  58  94 133 160 202 256 335 401
#     4  11  22  38  60  97 124 170 212 264 326 390
#     4  11  25  40  61  96 130 172 222 264 332 400
#     4  12  22  39  61  92 132 172 207 270 330 400
#
# _framework density 19.825133000000001
#
# number of rings (size 3 to 8) (size 9 to 14) (size 15 to 20)
#    0.000    1.000    5.000    2.500    4.667    1.333 
#    0.000    0.000    0.000    1.000    0.000    0.000 
#    0.000    0.000    0.000    0.000    0.000    0.000 
#
# Total GULP energy -595121.655491 kJ/mol
# GULP energy per Si atom -12398.367823 kJ/mol
# Density = 1.978001 g / cm^3
# Si number density = 19.825133 Si / 1000 Ang^3
#
#
#
# Elastic Constant Matrix: (Units=GPa)
#
#
# Indices 1 2 3 4 5 6 
#
# 1 107.3358 29.5639 44.6241 0.0000 0.0000 0.0000
# 2 29.5639 42.3152 38.9560 0.0000 0.0000 0.0000
# 3 44.6241 38.9560 119.5515 0.0000 0.0000 0.0000
# 4 0.0000 0.0000 0.0000 35.9967 0.0000 0.0000
# 5 0.0000 0.0000 0.0000 0.0000 31.1550 0.0000
# 6 0.0000 0.0000 0.0000 0.0000 0.0000 31.9095
#
#
#
# Elastic Compliance Matrix: (Units=1/GPa)
#
#
# Indices 1 2 3 4 5 6 
#
# 1 0.012039 -0.006106 -0.002504 0.000000 0.000000 0.000000
# 2 -0.006106 0.036856 -0.009730 0.000000 0.000000 0.000000
# 3 -0.002504 -0.009730 0.012470 0.000000 0.000000 0.000000
# 4 0.000000 0.000000 0.000000 0.027780 0.000000 0.000000
# 5 0.000000 0.000000 0.000000 0.000000 0.032098 0.000000
# 6 0.000000 0.000000 0.000000 0.000000 0.000000 0.031339
#
#
# Mechanical properties :
#
#
# Convention : Reuss Voigt Hill
#
# Bulk Modulus (GPa) = 40.51172 55.05449 47.78310
# Shear Modulus (GPa) = 25.31749 30.21613 27.76681
#
# Velocity S-wave (km/s) = 3.57745 3.90825 3.74650
# Velocity P-wave (km/s) = 6.12724 6.94235 6.54749
#
# Compressibility (1/GPa) = 0.02468422
#
# Stress axis : x y z
#
# Youngs Moduli (GPa) = 83.06007 27.13244 80.19236
#
# Poissons Ratio (x) = 0.16567 0.20082
# Poissons Ratio (y) = 0.50717 0.78031
# Poissons Ratio (z) = 0.20800 0.26401
#
# Static dielectric constant tensor:
#      x y z
#    x 3.366480 0.000000 0.000000 
#    y 0.000000 3.317080 0.000000 
#    z 0.000000 0.000000 3.740900 
# 
# 
# High freq. dielectric constant tensor:
#      x y z
#    x 1.748390 0.000000 0.000000 
#    y 0.000000 1.738820 0.000000 
#    z 0.000000 0.000000 1.792600 
# 
# From -- ./inp_files/3374.got.cif
#   From: 2010.03.12/outbox.cif.g09.slc.cpg/sg56_2_cif.got.tgz:3374.got - 2010.04.16 15:33:40.
