data_PCOD8228887
_publ_section_title
;
Structure prediction by ZEFSAII (Michael W. Deem and Ramdas Pophale) SiO2 
 PCOD8228887
Probable space group: P C C N
;
_chemical_formula_sum "Si O2"
_cell_formula_units_Z 64
_cell_length_a 17.446266
_cell_length_b 15.343745
_cell_length_c 10.699296
_cell_angle_alpha 90.000000
_cell_angle_beta 90.000000
_cell_angle_gamma 90.000000
_cell_volume 2864.105852
_symmetry_space_group_name_H-M "P C C N"
_symmetry_group_IT_number 56
_symmetry_cell_setting 'orthorhombic'
loop_
_space_group_symop_operation_xyz
x,y,z
1/2-x,1/2-y,z
1/2+x,-y,1/2-z
-x,1/2+y,1/2-z
-x,-y,-z
1/2+x,1/2+y,-z
1/2-x,y,1/2+z
x,1/2-y,1/2+z
loop_
_atom_site_type_symbol
_atom_site_label
_atom_site_fract_x
_atom_site_fract_y
_atom_site_fract_z
Si Si1 0.646443 0.941212 0.170894
Si Si2 0.048794 0.715862 0.195836
Si Si3 0.774039 0.441525 0.591579
Si Si4 0.571979 0.960167 0.567732
Si Si5 0.085312 0.177817 0.134908
Si Si6 0.448402 0.154916 0.017131
Si Si7 0.785065 0.156170 0.344537
Si Si8 0.461643 0.593372 0.268626
O O1 0.645935 0.857042 0.261642
O O2 0.731106 0.969701 0.132217
O O3 0.601925 0.018417 0.245158
O O4 0.605144 0.918053 0.041804
O O5 0.122693 0.659446 0.159642
O O6 0.074266 0.815842 0.219111
O O7 0.003188 0.671758 0.313131
O O8 0.988912 0.717606 0.082890
O O9 0.862711 0.466201 0.577753
O O10 0.741099 0.405072 0.460243
O O11 0.758877 0.375351 0.706683
O O12 0.600140 0.877035 0.489913
O O13 0.542254 0.930294 0.702846
O O14 0.500000 0.000000 0.500000
O O15 0.100624 0.280146 0.106996
O O16 0.515973 0.104000 0.087462
O O17 0.750000 0.250000 0.371651
#
# Coordination Sequence:
#
# PCOD8228887 Si02
#       8
#     8   8   8   8   8   8   8   8
#     4  11  23  43  66  97 137 178 226 296 345 424
#     4  10  22  41  70  99 139 178 237 291 353 431
#     4  12  29  46  71 105 146 188 241 289 365 431
#     4  12  24  42  70  97 136 182 233 286 346 422
#     4  10  21  42  67 100 133 177 237 288 352 418
#     4  10  22  39  68 100 130 176 234 288 350 415
#     4  12  27  46  68 105 148 192 228 295 363 434
#     4  11  22  38  70  99 134 178 231 285 346 419
#
# _framework density 22.345544
#
# number of rings (size 3 to 8) (size 9 to 14) (size 15 to 20)
#    0.000    1.000    2.500    3.750    5.250    3.000 
#    0.000    0.625    2.750    0.000    0.000    0.000 
#    0.000    0.000    0.000    0.000    0.000    0.000 
#
# Total GULP energy -793464.507135 kJ/mol
# GULP energy per Si atom -12397.882924 kJ/mol
# Density = 2.229468 g / cm^3
# Si number density = 22.345544 Si / 1000 Ang^3
#
#
#
# Elastic Constant Matrix: (Units=GPa)
#
#
# Indices 1 2 3 4 5 6 
#
# 1 95.6326 33.5514 31.0565 0.0000 0.0000 0.0000
# 2 33.5514 71.9202 31.1792 0.0000 0.0000 0.0000
# 3 31.0565 31.1792 105.1034 0.0000 0.0000 0.0000
# 4 0.0000 0.0000 0.0000 38.2015 0.0000 0.0000
# 5 0.0000 0.0000 0.0000 0.0000 25.9632 0.0000
# 6 0.0000 0.0000 0.0000 0.0000 0.0000 40.1617
#
#
#
# Elastic Compliance Matrix: (Units=1/GPa)
#
#
# Indices 1 2 3 4 5 6 
#
# 1 0.012986 -0.005043 -0.002341 0.000000 0.000000 0.000000
# 2 -0.005043 0.017915 -0.003824 0.000000 0.000000 0.000000
# 3 -0.002341 -0.003824 0.011341 0.000000 0.000000 0.000000
# 4 0.000000 0.000000 0.000000 0.026177 0.000000 0.000000
# 5 0.000000 0.000000 0.000000 0.000000 0.038516 0.000000
# 6 0.000000 0.000000 0.000000 0.000000 0.000000 0.024899
#
#
# Mechanical properties :
#
#
# Convention : Reuss Voigt Hill
#
# Bulk Modulus (GPa) = 50.44265 51.58118 51.01192
# Shear Modulus (GPa) = 31.08290 32.65655 31.86972
#
# Velocity S-wave (km/s) = 3.73367 3.82702 3.78063
# Velocity P-wave (km/s) = 6.41950 6.53159 6.47579
#
# Compressibility (1/GPa) = 0.01982449
#
# Stress axis : x y z
#
# Youngs Moduli (GPa) = 77.00394 55.81924 88.17790
#
# Poissons Ratio (x) = 0.28151 0.20644
# Poissons Ratio (y) = 0.38835 0.33722
# Poissons Ratio (z) = 0.18028 0.21347
#
# Static dielectric constant tensor:
#      x y z
#    x 3.795820 0.000000 0.000000 
#    y 0.000000 4.084590 0.000000 
#    z 0.000000 0.000000 4.851600 
# 
# 
# High freq. dielectric constant tensor:
#      x y z
#    x 1.851400 0.000000 0.000000 
#    y 0.000000 1.883490 0.000000 
#    z 0.000000 0.000000 1.896690 
# 
# From -- ./inp_files/8490.got.cif
#   From: 2010.03.12/outbox.cif.g09.slc.cpg/sg56_5_cif.got.tgz:8490.got - 2010.04.16 15:33:40.
