data_PCOD8228136
_publ_section_title
;
Structure prediction by ZEFSAII (Michael W. Deem and Ramdas Pophale) SiO2 
 PCOD8228136
Probable space group: P C C N
;
_chemical_formula_sum "Si O2"
_cell_formula_units_Z 32
_cell_length_a 8.140449
_cell_length_b 5.123746
_cell_length_c 35.898465
_cell_angle_alpha 90.000000
_cell_angle_beta 90.000000
_cell_angle_gamma 90.000000
_cell_volume 1497.310365
_symmetry_space_group_name_H-M "P C C N"
_symmetry_group_IT_number 56
_symmetry_cell_setting 'orthorhombic'
loop_
_space_group_symop_operation_xyz
x,y,z
1/2-x,1/2-y,z
1/2+x,-y,1/2-z
-x,1/2+y,1/2-z
-x,-y,-z
1/2+x,1/2+y,-z
1/2-x,y,1/2+z
x,1/2-y,1/2+z
loop_
_atom_site_type_symbol
_atom_site_label
_atom_site_fract_x
_atom_site_fract_y
_atom_site_fract_z
Si Si1 0.935442 0.803336 0.888924
Si Si2 0.358802 0.013931 0.529924
Si Si3 0.441950 0.292546 0.270850
Si Si4 0.942028 0.200314 0.352295
O O1 0.750000 0.750000 0.875344
O O2 0.018491 0.523140 0.879812
O O3 0.942087 0.897736 0.931436
O O4 0.025324 0.024446 0.863903
O O5 0.250000 0.750000 0.534396
O O6 0.250000 0.250000 0.515006
O O7 0.500000 0.000000 0.500000
O O8 0.250000 0.250000 0.275507
O O9 0.471575 0.527403 0.242319
O O10 0.521178 0.374914 0.309969
O O11 0.750000 0.250000 0.359613
#
# Coordination Sequence:
#
# PCOD8228136 Si02
#       4
#     8   8   8   8
#     4   9  18  34  58  83 114 156 201 241 293 362
#     4  11  22  39  62  91 125 164 207 253 303 363
#     4  12  25  42  63  91 125 161 201 250 305 365
#     4  10  19  35  59  85 112 153 202 248 295 354
#
# _framework density 21.371656000000002
#
# number of rings (size 3 to 8) (size 9 to 14) (size 15 to 20)
#    0.000    1.500    0.000    8.250    0.000    2.000 
#    0.000    3.750    0.000    0.000    0.000    0.000 
#    0.000    0.000    0.000    0.000    0.000    0.000 
#
# Total GULP energy -396560.179700 kJ/mol
# GULP energy per Si atom -12392.505616 kJ/mol
# Density = 2.132301 g / cm^3
# Si number density = 21.371656 Si / 1000 Ang^3
#
#
#
# Elastic Constant Matrix: (Units=GPa)
#
#
# Indices 1 2 3 4 5 6 
#
# 1 27.7509 36.9325 34.6211 0.0000 0.0000 0.0000
# 2 36.9325 188.8290 74.9400 0.0000 0.0000 0.0000
# 3 34.6211 74.9400 133.2655 0.0000 0.0000 0.0000
# 4 0.0000 0.0000 0.0000 38.3891 0.0000 0.0000
# 5 0.0000 0.0000 0.0000 0.0000 28.6328 0.0000
# 6 0.0000 0.0000 0.0000 0.0000 0.0000 22.2023
#
#
#
# Elastic Compliance Matrix: (Units=1/GPa)
#
#
# Indices 1 2 3 4 5 6 
#
# 1 0.059961 -0.007139 -0.011563 0.000000 0.000000 0.000000
# 2 -0.007139 0.007667 -0.002457 0.000000 0.000000 0.000000
# 3 -0.011563 -0.002457 0.011889 0.000000 0.000000 0.000000
# 4 0.000000 0.000000 0.000000 0.026049 0.000000 0.000000
# 5 0.000000 0.000000 0.000000 0.000000 0.034925 0.000000
# 6 0.000000 0.000000 0.000000 0.000000 0.000000 0.045040
#
#
# Mechanical properties :
#
#
# Convention : Reuss Voigt Hill
#
# Bulk Modulus (GPa) = 26.88148 71.42584 49.15366
# Shear Modulus (GPa) = 20.81175 31.40164 26.10670
#
# Velocity S-wave (km/s) = 3.12396 3.83732 3.49887
# Velocity P-wave (km/s) = 5.06138 7.28881 6.27473
#
# Compressibility (1/GPa) = 0.03720033
#
# Stress axis : x y z
#
# Youngs Moduli (GPa) = 16.67755 130.42752 84.10866
#
# Poissons Ratio (x) = 0.93107 0.97254
# Poissons Ratio (y) = 0.11905 0.20665
# Poissons Ratio (z) = 0.19284 0.32045
#
# Static dielectric constant tensor:
#      x y z
#    x 3.316300 0.000000 0.000000 
#    y 0.000000 4.119310 0.000000 
#    z 0.000000 0.000000 3.731200 
# 
# 
# High freq. dielectric constant tensor:
#      x y z
#    x 1.794440 0.000000 0.000000 
#    y 0.000000 1.875160 0.000000 
#    z 0.000000 0.000000 1.842500 
# 
# From -- ./inp_files/23053.got.cif
#   From: 2010.03.12/outbox.cif.g09.slc.cpg/sg56_12_cif.got.tgz:23053.got - 2010.04.16 15:33:40.
