data_PCOD8228183
_publ_section_title
;
Structure prediction by ZEFSAII (Michael W. Deem and Ramdas Pophale) SiO2 
 PCOD8228183
Probable space group: P C C N
;
_chemical_formula_sum "Si O2"
_cell_formula_units_Z 64
_cell_length_a 17.555721
_cell_length_b 12.470307
_cell_length_c 14.725760
_cell_angle_alpha 90.000000
_cell_angle_beta 90.000000
_cell_angle_gamma 90.000000
_cell_volume 3223.840402
_symmetry_space_group_name_H-M "P C C N"
_symmetry_group_IT_number 56
_symmetry_cell_setting 'orthorhombic'
loop_
_space_group_symop_operation_xyz
x,y,z
1/2-x,1/2-y,z
1/2+x,-y,1/2-z
-x,1/2+y,1/2-z
-x,-y,-z
1/2+x,1/2+y,-z
1/2-x,y,1/2+z
x,1/2-y,1/2+z
loop_
_atom_site_type_symbol
_atom_site_label
_atom_site_fract_x
_atom_site_fract_y
_atom_site_fract_z
Si Si1 0.892926 0.076972 0.674311
Si Si2 0.960450 0.571159 0.923353
Si Si3 0.153465 0.478032 0.655006
Si Si4 0.319433 0.551154 0.645677
Si Si5 0.462090 0.316892 0.086293
Si Si6 0.565136 0.324535 0.931886
Si Si7 0.318338 0.682069 0.477654
Si Si8 0.077746 0.795007 0.748592
O O1 0.843208 0.077990 0.581818
O O2 0.873862 0.194583 0.714920
O O3 0.983520 0.063547 0.662843
O O4 0.869986 0.980410 0.739338
O O5 0.878386 0.527691 0.900753
O O6 0.949098 0.695381 0.946786
O O7 0.000000 0.500000 0.000000
O O8 0.244835 0.479929 0.663762
O O9 0.119777 0.371041 0.608680
O O10 0.117535 0.579680 0.603669
O O11 0.291555 0.642731 0.576366
O O12 0.361243 0.608341 0.731656
O O13 0.514445 0.330405 0.177209
O O14 0.495616 0.371203 0.993316
O O15 0.540626 0.244958 0.848374
O O16 0.608159 0.256835 0.010095
O O17 0.250000 0.750000 0.432732
#
# Coordination Sequence:
#
# PCOD8228183 Si02
#       8
#     8   8   8   8   8   8   8   8
#     4  10  21  36  61  90 117 153 199 248 305 365
#     4  11  20  39  64  87 108 156 215 247 290 361
#     4  11  24  36  54  90 126 158 189 245 317 373
#     4  11  22  36  57  89 123 153 197 253 305 362
#     4  11  22  40  61  84 121 164 203 250 303 369
#     4  10  19  37  59  85 117 154 197 248 306 359
#     4  11  19  34  60  89 121 146 196 262 311 349
#     4   9  20  35  59  89 114 149 203 253 299 355
#
# _framework density 19.852098000000002
#
# number of rings (size 3 to 8) (size 9 to 14) (size 15 to 20)
#    0.000    1.500    5.000    1.875    1.750    0.500 
#    0.000    0.000    0.000    0.000    3.250    0.000 
#    0.000    0.000    0.000    0.000    0.000    0.000 
#
# Total GULP energy -792882.678441 kJ/mol
# GULP energy per Si atom -12388.791851 kJ/mol
# Density = 1.980691 g / cm^3
# Si number density = 19.852098 Si / 1000 Ang^3
#
#
#
# Elastic Constant Matrix: (Units=GPa)
#
#
# Indices 1 2 3 4 5 6 
#
# 1 111.3340 41.1088 35.6220 0.0000 0.0000 0.0000
# 2 41.1088 78.4349 24.3166 0.0000 0.0000 0.0000
# 3 35.6220 24.3166 84.6139 0.0000 0.0000 0.0000
# 4 0.0000 0.0000 0.0000 26.9870 0.0000 0.0000
# 5 0.0000 0.0000 0.0000 0.0000 18.3997 0.0000
# 6 0.0000 0.0000 0.0000 0.0000 0.0000 32.9610
#
#
#
# Elastic Compliance Matrix: (Units=1/GPa)
#
#
# Indices 1 2 3 4 5 6 
#
# 1 0.012049 -0.005206 -0.003576 0.000000 0.000000 0.000000
# 2 -0.005206 0.016246 -0.002477 0.000000 0.000000 0.000000
# 3 -0.003576 -0.002477 0.014036 0.000000 0.000000 0.000000
# 4 0.000000 0.000000 0.000000 0.037055 0.000000 0.000000
# 5 0.000000 0.000000 0.000000 0.000000 0.054349 0.000000
# 6 0.000000 0.000000 0.000000 0.000000 0.000000 0.030339
#
#
# Mechanical properties :
#
#
# Convention : Reuss Voigt Hill
#
# Bulk Modulus (GPa) = 50.47566 52.94197 51.70882
# Shear Modulus (GPa) = 25.88053 27.22522 26.55287
#
# Velocity S-wave (km/s) = 3.61455 3.70726 3.66120
# Velocity P-wave (km/s) = 6.54989 6.71202 6.63145
#
# Compressibility (1/GPa) = 0.01981153
#
# Stress axis : x y z
#
# Youngs Moduli (GPa) = 82.99785 61.55373 71.24624
#
# Poissons Ratio (x) = 0.32045 0.25479
# Poissons Ratio (y) = 0.43209 0.17648
# Poissons Ratio (z) = 0.29682 0.15247
#
# Static dielectric constant tensor:
#      x y z
#    x 3.562380 0.000000 0.000000 
#    y 0.000000 3.513360 0.000000 
#    z 0.000000 0.000000 3.868750 
# 
# 
# High freq. dielectric constant tensor:
#      x y z
#    x 1.758600 0.000000 0.000000 
#    y 0.000000 1.752290 0.000000 
#    z 0.000000 0.000000 1.782250 
# 
# From -- ./inp_files/12843.got.cif
#   From: 2010.03.12/outbox.cif.g09.slc.cpg/sg56_7_cif.got.tgz:12843.got - 2010.04.16 15:33:40.
