data_PCOD8228142
_publ_section_title
;
Structure prediction by ZEFSAII (Michael W. Deem and Ramdas Pophale) SiO2 
 PCOD8228142
Probable space group: P C C N
;
_chemical_formula_sum "Si O2"
_cell_formula_units_Z 44
_cell_length_a 20.016378
_cell_length_b 5.192837
_cell_length_c 19.374738
_cell_angle_alpha 90.000000
_cell_angle_beta 90.000000
_cell_angle_gamma 90.000000
_cell_volume 2013.844915
_symmetry_space_group_name_H-M "P C C N"
_symmetry_group_IT_number 56
_symmetry_cell_setting 'orthorhombic'
loop_
_space_group_symop_operation_xyz
x,y,z
1/2-x,1/2-y,z
1/2+x,-y,1/2-z
-x,1/2+y,1/2-z
-x,-y,-z
1/2+x,1/2+y,-z
1/2-x,y,1/2+z
x,1/2-y,1/2+z
loop_
_atom_site_type_symbol
_atom_site_label
_atom_site_fract_x
_atom_site_fract_y
_atom_site_fract_z
Si Si1 0.250000 0.250000 0.176569
Si Si2 0.345266 0.600309 0.251962
Si Si3 0.141467 0.292486 0.066191
Si Si4 0.079068 0.776282 0.116623
Si Si5 0.750000 0.250000 0.640573
Si Si6 0.526314 0.826837 0.214310
Si Si7 0.750000 0.750000 0.048016
O O1 0.276642 0.476721 0.224379
O O2 0.190718 0.354546 0.129138
O O3 0.381881 0.752485 0.190237
O O4 0.318384 0.778119 0.314189
O O5 0.394699 0.383515 0.284287
O O6 0.097513 0.552485 0.062066
O O7 0.182795 0.238856 0.997399
O O8 0.093881 0.049995 0.081767
O O9 0.000661 0.751116 0.137515
O O10 0.746391 0.499150 0.593706
O O11 0.512557 0.589464 0.265373
#
# Coordination Sequence:
#
# PCOD8228142 Si02
#       7
#     4   8   8   8   4   8   4
#     4   9  17  32  54  84 109 139 176 230 286 325
#     4  10  21  35  57  89 123 148 180 225 293 362
#     4  10  20  36  58  79 107 140 196 245 272 320
#     4  10  19  35  60  86 109 142 182 237 287 324
#     4  12  24  38  56  80 120 156 184 226 284 354
#     4  10  20  34  55  87 123 151 179 223 289 358
#     4  11  25  40  56  80 109 157 198 236 284 325
#
# _framework density 21.848754
#
# number of rings (size 3 to 8) (size 9 to 14) (size 15 to 20)
#    0.000    1.818    0.000    6.000    0.000   10.909 
#    0.000    0.000    0.000    6.545    0.000    0.000 
#    0.000    0.000    0.000    0.000    0.000    0.000 
#
# Total GULP energy -545362.786385 kJ/mol
# GULP energy per Si atom -12394.608781 kJ/mol
# Density = 2.179902 g / cm^3
# Si number density = 21.848754 Si / 1000 Ang^3
#
#
#
# Elastic Constant Matrix: (Units=GPa)
#
#
# Indices 1 2 3 4 5 6 
#
# 1 39.4353 24.9973 13.7512 0.0000 0.0000 0.0000
# 2 24.9973 134.8265 25.5874 0.0000 0.0000 0.0000
# 3 13.7512 25.5874 69.6713 0.0000 0.0000 0.0000
# 4 0.0000 0.0000 0.0000 22.9475 0.0000 0.0000
# 5 0.0000 0.0000 0.0000 0.0000 17.7913 0.0000
# 6 0.0000 0.0000 0.0000 0.0000 0.0000 38.9982
#
#
#
# Elastic Compliance Matrix: (Units=1/GPa)
#
#
# Indices 1 2 3 4 5 6 
#
# 1 0.029807 -0.004740 -0.004142 0.000000 0.000000 0.000000
# 2 -0.004740 0.008726 -0.002269 0.000000 0.000000 0.000000
# 3 -0.004142 -0.002269 0.016004 0.000000 0.000000 0.000000
# 4 0.000000 0.000000 0.000000 0.043578 0.000000 0.000000
# 5 0.000000 0.000000 0.000000 0.000000 0.056207 0.000000
# 6 0.000000 0.000000 0.000000 0.000000 0.000000 0.025642
#
#
# Mechanical properties :
#
#
# Convention : Reuss Voigt Hill
#
# Bulk Modulus (GPa) = 31.02294 41.40055 36.21175
# Shear Modulus (GPa) = 23.47273 27.92054 25.69664
#
# Velocity S-wave (km/s) = 3.28125 3.57865 3.43317
# Velocity P-wave (km/s) = 5.34652 6.00546 5.68554
#
# Compressibility (1/GPa) = 0.03223421
#
# Stress axis : x y z
#
# Youngs Moduli (GPa) = 33.54901 114.59397 62.48401
#
# Poissons Ratio (x) = 0.54320 0.25882
# Poissons Ratio (y) = 0.15903 0.14179
# Poissons Ratio (z) = 0.13897 0.26005
#
# Static dielectric constant tensor:
#      x y z
#    x 4.238510 0.000000 0.000000 
#    y 0.000000 3.840130 0.000000 
#    z 0.000000 0.000000 3.779870 
# 
# 
# High freq. dielectric constant tensor:
#      x y z
#    x 1.854560 0.000000 0.000000 
#    y 0.000000 1.868580 0.000000 
#    z 0.000000 0.000000 1.830460 
# 
# From -- ./inp_files/17592.got.cif
#   From: 2010.03.12/outbox.cif.g09.slc.cpg/sg56_9_cif.got.tgz:17592.got - 2010.04.16 15:33:40.
