data_PCOD8228467
_publ_section_title
;
Structure prediction by ZEFSAII (Michael W. Deem and Ramdas Pophale) SiO2 
 PCOD8228467
Probable space group: P C C N
;
_chemical_formula_sum "Si O2"
_cell_formula_units_Z 24
_cell_length_a 4.938968
_cell_length_b 14.439948
_cell_length_c 16.234015
_cell_angle_alpha 90.000000
_cell_angle_beta 90.000000
_cell_angle_gamma 90.000000
_cell_volume 1157.784642
_symmetry_space_group_name_H-M "P C C N"
_symmetry_group_IT_number 56
_symmetry_cell_setting 'orthorhombic'
loop_
_space_group_symop_operation_xyz
x,y,z
1/2-x,1/2-y,z
1/2+x,-y,1/2-z
-x,1/2+y,1/2-z
-x,-y,-z
1/2+x,1/2+y,-z
1/2-x,y,1/2+z
x,1/2-y,1/2+z
loop_
_atom_site_type_symbol
_atom_site_label
_atom_site_fract_x
_atom_site_fract_y
_atom_site_fract_z
Si Si1 0.483698 0.691661 0.906667
Si Si2 0.866884 0.512361 0.304196
Si Si3 0.745708 0.441444 0.970185
O O1 0.250000 0.750000 0.858477
O O2 0.583411 0.610499 0.847486
O O3 0.750000 0.750000 0.933355
O O4 0.306538 0.657735 0.986928
O O5 0.643504 0.526180 0.233944
O O6 0.759166 0.436410 0.370544
O O7 0.500000 0.500000 0.000000
O O8 0.000000 0.500000 0.000000
#
# Coordination Sequence:
#
# PCOD8228467 Si02
#       3
#     8   8   8
#     4  11  22  39  61  88 119 158 207 259 300 348
#     4  11  22  39  62  88 121 160 196 241 305 372
#     4  10  20  38  61  84 113 158 204 236 288 372
#
# _framework density 20.729240999999998
#
# number of rings (size 3 to 8) (size 9 to 14) (size 15 to 20)
#    0.000    1.333    0.000   10.000    0.000    0.000 
#    0.000   10.000    0.000    0.000    0.000    0.000 
#    0.000    0.000    0.000    0.000    0.000    0.000 
#
# Total GULP energy -297316.565900 kJ/mol
# GULP energy per Si atom -12388.190246 kJ/mol
# Density = 2.068206 g / cm^3
# Si number density = 20.729241 Si / 1000 Ang^3
#
#
#
# Elastic Constant Matrix: (Units=GPa)
#
#
# Indices 1 2 3 4 5 6 
#
# 1 170.1429 58.5433 35.2437 0.0000 0.0000 0.0000
# 2 58.5433 104.3244 53.1914 0.0000 0.0000 0.0000
# 3 35.2437 53.1914 97.3852 0.0000 0.0000 0.0000
# 4 0.0000 0.0000 0.0000 12.4631 0.0000 0.0000
# 5 0.0000 0.0000 0.0000 0.0000 42.7080 0.0000
# 6 0.0000 0.0000 0.0000 0.0000 0.0000 49.2300
#
#
#
# Elastic Compliance Matrix: (Units=1/GPa)
#
#
# Indices 1 2 3 4 5 6 
#
# 1 0.007306 -0.003814 -0.000561 0.000000 0.000000 0.000000
# 2 -0.003814 0.015276 -0.006964 0.000000 0.000000 0.000000
# 3 -0.000561 -0.006964 0.014275 0.000000 0.000000 0.000000
# 4 0.000000 0.000000 0.000000 0.080237 0.000000 0.000000
# 5 0.000000 0.000000 0.000000 0.000000 0.023415 0.000000
# 6 0.000000 0.000000 0.000000 0.000000 0.000000 0.020313
#
#
# Mechanical properties :
#
#
# Convention : Reuss Voigt Hill
#
# Bulk Modulus (GPa) = 70.51973 73.97882 72.24928
# Shear Modulus (GPa) = 26.56402 35.87185 31.21794
#
# Velocity S-wave (km/s) = 3.58365 4.16444 3.88491
# Velocity P-wave (km/s) = 7.15659 7.67392 7.41976
#
# Compressibility (1/GPa) = 0.01418043
#
# Stress axis : x y z
#
# Youngs Moduli (GPa) = 136.87632 65.46166 70.05286
#
# Poissons Ratio (x) = 0.24966 0.03929
# Poissons Ratio (y) = 0.52202 0.48781
# Poissons Ratio (z) = 0.07677 0.45584
#
# Static dielectric constant tensor:
#      x y z
#    x 3.913210 0.000000 0.000000 
#    y 0.000000 2.561520 0.000000 
#    z 0.000000 0.000000 267.583890 
# 
# 
# High freq. dielectric constant tensor:
#      x y z
#    x 1.844470 0.000000 0.000000 
#    y 0.000000 1.799750 0.000000 
#    z 0.000000 0.000000 1.799060 
# 
# From -- ./inp_files/9273.got.cif
#   From: 2010.03.12/outbox.cif.g09.slc.cpg/sg56_5_cif.got.tgz:9273.got - 2010.04.16 15:33:40.
