data_PCOD8228339
_publ_section_title
;
Structure prediction by ZEFSAII (Michael W. Deem and Ramdas Pophale) SiO2 
 PCOD8228339
Probable space group: P C C N
;
_chemical_formula_sum "Si O2"
_cell_formula_units_Z 56
_cell_length_a 13.576183
_cell_length_b 16.186495
_cell_length_c 13.324045
_cell_angle_alpha 90.000000
_cell_angle_beta 90.000000
_cell_angle_gamma 90.000000
_cell_volume 2927.969791
_symmetry_space_group_name_H-M "P C C N"
_symmetry_group_IT_number 56
_symmetry_cell_setting 'orthorhombic'
loop_
_space_group_symop_operation_xyz
x,y,z
1/2-x,1/2-y,z
1/2+x,-y,1/2-z
-x,1/2+y,1/2-z
-x,-y,-z
1/2+x,1/2+y,-z
1/2-x,y,1/2+z
x,1/2-y,1/2+z
loop_
_atom_site_type_symbol
_atom_site_label
_atom_site_fract_x
_atom_site_fract_y
_atom_site_fract_z
Si Si1 0.172348 0.581908 0.177464
Si Si2 0.540309 0.613503 0.727424
Si Si3 0.450750 0.204849 0.972290
Si Si4 0.325228 0.062465 0.035748
Si Si5 0.668368 0.315378 0.513025
Si Si6 0.670639 0.683898 0.897708
Si Si7 0.667956 0.466992 0.658307
O O1 0.134526 0.506028 0.110904
O O2 0.208431 0.648156 0.093459
O O3 0.256430 0.555519 0.253979
O O4 0.077828 0.612120 0.240377
O O5 0.568341 0.678595 0.641277
O O6 0.584705 0.658886 0.822889
O O7 0.578436 0.519043 0.709221
O O8 0.563864 0.228711 0.993194
O O9 0.416600 0.125443 0.036683
O O10 0.380416 0.280977 0.001362
O O11 0.224905 0.099858 0.076858
O O12 0.291470 0.028526 0.926931
O O13 0.750000 0.250000 0.551679
O O14 0.643826 0.381698 0.600646
O O15 0.750000 0.750000 0.853689
#
# Coordination Sequence:
#
# PCOD8228339 Si02
#       7
#     8   8   8   8   8   8   8
#     4  10  20  37  57  82 109 146 189 231 272 336
#     4  10  20  36  60  83 111 149 191 227 277 339
#     4   9  20  37  55  80 111 151 184 226 277 335
#     4   9  18  37  59  83 110 141 189 232 277 329
#     4  10  22  38  56  79 113 151 189 228 275 341
#     4  10  20  35  58  86 117 141 182 239 282 327
#     4  10  20  36  61  80 109 151 184 228 281 327
#
# _framework density 19.125881
#
# number of rings (size 3 to 8) (size 9 to 14) (size 15 to 20)
#    0.000    2.286    1.429    0.857    2.000    6.857 
#    2.571    2.143    0.000    0.000    0.000    0.000 
#    0.000    0.000    0.000    0.000    0.000    0.000 
#
# Total GULP energy -693777.556294 kJ/mol
# GULP energy per Si atom -12388.884934 kJ/mol
# Density = 1.908235 g / cm^3
# Si number density = 19.125881 Si / 1000 Ang^3
#
#
#
# Elastic Constant Matrix: (Units=GPa)
#
#
# Indices 1 2 3 4 5 6 
#
# 1 69.5786 18.0310 19.9946 0.0000 0.0000 0.0000
# 2 18.0310 59.3357 5.3330 0.0000 0.0000 0.0000
# 3 19.9946 5.3330 55.6080 0.0000 0.0000 0.0000
# 4 0.0000 0.0000 0.0000 18.9980 0.0000 0.0000
# 5 0.0000 0.0000 0.0000 0.0000 33.8920 0.0000
# 6 0.0000 0.0000 0.0000 0.0000 0.0000 28.0046
#
#
#
# Elastic Compliance Matrix: (Units=1/GPa)
#
#
# Indices 1 2 3 4 5 6 
#
# 1 0.017249 -0.004725 -0.005749 0.000000 0.000000 0.000000
# 2 -0.004725 0.018294 -0.000056 0.000000 0.000000 0.000000
# 3 -0.005749 -0.000056 0.020055 0.000000 0.000000 0.000000
# 4 0.000000 0.000000 0.000000 0.052637 0.000000 0.000000
# 5 0.000000 0.000000 0.000000 0.000000 0.029505 0.000000
# 6 0.000000 0.000000 0.000000 0.000000 0.000000 0.035708
#
#
# Mechanical properties :
#
#
# Convention : Reuss Voigt Hill
#
# Bulk Modulus (GPa) = 28.95230 30.13773 29.54502
# Shear Modulus (GPa) = 24.26939 25.58985 24.92962
#
# Velocity S-wave (km/s) = 3.56607 3.66180 3.61425
# Velocity P-wave (km/s) = 5.66802 5.80259 5.73570
#
# Compressibility (1/GPa) = 0.03453957
#
# Stress axis : x y z
#
# Youngs Moduli (GPa) = 57.97544 54.66263 49.86176
#
# Poissons Ratio (x) = 0.25827 0.28665
# Poissons Ratio (y) = 0.27392 0.00277
# Poissons Ratio (z) = 0.33329 0.00304
#
# Static dielectric constant tensor:
#      x y z
#    x 3.358250 0.000000 0.000000 
#    y 0.000000 3.548360 0.000000 
#    z 0.000000 0.000000 3.440420 
# 
# 
# High freq. dielectric constant tensor:
#      x y z
#    x 1.738900 0.000000 0.000000 
#    y 0.000000 1.740040 0.000000 
#    z 0.000000 0.000000 1.736770 
# 
# From -- ./inp_files/7915.got.cif
#   From: 2010.03.12/outbox.cif.g09.slc.cpg/sg56_4_cif.got.tgz:7915.got - 2010.04.16 15:33:40.
