data_PCOD8228384
_publ_section_title
;
Structure prediction by ZEFSAII (Michael W. Deem and Ramdas Pophale) SiO2 
 PCOD8228384
Probable space group: P C C N
;
_chemical_formula_sum "Si O2"
_cell_formula_units_Z 60
_cell_length_a 25.787083
_cell_length_b 7.533929
_cell_length_c 14.517419
_cell_angle_alpha 90.000000
_cell_angle_beta 90.000000
_cell_angle_gamma 90.000000
_cell_volume 2820.415890
_symmetry_space_group_name_H-M "P C C N"
_symmetry_group_IT_number 56
_symmetry_cell_setting 'orthorhombic'
loop_
_space_group_symop_operation_xyz
x,y,z
1/2-x,1/2-y,z
1/2+x,-y,1/2-z
-x,1/2+y,1/2-z
-x,-y,-z
1/2+x,1/2+y,-z
1/2-x,y,1/2+z
x,1/2-y,1/2+z
loop_
_atom_site_type_symbol
_atom_site_label
_atom_site_fract_x
_atom_site_fract_y
_atom_site_fract_z
Si Si1 0.706521 0.894030 0.192058
Si Si2 0.250000 0.750000 0.241191
Si Si3 0.359668 0.123015 0.985485
Si Si4 0.152505 0.815282 0.625542
Si Si5 0.023854 0.315828 0.641710
Si Si6 0.044916 0.914409 0.700618
Si Si7 0.634370 0.579047 0.862735
Si Si8 0.476380 0.172716 0.956207
O O1 0.750000 0.750000 0.212446
O O2 0.683529 0.855287 0.091817
O O3 0.663727 0.868746 0.270134
O O4 0.726986 0.096317 0.194096
O O5 0.293578 0.846845 0.178618
O O6 0.415644 0.139744 0.936897
O O7 0.352571 0.275130 0.060979
O O8 0.352480 0.932348 0.033939
O O9 0.104728 0.858318 0.694269
O O10 0.151601 0.609543 0.595985
O O11 0.073907 0.434134 0.664847
O O12 0.014092 0.328146 0.531437
O O13 0.973248 0.388298 0.693984
O O14 0.038509 0.115241 0.668742
O O15 0.007371 0.786762 0.638232
O O16 0.500000 0.000000 0.000000
#
# Coordination Sequence:
#
# PCOD8228384 Si02
#       8
#     8   4   8   8   8   8   8   8
#     4  11  25  42  68  92 129 169 214 275 325 381
#     4  10  26  44  62  94 126 166 228 266 318 382
#     4  11  22  41  67  93 128 168 213 265 326 384
#     4  11  22  42  66  86 129 174 210 275 320 376
#     4  10  20  36  62  94 125 165 212 248 316 393
#     4  11  20  37  64  90 130 173 206 256 329 376
#     4  10  22  43  63  95 129 168 216 261 325 386
#     4   9  18  37  60  86 129 163 198 259 312 378
#
# _framework density 21.273458000000002
#
# number of rings (size 3 to 8) (size 9 to 14) (size 15 to 20)
#    0.000    1.600    4.000    2.400    0.000    7.467 
#    0.000    7.333    0.000    0.000    0.000    0.000 
#    0.000    0.000    0.000    0.000    0.000    0.000 
#
# Total GULP energy -744002.559539 kJ/mol
# GULP energy per Si atom -12400.042659 kJ/mol
# Density = 2.122504 g / cm^3
# Si number density = 21.273458 Si / 1000 Ang^3
#
#
#
# Elastic Constant Matrix: (Units=GPa)
#
#
# Indices 1 2 3 4 5 6 
#
# 1 102.4360 14.3327 28.7174 0.0000 0.0000 0.0000
# 2 14.3327 66.4009 21.0848 0.0000 0.0000 0.0000
# 3 28.7174 21.0848 63.1686 0.0000 0.0000 0.0000
# 4 0.0000 0.0000 0.0000 24.6248 0.0000 0.0000
# 5 0.0000 0.0000 0.0000 0.0000 26.6373 0.0000
# 6 0.0000 0.0000 0.0000 0.0000 0.0000 30.8261
#
#
#
# Elastic Compliance Matrix: (Units=1/GPa)
#
#
# Indices 1 2 3 4 5 6 
#
# 1 0.011236 -0.000899 -0.004808 0.000000 0.000000 0.000000
# 2 -0.000899 0.016917 -0.005238 0.000000 0.000000 0.000000
# 3 -0.004808 -0.005238 0.019765 0.000000 0.000000 0.000000
# 4 0.000000 0.000000 0.000000 0.040609 0.000000 0.000000
# 5 0.000000 0.000000 0.000000 0.000000 0.037541 0.000000
# 6 0.000000 0.000000 0.000000 0.000000 0.000000 0.032440
#
#
# Mechanical properties :
#
#
# Convention : Reuss Voigt Hill
#
# Bulk Modulus (GPa) = 38.41965 40.03059 39.22512
# Shear Modulus (GPa) = 26.44454 27.60900 27.02677
#
# Velocity S-wave (km/s) = 3.52955 3.60643 3.56820
# Velocity P-wave (km/s) = 5.89147 6.01662 5.95438
#
# Compressibility (1/GPa) = 0.02602835
#
# Stress axis : x y z
#
# Youngs Moduli (GPa) = 89.00098 59.11091 50.59460
#
# Poissons Ratio (x) = 0.05311 0.24326
# Poissons Ratio (y) = 0.07997 0.26503
# Poissons Ratio (z) = 0.42792 0.30964
#
# Static dielectric constant tensor:
#      x y z
#    x 4.027780 0.000000 0.000000 
#    y 0.000000 3.845810 0.000000 
#    z 0.000000 0.000000 4.189040 
# 
# 
# High freq. dielectric constant tensor:
#      x y z
#    x 1.840320 0.000000 0.000000 
#    y 0.000000 1.840050 0.000000 
#    z 0.000000 0.000000 1.824880 
# 
# From -- ./inp_files/11093.got.cif
#   From: 2010.03.12/outbox.cif.g09.slc.cpg/sg56_6_cif.got.tgz:11093.got - 2010.04.16 15:33:40.
