data_PCOD8228841
_publ_section_title
;
Structure prediction by ZEFSAII (Michael W. Deem and Ramdas Pophale) SiO2 
 PCOD8228841
Probable space group: P C C N
;
_chemical_formula_sum "Si O2"
_cell_formula_units_Z 64
_cell_length_a 8.841717
_cell_length_b 26.550457
_cell_length_c 13.683350
_cell_angle_alpha 90.000000
_cell_angle_beta 90.000000
_cell_angle_gamma 90.000000
_cell_volume 3212.188676
_symmetry_space_group_name_H-M "P C C N"
_symmetry_group_IT_number 56
_symmetry_cell_setting 'orthorhombic'
loop_
_space_group_symop_operation_xyz
x,y,z
1/2-x,1/2-y,z
1/2+x,-y,1/2-z
-x,1/2+y,1/2-z
-x,-y,-z
1/2+x,1/2+y,-z
1/2-x,y,1/2+z
x,1/2-y,1/2+z
loop_
_atom_site_type_symbol
_atom_site_label
_atom_site_fract_x
_atom_site_fract_y
_atom_site_fract_z
Si Si1 0.001906 0.542399 0.211645
Si Si2 0.675146 0.417360 0.463760
Si Si3 0.062189 0.616616 0.651327
Si Si4 0.267620 0.370927 0.310258
Si Si5 0.913347 0.232024 0.827818
Si Si6 0.862120 0.707975 0.836946
Si Si7 0.980186 0.820667 0.541702
Si Si8 0.692307 0.445481 0.685633
O O1 0.080321 0.544797 0.105065
O O2 0.130462 0.544582 0.295034
O O3 0.886947 0.588426 0.227798
O O4 0.909277 0.491364 0.223815
O O5 0.851231 0.415678 0.431380
O O6 0.613075 0.361171 0.447912
O O7 0.663137 0.437827 0.572028
O O8 0.085002 0.675599 0.631131
O O9 0.137239 0.604166 0.756700
O O10 0.885050 0.602033 0.650565
O O11 0.228269 0.335479 0.219323
O O12 0.332014 0.338395 0.399813
O O13 0.750000 0.250000 0.791503
O O14 0.021761 0.236373 0.734496
O O15 0.967365 0.267273 0.916314
O O16 0.750000 0.750000 0.878739
O O17 0.946427 0.683133 0.927509
#
# Coordination Sequence:
#
# PCOD8228841 Si02
#       8
#     8   8   8   8   8   8   8   8
#     4  10  23  41  68  91 127 162 201 261 315 379
#     4  10  21  41  62  94 122 161 205 257 306 374
#     4  10  22  38  63  89 123 165 204 255 307 365
#     4  10  22  43  60  89 129 166 204 262 313 368
#     4  11  22  42  60  86 129 165 209 261 307 367
#     4  11  24  37  62  91 122 169 216 252 309 373
#     4  11  23  40  58  90 128 165 208 257 314 365
#     4  11  22  42  66  93 125 158 211 252 320 372
#
# _framework density 19.924111
#
# number of rings (size 3 to 8) (size 9 to 14) (size 15 to 20)
#    0.000    1.500    2.500    2.625    3.500    1.500 
#    2.250    8.125    0.000    0.000    0.000    0.000 
#    0.000    0.000    0.000    0.000    0.000    0.000 
#
# Total GULP energy -793783.438855 kJ/mol
# GULP energy per Si atom -12402.866232 kJ/mol
# Density = 1.987876 g / cm^3
# Si number density = 19.924111 Si / 1000 Ang^3
#
#
#
# Elastic Constant Matrix: (Units=GPa)
#
#
# Indices 1 2 3 4 5 6 
#
# 1 133.4575 41.9287 25.8309 0.0000 0.0000 0.0000
# 2 41.9287 81.1190 23.8437 0.0000 0.0000 0.0000
# 3 25.8309 23.8437 99.0980 0.0000 0.0000 0.0000
# 4 0.0000 0.0000 0.0000 21.9331 0.0000 0.0000
# 5 0.0000 0.0000 0.0000 0.0000 21.5996 0.0000
# 6 0.0000 0.0000 0.0000 0.0000 0.0000 34.8836
#
#
#
# Elastic Compliance Matrix: (Units=1/GPa)
#
#
# Indices 1 2 3 4 5 6 
#
# 1 0.009107 -0.004315 -0.001336 0.000000 0.000000 0.000000
# 2 -0.004315 0.015310 -0.002559 0.000000 0.000000 0.000000
# 3 -0.001336 -0.002559 0.011055 0.000000 0.000000 0.000000
# 4 0.000000 0.000000 0.000000 0.045593 0.000000 0.000000
# 5 0.000000 0.000000 0.000000 0.000000 0.046297 0.000000
# 6 0.000000 0.000000 0.000000 0.000000 0.000000 0.028667
#
#
# Mechanical properties :
#
#
# Convention : Reuss Voigt Hill
#
# Bulk Modulus (GPa) = 52.48480 55.20902 53.84691
# Shear Modulus (GPa) = 27.96439 30.48800 29.22619
#
# Velocity S-wave (km/s) = 3.75046 3.91603 3.83414
# Velocity P-wave (km/s) = 6.71968 6.94384 6.83268
#
# Compressibility (1/GPa) = 0.01905314
#
# Stress axis : x y z
#
# Youngs Moduli (GPa) = 109.80443 65.31714 90.45752
#
# Poissons Ratio (x) = 0.28182 0.12083
# Poissons Ratio (y) = 0.47377 0.23148
# Poissons Ratio (z) = 0.14667 0.16715
#
# Static dielectric constant tensor:
#      x y z
#    x 3.876570 0.000000 0.000000 
#    y 0.000000 3.573050 0.000000 
#    z 0.000000 0.000000 3.384130 
# 
# 
# High freq. dielectric constant tensor:
#      x y z
#    x 1.794450 0.000000 0.000000 
#    y 0.000000 1.779480 0.000000 
#    z 0.000000 0.000000 1.765820 
# 
# From -- ./inp_files/6610.got.cif
#   From: 2010.03.12/outbox.cif.g09.slc.cpg/sg56_4_cif.got.tgz:6610.got - 2010.04.16 15:33:40.
