data_PCOD8228426
_publ_section_title
;
Structure prediction by ZEFSAII (Michael W. Deem and Ramdas Pophale) SiO2 
 PCOD8228426
Probable space group: P C C N
;
_chemical_formula_sum "Si O2"
_cell_formula_units_Z 24
_cell_length_a 13.896385
_cell_length_b 7.356557
_cell_length_c 8.259796
_cell_angle_alpha 90.000000
_cell_angle_beta 90.000000
_cell_angle_gamma 90.000000
_cell_volume 844.395215
_symmetry_space_group_name_H-M "P C C N"
_symmetry_group_IT_number 56
_symmetry_cell_setting 'orthorhombic'
loop_
_space_group_symop_operation_xyz
x,y,z
1/2-x,1/2-y,z
1/2+x,-y,1/2-z
-x,1/2+y,1/2-z
-x,-y,-z
1/2+x,1/2+y,-z
1/2-x,y,1/2+z
x,1/2-y,1/2+z
loop_
_atom_site_type_symbol
_atom_site_label
_atom_site_fract_x
_atom_site_fract_y
_atom_site_fract_z
Si Si1 0.220659 0.450408 0.154958
Si Si2 0.107624 0.525018 0.863432
Si Si3 0.953341 0.627923 0.637423
O O1 0.250000 0.250000 0.086242
O O2 0.169269 0.581407 0.021574
O O3 0.321796 0.532077 0.209515
O O4 0.151731 0.445831 0.312691
O O5 0.980834 0.353230 0.198997
O O6 0.060736 0.333448 0.920167
O O7 0.000000 0.500000 0.500000
#
# Coordination Sequence:
#
# PCOD8228426 Si02
#       3
#     8   8   8
#     4  10  20  37  62  88 119 161 204 242 295 369
#     4  11  22  40  65  93 123 160 206 254 303 362
#     4  11  22  37  61  93 125 161 203 252 305 363
#
# _framework density 28.422708
#
# number of rings (size 3 to 8) (size 9 to 14) (size 15 to 20)
#    0.000    1.333    0.000   10.000    0.000    0.000 
#    0.000    1.667    0.000   24.000    0.000    0.000 
#    0.000    0.000    0.000    0.000    0.000    0.000 
#
# Total GULP energy -297358.375132 kJ/mol
# GULP energy per Si atom -12389.932297 kJ/mol
# Density = 2.835802 g / cm^3
# Si number density = 28.422708 Si / 1000 Ang^3
#
#
#
# Elastic Constant Matrix: (Units=GPa)
#
#
# Indices 1 2 3 4 5 6 
#
# 1 125.0893 19.6923 25.1634 0.0000 0.0000 0.0000
# 2 19.6923 25.9538 23.8951 0.0000 0.0000 0.0000
# 3 25.1634 23.8951 104.6728 0.0000 0.0000 0.0000
# 4 0.0000 0.0000 0.0000 32.9698 0.0000 0.0000
# 5 0.0000 0.0000 0.0000 0.0000 67.1559 0.0000
# 6 0.0000 0.0000 0.0000 0.0000 0.0000 28.7135
#
#
#
# Elastic Compliance Matrix: (Units=1/GPa)
#
#
# Indices 1 2 3 4 5 6 
#
# 1 0.009128 -0.006211 -0.000777 0.000000 0.000000 0.000000
# 2 -0.006211 0.053009 -0.010608 0.000000 0.000000 0.000000
# 3 -0.000777 -0.010608 0.012162 0.000000 0.000000 0.000000
# 4 0.000000 0.000000 0.000000 0.030331 0.000000 0.000000
# 5 0.000000 0.000000 0.000000 0.000000 0.014891 0.000000
# 6 0.000000 0.000000 0.000000 0.000000 0.000000 0.034827
#
#
# Mechanical properties :
#
#
# Convention : Reuss Voigt Hill
#
# Bulk Modulus (GPa) = 25.57012 43.69082 34.63047
# Shear Modulus (GPa) = 24.68223 38.23220 31.45721
#
# Velocity S-wave (km/s) = 2.95006 3.67158 3.33041
# Velocity P-wave (km/s) = 4.54089 5.77747 5.19610
#
# Compressibility (1/GPa) = 0.03910814
#
# Stress axis : x y z
#
# Youngs Moduli (GPa) = 109.54949 18.86465 82.22409
#
# Poissons Ratio (x) = 0.11717 0.06385
# Poissons Ratio (y) = 0.68042 0.87223
# Poissons Ratio (z) = 0.08507 0.20012
#
# Static dielectric constant tensor:
#      x y z
#    x 5.900150 0.000000 0.000000 
#    y 0.000000 4.500410 0.000000 
#    z 0.000000 0.000000 5.075230 
# 
# 
# High freq. dielectric constant tensor:
#      x y z
#    x 2.193220 0.000000 0.000000 
#    y 0.000000 2.085070 0.000000 
#    z 0.000000 0.000000 2.165250 
# 
# From -- ./inp_files/1821.got.cif
#   From: 2010.03.12/outbox.cif.g09.slc.cpg/sg56_1_cif.got.tgz:1821.got - 2010.04.16 15:33:40.
