data_PCOD8228466
_publ_section_title
;
Structure prediction by ZEFSAII (Michael W. Deem and Ramdas Pophale) SiO2 
 PCOD8228466
Probable space group: P C C N
;
_chemical_formula_sum "Si O2"
_cell_formula_units_Z 48
_cell_length_a 4.918820
_cell_length_b 28.902596
_cell_length_c 16.208965
_cell_angle_alpha 90.000000
_cell_angle_beta 90.000000
_cell_angle_gamma 90.000000
_cell_volume 2304.374534
_symmetry_space_group_name_H-M "P C C N"
_symmetry_group_IT_number 56
_symmetry_cell_setting 'orthorhombic'
loop_
_space_group_symop_operation_xyz
x,y,z
1/2-x,1/2-y,z
1/2+x,-y,1/2-z
-x,1/2+y,1/2-z
-x,-y,-z
1/2+x,1/2+y,-z
1/2-x,y,1/2+z
x,1/2-y,1/2+z
loop_
_atom_site_type_symbol
_atom_site_label
_atom_site_fract_x
_atom_site_fract_y
_atom_site_fract_z
Si Si1 0.116417 0.371409 0.558894
Si Si2 0.715458 0.151435 0.332559
Si Si3 0.630793 0.528794 0.238113
Si Si4 0.610861 0.384714 0.666059
Si Si5 0.778634 0.904707 0.606923
Si Si6 0.985164 0.280402 0.456349
O O1 0.354279 0.360136 0.623392
O O2 0.223129 0.408682 0.490964
O O3 0.850944 0.393777 0.600475
O O4 0.048594 0.323298 0.514620
O O5 0.744854 0.150700 0.233163
O O6 0.467541 0.117969 0.346025
O O7 0.645148 0.201854 0.369377
O O8 0.967835 0.128987 0.379649
O O9 0.379042 0.495681 0.212554
O O10 0.497002 0.567156 0.297343
O O11 0.787364 0.546174 0.154251
O O12 0.750000 0.250000 0.499852
O O13 0.250000 0.250000 0.437505
#
# Coordination Sequence:
#
# PCOD8228466 Si02
#       6
#     8   8   8   8   8   8
#     4  11  22  39  61  88 121 159 195 241 305 371
#     4  10  20  38  61  84 112 158 203 233 279 361
#     4  11  22  39  61  88 119 158 207 260 300 345
#     4  11  22  39  62  88 118 156 201 245 299 361
#     4  10  20  38  61  84 116 162 200 230 292 375
#     4  11  22  39  61  88 118 155 199 245 293 353
#
# _framework density 20.829948000000002
#
# number of rings (size 3 to 8) (size 9 to 14) (size 15 to 20)
#    0.000    1.333    0.000   10.000    0.000    0.000 
#    0.000   10.000    0.000    0.000    0.000    0.000 
#    0.000    0.000    0.000    0.000    0.000    0.000 
#
# Total GULP energy -594842.684588 kJ/mol
# GULP energy per Si atom -12392.555929 kJ/mol
# Density = 2.078254 g / cm^3
# Si number density = 20.829948 Si / 1000 Ang^3
#
#
#
# Elastic Constant Matrix: (Units=GPa)
#
#
# Indices 1 2 3 4 5 6 
#
# 1 149.0741 41.6064 44.2016 0.0000 0.0000 0.0000
# 2 41.6064 80.0554 49.1733 0.0000 0.0000 0.0000
# 3 44.2016 49.1733 116.2854 0.0000 0.0000 0.0000
# 4 0.0000 0.0000 0.0000 13.3374 0.0000 0.0000
# 5 0.0000 0.0000 0.0000 0.0000 40.0587 0.0000
# 6 0.0000 0.0000 0.0000 0.0000 0.0000 46.6742
#
#
#
# Elastic Compliance Matrix: (Units=1/GPa)
#
#
# Indices 1 2 3 4 5 6 
#
# 1 0.008103 -0.003133 -0.001755 0.000000 0.000000 0.000000
# 2 -0.003133 0.018086 -0.006457 0.000000 0.000000 0.000000
# 3 -0.001755 -0.006457 0.011997 0.000000 0.000000 0.000000
# 4 0.000000 0.000000 0.000000 0.074977 0.000000 0.000000
# 5 0.000000 0.000000 0.000000 0.000000 0.024963 0.000000
# 6 0.000000 0.000000 0.000000 0.000000 0.000000 0.021425
#
#
# Mechanical properties :
#
#
# Convention : Reuss Voigt Hill
#
# Bulk Modulus (GPa) = 64.53531 68.37527 66.45529
# Shear Modulus (GPa) = 26.67987 34.04298 30.36143
#
# Velocity S-wave (km/s) = 3.58277 4.04707 3.82198
# Velocity P-wave (km/s) = 6.94004 7.39832 7.17284
#
# Compressibility (1/GPa) = 0.01549539
#
# Stress axis : x y z
#
# Youngs Moduli (GPa) = 123.41190 55.29182 83.35350
#
# Poissons Ratio (x) = 0.17324 0.14629
# Poissons Ratio (y) = 0.38668 0.53821
# Poissons Ratio (z) = 0.21660 0.35702
#
# Static dielectric constant tensor:
#      x y z
#    x 3.965940 0.000000 0.000000 
#    y 0.000000 3.820390 0.000000 
#    z 0.000000 0.000000 4.054460 
# 
# 
# High freq. dielectric constant tensor:
#      x y z
#    x 1.844500 0.000000 0.000000 
#    y 0.000000 1.793320 0.000000 
#    z 0.000000 0.000000 1.809300 
# 
# From -- ./inp_files/14028.got.cif
#   From: 2010.03.12/outbox.cif.g09.slc.cpg/sg56_8_cif.got.tgz:14028.got - 2010.04.16 15:33:40.
