data_PCOD8228494
_publ_section_title
;
Structure prediction by ZEFSAII (Michael W. Deem and Ramdas Pophale) SiO2 
 PCOD8228494
Probable space group: P C C N
;
_chemical_formula_sum "Si O2"
_cell_formula_units_Z 48
_cell_length_a 17.473848
_cell_length_b 5.557456
_cell_length_c 24.099740
_cell_angle_alpha 90.000000
_cell_angle_beta 90.000000
_cell_angle_gamma 90.000000
_cell_volume 2340.329159
_symmetry_space_group_name_H-M "P C C N"
_symmetry_group_IT_number 56
_symmetry_cell_setting 'orthorhombic'
loop_
_space_group_symop_operation_xyz
x,y,z
1/2-x,1/2-y,z
1/2+x,-y,1/2-z
-x,1/2+y,1/2-z
-x,-y,-z
1/2+x,1/2+y,-z
1/2-x,y,1/2+z
x,1/2-y,1/2+z
loop_
_atom_site_type_symbol
_atom_site_label
_atom_site_fract_x
_atom_site_fract_y
_atom_site_fract_z
Si Si1 0.708733 0.508710 0.437519
Si Si2 0.177907 0.914321 0.443148
Si Si3 0.453431 0.300462 0.748140
Si Si4 0.936715 0.908934 0.371169
Si Si5 0.464103 0.899270 0.444611
Si Si6 0.410089 0.286679 0.364281
O O1 0.750000 0.250000 0.432109
O O2 0.696135 0.572525 0.502446
O O3 0.632032 0.462848 0.402800
O O4 0.750000 0.750000 0.413099
O O5 0.250000 0.750000 0.428530
O O6 0.097327 0.799101 0.462049
O O7 0.161381 0.055320 0.385729
O O8 0.503704 0.542760 0.755313
O O9 0.408573 0.322982 0.689782
O O10 0.395057 0.296457 0.800713
O O11 0.964594 0.684611 0.407603
O O12 0.007534 0.087842 0.364635
O O13 0.500000 0.000000 0.500000
O O14 0.412387 0.075391 0.408472
#
# Coordination Sequence:
#
# PCOD8228494 Si02
#       6
#     8   8   8   8   8   8
#     4  11  26  41  63  91 128 174 211 254 330 390
#     4  10  24  39  59  93 131 172 205 262 329 388
#     4  10  20  38  64  95 124 162 213 266 324 368
#     4  10  22  39  62  93 127 163 213 275 311 381
#     4  11  21  35  65  96 123 158 218 263 320 374
#     4  10  21  37  64  94 123 166 216 265 319 382
#
# _framework density 20.509936
#
# number of rings (size 3 to 8) (size 9 to 14) (size 15 to 20)
#    0.000    1.667    1.667    2.000   11.667    2.667 
#    0.000    0.000    3.667    0.000    0.000    0.000 
#    0.000    0.000    0.000    0.000    0.000    0.000 
#
# Total GULP energy -594642.058300 kJ/mol
# GULP energy per Si atom -12388.376215 kJ/mol
# Density = 2.046325 g / cm^3
# Si number density = 20.509936 Si / 1000 Ang^3
#
#
#
# Elastic Constant Matrix: (Units=GPa)
#
#
# Indices 1 2 3 4 5 6 
#
# 1 79.8687 21.2423 50.8934 0.0000 0.0000 0.0000
# 2 21.2423 94.1404 32.4937 0.0000 0.0000 0.0000
# 3 50.8934 32.4937 146.2455 0.0000 0.0000 0.0000
# 4 0.0000 0.0000 0.0000 26.5954 0.0000 0.0000
# 5 0.0000 0.0000 0.0000 0.0000 26.0169 0.0000
# 6 0.0000 0.0000 0.0000 0.0000 0.0000 15.9285
#
#
#
# Elastic Compliance Matrix: (Units=1/GPa)
#
#
# Indices 1 2 3 4 5 6 
#
# 1 0.016387 -0.001873 -0.005287 0.000000 0.000000 0.000000
# 2 -0.001873 0.011719 -0.001952 0.000000 0.000000 0.000000
# 3 -0.005287 -0.001952 0.009111 0.000000 0.000000 0.000000
# 4 0.000000 0.000000 0.000000 0.037600 0.000000 0.000000
# 5 0.000000 0.000000 0.000000 0.000000 0.038436 0.000000
# 6 0.000000 0.000000 0.000000 0.000000 0.000000 0.062781
#
#
# Mechanical properties :
#
#
# Convention : Reuss Voigt Hill
#
# Bulk Modulus (GPa) = 52.64739 58.83482 55.74110
# Shear Modulus (GPa) = 24.92651 28.08319 26.50485
#
# Velocity S-wave (km/s) = 3.48995 3.70435 3.59875
# Velocity P-wave (km/s) = 6.47801 6.85890 6.67118
#
# Compressibility (1/GPa) = 0.01899430
#
# Stress axis : x y z
#
# Youngs Moduli (GPa) = 61.02233 85.33299 109.75406
#
# Poissons Ratio (x) = 0.15983 0.58023
# Poissons Ratio (y) = 0.11429 0.21424
# Poissons Ratio (z) = 0.32261 0.16657
#
# Static dielectric constant tensor:
#      x y z
#    x 3.474930 0.000000 0.000000 
#    y 0.000000 3.841090 0.000000 
#    z 0.000000 0.000000 4.156630 
# 
# 
# High freq. dielectric constant tensor:
#      x y z
#    x 1.773590 0.000000 0.000000 
#    y 0.000000 1.809330 0.000000 
#    z 0.000000 0.000000 1.814970 
# 
# From -- ./inp_files/20057.got.cif
#   From: 2010.03.12/outbox.cif.g09.slc.cpg/sg56_11_cif.got.tgz:20057.got - 2010.04.16 15:33:40.
