data_PCOD8228499
_publ_section_title
;
Structure prediction by ZEFSAII (Michael W. Deem and Ramdas Pophale) SiO2 
 PCOD8228499
Probable space group: P C C N
;
_chemical_formula_sum "Si O2"
_cell_formula_units_Z 48
_cell_length_a 15.367700
_cell_length_b 9.673355
_cell_length_c 16.606096
_cell_angle_alpha 90.000000
_cell_angle_beta 90.000000
_cell_angle_gamma 90.000000
_cell_volume 2468.616027
_symmetry_space_group_name_H-M "P C C N"
_symmetry_group_IT_number 56
_symmetry_cell_setting 'orthorhombic'
loop_
_space_group_symop_operation_xyz
x,y,z
1/2-x,1/2-y,z
1/2+x,-y,1/2-z
-x,1/2+y,1/2-z
-x,-y,-z
1/2+x,1/2+y,-z
1/2-x,y,1/2+z
x,1/2-y,1/2+z
loop_
_atom_site_type_symbol
_atom_site_label
_atom_site_fract_x
_atom_site_fract_y
_atom_site_fract_z
Si Si1 0.750000 0.750000 0.958153
Si Si2 0.568115 0.661583 0.241099
Si Si3 0.266694 0.472417 0.677037
Si Si4 0.590882 0.835313 0.556745
Si Si5 0.250000 0.750000 0.096136
Si Si6 0.091949 0.601886 0.528572
Si Si7 0.422813 0.042216 0.698829
O O1 0.749247 0.613048 0.904485
O O2 0.835997 0.743854 0.013370
O O3 0.653993 0.587772 0.273668
O O4 0.588560 0.705289 0.149988
O O5 0.545914 0.799212 0.291863
O O6 0.485795 0.558934 0.249569
O O7 0.287003 0.629597 0.653069
O O8 0.177536 0.467961 0.729901
O O9 0.495596 0.806885 0.516844
O O10 0.610041 0.000395 0.546812
O O11 0.327355 0.702847 0.038304
O O12 0.075688 0.503202 0.605996
#
# Coordination Sequence:
#
# PCOD8228499 Si02
#       7
#     4   8   8   8   4   8   8
#     4  12  20  40  66  84 116 166 204 234 304 370
#     4  11  23  37  65  90 124 153 206 256 297 357
#     4  11  22  40  63  85 119 164 203 243 298 371
#     4  10  21  35  63  87 118 157 195 245 302 354
#     4  10  20  38  66  84 110 162 210 236 298 374
#     4   9  19  41  62  84 120 161 196 241 311 360
#     4  10  21  39  60  90 118 162 196 248 304 365
#
# _framework density 19.444094
#
# number of rings (size 3 to 8) (size 9 to 14) (size 15 to 20)
#    0.000    1.667    5.000    0.000    9.333    0.000 
#    0.000    1.667   18.333    0.000    0.000    0.000 
#    0.000    0.000    0.000    0.000    0.000    0.000 
#
# Total GULP energy -595044.615340 kJ/mol
# GULP energy per Si atom -12396.762820 kJ/mol
# Density = 1.939984 g / cm^3
# Si number density = 19.444094 Si / 1000 Ang^3
#
#
#
# Elastic Constant Matrix: (Units=GPa)
#
#
# Indices 1 2 3 4 5 6 
#
# 1 168.1687 51.4488 26.8443 0.0000 0.0000 0.0000
# 2 51.4488 106.4459 13.3830 0.0000 0.0000 0.0000
# 3 26.8443 13.3830 40.1324 0.0000 0.0000 0.0000
# 4 0.0000 0.0000 0.0000 22.5847 0.0000 0.0000
# 5 0.0000 0.0000 0.0000 0.0000 30.1130 0.0000
# 6 0.0000 0.0000 0.0000 0.0000 0.0000 41.0862
#
#
#
# Elastic Compliance Matrix: (Units=1/GPa)
#
#
# Indices 1 2 3 4 5 6 
#
# 1 0.007547 -0.003145 -0.003999 0.000000 0.000000 0.000000
# 2 -0.003145 0.011116 -0.001603 0.000000 0.000000 0.000000
# 3 -0.003999 -0.001603 0.028127 0.000000 0.000000 0.000000
# 4 0.000000 0.000000 0.000000 0.044278 0.000000 0.000000
# 5 0.000000 0.000000 0.000000 0.000000 0.033208 0.000000
# 6 0.000000 0.000000 0.000000 0.000000 0.000000 0.024339
#
#
# Mechanical properties :
#
#
# Convention : Reuss Voigt Hill
#
# Bulk Modulus (GPa) = 34.13527 55.34437 44.73982
# Shear Modulus (GPa) = 28.42920 33.62818 31.02869
#
# Velocity S-wave (km/s) = 3.82789 4.16321 3.99907
# Velocity P-wave (km/s) = 6.09350 7.18574 6.66204
#
# Compressibility (1/GPa) = 0.02929522
#
# Stress axis : x y z
#
# Youngs Moduli (GPa) = 132.50401 89.96013 35.55261
#
# Poissons Ratio (x) = 0.28291 0.14219
# Poissons Ratio (y) = 0.41671 0.05700
# Poissons Ratio (z) = 0.52993 0.14423
#
# Static dielectric constant tensor:
#      x y z
#    x 4.051830 0.000000 0.000000 
#    y 0.000000 3.487000 0.000000 
#    z 0.000000 0.000000 3.312190 
# 
# 
# High freq. dielectric constant tensor:
#      x y z
#    x 1.780240 0.000000 0.000000 
#    y 0.000000 1.747750 0.000000 
#    z 0.000000 0.000000 1.730320 
# 
# From -- ./inp_files/16576.got.cif
#   From: 2010.03.12/outbox.cif.g09.slc.cpg/sg56_9_cif.got.tgz:16576.got - 2010.04.16 15:33:40.
