data_PCOD8228619
_publ_section_title
;
Structure prediction by ZEFSAII (Michael W. Deem and Ramdas Pophale) SiO2 
 PCOD8228619
Probable space group: P C C N
;
_chemical_formula_sum "Si O2"
_cell_formula_units_Z 56
_cell_length_a 11.600881
_cell_length_b 10.555561
_cell_length_c 18.960316
_cell_angle_alpha 90.000000
_cell_angle_beta 90.000000
_cell_angle_gamma 90.000000
_cell_volume 2321.762877
_symmetry_space_group_name_H-M "P C C N"
_symmetry_group_IT_number 56
_symmetry_cell_setting 'orthorhombic'
loop_
_space_group_symop_operation_xyz
x,y,z
1/2-x,1/2-y,z
1/2+x,-y,1/2-z
-x,1/2+y,1/2-z
-x,-y,-z
1/2+x,1/2+y,-z
1/2-x,y,1/2+z
x,1/2-y,1/2+z
loop_
_atom_site_type_symbol
_atom_site_label
_atom_site_fract_x
_atom_site_fract_y
_atom_site_fract_z
Si Si1 0.842062 0.515390 0.695192
Si Si2 0.507425 0.175604 0.632648
Si Si3 0.370052 0.476309 0.398182
Si Si4 0.597839 0.799045 0.577388
Si Si5 0.124948 0.785468 0.494653
Si Si6 0.101828 0.054412 0.650674
Si Si7 0.204224 0.110719 0.057247
O O1 0.720167 0.476821 0.660781
O O2 0.902223 0.633181 0.653435
O O3 0.825405 0.543187 0.777510
O O4 0.927588 0.395091 0.695451
O O5 0.602750 0.195653 0.572132
O O6 0.454033 0.307515 0.655139
O O7 0.407095 0.082151 0.604995
O O8 0.330764 0.334193 0.421894
O O9 0.379085 0.568112 0.466645
O O10 0.494798 0.459966 0.360382
O O11 0.471102 0.752452 0.552316
O O12 0.660364 0.899735 0.523743
O O13 0.250000 0.750000 0.526226
O O14 0.188789 0.024456 0.584520
O O15 0.250000 0.250000 0.073883
#
# Coordination Sequence:
#
# PCOD8228619 Si02
#       7
#     8   8   8   8   8   8   8
#     4  12  25  41  68 100 134 180 227 297 330 425
#     4   9  21  41  66  89 131 177 226 270 352 404
#     4  11  24  43  69  98 137 180 228 288 346 409
#     4  11  25  41  66 106 136 176 240 283 339 409
#     4  10  20  44  65  97 137 182 220 288 357 404
#     4  10  25  42  69  96 134 186 226 279 352 414
#     4   9  19  41  65  94 130 173 223 277 329 406
#
# _framework density 24.119603999999999
#
# number of rings (size 3 to 8) (size 9 to 14) (size 15 to 20)
#    0.000    1.714    1.429    2.571    4.000    5.714 
#    7.714    0.000    0.000    0.000    0.000    0.000 
#    0.000    0.000    0.000    0.000    0.000    0.000 
#
# Total GULP energy -693889.878345 kJ/mol
# GULP energy per Si atom -12390.890685 kJ/mol
# Density = 2.406471 g / cm^3
# Si number density = 24.119604 Si / 1000 Ang^3
#
#
#
# Elastic Constant Matrix: (Units=GPa)
#
#
# Indices 1 2 3 4 5 6 
#
# 1 113.0821 12.7050 50.8591 0.0000 0.0000 0.0000
# 2 12.7050 67.9667 18.8518 0.0000 0.0000 0.0000
# 3 50.8591 18.8518 116.1837 0.0000 0.0000 0.0000
# 4 0.0000 0.0000 0.0000 20.9357 0.0000 0.0000
# 5 0.0000 0.0000 0.0000 0.0000 33.1938 0.0000
# 6 0.0000 0.0000 0.0000 0.0000 0.0000 28.6442
#
#
#
# Elastic Compliance Matrix: (Units=1/GPa)
#
#
# Indices 1 2 3 4 5 6 
#
# 1 0.011048 -0.000758 -0.004713 0.000000 0.000000 0.000000
# 2 -0.000758 0.015458 -0.002177 0.000000 0.000000 0.000000
# 3 -0.004713 -0.002177 0.011023 0.000000 0.000000 0.000000
# 4 0.000000 0.000000 0.000000 0.047765 0.000000 0.000000
# 5 0.000000 0.000000 0.000000 0.000000 0.030126 0.000000
# 6 0.000000 0.000000 0.000000 0.000000 0.000000 0.034911
#
#
# Mechanical properties :
#
#
# Convention : Reuss Voigt Hill
#
# Bulk Modulus (GPa) = 44.97492 51.34048 48.15770
# Shear Modulus (GPa) = 28.89512 30.87583 29.88548
#
# Velocity S-wave (km/s) = 3.46496 3.58175 3.52384
# Velocity P-wave (km/s) = 5.89025 6.19978 6.04699
#
# Compressibility (1/GPa) = 0.02223462
#
# Stress axis : x y z
#
# Youngs Moduli (GPa) = 90.51322 64.68950 90.71567
#
# Poissons Ratio (x) = 0.04903 0.42757
# Poissons Ratio (y) = 0.06860 0.19744
# Poissons Ratio (z) = 0.42662 0.14080
#
# Static dielectric constant tensor:
#      x y z
#    x 4.838300 0.000000 0.000000 
#    y 0.000000 4.151460 0.000000 
#    z 0.000000 0.000000 4.008240 
# 
# 
# High freq. dielectric constant tensor:
#      x y z
#    x 1.985410 0.000000 0.000000 
#    y 0.000000 1.938740 0.000000 
#    z 0.000000 0.000000 1.929020 
# 
# From -- ./inp_files/18730.got.cif
#   From: 2010.03.12/outbox.cif.g09.slc.cpg/sg56_10_cif.got.tgz:18730.got - 2010.04.16 15:33:40.
