data_PCOD8228864
_publ_section_title
;
Structure prediction by ZEFSAII (Michael W. Deem and Ramdas Pophale) SiO2 
 PCOD8228864
Probable space group: P C C N
;
_chemical_formula_sum "Si O2"
_cell_formula_units_Z 64
_cell_length_a 9.150163
_cell_length_b 23.806431
_cell_length_c 14.014277
_cell_angle_alpha 90.000000
_cell_angle_beta 90.000000
_cell_angle_gamma 90.000000
_cell_volume 3052.768135
_symmetry_space_group_name_H-M "P C C N"
_symmetry_group_IT_number 56
_symmetry_cell_setting 'orthorhombic'
loop_
_space_group_symop_operation_xyz
x,y,z
1/2-x,1/2-y,z
1/2+x,-y,1/2-z
-x,1/2+y,1/2-z
-x,-y,-z
1/2+x,1/2+y,-z
1/2-x,y,1/2+z
x,1/2-y,1/2+z
loop_
_atom_site_type_symbol
_atom_site_label
_atom_site_fract_x
_atom_site_fract_y
_atom_site_fract_z
Si Si1 0.411006 0.740558 0.271566
Si Si2 0.627774 0.130364 0.325916
Si Si3 0.430827 0.636918 0.765937
Si Si4 0.135304 0.451546 0.818070
Si Si5 0.986001 0.348413 0.520574
Si Si6 0.686359 0.888080 0.988824
Si Si7 0.590139 0.770631 0.949919
Si Si8 0.420458 0.053766 0.203589
O O1 0.250000 0.750000 0.316195
O O2 0.402298 0.696495 0.186196
O O3 0.470963 0.799928 0.231320
O O4 0.512691 0.713391 0.351436
O O5 0.787308 0.112976 0.287438
O O6 0.613836 0.121960 0.439834
O O7 0.503797 0.096002 0.272739
O O8 0.568418 0.598750 0.743774
O O9 0.403520 0.639847 0.879902
O O10 0.282685 0.469989 0.763564
O O11 0.024892 0.502898 0.824333
O O12 0.163303 0.430803 0.924960
O O13 0.142636 0.377706 0.523114
O O14 0.003655 0.281098 0.500378
O O15 0.626990 0.915590 0.892554
O O16 0.601338 0.828774 0.010300
O O17 0.750000 0.750000 0.921646
#
# Coordination Sequence:
#
# PCOD8228864 Si02
#       8
#     8   8   8   8   8   8   8   8
#     4   9  19  37  61  95 136 176 210 268 330 383
#     4  11  22  41  67  99 134 182 221 269 339 397
#     4  10  23  43  64  98 140 175 224 273 333 400
#     4  12  26  45  70  95 130 179 228 282 336 396
#     4  10  21  41  67 103 141 173 218 276 341 395
#     4  11  22  43  69 103 132 176 220 283 328 407
#     4   9  19  36  63  98 137 172 214 260 326 402
#     4  12  25  46  69  96 135 170 236 281 330 399
#
# _framework density 20.964579000000001
#
# number of rings (size 3 to 8) (size 9 to 14) (size 15 to 20)
#    0.000    1.500    3.750    1.125    1.750    1.000 
#    2.250    8.125    0.000    0.000    0.000    0.000 
#    0.000    0.000    0.000    0.000    0.000    0.000 
#
# Total GULP energy -793425.168786 kJ/mol
# GULP energy per Si atom -12397.268262 kJ/mol
# Density = 2.091686 g / cm^3
# Si number density = 20.964579 Si / 1000 Ang^3
#
#
#
# Elastic Constant Matrix: (Units=GPa)
#
#
# Indices 1 2 3 4 5 6 
#
# 1 75.5885 30.5288 12.5027 0.0000 0.0000 0.0000
# 2 30.5288 80.9539 16.9043 0.0000 0.0000 0.0000
# 3 12.5027 16.9043 67.1739 0.0000 0.0000 0.0000
# 4 0.0000 0.0000 0.0000 22.4050 0.0000 0.0000
# 5 0.0000 0.0000 0.0000 0.0000 34.8261 0.0000
# 6 0.0000 0.0000 0.0000 0.0000 0.0000 31.0667
#
#
#
# Elastic Compliance Matrix: (Units=1/GPa)
#
#
# Indices 1 2 3 4 5 6 
#
# 1 0.015752 -0.005623 -0.001517 0.000000 0.000000 0.000000
# 2 -0.005623 0.015045 -0.002740 0.000000 0.000000 0.000000
# 3 -0.001517 -0.002740 0.015858 0.000000 0.000000 0.000000
# 4 0.000000 0.000000 0.000000 0.044633 0.000000 0.000000
# 5 0.000000 0.000000 0.000000 0.000000 0.028714 0.000000
# 6 0.000000 0.000000 0.000000 0.000000 0.000000 0.032189
#
#
# Mechanical properties :
#
#
# Convention : Reuss Voigt Hill
#
# Bulk Modulus (GPa) = 37.17987 38.17643 37.67815
# Shear Modulus (GPa) = 27.63718 28.57827 28.10773
#
# Velocity S-wave (km/s) = 3.63475 3.69612 3.66556
# Velocity P-wave (km/s) = 5.94881 6.03859 5.99387
#
# Compressibility (1/GPa) = 0.02689628
#
# Stress axis : x y z
#
# Youngs Moduli (GPa) = 63.48570 66.46536 63.05805
#
# Poissons Ratio (x) = 0.37376 0.09563
# Poissons Ratio (y) = 0.35701 0.17275
# Poissons Ratio (z) = 0.09628 0.18208
#
# Static dielectric constant tensor:
#      x y z
#    x 3.830910 0.000000 0.000000 
#    y 0.000000 3.947520 0.000000 
#    z 0.000000 0.000000 3.605520 
# 
# 
# High freq. dielectric constant tensor:
#      x y z
#    x 1.824430 0.000000 0.000000 
#    y 0.000000 1.824000 0.000000 
#    z 0.000000 0.000000 1.813410 
# 
# From -- ./inp_files/11031.got.cif
#   From: 2010.03.12/outbox.cif.g09.slc.cpg/sg56_6_cif.got.tgz:11031.got - 2010.04.16 15:33:40.
