data_PCOD8228408
_publ_section_title
;
Structure prediction by ZEFSAII (Michael W. Deem and Ramdas Pophale) SiO2 
 PCOD8228408
Probable space group: P C C N
;
_chemical_formula_sum "Si O2"
_cell_formula_units_Z 64
_cell_length_a 18.040759
_cell_length_b 19.844977
_cell_length_c 9.199600
_cell_angle_alpha 90.000000
_cell_angle_beta 90.000000
_cell_angle_gamma 90.000000
_cell_volume 3293.626509
_symmetry_space_group_name_H-M "P C C N"
_symmetry_group_IT_number 56
_symmetry_cell_setting 'orthorhombic'
loop_
_space_group_symop_operation_xyz
x,y,z
1/2-x,1/2-y,z
1/2+x,-y,1/2-z
-x,1/2+y,1/2-z
-x,-y,-z
1/2+x,1/2+y,-z
1/2-x,y,1/2+z
x,1/2-y,1/2+z
loop_
_atom_site_type_symbol
_atom_site_label
_atom_site_fract_x
_atom_site_fract_y
_atom_site_fract_z
Si Si1 0.829962 0.780194 0.378665
Si Si2 0.519174 0.641593 0.036501
Si Si3 0.338325 0.446867 0.001502
Si Si4 0.584742 0.024840 0.985271
Si Si5 0.577216 0.777658 0.145211
Si Si6 0.984762 0.103605 0.262468
Si Si7 0.807633 0.928287 0.321184
Si Si8 0.428791 0.532775 0.198634
O O1 0.750000 0.750000 0.354698
O O2 0.893919 0.734001 0.308344
O O3 0.848708 0.783795 0.548427
O O4 0.836820 0.852528 0.301456
O O5 0.601108 0.612784 0.001407
O O6 0.522874 0.717414 0.095769
O O7 0.480728 0.595232 0.158032
O O8 0.468037 0.641637 0.889705
O O9 0.307789 0.461962 0.839167
O O10 0.273701 0.423377 0.109730
O O11 0.370736 0.516655 0.068823
O O12 0.586071 0.085209 0.864516
O O13 0.638837 0.966575 0.932026
O O14 0.610876 0.049172 0.146077
O O15 0.500000 0.000000 0.000000
O O16 0.535769 0.848791 0.137534
O O17 0.022424 0.033811 0.216664
#
# Coordination Sequence:
#
# PCOD8228408 Si02
#       8
#     8   8   8   8   8   8   8   8
#     4  12  26  38  52  77 120 165 205 236 289 345
#     4  11  21  39  57  84 114 160 199 254 299 353
#     4  11  22  37  55  84 113 155 195 241 293 347
#     4  10  20  37  58  85 104 148 196 251 301 343
#     4  12  24  38  55  82 117 158 205 245 296 354
#     4  10  21  35  58  78 113 144 198 245 299 341
#     4  12  24  37  59  80 121 159 203 247 290 358
#     4  10  21  37  63  82 113 149 202 250 306 346
#
# _framework density 19.431469
#
# number of rings (size 3 to 8) (size 9 to 14) (size 15 to 20)
#    0.000    1.000    2.500    7.125    5.250    0.000 
#    0.000    0.000    0.000    0.000    0.000    0.875 
#    0.000   10.000    0.000    0.000    0.000    0.000 
#
# Total GULP energy -793384.222910 kJ/mol
# GULP energy per Si atom -12396.628483 kJ/mol
# Density = 1.938724 g / cm^3
# Si number density = 19.431469 Si / 1000 Ang^3
#
#
#
# Elastic Constant Matrix: (Units=GPa)
#
#
# Indices 1 2 3 4 5 6 
#
# 1 38.2472 22.5114 20.3535 0.0000 0.0000 0.0000
# 2 22.5114 64.0491 22.8838 0.0000 0.0000 0.0000
# 3 20.3535 22.8838 131.0806 0.0000 0.0000 0.0000
# 4 0.0000 0.0000 0.0000 27.7701 0.0000 0.0000
# 5 0.0000 0.0000 0.0000 0.0000 26.9584 0.0000
# 6 0.0000 0.0000 0.0000 0.0000 0.0000 22.5548
#
#
#
# Elastic Compliance Matrix: (Units=1/GPa)
#
#
# Indices 1 2 3 4 5 6 
#
# 1 0.034362 -0.010848 -0.003442 0.000000 0.000000 0.000000
# 2 -0.010848 0.020076 -0.001820 0.000000 0.000000 0.000000
# 3 -0.003442 -0.001820 0.008481 0.000000 0.000000 0.000000
# 4 0.000000 0.000000 0.000000 0.036010 0.000000 0.000000
# 5 0.000000 0.000000 0.000000 0.000000 0.037094 0.000000
# 6 0.000000 0.000000 0.000000 0.000000 0.000000 0.044337
#
#
# Mechanical properties :
#
#
# Convention : Reuss Voigt Hill
#
# Bulk Modulus (GPa) = 32.57385 40.54160 36.55772
# Shear Modulus (GPa) = 22.44040 26.63188 24.53614
#
# Velocity S-wave (km/s) = 3.40199 3.70612 3.55731
# Velocity P-wave (km/s) = 5.67726 6.26282 5.97721
#
# Compressibility (1/GPa) = 0.03069947
#
# Stress axis : x y z
#
# Youngs Moduli (GPa) = 29.10201 49.81057 117.90877
#
# Poissons Ratio (x) = 0.54032 0.40582
# Poissons Ratio (y) = 0.31568 0.21465
# Poissons Ratio (z) = 0.10016 0.09068
#
# Static dielectric constant tensor:
#      x y z
#    x 3.292910 0.000000 0.000000 
#    y 0.000000 3.543780 0.000000 
#    z 0.000000 0.000000 4.491570 
# 
# 
# High freq. dielectric constant tensor:
#      x y z
#    x 1.708260 0.000000 0.000000 
#    y 0.000000 1.735980 0.000000 
#    z 0.000000 0.000000 1.792780 
# 
# From -- ./inp_files/4208.got.cif
#   From: 2010.03.12/outbox.cif.g09.slc.cpg/sg56_3_cif.got.tgz:4208.got - 2010.04.16 15:33:40.
