data_PCOD8228286
_publ_section_title
;
Structure prediction by ZEFSAII (Michael W. Deem and Ramdas Pophale) SiO2 
 PCOD8228286
Probable space group: P C C N
;
_chemical_formula_sum "Si O2"
_cell_formula_units_Z 48
_cell_length_a 9.042666
_cell_length_b 8.989430
_cell_length_c 27.876751
_cell_angle_alpha 90.000000
_cell_angle_beta 90.000000
_cell_angle_gamma 90.000000
_cell_volume 2266.056849
_symmetry_space_group_name_H-M "P C C N"
_symmetry_group_IT_number 56
_symmetry_cell_setting 'orthorhombic'
loop_
_space_group_symop_operation_xyz
x,y,z
1/2-x,1/2-y,z
1/2+x,-y,1/2-z
-x,1/2+y,1/2-z
-x,-y,-z
1/2+x,1/2+y,-z
1/2-x,y,1/2+z
x,1/2-y,1/2+z
loop_
_atom_site_type_symbol
_atom_site_label
_atom_site_fract_x
_atom_site_fract_y
_atom_site_fract_z
Si Si1 0.062539 0.082639 0.310400
Si Si2 0.053679 0.582411 0.567177
Si Si3 0.883784 0.357997 0.328941
Si Si4 0.383736 0.139162 0.915964
Si Si5 0.718268 0.418011 0.023816
Si Si6 0.719365 0.916918 0.768320
O O1 0.014274 0.257190 0.305448
O O2 0.068458 0.050012 0.367553
O O3 0.227581 0.067108 0.287665
O O4 0.943350 0.975823 0.282916
O O5 0.077532 0.551604 0.623017
O O6 0.197980 0.560056 0.533623
O O7 0.011576 0.757402 0.561958
O O8 0.930622 0.466268 0.550641
O O9 0.750000 0.250000 0.342276
O O10 0.845378 0.482876 0.291636
O O11 0.250000 0.250000 0.902414
O O12 0.350543 0.021700 0.957699
O O13 0.750000 0.250000 0.038527
O O14 0.750000 0.750000 0.786488
#
# Coordination Sequence:
#
# PCOD8228286 Si02
#       6
#     8   8   8   8   8   8
#     4  10  21  38  59  81 113 155 191 228 285 354
#     4   9  19  37  56  76 109 151 188 226 282 351
#     4   9  19  37  58  79 110 152 190 226 281 349
#     4   9  19  37  58  80 110 151 190 227 285 354
#     4  10  20  33  54  83 109 138 184 239 283 324
#     4  11  22  36  57  86 113 143 191 244 286 331
#
# _framework density 21.182168000000001
#
# number of rings (size 3 to 8) (size 9 to 14) (size 15 to 20)
#    0.000    2.333    0.000    2.000    0.000    4.667 
#    0.000    6.667    0.000    0.000    0.000    0.000 
#    0.000    0.000    0.000    0.000    0.000    0.000 
#
# Total GULP energy -594745.462824 kJ/mol
# GULP energy per Si atom -12390.530476 kJ/mol
# Density = 2.113396 g / cm^3
# Si number density = 21.182168 Si / 1000 Ang^3
#
#
#
# Elastic Constant Matrix: (Units=GPa)
#
#
# Indices 1 2 3 4 5 6 
#
# 1 51.8400 13.6664 30.0929 0.0000 0.0000 0.0000
# 2 13.6664 88.0167 41.7043 0.0000 0.0000 0.0000
# 3 30.0929 41.7043 96.1788 0.0000 0.0000 0.0000
# 4 0.0000 0.0000 0.0000 26.6519 0.0000 0.0000
# 5 0.0000 0.0000 0.0000 0.0000 35.6767 0.0000
# 6 0.0000 0.0000 0.0000 0.0000 0.0000 29.2983
#
#
#
# Elastic Compliance Matrix: (Units=1/GPa)
#
#
# Indices 1 2 3 4 5 6 
#
# 1 0.023574 -0.000208 -0.007286 0.000000 0.000000 0.000000
# 2 -0.000208 0.014301 -0.006136 0.000000 0.000000 0.000000
# 3 -0.007286 -0.006136 0.015338 0.000000 0.000000 0.000000
# 4 0.000000 0.000000 0.000000 0.037521 0.000000 0.000000
# 5 0.000000 0.000000 0.000000 0.000000 0.028029 0.000000
# 6 0.000000 0.000000 0.000000 0.000000 0.000000 0.034132
#
#
# Mechanical properties :
#
#
# Convention : Reuss Voigt Hill
#
# Bulk Modulus (GPa) = 38.53105 45.21807 41.87456
# Shear Modulus (GPa) = 26.48218 28.36350 27.42284
#
# Velocity S-wave (km/s) = 3.53967 3.66324 3.60198
# Velocity P-wave (km/s) = 5.91062 6.26786 6.09186
#
# Compressibility (1/GPa) = 0.02595309
#
# Stress axis : x y z
#
# Youngs Moduli (GPa) = 42.41891 69.92417 65.19940
#
# Poissons Ratio (x) = 0.01456 0.47503
# Poissons Ratio (y) = 0.00883 0.40007
# Poissons Ratio (z) = 0.30905 0.42906
#
# Static dielectric constant tensor:
#      x y z
#    x 3.975970 0.000000 0.000000 
#    y 0.000000 3.788290 0.000000 
#    z 0.000000 0.000000 3.818190 
# 
# 
# High freq. dielectric constant tensor:
#      x y z
#    x 1.831140 0.000000 0.000000 
#    y 0.000000 1.816970 0.000000 
#    z 0.000000 0.000000 1.833850 
# 
# From -- ./inp_files/22254.got.cif
#   From: 2010.03.12/outbox.cif.g09.slc.cpg/sg56_12_cif.got.tgz:22254.got - 2010.04.16 15:33:40.
