data_PCOD8228197
_publ_section_title
;
Structure prediction by ZEFSAII (Michael W. Deem and Ramdas Pophale) SiO2 
 PCOD8228197
Probable space group: P C C N
;
_chemical_formula_sum "Si O2"
_cell_formula_units_Z 48
_cell_length_a 7.897366
_cell_length_b 14.479574
_cell_length_c 18.529767
_cell_angle_alpha 90.000000
_cell_angle_beta 90.000000
_cell_angle_gamma 90.000000
_cell_volume 2118.888036
_symmetry_space_group_name_H-M "P C C N"
_symmetry_group_IT_number 56
_symmetry_cell_setting 'orthorhombic'
loop_
_space_group_symop_operation_xyz
x,y,z
1/2-x,1/2-y,z
1/2+x,-y,1/2-z
-x,1/2+y,1/2-z
-x,-y,-z
1/2+x,1/2+y,-z
1/2-x,y,1/2+z
x,1/2-y,1/2+z
loop_
_atom_site_type_symbol
_atom_site_label
_atom_site_fract_x
_atom_site_fract_y
_atom_site_fract_z
Si Si1 0.250000 0.250000 0.274118
Si Si2 0.716586 0.035946 0.160294
Si Si3 0.020905 0.895833 0.469768
Si Si4 0.079989 0.369544 0.388928
Si Si5 0.709604 0.351711 0.390659
Si Si6 0.250000 0.250000 0.002816
Si Si7 0.508243 0.903961 0.243530
O O1 0.112748 0.307284 0.319177
O O2 0.364100 0.322913 0.229894
O O3 0.607457 0.102234 0.109105
O O4 0.874007 0.091853 0.192677
O O5 0.786968 0.953239 0.110175
O O6 0.612107 0.998979 0.230202
O O7 0.138272 0.846525 0.528534
O O8 0.852414 0.832242 0.455488
O O9 0.000000 0.000000 0.500000
O O10 0.108616 0.303474 0.456910
O O11 0.887446 0.408164 0.389412
O O12 0.750000 0.250000 0.362922
O O13 0.572000 0.392094 0.336072
#
# Coordination Sequence:
#
# PCOD8228197 Si02
#       7
#     4   8   8   8   8   4   8
#     4   9  18  36  68  97 128 182 234 288 344 433
#     4  11  24  43  71 105 144 184 244 306 362 432
#     4  12  23  44  72 106 143 187 249 305 361 434
#     4  10  19  37  67 102 131 184 239 281 360 433
#     4  12  21  38  74 104 136 190 243 290 353 437
#     4  11  20  40  70 101 144 186 232 302 360 437
#     4  11  22  42  70 102 140 186 243 296 360 435
#
# _framework density 22.653392
#
# number of rings (size 3 to 8) (size 9 to 14) (size 15 to 20)
#    0.000    1.000    6.667    2.000    0.000    0.667 
#    0.000    0.833    3.667    2.000    0.000    0.000 
#    0.000    0.000    0.000    0.000    0.000    0.000 
#
# Total GULP energy -594855.920710 kJ/mol
# GULP energy per Si atom -12392.831681 kJ/mol
# Density = 2.260183 g / cm^3
# Si number density = 22.653392 Si / 1000 Ang^3
#
#
#
# Elastic Constant Matrix: (Units=GPa)
#
#
# Indices 1 2 3 4 5 6 
#
# 1 141.8948 55.6050 40.0530 0.0000 0.0000 0.0000
# 2 55.6050 95.9115 38.5424 0.0000 0.0000 0.0000
# 3 40.0530 38.5424 73.5956 0.0000 0.0000 0.0000
# 4 0.0000 0.0000 0.0000 28.5924 0.0000 0.0000
# 5 0.0000 0.0000 0.0000 0.0000 -1.9107 0.0000
# 6 0.0000 0.0000 0.0000 0.0000 0.0000 46.8530
#
#
#
# Elastic Compliance Matrix: (Units=1/GPa)
#
#
# Indices 1 2 3 4 5 6 
#
# 1 0.009591 -0.004386 -0.002923 0.000000 0.000000 0.000000
# 2 -0.004386 0.015211 -0.005579 0.000000 0.000000 0.000000
# 3 -0.002923 -0.005579 0.018100 0.000000 0.000000 0.000000
# 4 0.000000 0.000000 0.000000 0.034974 0.000000 0.000000
# 5 0.000000 0.000000 0.000000 0.000000 -0.523357 0.000000
# 6 0.000000 0.000000 0.000000 0.000000 0.000000 0.021343
#
#
# Mechanical properties :
#
#
# Convention : Reuss Voigt Hill
#
# Bulk Modulus (GPa) = 58.38861 64.42251 61.40556
# Shear Modulus (GPa) = -12.73391 26.52038 6.89323
#
# Velocity S-wave (km/s) = -2.37348 3.42526 1.74629
# Velocity P-wave (km/s) = 4.28013 6.64405 5.58851
#
# Compressibility (1/GPa) = 0.01712663
#
# Stress axis : x y z
#
# Youngs Moduli (GPa) = 104.26120 65.74166 55.24772
#
# Poissons Ratio (x) = 0.28834 0.16148
# Poissons Ratio (y) = 0.45729 0.30823
# Poissons Ratio (z) = 0.30475 0.36678
#
# Static dielectric constant tensor:
#      x y z
#    x 4.423950 0.000000 0.000000 
#    y 0.000000 4.225360 0.000000 
#    z 0.000000 0.000000 3.624970 
# 
# 
# High freq. dielectric constant tensor:
#      x y z
#    x 1.914180 0.000000 0.000000 
#    y 0.000000 1.889760 0.000000 
#    z 0.000000 0.000000 1.852470 
# 
# From -- ./inp_files/14855.got.cif
#   From: 2010.03.12/outbox.cif.g09.slc.cpg/sg56_8_cif.got.tgz:14855.got - 2010.04.16 15:33:40.
