data_PCOD8228162
_publ_section_title
;
Structure prediction by ZEFSAII (Michael W. Deem and Ramdas Pophale) SiO2 
 PCOD8228162
Probable space group: P C C N
;
_chemical_formula_sum "Si O2"
_cell_formula_units_Z 64
_cell_length_a 5.889329
_cell_length_b 28.399465
_cell_length_c 18.205288
_cell_angle_alpha 90.000000
_cell_angle_beta 90.000000
_cell_angle_gamma 90.000000
_cell_volume 3044.903467
_symmetry_space_group_name_H-M "P C C N"
_symmetry_group_IT_number 56
_symmetry_cell_setting 'orthorhombic'
loop_
_space_group_symop_operation_xyz
x,y,z
1/2-x,1/2-y,z
1/2+x,-y,1/2-z
-x,1/2+y,1/2-z
-x,-y,-z
1/2+x,1/2+y,-z
1/2-x,y,1/2+z
x,1/2-y,1/2+z
loop_
_atom_site_type_symbol
_atom_site_label
_atom_site_fract_x
_atom_site_fract_y
_atom_site_fract_z
Si Si1 0.696472 0.803649 0.297689
Si Si2 0.183296 0.022212 0.770086
Si Si3 0.504437 0.390170 0.698599
Si Si4 0.610558 0.363719 0.301764
Si Si5 0.723366 0.577170 0.602123
Si Si6 0.507853 0.389896 0.530954
Si Si7 0.114108 0.645108 0.565903
Si Si8 0.818300 0.697454 0.462155
O O1 0.750000 0.750000 0.276852
O O2 0.523766 0.822681 0.238211
O O3 0.586632 0.806703 0.379047
O O4 0.920755 0.836169 0.296873
O O5 0.198951 0.028142 0.859358
O O6 0.180988 0.074270 0.733021
O O7 0.428182 0.999319 0.746040
O O8 0.740332 0.392789 0.742476
O O9 0.538696 0.406751 0.614279
O O10 0.472075 0.403178 0.344751
O O11 0.745142 0.335227 0.365137
O O12 0.637744 0.572094 0.517502
O O13 0.929011 0.613093 0.605179
O O14 0.751155 0.386607 0.492870
O O15 0.387472 0.338889 0.525451
O O16 0.015588 0.688451 0.520427
O O17 0.750000 0.750000 0.479304
#
# Coordination Sequence:
#
# PCOD8228162 Si02
#       8
#     8   8   8   8   8   8   8   8
#     4  10  21  37  61  92 130 171 218 274 333 396
#     4  12  26  44  73 104 133 178 230 282 354 421
#     4  11  22  42  65  96 128 172 224 276 333 404
#     4  11  19  36  64  86 131 171 219 274 331 394
#     4  10  21  42  62  92 129 170 207 273 335 399
#     4   9  21  37  65  88 121 173 218 262 338 396
#     4  10  19  36  60  85 116 176 210 264 337 393
#     4   9  19  36  54  85 126 166 217 270 322 396
#
# _framework density 21.018729
#
# number of rings (size 3 to 8) (size 9 to 14) (size 15 to 20)
#    0.000    1.750    2.500    1.500    1.750    1.000 
#    0.000   20.000    0.000    0.000    0.000    0.000 
#    0.000    0.000    0.000    0.000    0.000    0.000 
#
# Total GULP energy -792895.218461 kJ/mol
# GULP energy per Si atom -12388.987788 kJ/mol
# Density = 2.097089 g / cm^3
# Si number density = 21.018729 Si / 1000 Ang^3
#
#
#
# Elastic Constant Matrix: (Units=GPa)
#
#
# Indices 1 2 3 4 5 6 
#
# 1 92.4044 7.2194 46.9749 0.0000 0.0000 0.0000
# 2 7.2194 45.1896 9.4825 0.0000 0.0000 0.0000
# 3 46.9749 9.4825 127.6292 0.0000 0.0000 0.0000
# 4 0.0000 0.0000 0.0000 25.2085 0.0000 0.0000
# 5 0.0000 0.0000 0.0000 0.0000 37.9311 0.0000
# 6 0.0000 0.0000 0.0000 0.0000 0.0000 17.5527
#
#
#
# Elastic Compliance Matrix: (Units=1/GPa)
#
#
# Indices 1 2 3 4 5 6 
#
# 1 0.013369 -0.001121 -0.004837 0.000000 0.000000 0.000000
# 2 -0.001121 0.022573 -0.001265 0.000000 0.000000 0.000000
# 3 -0.004837 -0.001265 0.009710 0.000000 0.000000 0.000000
# 4 0.000000 0.000000 0.000000 0.039669 0.000000 0.000000
# 5 0.000000 0.000000 0.000000 0.000000 0.026364 0.000000
# 6 0.000000 0.000000 0.000000 0.000000 0.000000 0.056971
#
#
# Mechanical properties :
#
#
# Convention : Reuss Voigt Hill
#
# Bulk Modulus (GPa) = 32.04465 43.61963 37.83214
# Shear Modulus (GPa) = 25.83945 29.57490 27.70718
#
# Velocity S-wave (km/s) = 3.51002 3.75517 3.63466
# Velocity P-wave (km/s) = 5.63079 6.29281 5.97099
#
# Compressibility (1/GPa) = 0.03120646
#
# Stress axis : x y z
#
# Youngs Moduli (GPa) = 74.80236 44.29995 102.99189
#
# Poissons Ratio (x) = 0.04965 0.49819
# Poissons Ratio (y) = 0.08383 0.13025
# Poissons Ratio (z) = 0.36183 0.05602
#
# Static dielectric constant tensor:
#      x y z
#    x 3.999010 0.000000 0.000000 
#    y 0.000000 3.592880 0.000000 
#    z 0.000000 0.000000 4.223970 
# 
# 
# High freq. dielectric constant tensor:
#      x y z
#    x 1.829050 0.000000 0.000000 
#    y 0.000000 1.789450 0.000000 
#    z 0.000000 0.000000 1.846810 
# 
# From -- ./inp_files/14190.got.cif
#   From: 2010.03.12/outbox.cif.g09.slc.cpg/sg56_8_cif.got.tgz:14190.got - 2010.04.16 15:33:40.
