data_PCOD8228999
_publ_section_title
;
Structure prediction by ZEFSAII (Michael W. Deem and Ramdas Pophale) SiO2 
 PCOD8228999
Probable space group: P C C N
;
_chemical_formula_sum "Si O2"
_cell_formula_units_Z 60
_cell_length_a 14.224367
_cell_length_b 14.386391
_cell_length_c 13.846110
_cell_angle_alpha 90.000000
_cell_angle_beta 90.000000
_cell_angle_gamma 90.000000
_cell_volume 2833.430641
_symmetry_space_group_name_H-M "P C C N"
_symmetry_group_IT_number 56
_symmetry_cell_setting 'orthorhombic'
loop_
_space_group_symop_operation_xyz
x,y,z
1/2-x,1/2-y,z
1/2+x,-y,1/2-z
-x,1/2+y,1/2-z
-x,-y,-z
1/2+x,1/2+y,-z
1/2-x,y,1/2+z
x,1/2-y,1/2+z
loop_
_atom_site_type_symbol
_atom_site_label
_atom_site_fract_x
_atom_site_fract_y
_atom_site_fract_z
Si Si1 0.121801 0.656816 0.410932
Si Si2 0.750000 0.250000 0.235072
Si Si3 0.924282 0.670763 0.337907
Si Si4 0.101234 0.122489 0.686543
Si Si5 0.422294 0.988033 0.764742
Si Si6 0.747677 0.913888 0.449720
Si Si7 0.276916 0.474798 0.847045
Si Si8 0.681124 0.107727 0.387582
O O1 0.161822 0.733231 0.336136
O O2 0.149877 0.554102 0.376936
O O3 0.156188 0.673486 0.521277
O O4 0.009963 0.666715 0.413327
O O5 0.735950 0.162229 0.304082
O O6 0.920949 0.771114 0.286390
O O7 0.943272 0.596902 0.252090
O O8 0.830006 0.647615 0.395707
O O9 0.149231 0.122352 0.580738
O O10 0.179749 0.082593 0.759060
O O11 0.007425 0.060371 0.678791
O O12 0.413157 0.935878 0.660695
O O13 0.323312 0.978452 0.821296
O O14 0.736380 0.903121 0.564499
O O15 0.745723 0.022880 0.422044
#
# Coordination Sequence:
#
# PCOD8228999 Si02
#       8
#     8   4   8   8   8   8   8   8
#     4  11  23  40  66  96 133 175 223 281 336 404
#     4  12  20  40  62  98 134 174 218 276 354 388
#     4  11  24  41  66 101 131 177 228 276 339 410
#     4  12  23  45  68 100 139 175 222 291 333 404
#     4  11  23  43  68  98 131 180 226 270 346 400
#     4  10  24  44  65  94 132 176 231 273 338 403
#     4  11  23  44  72  92 131 185 218 280 338 402
#     4  10  22  39  65  95 127 172 223 275 328 409
#
# _framework density 21.175743000000001
#
# number of rings (size 3 to 8) (size 9 to 14) (size 15 to 20)
#    0.000    1.067    5.333    1.600    1.867    2.133 
#    4.800    0.000    0.000    0.000    0.000    0.000 
#    0.000    0.000    0.000    0.000    0.000    0.000 
#
# Total GULP energy -744016.983328 kJ/mol
# GULP energy per Si atom -12400.283055 kJ/mol
# Density = 2.112755 g / cm^3
# Si number density = 21.175743 Si / 1000 Ang^3
#
#
#
# Elastic Constant Matrix: (Units=GPa)
#
#
# Indices 1 2 3 4 5 6 
#
# 1 132.6009 39.8238 38.4105 0.0000 0.0000 0.0000
# 2 39.8238 90.5110 24.6165 0.0000 0.0000 0.0000
# 3 38.4105 24.6165 84.3472 0.0000 0.0000 0.0000
# 4 0.0000 0.0000 0.0000 23.4827 0.0000 0.0000
# 5 0.0000 0.0000 0.0000 0.0000 21.0011 0.0000
# 6 0.0000 0.0000 0.0000 0.0000 0.0000 27.6074
#
#
#
# Elastic Compliance Matrix: (Units=1/GPa)
#
#
# Indices 1 2 3 4 5 6 
#
# 1 0.009498 -0.003262 -0.003373 0.000000 0.000000 0.000000
# 2 -0.003262 0.013121 -0.002344 0.000000 0.000000 0.000000
# 3 -0.003373 -0.002344 0.014076 0.000000 0.000000 0.000000
# 4 0.000000 0.000000 0.000000 0.042585 0.000000 0.000000
# 5 0.000000 0.000000 0.000000 0.000000 0.047616 0.000000
# 6 0.000000 0.000000 0.000000 0.000000 0.000000 0.036222
#
#
# Mechanical properties :
#
#
# Convention : Reuss Voigt Hill
#
# Bulk Modulus (GPa) = 53.37018 57.01787 55.19403
# Shear Modulus (GPa) = 26.69198 28.05879 27.37538
#
# Velocity S-wave (km/s) = 3.55420 3.64406 3.59941
# Velocity P-wave (km/s) = 6.48855 6.68506 6.58754
#
# Compressibility (1/GPa) = 0.01873705
#
# Stress axis : x y z
#
# Youngs Moduli (GPa) = 105.28346 76.21393 71.04248
#
# Poissons Ratio (x) = 0.24858 0.23966
# Poissons Ratio (y) = 0.34339 0.16653
# Poissons Ratio (z) = 0.35517 0.17865
#
# Static dielectric constant tensor:
#      x y z
#    x 3.739440 0.000000 0.000000 
#    y 0.000000 3.862900 0.000000 
#    z 0.000000 0.000000 3.908400 
# 
# 
# High freq. dielectric constant tensor:
#      x y z
#    x 1.827190 0.000000 0.000000 
#    y 0.000000 1.830710 0.000000 
#    z 0.000000 0.000000 1.821100 
# 
# From -- ./inp_files/12407.got.cif
#   From: 2010.03.12/outbox.cif.g09.slc.cpg/sg56_7_cif.got.tgz:12407.got - 2010.04.16 15:33:40.
