data_PCOD8228995
_publ_section_title
;
Structure prediction by ZEFSAII (Michael W. Deem and Ramdas Pophale) SiO2 
 PCOD8228995
Probable space group: P C C N
;
_chemical_formula_sum "Si O2"
_cell_formula_units_Z 32
_cell_length_a 5.188930
_cell_length_b 20.651208
_cell_length_c 15.129578
_cell_angle_alpha 90.000000
_cell_angle_beta 90.000000
_cell_angle_gamma 90.000000
_cell_volume 1621.250368
_symmetry_space_group_name_H-M "P C C N"
_symmetry_group_IT_number 56
_symmetry_cell_setting 'orthorhombic'
loop_
_space_group_symop_operation_xyz
x,y,z
1/2-x,1/2-y,z
1/2+x,-y,1/2-z
-x,1/2+y,1/2-z
-x,-y,-z
1/2+x,1/2+y,-z
1/2-x,y,1/2+z
x,1/2-y,1/2+z
loop_
_atom_site_type_symbol
_atom_site_label
_atom_site_fract_x
_atom_site_fract_y
_atom_site_fract_z
Si Si1 0.156883 0.816908 0.455803
Si Si2 0.183226 0.459079 0.769339
Si Si3 0.896273 0.567967 0.032203
Si Si4 0.661707 0.638469 0.882768
O O1 0.250000 0.750000 0.503446
O O2 0.117772 0.875283 0.526705
O O3 0.609936 0.691186 0.400276
O O4 0.377901 0.831670 0.383458
O O5 0.402539 0.510530 0.745511
O O6 0.215428 0.395552 0.710194
O O7 0.216104 0.436429 0.869914
O O8 0.000000 0.500000 0.000000
O O9 0.669346 0.586296 0.963528
#
# Coordination Sequence:
#
# PCOD8228995 Si02
#       4
#     8   8   8   8
#     4  10  22  42  65  84 124 171 207 253 314 371
#     4  12  23  36  61  94 131 156 205 260 320 372
#     4  10  22  39  63  94 123 159 208 256 316 366
#     4  10  22  39  63  89 124 163 204 252 317 356
#
# _framework density 19.737852
#
# number of rings (size 3 to 8) (size 9 to 14) (size 15 to 20)
#    1.500    0.000    2.500    3.750    3.500    2.000 
#    0.000    1.250    5.500    0.000    0.000    0.000 
#    0.000    0.000    0.000    0.000    0.000    0.000 
#
# Total GULP energy -396435.838696 kJ/mol
# GULP energy per Si atom -12388.619959 kJ/mol
# Density = 1.969293 g / cm^3
# Si number density = 19.737852 Si / 1000 Ang^3
#
#
#
# Elastic Constant Matrix: (Units=GPa)
#
#
# Indices 1 2 3 4 5 6 
#
# 1 96.4949 10.5398 3.3159 0.0000 0.0000 0.0000
# 2 10.5398 98.7108 12.2521 0.0000 0.0000 0.0000
# 3 3.3159 12.2521 110.7484 0.0000 0.0000 0.0000
# 4 0.0000 0.0000 0.0000 23.7707 0.0000 0.0000
# 5 0.0000 0.0000 0.0000 0.0000 24.5251 0.0000
# 6 0.0000 0.0000 0.0000 0.0000 0.0000 31.6523
#
#
#
# Elastic Compliance Matrix: (Units=1/GPa)
#
#
# Indices 1 2 3 4 5 6 
#
# 1 0.010490 -0.001096 -0.000193 0.000000 0.000000 0.000000
# 2 -0.001096 0.010386 -0.001116 0.000000 0.000000 0.000000
# 3 -0.000193 -0.001116 0.009159 0.000000 0.000000 0.000000
# 4 0.000000 0.000000 0.000000 0.042069 0.000000 0.000000
# 5 0.000000 0.000000 0.000000 0.000000 0.040775 0.000000
# 6 0.000000 0.000000 0.000000 0.000000 0.000000 0.031593
#
#
# Mechanical properties :
#
#
# Convention : Reuss Voigt Hill
#
# Bulk Modulus (GPa) = 39.64430 39.79662 39.72046
# Shear Modulus (GPa) = 31.70793 34.64604 33.17699
#
# Velocity S-wave (km/s) = 4.01241 4.19419 4.10430
# Velocity P-wave (km/s) = 6.44941 6.60767 6.52902
#
# Compressibility (1/GPa) = 0.02522431
#
# Stress axis : x y z
#
# Youngs Moduli (GPa) = 95.33267 96.28173 109.18543
#
# Poissons Ratio (x) = 0.10553 0.02105
# Poissons Ratio (y) = 0.10449 0.12187
# Poissons Ratio (z) = 0.01838 0.10747
#
# Static dielectric constant tensor:
#      x y z
#    x 3.601000 0.000000 0.000000 
#    y 0.000000 3.610870 0.000000 
#    z 0.000000 0.000000 3.476980 
# 
# 
# High freq. dielectric constant tensor:
#      x y z
#    x 1.780030 0.000000 0.000000 
#    y 0.000000 1.766620 0.000000 
#    z 0.000000 0.000000 1.741310 
# 
# From -- ./inp_files/9390.got.cif
#   From: 2010.03.12/outbox.cif.g09.slc.cpg/sg56_5_cif.got.tgz:9390.got - 2010.04.16 15:33:40.
