data_PCOD8228107
_publ_section_title
;
Structure prediction by ZEFSAII (Michael W. Deem and Ramdas Pophale) SiO2 
 PCOD8228107
Probable space group: P C C N
;
_chemical_formula_sum "Si O2"
_cell_formula_units_Z 60
_cell_length_a 27.254744
_cell_length_b 13.899281
_cell_length_c 9.094495
_cell_angle_alpha 90.000000
_cell_angle_beta 90.000000
_cell_angle_gamma 90.000000
_cell_volume 3445.188832
_symmetry_space_group_name_H-M "P C C N"
_symmetry_group_IT_number 56
_symmetry_cell_setting 'orthorhombic'
loop_
_space_group_symop_operation_xyz
x,y,z
1/2-x,1/2-y,z
1/2+x,-y,1/2-z
-x,1/2+y,1/2-z
-x,-y,-z
1/2+x,1/2+y,-z
1/2-x,y,1/2+z
x,1/2-y,1/2+z
loop_
_atom_site_type_symbol
_atom_site_label
_atom_site_fract_x
_atom_site_fract_y
_atom_site_fract_z
Si Si1 0.811472 0.158012 0.363602
Si Si2 0.430967 0.563515 0.948780
Si Si3 0.750000 0.250000 0.617802
Si Si4 0.109681 0.987870 0.640594
Si Si5 0.553214 0.671375 0.330893
Si Si6 0.593457 0.215936 0.341209
Si Si7 0.048668 0.641842 0.954662
Si Si8 0.537892 0.858455 0.497600
O O1 0.785498 0.185712 0.516419
O O2 0.776356 0.171113 0.222629
O O3 0.833551 0.048129 0.376510
O O4 0.856034 0.228968 0.336771
O O5 0.410377 0.566309 0.785005
O O6 0.430639 0.455458 0.011637
O O7 0.396522 0.621136 0.060725
O O8 0.483791 0.614823 0.943205
O O9 0.076779 0.954887 0.501814
O O10 0.101856 0.103567 0.651396
O O11 0.507677 0.620094 0.414783
O O12 0.562900 0.777790 0.394125
O O13 0.537590 0.681439 0.162641
O O14 0.550377 0.280435 0.413846
O O15 0.578007 0.188913 0.178797
#
# Coordination Sequence:
#
# PCOD8228107 Si02
#       8
#     8   8   4   8   8   8   8   8
#     4  10  20  34  52  80  99 133 155 213 259 324
#     4  10  19  34  45  68  98 142 178 219 231 290
#     4  10  20  36  56  72 106 124 162 200 282 332
#     4  10  22  32  50  71 103 128 179 210 254 294
#     4  11  20  34  45  68  99 143 180 216 237 285
#     4  11  19  31  50  71 106 134 179 204 250 293
#     4  11  19  29  44  71  96 143 173 212 235 287
#     4  10  22  31  46  65 100 142 189 207 249 262
#
# _framework density 17.415590000000002
#
# number of rings (size 3 to 8) (size 9 to 14) (size 15 to 20)
#    0.000    1.600    2.667    4.400    1.867    1.067 
#    0.000    0.000    0.000    0.000    0.000    0.000 
#    0.000   36.267    0.000    0.000    0.000    0.000 
#
# Total GULP energy -743663.363480 kJ/mol
# GULP energy per Si atom -12394.389391 kJ/mol
# Density = 1.737595 g / cm^3
# Si number density = 17.415590 Si / 1000 Ang^3
#
#
#
# Elastic Constant Matrix: (Units=GPa)
#
#
# Indices 1 2 3 4 5 6 
#
# 1 61.2927 29.5861 15.2255 0.0000 0.0000 0.0000
# 2 29.5861 94.2080 29.5416 0.0000 0.0000 0.0000
# 3 15.2255 29.5416 67.9744 0.0000 0.0000 0.0000
# 4 0.0000 0.0000 0.0000 26.6691 0.0000 0.0000
# 5 0.0000 0.0000 0.0000 0.0000 22.4261 0.0000
# 6 0.0000 0.0000 0.0000 0.0000 0.0000 28.3510
#
#
#
# Elastic Compliance Matrix: (Units=1/GPa)
#
#
# Indices 1 2 3 4 5 6 
#
# 1 0.019456 -0.005492 -0.001971 0.000000 0.000000 0.000000
# 2 -0.005492 0.013840 -0.004785 0.000000 0.000000 0.000000
# 3 -0.001971 -0.004785 0.017232 0.000000 0.000000 0.000000
# 4 0.000000 0.000000 0.000000 0.037497 0.000000 0.000000
# 5 0.000000 0.000000 0.000000 0.000000 0.044591 0.000000
# 6 0.000000 0.000000 0.000000 0.000000 0.000000 0.035272
#
#
# Mechanical properties :
#
#
# Convention : Reuss Voigt Hill
#
# Bulk Modulus (GPa) = 38.41341 41.35350 39.88346
# Shear Modulus (GPa) = 24.86810 25.43069 25.14939
#
# Velocity S-wave (km/s) = 3.78288 3.82544 3.80422
# Velocity P-wave (km/s) = 6.41756 6.58093 6.49976
#
# Compressibility (1/GPa) = 0.02603258
#
# Stress axis : x y z
#
# Youngs Moduli (GPa) = 51.39858 72.25458 58.03048
#
# Poissons Ratio (x) = 0.39682 0.11438
# Poissons Ratio (y) = 0.28228 0.27766
# Poissons Ratio (z) = 0.10131 0.34572
#
# Static dielectric constant tensor:
#      x y z
#    x 3.132330 0.000000 0.000000 
#    y 0.000000 3.372910 0.000000 
#    z 0.000000 0.000000 3.473200 
# 
# 
# High freq. dielectric constant tensor:
#      x y z
#    x 1.626470 0.000000 0.000000 
#    y 0.000000 1.664360 0.000000 
#    z 0.000000 0.000000 1.694220 
# 
# From -- ./inp_files/3749.got.cif
#   From: 2010.03.12/outbox.cif.g09.slc.cpg/sg56_2_cif.got.tgz:3749.got - 2010.04.16 15:33:40.
