data_PCOD8228739
_publ_section_title
;
Structure prediction by ZEFSAII (Michael W. Deem and Ramdas Pophale) SiO2 
 PCOD8228739
Probable space group: P C C N
;
_chemical_formula_sum "Si O2"
_cell_formula_units_Z 60
_cell_length_a 12.970611
_cell_length_b 18.398600
_cell_length_c 12.721013
_cell_angle_alpha 90.000000
_cell_angle_beta 90.000000
_cell_angle_gamma 90.000000
_cell_volume 3035.756326
_symmetry_space_group_name_H-M "P C C N"
_symmetry_group_IT_number 56
_symmetry_cell_setting 'orthorhombic'
loop_
_space_group_symop_operation_xyz
x,y,z
1/2-x,1/2-y,z
1/2+x,-y,1/2-z
-x,1/2+y,1/2-z
-x,-y,-z
1/2+x,1/2+y,-z
1/2-x,y,1/2+z
x,1/2-y,1/2+z
loop_
_atom_site_type_symbol
_atom_site_label
_atom_site_fract_x
_atom_site_fract_y
_atom_site_fract_z
Si Si1 0.397398 0.800677 0.244445
Si Si2 0.738417 0.134395 0.093883
Si Si3 0.873921 0.565905 0.958834
Si Si4 0.506192 0.054998 0.842369
Si Si5 0.983881 0.450013 0.347336
Si Si6 0.250000 0.750000 0.580063
Si Si7 0.983751 0.161882 0.675024
Si Si8 0.331088 0.005485 0.488819
O O1 0.301251 0.827028 0.313662
O O2 0.456822 0.867115 0.194916
O O3 0.352601 0.752248 0.150395
O O4 0.475810 0.749533 0.312364
O O5 0.617100 0.132662 0.115824
O O6 0.770845 0.050902 0.085173
O O7 0.760648 0.177248 0.987338
O O8 0.905807 0.490494 0.902512
O O9 0.917296 0.635786 0.893848
O O10 0.749095 0.564694 0.963081
O O11 0.911681 0.567967 0.078920
O O12 0.472482 0.013166 0.738370
O O13 0.988032 0.372251 0.291236
O O14 0.883969 0.458485 0.419696
O O15 0.085978 0.453285 0.418128
#
# Coordination Sequence:
#
# PCOD8228739 Si02
#       8
#     8   8   8   8   8   4   8   8
#     4  12  22  36  59  91 129 166 195 256 319 380
#     4  12  22  36  59  93 128 156 203 254 323 381
#     4  10  22  39  62  86 126 162 210 255 307 371
#     4  10  21  39  59  90 118 164 203 252 307 371
#     4  10  23  38  61  87 119 156 214 253 312 369
#     4  12  20  34  54  88 128 162 188 246 324 384
#     4  11  22  39  56  93 125 164 199 246 316 387
#     4  11  22  39  60  90 115 162 207 266 303 362
#
# _framework density 19.764433
#
# number of rings (size 3 to 8) (size 9 to 14) (size 15 to 20)
#    0.000    1.067    4.000    4.800    1.867    2.133 
#    0.000    0.000    0.000    4.800    0.000    0.000 
#    0.000    0.000    0.000    0.000    0.000    0.000 
#
# Total GULP energy -744022.507962 kJ/mol
# GULP energy per Si atom -12400.375133 kJ/mol
# Density = 1.971945 g / cm^3
# Si number density = 19.764433 Si / 1000 Ang^3
#
#
#
# Elastic Constant Matrix: (Units=GPa)
#
#
# Indices 1 2 3 4 5 6 
#
# 1 75.6757 36.0608 33.7900 0.0000 0.0000 0.0000
# 2 36.0608 78.8993 19.3678 0.0000 0.0000 0.0000
# 3 33.7900 19.3678 90.4436 0.0000 0.0000 0.0000
# 4 0.0000 0.0000 0.0000 25.9846 0.0000 0.0000
# 5 0.0000 0.0000 0.0000 0.0000 18.7340 0.0000
# 6 0.0000 0.0000 0.0000 0.0000 0.0000 27.6991
#
#
#
# Elastic Compliance Matrix: (Units=1/GPa)
#
#
# Indices 1 2 3 4 5 6 
#
# 1 0.019254 -0.007425 -0.005604 0.000000 0.000000 0.000000
# 2 -0.007425 0.016241 -0.000704 0.000000 0.000000 0.000000
# 3 -0.005604 -0.000704 0.013301 0.000000 0.000000 0.000000
# 4 0.000000 0.000000 0.000000 0.038484 0.000000 0.000000
# 5 0.000000 0.000000 0.000000 0.000000 0.053379 0.000000
# 6 0.000000 0.000000 0.000000 0.000000 0.000000 0.036102
#
#
# Mechanical properties :
#
#
# Convention : Reuss Voigt Hill
#
# Bulk Modulus (GPa) = 46.87891 47.05065 46.96478
# Shear Modulus (GPa) = 23.65903 24.87021 24.26462
#
# Velocity S-wave (km/s) = 3.46360 3.55115 3.50764
# Velocity P-wave (km/s) = 6.30600 6.37743 6.34181
#
# Compressibility (1/GPa) = 0.02133155
#
# Stress axis : x y z
#
# Youngs Moduli (GPa) = 51.93649 61.57412 75.18312
#
# Poissons Ratio (x) = 0.45716 0.42129
# Poissons Ratio (y) = 0.38561 0.05292
# Poissons Ratio (z) = 0.29103 0.04334
#
# Static dielectric constant tensor:
#      x y z
#    x 3.479670 0.000000 0.000000 
#    y 0.000000 3.574170 0.000000 
#    z 0.000000 0.000000 3.884060 
# 
# 
# High freq. dielectric constant tensor:
#      x y z
#    x 1.751720 0.000000 0.000000 
#    y 0.000000 1.758010 0.000000 
#    z 0.000000 0.000000 1.789950 
# 
# From -- ./inp_files/7317.got.cif
#   From: 2010.03.12/outbox.cif.g09.slc.cpg/sg56_4_cif.got.tgz:7317.got - 2010.04.16 15:33:40.
