data_PCOD8228208
_publ_section_title
;
Structure prediction by ZEFSAII (Michael W. Deem and Ramdas Pophale) SiO2 
 PCOD8228208
Probable space group: P C C N
;
_chemical_formula_sum "Si O2"
_cell_formula_units_Z 48
_cell_length_a 4.988464
_cell_length_b 26.842975
_cell_length_c 17.451735
_cell_angle_alpha 90.000000
_cell_angle_beta 90.000000
_cell_angle_gamma 90.000000
_cell_volume 2336.878318
_symmetry_space_group_name_H-M "P C C N"
_symmetry_group_IT_number 56
_symmetry_cell_setting 'orthorhombic'
loop_
_space_group_symop_operation_xyz
x,y,z
1/2-x,1/2-y,z
1/2+x,-y,1/2-z
-x,1/2+y,1/2-z
-x,-y,-z
1/2+x,1/2+y,-z
1/2-x,y,1/2+z
x,1/2-y,1/2+z
loop_
_atom_site_type_symbol
_atom_site_label
_atom_site_fract_x
_atom_site_fract_y
_atom_site_fract_z
Si Si1 0.796395 0.337065 0.646504
Si Si2 0.810894 0.058638 0.207392
Si Si3 0.795030 0.806845 0.445092
Si Si4 0.689303 0.947998 0.690112
Si Si5 0.204053 0.806754 0.180980
Si Si6 0.295341 0.146794 0.893403
O O1 0.759565 0.396924 0.647579
O O2 0.595956 0.313239 0.585215
O O3 0.749347 0.313699 0.729298
O O4 0.096180 0.323141 0.622220
O O5 0.607898 0.062350 0.278702
O O6 0.108624 0.064656 0.240731
O O7 0.776526 0.005615 0.164155
O O8 0.750000 0.750000 0.469945
O O9 0.745051 0.841614 0.518139
O O10 0.743976 0.912271 0.617959
O O11 0.250000 0.750000 0.157142
O O12 0.402489 0.840776 0.131117
O O13 0.901021 0.821528 0.160956
#
# Coordination Sequence:
#
# PCOD8228208 Si02
#       6
#     8   8   8   8   8   8
#     4  12  23  42  61  91 122 161 206 249 305 358
#     4  10  20  37  64  92 118 151 197 254 309 352
#     4  12  26  41  58  85 131 170 195 243 313 363
#     4  10  19  38  64  92 118 151 197 255 308 352
#     4  12  23  38  63  89 118 155 215 259 286 352
#     4  12  23  42  62  91 121 162 206 248 305 357
#
# _framework density 20.540222
#
# number of rings (size 3 to 8) (size 9 to 14) (size 15 to 20)
#    0.000    0.667    3.333    6.000    0.000    0.000 
#    0.000    1.667    0.000    0.000    0.000    0.000 
#    0.000    0.000    0.000    0.000    0.000    0.000 
#
# Total GULP energy -595542.981993 kJ/mol
# GULP energy per Si atom -12407.145458 kJ/mol
# Density = 2.049347 g / cm^3
# Si number density = 20.540222 Si / 1000 Ang^3
#
#
#
# Elastic Constant Matrix: (Units=GPa)
#
#
# Indices 1 2 3 4 5 6 
#
# 1 74.1419 10.3546 7.5486 0.0000 0.0000 0.0000
# 2 10.3546 119.4273 3.0070 0.0000 0.0000 0.0000
# 3 7.5486 3.0070 72.7573 0.0000 0.0000 0.0000
# 4 0.0000 0.0000 0.0000 29.7684 0.0000 0.0000
# 5 0.0000 0.0000 0.0000 0.0000 27.9544 0.0000
# 6 0.0000 0.0000 0.0000 0.0000 0.0000 32.8456
#
#
#
# Elastic Compliance Matrix: (Units=1/GPa)
#
#
# Indices 1 2 3 4 5 6 
#
# 1 0.013791 -0.001161 -0.001383 0.000000 0.000000 0.000000
# 2 -0.001161 0.008480 -0.000230 0.000000 0.000000 0.000000
# 3 -0.001383 -0.000230 0.013897 0.000000 0.000000 0.000000
# 4 0.000000 0.000000 0.000000 0.033593 0.000000 0.000000
# 5 0.000000 0.000000 0.000000 0.000000 0.035773 0.000000
# 6 0.000000 0.000000 0.000000 0.000000 0.000000 0.030445
#
#
# Mechanical properties :
#
#
# Convention : Reuss Voigt Hill
#
# Bulk Modulus (GPa) = 32.65814 34.23855 33.44835
# Shear Modulus (GPa) = 32.95276 34.47477 33.71377
#
# Velocity S-wave (km/s) = 4.00972 4.10128 4.05576
# Velocity P-wave (km/s) = 6.11321 6.25560 6.18481
#
# Compressibility (1/GPa) = 0.03062024
#
# Stress axis : x y z
#
# Youngs Moduli (GPa) = 72.51340 117.92819 71.95647
#
# Poissons Ratio (x) = 0.13690 0.09950
# Poissons Ratio (y) = 0.08418 0.01655
# Poissons Ratio (z) = 0.10027 0.02713
#
# Static dielectric constant tensor:
#      x y z
#    x 3.917510 0.000000 0.000000 
#    y 0.000000 4.082410 0.000000 
#    z 0.000000 0.000000 3.350250 
# 
# 
# High freq. dielectric constant tensor:
#      x y z
#    x 1.824480 0.000000 0.000000 
#    y 0.000000 1.820150 0.000000 
#    z 0.000000 0.000000 1.768430 
# 
# From -- ./inp_files/9672.got.cif
#   From: 2010.03.12/outbox.cif.g09.slc.cpg/sg56_5_cif.got.tgz:9672.got - 2010.04.16 15:33:40.
