data_PCOD8228327
_publ_section_title
;
Structure prediction by ZEFSAII (Michael W. Deem and Ramdas Pophale) SiO2 
 PCOD8228327
Probable space group: P C C N
;
_chemical_formula_sum "Si O2"
_cell_formula_units_Z 48
_cell_length_a 17.872278
_cell_length_b 8.765840
_cell_length_c 15.780518
_cell_angle_alpha 90.000000
_cell_angle_beta 90.000000
_cell_angle_gamma 90.000000
_cell_volume 2472.263206
_symmetry_space_group_name_H-M "P C C N"
_symmetry_group_IT_number 56
_symmetry_cell_setting 'orthorhombic'
loop_
_space_group_symop_operation_xyz
x,y,z
1/2-x,1/2-y,z
1/2+x,-y,1/2-z
-x,1/2+y,1/2-z
-x,-y,-z
1/2+x,1/2+y,-z
1/2-x,y,1/2+z
x,1/2-y,1/2+z
loop_
_atom_site_type_symbol
_atom_site_label
_atom_site_fract_x
_atom_site_fract_y
_atom_site_fract_z
Si Si1 0.176949 0.848268 0.381343
Si Si2 0.937983 0.322351 0.513514
Si Si3 0.329160 0.314971 0.447186
Si Si4 0.978876 0.725773 0.144401
Si Si5 0.089322 0.130928 0.078845
Si Si6 0.431610 0.966089 0.744518
O O1 0.250000 0.750000 0.357899
O O2 0.135908 0.740747 0.446620
O O3 0.133668 0.874961 0.292882
O O4 0.183303 0.004627 0.435011
O O5 0.916590 0.494519 0.489375
O O6 0.963302 0.220361 0.433337
O O7 0.004220 0.306824 0.583207
O O8 0.250000 0.250000 0.419334
O O9 0.393549 0.246860 0.386147
O O10 0.352205 0.259228 0.543359
O O11 0.980923 0.564809 0.191045
O O12 0.004673 0.859370 0.206094
O O13 0.110240 0.069983 0.172618
#
# Coordination Sequence:
#
# PCOD8228327 Si02
#       6
#     8   8   8   8   8   8
#     4  11  23  37  57  85 118 153 191 239 292 342
#     4   9  18  35  58  81 108 147 192 231 275 338
#     4  10  21  37  57  81 111 151 197 234 280 343
#     4   9  20  35  58  86 112 150 192 235 285 340
#     4   9  18  35  58  81 109 148 190 232 280 338
#     4  10  20  35  56  86 117 145 188 238 293 342
#
# _framework density 19.415407999999999
#
# number of rings (size 3 to 8) (size 9 to 14) (size 15 to 20)
#    0.000    2.333    0.000    3.000    0.000    8.667 
#    0.000   10.000    0.000    4.000    0.000    0.000 
#    0.000    0.000    0.000    0.000    0.000    0.000 
#
# Total GULP energy -594740.680010 kJ/mol
# GULP energy per Si atom -12390.430834 kJ/mol
# Density = 1.937122 g / cm^3
# Si number density = 19.415408 Si / 1000 Ang^3
#
#
#
# Elastic Constant Matrix: (Units=GPa)
#
#
# Indices 1 2 3 4 5 6 
#
# 1 99.8244 45.5499 44.4064 0.0000 0.0000 0.0000
# 2 45.5499 82.7722 31.1032 0.0000 0.0000 0.0000
# 3 44.4064 31.1032 79.3807 0.0000 0.0000 0.0000
# 4 0.0000 0.0000 0.0000 33.9616 0.0000 0.0000
# 5 0.0000 0.0000 0.0000 0.0000 19.7460 0.0000
# 6 0.0000 0.0000 0.0000 0.0000 0.0000 36.5342
#
#
#
# Elastic Compliance Matrix: (Units=1/GPa)
#
#
# Indices 1 2 3 4 5 6 
#
# 1 0.015685 -0.006255 -0.006323 0.000000 0.000000 0.000000
# 2 -0.006255 0.016662 -0.003029 0.000000 0.000000 0.000000
# 3 -0.006323 -0.003029 0.017322 0.000000 0.000000 0.000000
# 4 0.000000 0.000000 0.000000 0.029445 0.000000 0.000000
# 5 0.000000 0.000000 0.000000 0.000000 0.050643 0.000000
# 6 0.000000 0.000000 0.000000 0.000000 0.000000 0.027372
#
#
# Mechanical properties :
#
#
# Convention : Reuss Voigt Hill
#
# Bulk Modulus (GPa) = 54.19220 56.01072 55.10146
# Shear Modulus (GPa) = 25.70760 27.44286 26.57523
#
# Velocity S-wave (km/s) = 3.64274 3.76368 3.70370
# Velocity P-wave (km/s) = 6.75761 6.91363 6.83606
#
# Compressibility (1/GPa) = 0.01845284
#
# Stress axis : x y z
#
# Youngs Moduli (GPa) = 63.75617 60.01683 57.73091
#
# Poissons Ratio (x) = 0.37542 0.36505
# Poissons Ratio (y) = 0.39882 0.17488
# Poissons Ratio (z) = 0.40315 0.18181
#
# Static dielectric constant tensor:
#      x y z
#    x 3.450210 0.000000 0.000000 
#    y 0.000000 3.870750 0.000000 
#    z 0.000000 0.000000 3.644820 
# 
# 
# High freq. dielectric constant tensor:
#      x y z
#    x 1.741750 0.000000 0.000000 
#    y 0.000000 1.762030 0.000000 
#    z 0.000000 0.000000 1.753150 
# 
# From -- ./inp_files/14938.got.cif
#   From: 2010.03.12/outbox.cif.g09.slc.cpg/sg56_8_cif.got.tgz:14938.got - 2010.04.16 15:33:40.
