data_PCOD8228004
_publ_section_title
;
Structure prediction by ZEFSAII (Michael W. Deem and Ramdas Pophale) SiO2 
 PCOD8228004
Probable space group: P C C N
;
_chemical_formula_sum "Si O2"
_cell_formula_units_Z 52
_cell_length_a 7.904772
_cell_length_b 23.927245
_cell_length_c 13.289761
_cell_angle_alpha 90.000000
_cell_angle_beta 90.000000
_cell_angle_gamma 90.000000
_cell_volume 2513.617638
_symmetry_space_group_name_H-M "P C C N"
_symmetry_group_IT_number 56
_symmetry_cell_setting 'orthorhombic'
loop_
_space_group_symop_operation_xyz
x,y,z
1/2-x,1/2-y,z
1/2+x,-y,1/2-z
-x,1/2+y,1/2-z
-x,-y,-z
1/2+x,1/2+y,-z
1/2-x,y,1/2+z
x,1/2-y,1/2+z
loop_
_atom_site_type_symbol
_atom_site_label
_atom_site_fract_x
_atom_site_fract_y
_atom_site_fract_z
Si Si1 0.535980 0.022963 0.610263
Si Si2 0.748170 0.939613 0.243460
Si Si3 0.664688 0.354275 0.115745
Si Si4 0.021968 0.156167 0.318027
Si Si5 0.805515 0.187538 0.905412
Si Si6 0.250000 0.250000 0.765775
Si Si7 0.012531 0.342147 0.215940
O O1 0.359059 0.028871 0.670307
O O2 0.633511 0.080800 0.596939
O O3 0.500000 0.000000 0.500000
O O4 0.661903 0.983348 0.671307
O O5 0.624043 0.901653 0.174970
O O6 0.886429 0.900036 0.296470
O O7 0.547570 0.332482 0.205258
O O8 0.861061 0.342419 0.137368
O O9 0.618738 0.318840 0.016611
O O10 0.866330 0.150720 0.395165
O O11 0.139899 0.210007 0.339872
O O12 0.750000 0.250000 0.877200
O O13 0.946467 0.164203 0.830169
O O14 0.364189 0.289629 0.693992
#
# Coordination Sequence:
#
# PCOD8228004 Si02
#       7
#     8   8   8   8   8   4   8
#     4  11  23  42  66  92 126 163 210 261 314 368
#     4  10  22  41  65  89 121 164 207 258 314 367
#     4  10  23  37  59  90 117 157 202 251 303 365
#     4   9  21  39  58  86 118 157 204 247 302 368
#     4  11  21  36  60  87 120 161 202 250 310 369
#     4  10  18  36  58  78 116 158 186 248 298 348
#     4  10  21  39  60  84 123 155 206 250 305 368
#
# _framework density 20.687313
#
# number of rings (size 3 to 8) (size 9 to 14) (size 15 to 20)
#    0.000    1.846    1.538    1.846    2.154    3.692 
#    0.000    8.462    0.000    0.000    0.000    0.000 
#    0.000    0.000    0.000    0.000    0.000    0.000 
#
# Total GULP energy -644823.207474 kJ/mol
# GULP energy per Si atom -12400.446298 kJ/mol
# Density = 2.064023 g / cm^3
# Si number density = 20.687313 Si / 1000 Ang^3
#
#
#
# Elastic Constant Matrix: (Units=GPa)
#
#
# Indices 1 2 3 4 5 6 
#
# 1 119.5201 45.3448 40.0541 0.0000 0.0000 0.0000
# 2 45.3448 89.2424 29.3606 0.0000 0.0000 0.0000
# 3 40.0541 29.3606 102.6636 0.0000 0.0000 0.0000
# 4 0.0000 0.0000 0.0000 23.8734 0.0000 0.0000
# 5 0.0000 0.0000 0.0000 0.0000 22.0028 0.0000
# 6 0.0000 0.0000 0.0000 0.0000 0.0000 43.4674
#
#
#
# Elastic Compliance Matrix: (Units=1/GPa)
#
#
# Indices 1 2 3 4 5 6 
#
# 1 0.011150 -0.004674 -0.003013 0.000000 0.000000 0.000000
# 2 -0.004674 0.014329 -0.002274 0.000000 0.000000 0.000000
# 3 -0.003013 -0.002274 0.011567 0.000000 0.000000 0.000000
# 4 0.000000 0.000000 0.000000 0.041888 0.000000 0.000000
# 5 0.000000 0.000000 0.000000 0.000000 0.045449 0.000000
# 6 0.000000 0.000000 0.000000 0.000000 0.000000 0.023006
#
#
# Mechanical properties :
#
#
# Convention : Reuss Voigt Hill
#
# Bulk Modulus (GPa) = 58.40500 60.10500 59.25500
# Shear Modulus (GPa) = 28.89877 30.97984 29.93930
#
# Velocity S-wave (km/s) = 3.74161 3.87399 3.80837
# Velocity P-wave (km/s) = 6.85272 7.00910 6.93135
#
# Compressibility (1/GPa) = 0.01712182
#
# Stress axis : x y z
#
# Youngs Moduli (GPa) = 89.68669 69.79075 86.45545
#
# Poissons Ratio (x) = 0.32620 0.26053
# Poissons Ratio (y) = 0.41919 0.19662
# Poissons Ratio (z) = 0.27026 0.15872
#
# Static dielectric constant tensor:
#      x y z
#    x 4.031900 0.000000 0.000000 
#    y 0.000000 3.842730 0.000000 
#    z 0.000000 0.000000 3.392840 
# 
# 
# High freq. dielectric constant tensor:
#      x y z
#    x 1.828750 0.000000 0.000000 
#    y 0.000000 1.819900 0.000000 
#    z 0.000000 0.000000 1.778220 
# 
# From -- ./inp_files/6502.got.cif
#   From: 2010.03.12/outbox.cif.g09.slc.cpg/sg56_4_cif.got.tgz:6502.got - 2010.04.16 15:33:40.
