data_PCOD8228898
_publ_section_title
;
Structure prediction by ZEFSAII (Michael W. Deem and Ramdas Pophale) SiO2 
 PCOD8228898
Probable space group: P C C N
;
_chemical_formula_sum "Si O2"
_cell_formula_units_Z 52
_cell_length_a 8.148939
_cell_length_b 20.689391
_cell_length_c 13.627208
_cell_angle_alpha 90.000000
_cell_angle_beta 90.000000
_cell_angle_gamma 90.000000
_cell_volume 2297.500735
_symmetry_space_group_name_H-M "P C C N"
_symmetry_group_IT_number 56
_symmetry_cell_setting 'orthorhombic'
loop_
_space_group_symop_operation_xyz
x,y,z
1/2-x,1/2-y,z
1/2+x,-y,1/2-z
-x,1/2+y,1/2-z
-x,-y,-z
1/2+x,1/2+y,-z
1/2-x,y,1/2+z
x,1/2-y,1/2+z
loop_
_atom_site_type_symbol
_atom_site_label
_atom_site_fract_x
_atom_site_fract_y
_atom_site_fract_z
Si Si1 0.727259 0.679137 0.106033
Si Si2 0.248887 0.416351 0.730379
Si Si3 0.750000 0.250000 0.306916
Si Si4 0.086212 0.846394 0.556878
Si Si5 0.871160 0.690317 0.401804
Si Si6 0.890480 0.447523 0.786631
Si Si7 0.769906 0.344543 0.650448
O O1 0.750000 0.750000 0.155604
O O2 0.664599 0.629064 0.187738
O O3 0.890245 0.652831 0.049777
O O4 0.595293 0.685045 0.018555
O O5 0.217843 0.374663 0.633823
O O6 0.359434 0.476748 0.701166
O O7 0.083301 0.442708 0.775936
O O8 0.883475 0.217795 0.378110
O O9 0.828133 0.305213 0.235081
O O10 0.158898 0.908867 0.614252
O O11 0.168097 0.844311 0.449762
O O12 0.750000 0.750000 0.376490
O O13 0.054306 0.693748 0.356320
O O14 0.800053 0.417406 0.690317
#
# Coordination Sequence:
#
# PCOD8228898 Si02
#       7
#     8   8   4   8   8   8   8
#     4  10  23  40  60  91 124 160 204 247 313 360
#     4  10  21  43  61  84 126 158 205 259 290 370
#     4  10  22  34  62  88 116 160 196 236 310 348
#     4  10  22  41  61  89 128 155 203 252 298 369
#     4  10  23  40  60  91 124 160 204 247 313 360
#     4   9  22  41  61  89 117 163 207 244 308 355
#     4  10  22  41  61  89 128 155 203 252 298 369
#
# _framework density 22.633291
#
# number of rings (size 3 to 8) (size 9 to 14) (size 15 to 20)
#    0.000    2.154    0.000    1.846    8.615    3.692 
#    5.538    6.154    0.000    0.000    0.000    0.000 
#    0.000    0.000    0.000    0.000    0.000    0.000 
#
# Total GULP energy -644347.173732 kJ/mol
# GULP energy per Si atom -12391.291803 kJ/mol
# Density = 2.258178 g / cm^3
# Si number density = 22.633291 Si / 1000 Ang^3
#
#
#
# Elastic Constant Matrix: (Units=GPa)
#
#
# Indices 1 2 3 4 5 6 
#
# 1 30.8772 8.2888 -2.8816 0.0000 0.0000 0.0000
# 2 8.2888 124.2425 13.4048 0.0000 0.0000 0.0000
# 3 -2.8816 13.4048 77.6244 0.0000 0.0000 0.0000
# 4 0.0000 0.0000 0.0000 19.0255 0.0000 0.0000
# 5 0.0000 0.0000 0.0000 0.0000 23.7882 0.0000
# 6 0.0000 0.0000 0.0000 0.0000 0.0000 30.6202
#
#
#
# Elastic Compliance Matrix: (Units=1/GPa)
#
#
# Indices 1 2 3 4 5 6 
#
# 1 0.033182 -0.002391 0.001645 0.000000 0.000000 0.000000
# 2 -0.002391 0.008374 -0.001535 0.000000 0.000000 0.000000
# 3 0.001645 -0.001535 0.013209 0.000000 0.000000 0.000000
# 4 0.000000 0.000000 0.000000 0.052561 0.000000 0.000000
# 5 0.000000 0.000000 0.000000 0.000000 0.042038 0.000000
# 6 0.000000 0.000000 0.000000 0.000000 0.000000 0.032658
#
#
# Mechanical properties :
#
#
# Convention : Reuss Voigt Hill
#
# Bulk Modulus (GPa) = 19.91962 30.04088 24.98025
# Shear Modulus (GPa) = 24.59206 28.94892 26.77049
#
# Velocity S-wave (km/s) = 3.29985 3.58025 3.44291
# Velocity P-wave (km/s) = 4.83103 5.51295 5.18321
#
# Compressibility (1/GPa) = 0.05020176
#
# Stress axis : x y z
#
# Youngs Moduli (GPa) = 30.13706 119.41866 75.70791
#
# Poissons Ratio (x) = 0.28555 -0.12452
# Poissons Ratio (y) = 0.07206 0.11620
# Poissons Ratio (z) = -0.04957 0.18329
#
# Static dielectric constant tensor:
#      x y z
#    x 3.841300 0.000000 0.000000 
#    y 0.000000 4.316490 0.000000 
#    z 0.000000 0.000000 4.119090 
# 
# 
# High freq. dielectric constant tensor:
#      x y z
#    x 1.876410 0.000000 0.000000 
#    y 0.000000 1.889360 0.000000 
#    z 0.000000 0.000000 1.900420 
# 
# From -- ./inp_files/10846.got.cif
#   From: 2010.03.12/outbox.cif.g09.slc.cpg/sg56_6_cif.got.tgz:10846.got - 2010.04.16 15:33:40.
