data_PCOD8228897
_publ_section_title
;
Structure prediction by ZEFSAII (Michael W. Deem and Ramdas Pophale) SiO2 
 PCOD8228897
Probable space group: P C C N
;
_chemical_formula_sum "Si O2"
_cell_formula_units_Z 32
_cell_length_a 8.856165
_cell_length_b 10.348913
_cell_length_c 17.054112
_cell_angle_alpha 90.000000
_cell_angle_beta 90.000000
_cell_angle_gamma 90.000000
_cell_volume 1563.038034
_symmetry_space_group_name_H-M "P C C N"
_symmetry_group_IT_number 56
_symmetry_cell_setting 'orthorhombic'
loop_
_space_group_symop_operation_xyz
x,y,z
1/2-x,1/2-y,z
1/2+x,-y,1/2-z
-x,1/2+y,1/2-z
-x,-y,-z
1/2+x,1/2+y,-z
1/2-x,y,1/2+z
x,1/2-y,1/2+z
loop_
_atom_site_type_symbol
_atom_site_label
_atom_site_fract_x
_atom_site_fract_y
_atom_site_fract_z
Si Si1 0.631075 0.402750 0.254885
Si Si2 0.044355 0.858892 0.303501
Si Si3 0.124980 0.141711 0.534221
Si Si4 0.649883 0.364194 0.435514
O O1 0.550459 0.541800 0.248812
O O2 0.519690 0.287944 0.226035
O O3 0.780576 0.401704 0.201124
O O4 0.676428 0.369795 0.343216
O O5 0.989517 0.866230 0.392573
O O6 0.250000 0.250000 0.545442
O O7 0.025102 0.166700 0.456687
O O8 0.202922 0.000860 0.526822
O O9 0.750000 0.250000 0.472236
#
# Coordination Sequence:
#
# PCOD8228897 Si02
#       4
#     8   8   8   8
#     4  10  22  40  59  93 120 155 201 247 303 362
#     4  10  22  39  61  89 122 152 202 246 303 361
#     4  10  24  41  61  90 120 160 206 248 299 361
#     4  10  21  43  60  86 123 154 203 253 293 364
#
# _framework density 20.472950999999998
#
# number of rings (size 3 to 8) (size 9 to 14) (size 15 to 20)
#    0.000    2.000    2.500    0.000   10.500    1.000 
#   13.500    0.000    0.000    0.000    0.000    0.000 
#    0.000    0.000    0.000    0.000    0.000    0.000 
#
# Total GULP energy -396695.816833 kJ/mol
# GULP energy per Si atom -12396.744276 kJ/mol
# Density = 2.042635 g / cm^3
# Si number density = 20.472951 Si / 1000 Ang^3
#
#
#
# Elastic Constant Matrix: (Units=GPa)
#
#
# Indices 1 2 3 4 5 6 
#
# 1 101.2659 83.6759 32.2106 0.0000 0.0000 0.0000
# 2 83.6759 159.5796 29.1296 0.0000 0.0000 0.0000
# 3 32.2106 29.1296 36.3973 0.0000 0.0000 0.0000
# 4 0.0000 0.0000 0.0000 15.7876 0.0000 0.0000
# 5 0.0000 0.0000 0.0000 0.0000 3.1737 0.0000
# 6 0.0000 0.0000 0.0000 0.0000 0.0000 48.7240
#
#
#
# Elastic Compliance Matrix: (Units=1/GPa)
#
#
# Indices 1 2 3 4 5 6 
#
# 1 0.020764 -0.008822 -0.011315 0.000000 0.000000 0.000000
# 2 -0.008822 0.011087 -0.001066 0.000000 0.000000 0.000000
# 3 -0.011315 -0.001066 0.038341 0.000000 0.000000 0.000000
# 4 0.000000 0.000000 0.000000 0.063341 0.000000 0.000000
# 5 0.000000 0.000000 0.000000 0.000000 0.315090 0.000000
# 6 0.000000 0.000000 0.000000 0.000000 0.000000 0.020524
#
#
# Mechanical properties :
#
#
# Convention : Reuss Voigt Hill
#
# Bulk Modulus (GPa) = 35.98928 65.25279 50.62104
# Shear Modulus (GPa) = 9.60038 23.68552 16.64295
#
# Velocity S-wave (km/s) = 2.16783 3.40504 2.85427
# Velocity P-wave (km/s) = 4.88703 6.88483 5.97009
#
# Compressibility (1/GPa) = 0.02778605
#
# Stress axis : x y z
#
# Youngs Moduli (GPa) = 48.16115 90.19667 26.08192
#
# Poissons Ratio (x) = 0.79572 0.29511
# Poissons Ratio (y) = 0.42488 0.02780
# Poissons Ratio (z) = 0.54493 0.09613
#
# Static dielectric constant tensor:
#      x y z
#    x 3.496320 0.000000 0.000000 
#    y 0.000000 4.229740 0.000000 
#    z 0.000000 0.000000 3.519420 
# 
# 
# High freq. dielectric constant tensor:
#      x y z
#    x 1.779930 0.000000 0.000000 
#    y 0.000000 1.824460 0.000000 
#    z 0.000000 0.000000 1.789320 
# 
# From -- ./inp_files/10048.got.cif
#   From: 2010.03.12/outbox.cif.g09.slc.cpg/sg56_6_cif.got.tgz:10048.got - 2010.04.16 15:33:40.
