data_PCOD8228440
_publ_section_title
;
Structure prediction by ZEFSAII (Michael W. Deem and Ramdas Pophale) SiO2 
 PCOD8228440
Probable space group: P C C N
;
_chemical_formula_sum "Si O2"
_cell_formula_units_Z 56
_cell_length_a 15.333362
_cell_length_b 11.588166
_cell_length_c 14.513313
_cell_angle_alpha 90.000000
_cell_angle_beta 90.000000
_cell_angle_gamma 90.000000
_cell_volume 2578.805918
_symmetry_space_group_name_H-M "P C C N"
_symmetry_group_IT_number 56
_symmetry_cell_setting 'orthorhombic'
loop_
_space_group_symop_operation_xyz
x,y,z
1/2-x,1/2-y,z
1/2+x,-y,1/2-z
-x,1/2+y,1/2-z
-x,-y,-z
1/2+x,1/2+y,-z
1/2-x,y,1/2+z
x,1/2-y,1/2+z
loop_
_atom_site_type_symbol
_atom_site_label
_atom_site_fract_x
_atom_site_fract_y
_atom_site_fract_z
Si Si1 0.066024 0.051430 0.142694
Si Si2 0.167394 0.592426 0.512278
Si Si3 0.633486 0.109432 0.684911
Si Si4 0.836367 0.024342 0.379163
Si Si5 0.421011 0.299231 0.602238
Si Si6 0.560629 0.163521 0.247817
Si Si7 0.543220 0.217535 0.932579
O O1 0.110967 0.178133 0.147313
O O2 0.963327 0.070606 0.154473
O O3 0.100491 0.961217 0.221438
O O4 0.092501 0.998666 0.043406
O O5 0.192673 0.581833 0.404355
O O6 0.252111 0.578100 0.574219
O O7 0.128107 0.719753 0.525504
O O8 0.671861 0.036122 0.768802
O O9 0.634154 0.246371 0.711762
O O10 0.925038 0.087155 0.412980
O O11 0.841298 0.888893 0.405938
O O12 0.491102 0.360750 0.668532
O O13 0.462133 0.277717 0.501724
O O14 0.513848 0.221115 0.337321
#
# Coordination Sequence:
#
# PCOD8228440 Si02
#       7
#     8   8   8   8   8   8   8
#     4  10  20  37  68  91 121 170 227 256 319 413
#     4  11  22  40  63  93 126 172 216 273 337 395
#     4  10  20  40  64  90 124 168 220 271 320 403
#     4  11  24  40  58  97 136 159 213 287 335 386
#     4  11  21  38  64  91 130 171 211 275 324 387
#     4   9  19  35  63  94 114 157 222 263 305 385
#     4  10  21  39  62  93 122 168 219 265 321 392
#
# _framework density 21.715478000000001
#
# number of rings (size 3 to 8) (size 9 to 14) (size 15 to 20)
#    0.000    1.714    4.286    1.286    2.000    0.571 
#    5.143    1.429    0.000    1.714    0.000    0.000 
#    0.000    0.000    0.000    0.000    0.000    0.000 
#
# Total GULP energy -694058.225373 kJ/mol
# GULP energy per Si atom -12393.896882 kJ/mol
# Density = 2.166605 g / cm^3
# Si number density = 21.715478 Si / 1000 Ang^3
#
#
#
# Elastic Constant Matrix: (Units=GPa)
#
#
# Indices 1 2 3 4 5 6 
#
# 1 32.3935 8.2184 20.1526 0.0000 0.0000 0.0000
# 2 8.2184 130.6610 28.2761 0.0000 0.0000 0.0000
# 3 20.1526 28.2761 133.2712 0.0000 0.0000 0.0000
# 4 0.0000 0.0000 0.0000 24.1886 0.0000 0.0000
# 5 0.0000 0.0000 0.0000 0.0000 23.6705 0.0000
# 6 0.0000 0.0000 0.0000 0.0000 0.0000 15.7176
#
#
#
# Elastic Compliance Matrix: (Units=1/GPa)
#
#
# Indices 1 2 3 4 5 6 
#
# 1 0.034222 -0.001082 -0.004945 0.000000 0.000000 0.000000
# 2 -0.001082 0.008056 -0.001546 0.000000 0.000000 0.000000
# 3 -0.004945 -0.001546 0.008579 0.000000 0.000000 0.000000
# 4 0.000000 0.000000 0.000000 0.041342 0.000000 0.000000
# 5 0.000000 0.000000 0.000000 0.000000 0.042247 0.000000
# 6 0.000000 0.000000 0.000000 0.000000 0.000000 0.063623
#
#
# Mechanical properties :
#
#
# Convention : Reuss Voigt Hill
#
# Bulk Modulus (GPa) = 28.00291 45.51332 36.75812
# Shear Modulus (GPa) = 22.21060 28.69391 25.45225
#
# Velocity S-wave (km/s) = 3.20159 3.63899 3.42728
# Velocity P-wave (km/s) = 5.15658 6.21778 5.71188
#
# Compressibility (1/GPa) = 0.03571057
#
# Stress axis : x y z
#
# Youngs Moduli (GPa) = 29.22138 124.13202 116.56095
#
# Poissons Ratio (x) = 0.13435 0.57642
# Poissons Ratio (y) = 0.03163 0.18015
# Poissons Ratio (z) = 0.14451 0.19185
#
# Static dielectric constant tensor:
#      x y z
#    x 3.343160 0.000000 0.000000 
#    y 0.000000 4.266490 0.000000 
#    z 0.000000 0.000000 4.156390 
# 
# 
# High freq. dielectric constant tensor:
#      x y z
#    x 1.798240 0.000000 0.000000 
#    y 0.000000 1.861840 0.000000 
#    z 0.000000 0.000000 1.863820 
# 
# From -- ./inp_files/11660.got.cif
#   From: 2010.03.12/outbox.cif.g09.slc.cpg/sg56_6_cif.got.tgz:11660.got - 2010.04.16 15:33:40.
