data_PCOD8228870
_publ_section_title
;
Structure prediction by ZEFSAII (Michael W. Deem and Ramdas Pophale) SiO2 
 PCOD8228870
Probable space group: P C C N
;
_chemical_formula_sum "Si O2"
_cell_formula_units_Z 64
_cell_length_a 17.505853
_cell_length_b 11.500086
_cell_length_c 13.774334
_cell_angle_alpha 90.000000
_cell_angle_beta 90.000000
_cell_angle_gamma 90.000000
_cell_volume 2773.032598
_symmetry_space_group_name_H-M "P C C N"
_symmetry_group_IT_number 56
_symmetry_cell_setting 'orthorhombic'
loop_
_space_group_symop_operation_xyz
x,y,z
1/2-x,1/2-y,z
1/2+x,-y,1/2-z
-x,1/2+y,1/2-z
-x,-y,-z
1/2+x,1/2+y,-z
1/2-x,y,1/2+z
x,1/2-y,1/2+z
loop_
_atom_site_type_symbol
_atom_site_label
_atom_site_fract_x
_atom_site_fract_y
_atom_site_fract_z
Si Si1 0.555303 0.559770 0.123335
Si Si2 0.193173 0.150278 0.200225
Si Si3 0.830294 0.215697 0.954263
Si Si4 0.638857 0.274479 0.240379
Si Si5 0.803919 0.533282 0.496434
Si Si6 0.962711 0.771163 0.285928
Si Si7 0.479448 0.686378 0.960766
Si Si8 0.234378 0.563407 0.829062
O O1 0.638640 0.577995 0.079177
O O2 0.551143 0.602927 0.235874
O O3 0.520823 0.432280 0.105203
O O4 0.504199 0.658031 0.069526
O O5 0.250000 0.250000 0.234872
O O6 0.107477 0.183520 0.235453
O O7 0.218671 0.033690 0.250677
O O8 0.206135 0.133499 0.083561
O O9 0.750000 0.250000 0.005399
O O10 0.835069 0.281117 0.852227
O O11 0.896430 0.247904 0.031620
O O12 0.837528 0.076955 0.937285
O O13 0.546966 0.282627 0.237774
O O14 0.678640 0.386243 0.188435
O O15 0.669944 0.159987 0.186831
O O16 0.730490 0.490627 0.560651
O O17 0.965474 0.778222 0.404586
#
# Coordination Sequence:
#
# PCOD8228870 Si02
#       8
#     8   8   8   8   8   8   8   8
#     4  10  21  41  69  98 134 187 234 282 349 436
#     4  12  27  48  71 103 149 199 246 291 361 448
#     4  11  20  39  69 100 146 179 229 299 367 431
#     4  11  22  43  74 112 144 174 244 310 373 422
#     4  11  23  43  70  97 139 195 238 285 360 438
#     4  12  25  41  73 107 142 183 239 300 353 430
#     4  10  22  39  67 102 137 182 237 289 357 426
#     4  11  25  46  69 108 145 184 241 306 367 428
#
# _framework density 23.079425000000001
#
# number of rings (size 3 to 8) (size 9 to 14) (size 15 to 20)
#    0.000    1.000    5.000    2.250    5.250    1.500 
#    0.000    0.000    0.000    1.500    0.000    0.000 
#    0.000    0.000    0.000    0.000    0.000    0.000 
#
# Total GULP energy -792936.449140 kJ/mol
# GULP energy per Si atom -12389.632018 kJ/mol
# Density = 2.302689 g / cm^3
# Si number density = 23.079425 Si / 1000 Ang^3
#
#
#
# Elastic Constant Matrix: (Units=GPa)
#
#
# Indices 1 2 3 4 5 6 
#
# 1 135.1259 44.1228 23.8263 0.0000 0.0000 0.0000
# 2 44.1228 68.4353 38.6424 0.0000 0.0000 0.0000
# 3 23.8263 38.6424 95.1614 0.0000 0.0000 0.0000
# 4 0.0000 0.0000 0.0000 44.8109 0.0000 0.0000
# 5 0.0000 0.0000 0.0000 0.0000 34.9646 0.0000
# 6 0.0000 0.0000 0.0000 0.0000 0.0000 17.7323
#
#
#
# Elastic Compliance Matrix: (Units=1/GPa)
#
#
# Indices 1 2 3 4 5 6 
#
# 1 0.009375 -0.006123 0.000139 0.000000 0.000000 0.000000
# 2 -0.006123 0.022959 -0.007790 0.000000 0.000000 0.000000
# 3 0.000139 -0.007790 0.013637 0.000000 0.000000 0.000000
# 4 0.000000 0.000000 0.000000 0.022316 0.000000 0.000000
# 5 0.000000 0.000000 0.000000 0.000000 0.028600 0.000000
# 6 0.000000 0.000000 0.000000 0.000000 0.000000 0.056394
#
#
# Mechanical properties :
#
#
# Convention : Reuss Voigt Hill
#
# Bulk Modulus (GPa) = 54.27949 56.87838 55.57894
# Shear Modulus (GPa) = 26.74220 32.31031 29.52625
#
# Velocity S-wave (km/s) = 3.40767 3.74567 3.58066
# Velocity P-wave (km/s) = 6.24920 6.58823 6.42096
#
# Compressibility (1/GPa) = 0.01842317
#
# Stress axis : x y z
#
# Youngs Moduli (GPa) = 106.66211 43.55641 73.33066
#
# Poissons Ratio (x) = 0.26670 -0.01020
# Poissons Ratio (y) = 0.65311 0.57123
# Poissons Ratio (z) = -0.01483 0.33930
#
# Static dielectric constant tensor:
#      x y z
#    x 4.349800 0.000000 0.000000 
#    y 0.000000 3.936580 0.000000 
#    z 0.000000 0.000000 4.364400 
# 
# 
# High freq. dielectric constant tensor:
#      x y z
#    x 1.914320 0.000000 0.000000 
#    y 0.000000 1.881430 0.000000 
#    z 0.000000 0.000000 1.922960 
# 
# From -- ./inp_files/12853.got.cif
#   From: 2010.03.12/outbox.cif.g09.slc.cpg/sg56_7_cif.got.tgz:12853.got - 2010.04.16 15:33:40.
