data_PCOD8228645
_publ_section_title
;
Structure prediction by ZEFSAII (Michael W. Deem and Ramdas Pophale) SiO2 
 PCOD8228645
Probable space group: P C C N
;
_chemical_formula_sum "Si O2"
_cell_formula_units_Z 52
_cell_length_a 14.987524
_cell_length_b 7.704552
_cell_length_c 19.805363
_cell_angle_alpha 90.000000
_cell_angle_beta 90.000000
_cell_angle_gamma 90.000000
_cell_volume 2286.968006
_symmetry_space_group_name_H-M "P C C N"
_symmetry_group_IT_number 56
_symmetry_cell_setting 'orthorhombic'
loop_
_space_group_symop_operation_xyz
x,y,z
1/2-x,1/2-y,z
1/2+x,-y,1/2-z
-x,1/2+y,1/2-z
-x,-y,-z
1/2+x,1/2+y,-z
1/2-x,y,1/2+z
x,1/2-y,1/2+z
loop_
_atom_site_type_symbol
_atom_site_label
_atom_site_fract_x
_atom_site_fract_y
_atom_site_fract_z
Si Si1 0.431064 0.253569 0.030997
Si Si2 0.990902 0.570457 0.590251
Si Si3 0.770950 0.950702 0.260178
Si Si4 0.250000 0.250000 0.468642
Si Si5 0.073285 0.501579 0.719509
Si Si6 0.447426 0.113869 0.168961
Si Si7 0.301080 0.571915 0.885923
O O1 0.432566 0.451388 0.058070
O O2 0.466545 0.117166 0.087672
O O3 0.479370 0.256519 0.956680
O O4 0.328669 0.215484 0.020370
O O5 0.903553 0.443843 0.589705
O O6 0.021588 0.628002 0.665682
O O7 0.750000 0.750000 0.244582
O O8 0.678773 0.044204 0.282553
O O9 0.850993 0.973581 0.314709
O O10 0.804422 0.048398 0.194090
O O11 0.251123 0.415812 0.420458
O O12 0.055145 0.308195 0.695921
O O13 0.031326 0.523066 0.794237
O O14 0.250000 0.750000 0.905718
#
# Coordination Sequence:
#
# PCOD8228645 Si02
#       7
#     8   8   8   4   8   8   8
#     4   9  20  35  66  87 126 166 219 256 331 388
#     4   9  19  39  58  94 125 172 210 272 327 395
#     4  10  21  36  59  92 125 169 218 266 324 395
#     4  10  22  42  66  92 126 180 212 274 322 402
#     4  10  21  34  62  88 129 164 213 266 326 391
#     4  10  21  38  61  95 124 165 218 268 323 402
#     4  11  22  38  66  91 129 168 223 267 331 398
#
# _framework density 22.737528999999999
#
# number of rings (size 3 to 8) (size 9 to 14) (size 15 to 20)
#    0.000    2.154    2.308    0.000    9.692    0.000 
#    0.000    0.769   16.923    0.923    0.000    0.000 
#    0.000    0.000    0.000    0.000    0.000    0.000 
#
# Total GULP energy -644237.522365 kJ/mol
# GULP energy per Si atom -12389.183122 kJ/mol
# Density = 2.268578 g / cm^3
# Si number density = 22.737529 Si / 1000 Ang^3
#
#
#
# Elastic Constant Matrix: (Units=GPa)
#
#
# Indices 1 2 3 4 5 6 
#
# 1 127.5127 27.2753 67.6360 0.0000 0.0000 0.0000
# 2 27.2753 51.9050 39.9406 0.0000 0.0000 0.0000
# 3 67.6360 39.9406 142.8444 0.0000 0.0000 0.0000
# 4 0.0000 0.0000 0.0000 21.5896 0.0000 0.0000
# 5 0.0000 0.0000 0.0000 0.0000 33.1088 0.0000
# 6 0.0000 0.0000 0.0000 0.0000 0.0000 28.0912
#
#
#
# Elastic Compliance Matrix: (Units=1/GPa)
#
#
# Indices 1 2 3 4 5 6 
#
# 1 0.010664 -0.002189 -0.004437 0.000000 0.000000 0.000000
# 2 -0.002189 0.024997 -0.005953 0.000000 0.000000 0.000000
# 3 -0.004437 -0.005953 0.010766 0.000000 0.000000 0.000000
# 4 0.000000 0.000000 0.000000 0.046319 0.000000 0.000000
# 5 0.000000 0.000000 0.000000 0.000000 0.030203 0.000000
# 6 0.000000 0.000000 0.000000 0.000000 0.000000 0.035598
#
#
# Mechanical properties :
#
#
# Convention : Reuss Voigt Hill
#
# Bulk Modulus (GPa) = 47.01782 65.77400 56.39591
# Shear Modulus (GPa) = 26.20595 29.05194 27.62894
#
# Velocity S-wave (km/s) = 3.39859 3.57838 3.48965
# Velocity P-wave (km/s) = 6.01032 6.78700 6.41044
#
# Compressibility (1/GPa) = 0.02126853
#
# Stress axis : x y z
#
# Youngs Moduli (GPa) = 93.77025 40.00471 92.88407
#
# Poissons Ratio (x) = 0.08759 0.41216
# Poissons Ratio (y) = 0.20531 0.55291
# Poissons Ratio (z) = 0.41609 0.23814
#
# Static dielectric constant tensor:
#      x y z
#    x 4.258700 0.000000 0.000000 
#    y 0.000000 3.769510 0.000000 
#    z 0.000000 0.000000 4.706300 
# 
# 
# High freq. dielectric constant tensor:
#      x y z
#    x 1.900340 0.000000 0.000000 
#    y 0.000000 1.860910 0.000000 
#    z 0.000000 0.000000 1.906490 
# 
# From -- ./inp_files/19069.got.cif
#   From: 2010.03.12/outbox.cif.g09.slc.cpg/sg56_10_cif.got.tgz:19069.got - 2010.04.16 15:33:40.
