data_PCOD8228477
_publ_section_title
;
Structure prediction by ZEFSAII (Michael W. Deem and Ramdas Pophale) SiO2 
 PCOD8228477
Probable space group: P C C N
;
_chemical_formula_sum "Si O2"
_cell_formula_units_Z 32
_cell_length_a 10.864135
_cell_length_b 6.855276
_cell_length_c 19.049170
_cell_angle_alpha 90.000000
_cell_angle_beta 90.000000
_cell_angle_gamma 90.000000
_cell_volume 1418.718251
_symmetry_space_group_name_H-M "P C C N"
_symmetry_group_IT_number 56
_symmetry_cell_setting 'orthorhombic'
loop_
_space_group_symop_operation_xyz
x,y,z
1/2-x,1/2-y,z
1/2+x,-y,1/2-z
-x,1/2+y,1/2-z
-x,-y,-z
1/2+x,1/2+y,-z
1/2-x,y,1/2+z
x,1/2-y,1/2+z
loop_
_atom_site_type_symbol
_atom_site_label
_atom_site_fract_x
_atom_site_fract_y
_atom_site_fract_z
Si Si1 0.436685 0.303907 0.976455
Si Si2 0.859887 0.122675 0.686610
Si Si3 0.589234 0.971806 0.903206
Si Si4 0.750000 0.250000 0.319233
Si Si5 0.250000 0.250000 0.864688
O O1 0.341881 0.365974 0.916199
O O2 0.535342 0.156174 0.944205
O O3 0.500000 0.500000 0.000000
O O4 0.369312 0.193210 0.041372
O O5 0.750000 0.250000 0.649248
O O6 0.866028 0.188331 0.768791
O O7 0.991308 0.137202 0.648329
O O8 0.820103 0.897676 0.685614
O O9 0.708110 0.059660 0.863110
#
# Coordination Sequence:
#
# PCOD8228477 Si02
#       5
#     8   8   8   4   4
#     4  10  22  38  64  91 123 168 214 289 326 408
#     4   9  21  42  62  88 132 180 215 279 333 408
#     4  10  22  42  60  95 131 166 224 273 347 394
#     4  10  24  42  64  96 134 180 214 292 326 416
#     4  10  20  38  62  92 118 172 226 258 348 394
#
# _framework density 22.555571
#
# number of rings (size 3 to 8) (size 9 to 14) (size 15 to 20)
#    0.750    1.500    0.000    1.500    3.500    4.000 
#    9.000    0.000    0.000    0.000    0.000    0.000 
#    0.000    0.000    0.000    0.000    0.000    0.000 
#
# Total GULP energy -396457.878121 kJ/mol
# GULP energy per Si atom -12389.308691 kJ/mol
# Density = 2.250423 g / cm^3
# Si number density = 22.555571 Si / 1000 Ang^3
#
#
#
# Elastic Constant Matrix: (Units=GPa)
#
#
# Indices 1 2 3 4 5 6 
#
# 1 46.0788 12.0747 6.5174 0.0000 0.0000 0.0000
# 2 12.0747 83.9640 38.8357 0.0000 0.0000 0.0000
# 3 6.5174 38.8357 94.9312 0.0000 0.0000 0.0000
# 4 0.0000 0.0000 0.0000 25.7015 0.0000 0.0000
# 5 0.0000 0.0000 0.0000 0.0000 17.7486 0.0000
# 6 0.0000 0.0000 0.0000 0.0000 0.0000 42.6030
#
#
#
# Elastic Compliance Matrix: (Units=1/GPa)
#
#
# Indices 1 2 3 4 5 6 
#
# 1 0.022558 -0.003118 -0.000273 0.000000 0.000000 0.000000
# 2 -0.003118 0.015120 -0.005972 0.000000 0.000000 0.000000
# 3 -0.000273 -0.005972 0.012996 0.000000 0.000000 0.000000
# 4 0.000000 0.000000 0.000000 0.038908 0.000000 0.000000
# 5 0.000000 0.000000 0.000000 0.000000 0.056342 0.000000
# 6 0.000000 0.000000 0.000000 0.000000 0.000000 0.023473
#
#
# Mechanical properties :
#
#
# Convention : Reuss Voigt Hill
#
# Bulk Modulus (GPa) = 31.30027 37.75885 34.52956
# Shear Modulus (GPa) = 25.15458 28.38035 26.76747
#
# Velocity S-wave (km/s) = 3.34312 3.55102 3.44864
# Velocity P-wave (km/s) = 5.36741 5.79566 5.58564
#
# Compressibility (1/GPa) = 0.03194860
#
# Stress axis : x y z
#
# Youngs Moduli (GPa) = 44.33104 66.13667 76.94892
#
# Poissons Ratio (x) = 0.20618 0.02103
# Poissons Ratio (y) = 0.13820 0.45950
# Poissons Ratio (z) = 0.01212 0.39494
#
# Static dielectric constant tensor:
#      x y z
#    x 3.937950 0.000000 0.000000 
#    y 0.000000 3.952140 0.000000 
#    z 0.000000 0.000000 4.140320 
# 
# 
# High freq. dielectric constant tensor:
#      x y z
#    x 1.866670 0.000000 0.000000 
#    y 0.000000 1.889960 0.000000 
#    z 0.000000 0.000000 1.888720 
# 
# From -- ./inp_files/18532.got.cif
#   From: 2010.03.12/outbox.cif.g09.slc.cpg/sg56_10_cif.got.tgz:18532.got - 2010.04.16 15:33:40.
