data_PCOD8228340
_publ_section_title
;
Structure prediction by ZEFSAII (Michael W. Deem and Ramdas Pophale) SiO2 
 PCOD8228340
Probable space group: P C C N
;
_chemical_formula_sum "Si O2"
_cell_formula_units_Z 40
_cell_length_a 4.919892
_cell_length_b 14.760551
_cell_length_c 26.191017
_cell_angle_alpha 90.000000
_cell_angle_beta 90.000000
_cell_angle_gamma 90.000000
_cell_volume 1901.999951
_symmetry_space_group_name_H-M "P C C N"
_symmetry_group_IT_number 56
_symmetry_cell_setting 'orthorhombic'
loop_
_space_group_symop_operation_xyz
x,y,z
1/2-x,1/2-y,z
1/2+x,-y,1/2-z
-x,1/2+y,1/2-z
-x,-y,-z
1/2+x,1/2+y,-z
1/2-x,y,1/2+z
x,1/2-y,1/2+z
loop_
_atom_site_type_symbol
_atom_site_label
_atom_site_fract_x
_atom_site_fract_y
_atom_site_fract_z
Si Si1 0.064037 0.666202 0.426403
Si Si2 0.059550 0.056474 0.550270
Si Si3 0.601488 0.496740 0.341634
Si Si4 0.988850 0.189809 0.290906
Si Si5 0.413509 0.609329 0.818088
O O1 0.250000 0.750000 0.447019
O O2 0.255122 0.581117 0.434492
O O3 0.999130 0.674088 0.365861
O O4 0.774329 0.642750 0.455313
O O5 0.162909 0.994460 0.597333
O O6 0.000000 0.000000 0.500000
O O7 0.488190 0.400862 0.323890
O O8 0.391827 0.574818 0.325386
O O9 0.883362 0.522986 0.313608
O O10 0.250000 0.250000 0.298085
O O11 0.750000 0.250000 0.314142
O O12 0.931195 0.169484 0.231953
#
# Coordination Sequence:
#
# PCOD8228340 Si02
#       5
#     8   8   8   8   8
#     4  10  20  35  58  87 111 135 182 243 285 319
#     4  10  21  38  59  80 110 150 188 226 279 341
#     4  10  21  38  57  78 109 149 187 223 270 335
#     4  12  23  35  54  83 115 146 180 223 270 327
#     4  10  20  36  58  80 109 146 182 223 276 334
#
# _framework density 21.030493
#
# number of rings (size 3 to 8) (size 9 to 14) (size 15 to 20)
#    0.000    1.600    0.000    5.400    0.000    3.200 
#    0.000    3.000    0.000    0.000    0.000    0.000 
#    0.000    0.000    0.000    0.000    0.000    0.000 
#
# Total GULP energy -495664.504012 kJ/mol
# GULP energy per Si atom -12391.612600 kJ/mol
# Density = 2.098263 g / cm^3
# Si number density = 21.030493 Si / 1000 Ang^3
#
#
#
# Elastic Constant Matrix: (Units=GPa)
#
#
# Indices 1 2 3 4 5 6 
#
# 1 120.7111 22.5156 23.0618 0.0000 0.0000 0.0000
# 2 22.5156 68.7620 24.4542 0.0000 0.0000 0.0000
# 3 23.0618 24.4542 68.6318 0.0000 0.0000 0.0000
# 4 0.0000 0.0000 0.0000 21.9684 0.0000 0.0000
# 5 0.0000 0.0000 0.0000 0.0000 24.4893 0.0000
# 6 0.0000 0.0000 0.0000 0.0000 0.0000 49.0402
#
#
#
# Elastic Compliance Matrix: (Units=1/GPa)
#
#
# Indices 1 2 3 4 5 6 
#
# 1 0.009128 -0.002173 -0.002293 0.000000 0.000000 0.000000
# 2 -0.002173 0.017171 -0.005388 0.000000 0.000000 0.000000
# 3 -0.002293 -0.005388 0.017261 0.000000 0.000000 0.000000
# 4 0.000000 0.000000 0.000000 0.045520 0.000000 0.000000
# 5 0.000000 0.000000 0.000000 0.000000 0.040834 0.000000
# 6 0.000000 0.000000 0.000000 0.000000 0.000000 0.020391
#
#
# Mechanical properties :
#
#
# Convention : Reuss Voigt Hill
#
# Bulk Modulus (GPa) = 41.92661 44.24089 43.08375
# Shear Modulus (GPa) = 28.09581 31.63780 29.86680
#
# Velocity S-wave (km/s) = 3.65904 3.88284 3.77260
# Velocity P-wave (km/s) = 6.15067 6.41749 6.28550
#
# Compressibility (1/GPa) = 0.02385120
#
# Stress axis : x y z
#
# Youngs Moduli (GPa) = 109.55711 58.23883 57.93542
#
# Poissons Ratio (x) = 0.12658 0.13283
# Poissons Ratio (y) = 0.23812 0.31214
# Poissons Ratio (z) = 0.25118 0.31378
#
# Static dielectric constant tensor:
#      x y z
#    x 4.162000 0.000000 0.000000 
#    y 0.000000 3.601520 0.000000 
#    z 0.000000 0.000000 3.812030 
# 
# 
# High freq. dielectric constant tensor:
#      x y z
#    x 1.851690 0.000000 0.000000 
#    y 0.000000 1.808990 0.000000 
#    z 0.000000 0.000000 1.796800 
# 
# From -- ./inp_files/21062.got.cif
#   From: 2010.03.12/outbox.cif.g09.slc.cpg/sg56_11_cif.got.tgz:21062.got - 2010.04.16 15:33:40.
