data_PCOD8228455
_publ_section_title
;
Structure prediction by ZEFSAII (Michael W. Deem and Ramdas Pophale) SiO2 
 PCOD8228455
Probable space group: P C C N
;
_chemical_formula_sum "Si O2"
_cell_formula_units_Z 48
_cell_length_a 9.992899
_cell_length_b 14.655406
_cell_length_c 16.270668
_cell_angle_alpha 90.000000
_cell_angle_beta 90.000000
_cell_angle_gamma 90.000000
_cell_volume 2382.839198
_symmetry_space_group_name_H-M "P C C N"
_symmetry_group_IT_number 56
_symmetry_cell_setting 'orthorhombic'
loop_
_space_group_symop_operation_xyz
x,y,z
1/2-x,1/2-y,z
1/2+x,-y,1/2-z
-x,1/2+y,1/2-z
-x,-y,-z
1/2+x,1/2+y,-z
1/2-x,y,1/2+z
x,1/2-y,1/2+z
loop_
_atom_site_type_symbol
_atom_site_label
_atom_site_fract_x
_atom_site_fract_y
_atom_site_fract_z
Si Si1 0.694353 0.946314 0.065744
Si Si2 0.072698 0.994961 0.660576
Si Si3 0.861191 0.819244 0.425707
Si Si4 0.803798 0.074108 0.928505
Si Si5 0.120709 0.800589 0.937343
Si Si6 0.439702 0.513067 0.850305
O O1 0.815245 0.945025 0.131546
O O2 0.553823 0.966384 0.107552
O O3 0.687628 0.851682 0.015962
O O4 0.723602 0.026864 0.002343
O O5 0.123902 0.096017 0.636631
O O6 0.028395 0.991902 0.754544
O O7 0.194768 0.922218 0.645362
O O8 0.750000 0.750000 0.389630
O O9 0.001105 0.769982 0.436028
O O10 0.932106 0.016899 0.901885
O O11 0.852779 0.169930 0.967012
O O12 0.250000 0.750000 0.901244
O O13 0.091389 0.884308 0.877023
#
# Coordination Sequence:
#
# PCOD8228455 Si02
#       6
#     8   8   8   8   8   8
#     4  10  20  38  60  82 110 154 197 226 276 355
#     4  11  22  39  61  86 118 156 190 232 293 356
#     4  11  21  37  59  86 114 150 198 248 283 327
#     4  10  20  38  60  82 110 154 197 226 276 355
#     4  11  21  37  59  86 114 150 198 248 283 327
#     4  11  22  39  61  86 118 156 190 232 293 356
#
# _framework density 20.144036
#
# number of rings (size 3 to 8) (size 9 to 14) (size 15 to 20)
#    0.000    1.333    0.000   11.000    0.000    0.000 
#    0.000   10.000    0.000    0.000    0.000    0.000 
#    0.000    0.000    0.000    0.000    0.000    0.000 
#
# Total GULP energy -595110.396127 kJ/mol
# GULP energy per Si atom -12398.133253 kJ/mol
# Density = 2.009819 g / cm^3
# Si number density = 20.144036 Si / 1000 Ang^3
#
#
#
# Elastic Constant Matrix: (Units=GPa)
#
#
# Indices 1 2 3 4 5 6 
#
# 1 103.9233 11.3019 9.8490 0.0000 0.0000 0.0000
# 2 11.3019 55.9684 26.8598 0.0000 0.0000 0.0000
# 3 9.8490 26.8598 83.5080 0.0000 0.0000 0.0000
# 4 0.0000 0.0000 0.0000 -271.8775 0.0000 0.0000
# 5 0.0000 0.0000 0.0000 0.0000 35.3943 0.0000
# 6 0.0000 0.0000 0.0000 0.0000 0.0000 38.5831
#
#
#
# Elastic Compliance Matrix: (Units=1/GPa)
#
#
# Indices 1 2 3 4 5 6 
#
# 1 0.009865 -0.001695 -0.000618 0.000000 0.000000 0.000000
# 2 -0.001695 0.021420 -0.006690 0.000000 0.000000 0.000000
# 3 -0.000618 -0.006690 0.014199 0.000000 0.000000 0.000000
# 4 0.000000 0.000000 0.000000 -0.003678 0.000000 0.000000
# 5 0.000000 0.000000 0.000000 0.000000 0.028253 0.000000
# 6 0.000000 0.000000 0.000000 0.000000 0.000000 0.025918
#
#
# Mechanical properties :
#
#
# Convention : Reuss Voigt Hill
#
# Bulk Modulus (GPa) = 36.39232 37.71345 37.05289
# Shear Modulus (GPa) = 40.60284 -26.55408 7.02438
#
# Velocity S-wave (km/s) = 4.49444 -3.63466 1.86940
# Velocity P-wave (km/s) = 6.71108 1.07156 4.80556
#
# Compressibility (1/GPa) = 0.02747832
#
# Stress axis : x y z
#
# Youngs Moduli (GPa) = 101.36380 46.68532 70.42511
#
# Poissons Ratio (x) = 0.07915 0.04354
# Poissons Ratio (y) = 0.17186 0.47112
# Poissons Ratio (z) = 0.06266 0.31231
#
# Static dielectric constant tensor:
#      x y z
#    x 4.078930 0.000000 0.000000 
#    y 0.000000 26.947350 0.000000 
#    z 0.000000 0.000000 3.670850 
# 
# 
# High freq. dielectric constant tensor:
#      x y z
#    x 1.818130 0.000000 0.000000 
#    y 0.000000 1.773210 0.000000 
#    z 0.000000 0.000000 1.768230 
# 
# From -- ./inp_files/14767.got.cif
#   From: 2010.03.12/outbox.cif.g09.slc.cpg/sg56_8_cif.got.tgz:14767.got - 2010.04.16 15:33:40.
