data_PCOD8228809
_publ_section_title
;
Structure prediction by ZEFSAII (Michael W. Deem and Ramdas Pophale) SiO2 
 PCOD8228809
Probable space group: P C C N
;
_chemical_formula_sum "Si O2"
_cell_formula_units_Z 36
_cell_length_a 17.621867
_cell_length_b 8.018644
_cell_length_c 9.897784
_cell_angle_alpha 90.000000
_cell_angle_beta 90.000000
_cell_angle_gamma 90.000000
_cell_volume 1398.591305
_symmetry_space_group_name_H-M "P C C N"
_symmetry_group_IT_number 56
_symmetry_cell_setting 'orthorhombic'
loop_
_space_group_symop_operation_xyz
x,y,z
1/2-x,1/2-y,z
1/2+x,-y,1/2-z
-x,1/2+y,1/2-z
-x,-y,-z
1/2+x,1/2+y,-z
1/2-x,y,1/2+z
x,1/2-y,1/2+z
loop_
_atom_site_type_symbol
_atom_site_label
_atom_site_fract_x
_atom_site_fract_y
_atom_site_fract_z
Si Si1 0.164759 0.441495 0.863777
Si Si2 0.468738 0.830316 0.801313
Si Si3 0.250000 0.750000 0.449026
Si Si4 0.404148 0.882575 0.524295
Si Si5 0.372890 0.241294 0.612297
O O1 0.077414 0.504993 0.849313
O O2 0.222795 0.596255 0.854237
O O3 0.179932 0.316570 0.738254
O O4 0.176458 0.350032 0.007396
O O5 0.454895 0.800932 0.642484
O O6 0.557654 0.852975 0.831376
O O7 0.437716 0.667135 0.879366
O O8 0.318902 0.811402 0.543018
O O9 0.405498 0.081951 0.531663
#
# Coordination Sequence:
#
# PCOD8228809 Si02
#       5
#     8   8   4   8   8
#     4  10  24  43  70  97 141 182 223 287 339 416
#     4  10  21  40  64 101 138 175 221 281 351 403
#     4  10  24  48  64  94 134 190 232 266 354 406
#     4  10  23  39  66  94 136 181 223 284 335 411
#     4  11  22  40  68 104 130 175 233 287 340 395
#
# _framework density 25.740185
#
# number of rings (size 3 to 8) (size 9 to 14) (size 15 to 20)
#    0.000    1.778    0.000    2.667    0.000   19.556 
#    0.000    4.444    0.000    1.333    0.000    0.000 
#    0.000    0.000    0.000    0.000    0.000    0.000 
#
# Total GULP energy -446476.293415 kJ/mol
# GULP energy per Si atom -12402.119262 kJ/mol
# Density = 2.568160 g / cm^3
# Si number density = 25.740185 Si / 1000 Ang^3
#
#
#
# Elastic Constant Matrix: (Units=GPa)
#
#
# Indices 1 2 3 4 5 6 
#
# 1 59.7802 30.7534 24.7841 0.0000 0.0000 0.0000
# 2 30.7534 102.7766 60.7553 0.0000 0.0000 0.0000
# 3 24.7841 60.7553 124.2496 0.0000 0.0000 0.0000
# 4 0.0000 0.0000 0.0000 37.2470 0.0000 0.0000
# 5 0.0000 0.0000 0.0000 0.0000 12.9826 0.0000
# 6 0.0000 0.0000 0.0000 0.0000 0.0000 36.2835
#
#
#
# Elastic Compliance Matrix: (Units=1/GPa)
#
#
# Indices 1 2 3 4 5 6 
#
# 1 0.019966 -0.005092 -0.001493 0.000000 0.000000 0.000000
# 2 -0.005092 0.014984 -0.006311 0.000000 0.000000 0.000000
# 3 -0.001493 -0.006311 0.011432 0.000000 0.000000 0.000000
# 4 0.000000 0.000000 0.000000 0.026848 0.000000 0.000000
# 5 0.000000 0.000000 0.000000 0.000000 0.077026 0.000000
# 6 0.000000 0.000000 0.000000 0.000000 0.000000 0.027561
#
#
# Mechanical properties :
#
#
# Convention : Reuss Voigt Hill
#
# Bulk Modulus (GPa) = 48.56575 57.71025 53.13800
# Shear Modulus (GPa) = 23.75598 28.67019 26.21308
#
# Velocity S-wave (km/s) = 3.04125 3.34103 3.19466
# Velocity P-wave (km/s) = 5.58935 6.11165 5.85633
#
# Compressibility (1/GPa) = 0.02059064
#
# Stress axis : x y z
#
# Youngs Moduli (GPa) = 50.08420 66.73616 87.47231
#
# Poissons Ratio (x) = 0.33982 0.13058
# Poissons Ratio (y) = 0.25503 0.55207
# Poissons Ratio (z) = 0.07477 0.42119
#
# Static dielectric constant tensor:
#      x y z
#    x 4.502950 0.000000 0.000000 
#    y 0.000000 4.562930 0.000000 
#    z 0.000000 0.000000 4.583050 
# 
# 
# High freq. dielectric constant tensor:
#      x y z
#    x 2.021200 0.000000 0.000000 
#    y 0.000000 2.026360 0.000000 
#    z 0.000000 0.000000 2.026520 
# 
# From -- ./inp_files/4334.got.cif
#   From: 2010.03.12/outbox.cif.g09.slc.cpg/sg56_3_cif.got.tgz:4334.got - 2010.04.16 15:33:40.
