data_PCOD8228153
_publ_section_title
;
Structure prediction by ZEFSAII (Michael W. Deem and Ramdas Pophale) SiO2 
 PCOD8228153
Probable space group: P C C N
;
_chemical_formula_sum "Si O2"
_cell_formula_units_Z 44
_cell_length_a 11.634754
_cell_length_b 17.576833
_cell_length_c 10.193459
_cell_angle_alpha 90.000000
_cell_angle_beta 90.000000
_cell_angle_gamma 90.000000
_cell_volume 2084.584058
_symmetry_space_group_name_H-M "P C C N"
_symmetry_group_IT_number 56
_symmetry_cell_setting 'orthorhombic'
loop_
_space_group_symop_operation_xyz
x,y,z
1/2-x,1/2-y,z
1/2+x,-y,1/2-z
-x,1/2+y,1/2-z
-x,-y,-z
1/2+x,1/2+y,-z
1/2-x,y,1/2+z
x,1/2-y,1/2+z
loop_
_atom_site_type_symbol
_atom_site_label
_atom_site_fract_x
_atom_site_fract_y
_atom_site_fract_z
Si Si1 0.250000 0.750000 0.867864
Si Si2 0.075396 0.865360 0.967163
Si Si3 0.648699 0.634271 0.296915
Si Si4 0.321024 0.139384 0.490574
Si Si5 0.711868 0.494167 0.152430
Si Si6 0.394368 0.617705 0.264355
O O1 0.153965 0.790044 0.958757
O O2 0.189903 0.689271 0.773862
O O3 0.116731 0.928154 0.862836
O O4 0.942526 0.846114 0.936601
O O5 0.082562 0.900743 0.112519
O O6 0.721590 0.673302 0.414617
O O7 0.682280 0.544702 0.280909
O O8 0.514520 0.638673 0.334646
O O9 0.675915 0.676559 0.156453
O O10 0.292953 0.049123 0.474763
O O11 0.837628 0.455980 0.166969
#
# Coordination Sequence:
#
# PCOD8228153 Si02
#       6
#     4   8   8   8   8   8
#     4  10  22  38  56  82 104 154 206 238 276 340
#     4  10  19  36  58  78 115 155 188 235 292 339
#     4   9  20  33  55  84 119 146 192 228 294 346
#     4   9  19  34  54  83 116 150 182 231 292 347
#     4   9  19  29  57  83 114 143 185 227 292 338
#     4  10  20  36  56  83 114 150 193 244 276 348
#
# _framework density 21.107327999999999
#
# number of rings (size 3 to 8) (size 9 to 14) (size 15 to 20)
#    1.091    1.455    0.000    2.182    2.545    0.727 
#    0.000   10.000    0.000    4.364    0.000    0.000 
#    0.000    0.000    0.000    0.000    0.000    0.000 
#
# Total GULP energy -545201.155441 kJ/mol
# GULP energy per Si atom -12390.935351 kJ/mol
# Density = 2.105929 g / cm^3
# Si number density = 21.107328 Si / 1000 Ang^3
#
#
#
# Elastic Constant Matrix: (Units=GPa)
#
#
# Indices 1 2 3 4 5 6 
#
# 1 158.6984 12.6761 41.1567 0.0000 0.0000 0.0000
# 2 12.6761 32.6619 -1.7046 0.0000 0.0000 0.0000
# 3 41.1567 -1.7046 51.5638 0.0000 0.0000 0.0000
# 4 0.0000 0.0000 0.0000 5.0091 0.0000 0.0000
# 5 0.0000 0.0000 0.0000 0.0000 38.6609 0.0000
# 6 0.0000 0.0000 0.0000 0.0000 0.0000 20.1338
#
#
#
# Elastic Compliance Matrix: (Units=1/GPa)
#
#
# Indices 1 2 3 4 5 6 
#
# 1 0.008347 -0.003593 -0.006781 0.000000 0.000000 0.000000
# 2 -0.003593 0.032217 0.003933 0.000000 0.000000 0.000000
# 3 -0.006781 0.003933 0.024936 0.000000 0.000000 0.000000
# 4 0.000000 0.000000 0.000000 0.199636 0.000000 0.000000
# 5 0.000000 0.000000 0.000000 0.000000 0.025866 0.000000
# 6 0.000000 0.000000 0.000000 0.000000 0.000000 0.049668
#
#
# Mechanical properties :
#
#
# Convention : Reuss Voigt Hill
#
# Bulk Modulus (GPa) = 19.00535 38.57563 28.79049
# Shear Modulus (GPa) = 13.47380 25.48048 19.47714
#
# Velocity S-wave (km/s) = 2.52929 3.47823 3.04100
# Velocity P-wave (km/s) = 4.18969 5.86910 5.09901
#
# Compressibility (1/GPa) = 0.05261677
#
# Stress axis : x y z
#
# Youngs Moduli (GPa) = 119.80556 31.03997 40.10289
#
# Poissons Ratio (x) = 0.11154 0.27194
# Poissons Ratio (y) = 0.43050 -0.15773
# Poissons Ratio (z) = 0.81240 -0.12208
#
# Static dielectric constant tensor:
#      x y z
#    x 3.865540 0.000000 0.000000 
#    y 0.000000 3.504870 0.000000 
#    z 0.000000 0.000000 3.423670 
# 
# 
# High freq. dielectric constant tensor:
#      x y z
#    x 1.833510 0.000000 0.000000 
#    y 0.000000 1.808300 0.000000 
#    z 0.000000 0.000000 1.801080 
# 
# From -- ./inp_files/7093.got.cif
#   From: 2010.03.12/outbox.cif.g09.slc.cpg/sg56_4_cif.got.tgz:7093.got - 2010.04.16 15:33:40.
