data_PCOD8228297
_publ_section_title
;
Structure prediction by ZEFSAII (Michael W. Deem and Ramdas Pophale) SiO2 
 PCOD8228297
Probable space group: P C C N
;
_chemical_formula_sum "Si O2"
_cell_formula_units_Z 44
_cell_length_a 4.998367
_cell_length_b 20.951206
_cell_length_c 20.691165
_cell_angle_alpha 90.000000
_cell_angle_beta 90.000000
_cell_angle_gamma 90.000000
_cell_volume 2166.816388
_symmetry_space_group_name_H-M "P C C N"
_symmetry_group_IT_number 56
_symmetry_cell_setting 'orthorhombic'
loop_
_space_group_symop_operation_xyz
x,y,z
1/2-x,1/2-y,z
1/2+x,-y,1/2-z
-x,1/2+y,1/2-z
-x,-y,-z
1/2+x,1/2+y,-z
1/2-x,y,1/2+z
x,1/2-y,1/2+z
loop_
_atom_site_type_symbol
_atom_site_label
_atom_site_fract_x
_atom_site_fract_y
_atom_site_fract_z
Si Si1 0.126856 0.149198 0.649464
Si Si2 0.646295 0.178132 0.423751
Si Si3 0.250000 0.250000 0.746949
Si Si4 0.209476 0.457700 0.248778
Si Si5 0.353602 0.821894 0.429939
Si Si6 0.627312 0.648735 0.655513
O O1 0.064077 0.204428 0.702595
O O2 0.216570 0.084408 0.684008
O O3 0.356161 0.173574 0.601525
O O4 0.857121 0.134994 0.609642
O O5 0.750000 0.250000 0.422085
O O6 0.627060 0.152677 0.496923
O O7 0.355952 0.173877 0.392336
O O8 0.856853 0.135022 0.384130
O O9 0.066603 0.296336 0.790990
O O10 0.412604 0.515974 0.239585
O O11 0.287686 0.417089 0.311598
O O12 0.250000 0.750000 0.428139
#
# Coordination Sequence:
#
# PCOD8228297 Si02
#       6
#     8   8   4   8   8   8
#     4  11  22  37  61  87 120 153 193 249 284 360
#     4  11  21  36  58  90 127 156 186 230 295 363
#     4  10  20  34  54  90 116 140 192 230 308 336
#     4  11  24  43  62  85 114 159 202 246 296 335
#     4  11  21  36  58  90 127 156 186 230 295 363
#     4  11  22  37  61  87 120 153 193 249 284 360
#
# _framework density 20.306291000000002
#
# number of rings (size 3 to 8) (size 9 to 14) (size 15 to 20)
#    0.000    1.091    3.636    3.273    0.000    8.727 
#    0.000    0.000    0.000   21.818    0.000    0.000 
#    0.000    0.000    0.000    0.000    0.000    0.000 
#
# Total GULP energy -545767.109738 kJ/mol
# GULP energy per Si atom -12403.797949 kJ/mol
# Density = 2.026007 g / cm^3
# Si number density = 20.306291 Si / 1000 Ang^3
#
#
#
# Elastic Constant Matrix: (Units=GPa)
#
#
# Indices 1 2 3 4 5 6 
#
# 1 93.4259 1.4110 41.6685 0.0000 0.0000 0.0000
# 2 1.4110 63.9103 31.9081 0.0000 0.0000 0.0000
# 3 41.6685 31.9081 142.9967 0.0000 0.0000 0.0000
# 4 0.0000 0.0000 0.0000 16.0595 0.0000 0.0000
# 5 0.0000 0.0000 0.0000 0.0000 26.4750 0.0000
# 6 0.0000 0.0000 0.0000 0.0000 0.0000 32.3139
#
#
#
# Elastic Compliance Matrix: (Units=1/GPa)
#
#
# Indices 1 2 3 4 5 6 
#
# 1 0.012471 0.001732 -0.004020 0.000000 0.000000 0.000000
# 2 0.001732 0.017849 -0.004487 0.000000 0.000000 0.000000
# 3 -0.004020 -0.004487 0.009166 0.000000 0.000000 0.000000
# 4 0.000000 0.000000 0.000000 0.062269 0.000000 0.000000
# 5 0.000000 0.000000 0.000000 0.000000 0.037772 0.000000
# 6 0.000000 0.000000 0.000000 0.000000 0.000000 0.030946
#
#
# Mechanical properties :
#
#
# Convention : Reuss Voigt Hill
#
# Bulk Modulus (GPa) = 38.55964 50.03424 44.29694
# Shear Modulus (GPa) = 25.95126 29.99267 27.97197
#
# Velocity S-wave (km/s) = 3.57878 3.84736 3.71550
# Velocity P-wave (km/s) = 6.00892 6.66555 6.34573
#
# Compressibility (1/GPa) = 0.02593385
#
# Stress axis : x y z
#
# Youngs Moduli (GPa) = 80.18862 56.02514 109.09881
#
# Poissons Ratio (x) = -0.09703 0.43861
# Poissons Ratio (y) = -0.13888 0.48958
# Poissons Ratio (z) = 0.32238 0.25141
#
# Static dielectric constant tensor:
#      x y z
#    x 3.712260 0.000000 0.000000 
#    y 0.000000 3.427750 0.000000 
#    z 0.000000 0.000000 4.066250 
# 
# 
# High freq. dielectric constant tensor:
#      x y z
#    x 1.796910 0.000000 0.000000 
#    y 0.000000 1.762660 0.000000 
#    z 0.000000 0.000000 1.807810 
# 
# From -- ./inp_files/13972.got.cif
#   From: 2010.03.12/outbox.cif.g09.slc.cpg/sg56_7_cif.got.tgz:13972.got - 2010.04.16 15:33:40.
