data_PCOD8228422
_publ_section_title
;
Structure prediction by ZEFSAII (Michael W. Deem and Ramdas Pophale) SiO2 
 PCOD8228422
Probable space group: P C C N
;
_chemical_formula_sum "Si O2"
_cell_formula_units_Z 48
_cell_length_a 16.640568
_cell_length_b 10.240556
_cell_length_c 14.161544
_cell_angle_alpha 90.000000
_cell_angle_beta 90.000000
_cell_angle_gamma 90.000000
_cell_volume 2413.249857
_symmetry_space_group_name_H-M "P C C N"
_symmetry_group_IT_number 56
_symmetry_cell_setting 'orthorhombic'
loop_
_space_group_symop_operation_xyz
x,y,z
1/2-x,1/2-y,z
1/2+x,-y,1/2-z
-x,1/2+y,1/2-z
-x,-y,-z
1/2+x,1/2+y,-z
1/2-x,y,1/2+z
x,1/2-y,1/2+z
loop_
_atom_site_type_symbol
_atom_site_label
_atom_site_fract_x
_atom_site_fract_y
_atom_site_fract_z
Si Si1 0.257131 0.060053 0.803916
Si Si2 0.205121 0.623626 0.656707
Si Si3 0.544133 0.851946 0.428627
Si Si4 0.783721 0.608111 0.484368
Si Si5 0.887491 0.732113 0.749169
Si Si6 0.475545 0.861365 0.615628
O O1 0.336696 0.137782 0.771213
O O2 0.174650 0.112967 0.757825
O O3 0.270127 0.913594 0.764602
O O4 0.254514 0.064578 0.916718
O O5 0.250000 0.750000 0.619686
O O6 0.234273 0.499939 0.594685
O O7 0.112601 0.663692 0.654735
O O8 0.620569 0.886178 0.495124
O O9 0.570646 0.743217 0.352530
O O10 0.479529 0.805855 0.507178
O O11 0.509313 0.982145 0.378933
O O12 0.750000 0.750000 0.452120
O O13 0.960363 0.716729 0.677119
#
# Coordination Sequence:
#
# PCOD8228422 Si02
#       6
#     8   8   8   8   8   8
#     4  11  21  38  68  95 123 164 223 272 315 375
#     4  11  26  44  58  95 141 172 212 259 332 403
#     4  10  20  37  61  89 127 162 207 264 322 382
#     4  11  19  38  70  91 121 165 219 270 319 371
#     4  11  20  37  67  99 118 159 225 277 310 371
#     4  10  21  39  60  89 127 172 206 255 329 385
#
# _framework density 19.89019
#
# number of rings (size 3 to 8) (size 9 to 14) (size 15 to 20)
#    0.000    1.333    6.667    1.000    0.000    2.000 
#    3.000    0.000    0.000    4.000    0.000    0.000 
#    0.000    0.000    0.000    0.000    0.000    0.000 
#
# Total GULP energy -594869.657200 kJ/mol
# GULP energy per Si atom -12393.117858 kJ/mol
# Density = 1.984492 g / cm^3
# Si number density = 19.890190 Si / 1000 Ang^3
#
#
#
# Elastic Constant Matrix: (Units=GPa)
#
#
# Indices 1 2 3 4 5 6 
#
# 1 83.9606 45.6584 48.5525 0.0000 0.0000 0.0000
# 2 45.6584 79.7609 35.9848 0.0000 0.0000 0.0000
# 3 48.5525 35.9848 96.7447 0.0000 0.0000 0.0000
# 4 0.0000 0.0000 0.0000 21.9072 0.0000 0.0000
# 5 0.0000 0.0000 0.0000 0.0000 29.0217 0.0000
# 6 0.0000 0.0000 0.0000 0.0000 0.0000 17.4331
#
#
#
# Elastic Compliance Matrix: (Units=1/GPa)
#
#
# Indices 1 2 3 4 5 6 
#
# 1 0.020782 -0.008641 -0.007216 0.000000 0.000000 0.000000
# 2 -0.008641 0.018659 -0.002604 0.000000 0.000000 0.000000
# 3 -0.007216 -0.002604 0.014926 0.000000 0.000000 0.000000
# 4 0.000000 0.000000 0.000000 0.045647 0.000000 0.000000
# 5 0.000000 0.000000 0.000000 0.000000 0.034457 0.000000
# 6 0.000000 0.000000 0.000000 0.000000 0.000000 0.057362
#
#
# Mechanical properties :
#
#
# Convention : Reuss Voigt Hill
#
# Bulk Modulus (GPa) = 57.31885 57.87307 57.59596
# Shear Modulus (GPa) = 21.31569 22.35710 21.83639
#
# Velocity S-wave (km/s) = 3.27719 3.35629 3.31697
# Velocity P-wave (km/s) = 6.57268 6.64673 6.60981
#
# Compressibility (1/GPa) = 0.01744627
#
# Stress axis : x y z
#
# Youngs Moduli (GPa) = 48.11841 53.59460 66.99662
#
# Poissons Ratio (x) = 0.46312 0.48342
# Poissons Ratio (y) = 0.41580 0.17443
# Poissons Ratio (z) = 0.34720 0.13954
#
# Static dielectric constant tensor:
#      x y z
#    x 3.704080 0.000000 0.000000 
#    y 0.000000 3.398320 0.000000 
#    z 0.000000 0.000000 3.682560 
# 
# 
# High freq. dielectric constant tensor:
#      x y z
#    x 1.779310 0.000000 0.000000 
#    y 0.000000 1.742390 0.000000 
#    z 0.000000 0.000000 1.783920 
# 
# From -- ./inp_files/12205.got.cif
#   From: 2010.03.12/outbox.cif.g09.slc.cpg/sg56_7_cif.got.tgz:12205.got - 2010.04.16 15:33:40.
