data_PCOD8228505
_publ_section_title
;
Structure prediction by ZEFSAII (Michael W. Deem and Ramdas Pophale) SiO2 
 PCOD8228505
Probable space group: P C C N
;
_chemical_formula_sum "Si O2"
_cell_formula_units_Z 40
_cell_length_a 5.178464
_cell_length_b 25.527371
_cell_length_c 15.322299
_cell_angle_alpha 90.000000
_cell_angle_beta 90.000000
_cell_angle_gamma 90.000000
_cell_volume 2025.494110
_symmetry_space_group_name_H-M "P C C N"
_symmetry_group_IT_number 56
_symmetry_cell_setting 'orthorhombic'
loop_
_space_group_symop_operation_xyz
x,y,z
1/2-x,1/2-y,z
1/2+x,-y,1/2-z
-x,1/2+y,1/2-z
-x,-y,-z
1/2+x,1/2+y,-z
1/2-x,y,1/2+z
x,1/2-y,1/2+z
loop_
_atom_site_type_symbol
_atom_site_label
_atom_site_fract_x
_atom_site_fract_y
_atom_site_fract_z
Si Si1 0.264881 0.873359 0.859925
Si Si2 0.780240 0.382579 0.835762
Si Si3 0.418015 0.940969 0.513422
Si Si4 0.732887 0.809021 0.403244
Si Si5 0.210757 0.148864 0.918166
O O1 0.238740 0.899728 0.764597
O O2 0.538353 0.844546 0.865455
O O3 0.042336 0.830762 0.873089
O O4 0.244232 0.919897 0.930515
O O5 0.756026 0.434024 0.898394
O O6 0.548681 0.341942 0.860823
O O7 0.048694 0.353149 0.852980
O O8 0.675835 0.905690 0.526577
O O9 0.500000 0.000000 0.500000
O O10 0.750000 0.750000 0.367369
O O11 0.750348 0.806555 0.509119
#
# Coordination Sequence:
#
# PCOD8228505 Si02
#       5
#     8   8   8   8   8
#     4  11  22  40  63  87 128 160 199 263 305 357
#     4  10  20  39  59  86 124 155 200 249 302 358
#     4   9  21  40  61  91 121 165 199 244 308 368
#     4  11  21  40  64  87 118 164 207 251 318 372
#     4   9  19  39  58  84 121 154 195 255 298 357
#
# _framework density 19.748267999999999
#
# number of rings (size 3 to 8) (size 9 to 14) (size 15 to 20)
#    1.200    0.800    2.000    1.800    0.000    0.800 
#    3.600    6.000    0.000    0.000    0.000    0.000 
#    0.000    0.000    0.000    0.000    0.000    0.000 
#
# Total GULP energy -495649.151500 kJ/mol
# GULP energy per Si atom -12391.228787 kJ/mol
# Density = 1.970332 g / cm^3
# Si number density = 19.748268 Si / 1000 Ang^3
#
#
#
# Elastic Constant Matrix: (Units=GPa)
#
#
# Indices 1 2 3 4 5 6 
#
# 1 98.0325 -6.6315 9.6466 0.0000 0.0000 0.0000
# 2 -6.6315 67.6384 18.6570 0.0000 0.0000 0.0000
# 3 9.6466 18.6570 146.6430 0.0000 0.0000 0.0000
# 4 0.0000 0.0000 0.0000 9.2094 0.0000 0.0000
# 5 0.0000 0.0000 0.0000 0.0000 30.4545 0.0000
# 6 0.0000 0.0000 0.0000 0.0000 0.0000 20.2296
#
#
#
# Elastic Compliance Matrix: (Units=1/GPa)
#
#
# Indices 1 2 3 4 5 6 
#
# 1 0.010368 0.001248 -0.000841 0.000000 0.000000 0.000000
# 2 0.001248 0.015473 -0.002051 0.000000 0.000000 0.000000
# 3 -0.000841 -0.002051 0.007135 0.000000 0.000000 0.000000
# 4 0.000000 0.000000 0.000000 0.108585 0.000000 0.000000
# 5 0.000000 0.000000 0.000000 0.000000 0.032836 0.000000
# 6 0.000000 0.000000 0.000000 0.000000 0.000000 0.049433
#
#
# Mechanical properties :
#
#
# Convention : Reuss Voigt Hill
#
# Bulk Modulus (GPa) = 33.68163 39.51756 36.59960
# Shear Modulus (GPa) = 21.09599 31.35481 26.22540
#
# Velocity S-wave (km/s) = 3.27195 3.98895 3.64811
# Velocity P-wave (km/s) = 5.60060 6.42415 6.02646
#
# Compressibility (1/GPa) = 0.02968978
#
# Stress axis : x y z
#
# Youngs Moduli (GPa) = 96.45156 64.63063 140.14439
#
# Poissons Ratio (x) = -0.08069 0.11784
# Poissons Ratio (y) = -0.12041 0.28739
# Poissons Ratio (z) = 0.08110 0.13254
#
# Static dielectric constant tensor:
#      x y z
#    x 3.623310 0.000000 0.000000 
#    y 0.000000 3.134620 0.000000 
#    z 0.000000 0.000000 3.661820 
# 
# 
# High freq. dielectric constant tensor:
#      x y z
#    x 1.782760 0.000000 0.000000 
#    y 0.000000 1.721700 0.000000 
#    z 0.000000 0.000000 1.775560 
# 
# From -- ./inp_files/9603.got.cif
#   From: 2010.03.12/outbox.cif.g09.slc.cpg/sg56_5_cif.got.tgz:9603.got - 2010.04.16 15:33:40.
