data_PCOD8228305
_publ_section_title
;
Structure prediction by ZEFSAII (Michael W. Deem and Ramdas Pophale) SiO2 
 PCOD8228305
Probable space group: P C C N
;
_chemical_formula_sum "Si O2"
_cell_formula_units_Z 48
_cell_length_a 25.089388
_cell_length_b 12.074961
_cell_length_c 7.711785
_cell_angle_alpha 90.000000
_cell_angle_beta 90.000000
_cell_angle_gamma 90.000000
_cell_volume 2336.311344
_symmetry_space_group_name_H-M "P C C N"
_symmetry_group_IT_number 56
_symmetry_cell_setting 'orthorhombic'
loop_
_space_group_symop_operation_xyz
x,y,z
1/2-x,1/2-y,z
1/2+x,-y,1/2-z
-x,1/2+y,1/2-z
-x,-y,-z
1/2+x,1/2+y,-z
1/2-x,y,1/2+z
x,1/2-y,1/2+z
loop_
_atom_site_type_symbol
_atom_site_label
_atom_site_fract_x
_atom_site_fract_y
_atom_site_fract_z
Si Si1 0.039960 0.130604 0.150808
Si Si2 0.192167 0.115516 0.608831
Si Si3 0.187039 0.611513 0.288708
Si Si4 0.427762 0.125922 0.041831
Si Si5 0.250000 0.750000 0.044323
Si Si6 0.429322 0.968513 0.360530
Si Si7 0.250000 0.250000 0.356569
O O1 0.053067 0.257426 0.115874
O O2 0.048909 0.099234 0.352279
O O3 0.977599 0.115692 0.104816
O O4 0.075467 0.053026 0.023602
O O5 0.135297 0.122567 0.520645
O O6 0.236208 0.139040 0.462898
O O7 0.197882 0.216441 0.745942
O O8 0.205716 0.002020 0.702950
O O9 0.227156 0.643157 0.443589
O O10 0.125137 0.602367 0.345150
O O11 0.197834 0.709673 0.150730
O O12 0.443446 0.033393 0.183039
#
# Coordination Sequence:
#
# PCOD8228305 Si02
#       7
#     8   8   8   8   4   8   4
#     4  11  22  40  64  92 127 166 204 260 311 376
#     4  10  21  36  58  90 121 163 200 255 308 374
#     4  10  22  43  63  89 124 159 217 253 317 371
#     4  11  21  40  63  88 128 162 203 252 319 370
#     4  10  22  44  66  86 122 172 202 270 312 368
#     4  10  24  42  62  95 123 164 211 257 312 378
#     4  10  20  34  56  90 126 154 204 244 308 372
#
# _framework density 20.545206
#
# number of rings (size 3 to 8) (size 9 to 14) (size 15 to 20)
#    0.000    1.667    1.667    2.500    2.333    1.333 
#   15.000    0.000    0.000    0.000    0.000    0.000 
#    0.000    0.000    0.000    0.000    0.000    0.000 
#
# Total GULP energy -594833.933161 kJ/mol
# GULP energy per Si atom -12392.373608 kJ/mol
# Density = 2.049844 g / cm^3
# Si number density = 20.545206 Si / 1000 Ang^3
#
#
#
# Elastic Constant Matrix: (Units=GPa)
#
#
# Indices 1 2 3 4 5 6 
#
# 1 104.2373 39.9967 25.6023 0.0000 0.0000 0.0000
# 2 39.9967 77.5603 19.2169 0.0000 0.0000 0.0000
# 3 25.6023 19.2169 105.9743 0.0000 0.0000 0.0000
# 4 0.0000 0.0000 0.0000 173.9795 0.0000 0.0000
# 5 0.0000 0.0000 0.0000 0.0000 396.7222 0.0000
# 6 0.0000 0.0000 0.0000 0.0000 0.0000 32.6105
#
#
#
# Elastic Compliance Matrix: (Units=1/GPa)
#
#
# Indices 1 2 3 4 5 6 
#
# 1 0.012319 -0.005879 -0.001910 0.000000 0.000000 0.000000
# 2 -0.005879 0.016306 -0.001536 0.000000 0.000000 0.000000
# 3 -0.001910 -0.001536 0.010176 0.000000 0.000000 0.000000
# 4 0.000000 0.000000 0.000000 0.005748 0.000000 0.000000
# 5 0.000000 0.000000 0.000000 0.000000 0.002521 0.000000
# 6 0.000000 0.000000 0.000000 0.000000 0.000000 0.030665
#
#
# Mechanical properties :
#
#
# Convention : Reuss Voigt Hill
#
# Bulk Modulus (GPa) = 49.62952 50.82264 50.22608
# Shear Modulus (GPa) = 48.49586 134.19283 91.34434
#
# Velocity S-wave (km/s) = 4.86371 8.09059 6.67508
# Velocity P-wave (km/s) = 7.46657 10.58620 9.16016
#
# Compressibility (1/GPa) = 0.02014930
#
# Stress axis : x y z
#
# Youngs Moduli (GPa) = 81.17862 61.32819 98.26783
#
# Poissons Ratio (x) = 0.36056 0.18768
# Poissons Ratio (y) = 0.47727 0.15098
# Poissons Ratio (z) = 0.15504 0.09423
#
# Static dielectric constant tensor:
#      x y z
#    x 3.531030 0.000000 0.000000 
#    y 0.000000 3.620400 0.000000 
#    z 0.000000 0.000000 4.002250 
# 
# 
# High freq. dielectric constant tensor:
#      x y z
#    x 1.797870 0.000000 0.000000 
#    y 0.000000 1.798010 0.000000 
#    z 0.000000 0.000000 1.819920 
# 
# From -- ./inp_files/2800.got.cif
#   From: 2010.03.12/outbox.cif.g09.slc.cpg/sg56_2_cif.got.tgz:2800.got - 2010.04.16 15:33:40.
