data_PCOD8228358
_publ_section_title
;
Structure prediction by ZEFSAII (Michael W. Deem and Ramdas Pophale) SiO2 
 PCOD8228358
Probable space group: P C C N
;
_chemical_formula_sum "Si O2"
_cell_formula_units_Z 56
_cell_length_a 5.043229
_cell_length_b 21.965258
_cell_length_c 27.186529
_cell_angle_alpha 90.000000
_cell_angle_beta 90.000000
_cell_angle_gamma 90.000000
_cell_volume 3011.610210
_symmetry_space_group_name_H-M "P C C N"
_symmetry_group_IT_number 56
_symmetry_cell_setting 'orthorhombic'
loop_
_space_group_symop_operation_xyz
x,y,z
1/2-x,1/2-y,z
1/2+x,-y,1/2-z
-x,1/2+y,1/2-z
-x,-y,-z
1/2+x,1/2+y,-z
1/2-x,y,1/2+z
x,1/2-y,1/2+z
loop_
_atom_site_type_symbol
_atom_site_label
_atom_site_fract_x
_atom_site_fract_y
_atom_site_fract_z
Si Si1 0.865607 0.686884 0.390687
Si Si2 0.623965 0.380495 0.577039
Si Si3 0.024005 0.026404 0.810997
Si Si4 0.504470 0.789631 0.279402
Si Si5 0.974206 0.421203 0.762703
Si Si6 0.687099 0.556497 0.494593
Si Si7 0.413447 0.998351 0.419225
O O1 0.750000 0.750000 0.413117
O O2 0.607517 0.643553 0.386885
O O3 0.986140 0.695361 0.336989
O O4 0.110487 0.661276 0.423676
O O5 0.490045 0.384554 0.521558
O O6 0.679046 0.450221 0.594442
O O7 0.311585 0.055235 0.801929
O O8 0.962844 0.022965 0.868985
O O9 0.813171 0.070895 0.786293
O O10 0.001006 0.958917 0.788034
O O11 0.750000 0.750000 0.261856
O O12 0.509713 0.850725 0.248090
O O13 0.250000 0.750000 0.267083
O O14 0.500000 0.500000 0.500000
O O15 0.829782 0.558321 0.548249
O O16 0.891900 0.544264 0.450665
#
# Coordination Sequence:
#
# PCOD8228358 Si02
#       7
#     8   8   8   8   8   8   8
#     4  11  22  34  52  82 111 149 192 221 280 343
#     4  11  20  34  53  80 116 148 178 230 275 328
#     4  10  22  35  56  80 123 149 179 230 280 354
#     4  11  22  38  58  79 113 152 194 242 273 330
#     4  10  22  37  52  86 114 152 188 221 289 340
#     4   9  20  34  55  84 114 143 189 222 273 344
#     4  10  20  36  56  84 115 151 187 226 280 341
#
# _framework density 18.594705000000001
#
# number of rings (size 3 to 8) (size 9 to 14) (size 15 to 20)
#    0.000    1.714    1.429    3.857    4.000    2.286 
#    0.000    0.000    0.000    0.000    0.000    5.000 
#    0.000    0.000    0.000    0.000    0.000    0.000 
#
# Total GULP energy -693933.235141 kJ/mol
# GULP energy per Si atom -12391.664913 kJ/mol
# Density = 1.855238 g / cm^3
# Si number density = 18.594705 Si / 1000 Ang^3
#
#
#
# Elastic Constant Matrix: (Units=GPa)
#
#
# Indices 1 2 3 4 5 6 
#
# 1 103.5235 36.0782 24.5506 0.0000 0.0000 0.0000
# 2 36.0782 102.5341 38.0898 0.0000 0.0000 0.0000
# 3 24.5506 38.0898 103.6281 0.0000 0.0000 0.0000
# 4 0.0000 0.0000 0.0000 19.3079 0.0000 0.0000
# 5 0.0000 0.0000 0.0000 0.0000 19.0086 0.0000
# 6 0.0000 0.0000 0.0000 0.0000 0.0000 36.5737
#
#
#
# Elastic Compliance Matrix: (Units=1/GPa)
#
#
# Indices 1 2 3 4 5 6 
#
# 1 0.011181 -0.003417 -0.001393 0.000000 0.000000 0.000000
# 2 -0.003417 0.012339 -0.003726 0.000000 0.000000 0.000000
# 3 -0.001393 -0.003726 0.011349 0.000000 0.000000 0.000000
# 4 0.000000 0.000000 0.000000 0.051792 0.000000 0.000000
# 5 0.000000 0.000000 0.000000 0.000000 0.052608 0.000000
# 6 0.000000 0.000000 0.000000 0.000000 0.000000 0.027342
#
#
# Mechanical properties :
#
#
# Convention : Reuss Voigt Hill
#
# Bulk Modulus (GPa) = 56.18577 56.34699 56.26638
# Shear Modulus (GPa) = 26.36917 29.04251 27.70584
#
# Velocity S-wave (km/s) = 3.76985 3.95634 3.86422
# Velocity P-wave (km/s) = 7.01646 7.15812 7.08764
#
# Compressibility (1/GPa) = 0.01779810
#
# Stress axis : x y z
#
# Youngs Moduli (GPa) = 89.43988 81.04260 88.11001
#
# Poissons Ratio (x) = 0.27689 0.12274
# Poissons Ratio (y) = 0.30558 0.32830
# Poissons Ratio (z) = 0.12459 0.30196
#
# Static dielectric constant tensor:
#      x y z
#    x 3.624220 0.000000 0.000000 
#    y 0.000000 3.508300 0.000000 
#    z 0.000000 0.000000 3.487330 
# 
# 
# High freq. dielectric constant tensor:
#      x y z
#    x 1.751270 0.000000 0.000000 
#    y 0.000000 1.699260 0.000000 
#    z 0.000000 0.000000 1.690580 
# 
# From -- ./inp_files/20131.got.cif
#   From: 2010.03.12/outbox.cif.g09.slc.cpg/sg56_11_cif.got.tgz:20131.got - 2010.04.16 15:33:40.
