data_PCOD8228507
_publ_section_title
;
Structure prediction by ZEFSAII (Michael W. Deem and Ramdas Pophale) SiO2 
 PCOD8228507
Probable space group: P C C N
;
_chemical_formula_sum "Si O2"
_cell_formula_units_Z 64
_cell_length_a 12.926861
_cell_length_b 28.084018
_cell_length_c 8.613157
_cell_angle_alpha 90.000000
_cell_angle_beta 90.000000
_cell_angle_gamma 90.000000
_cell_volume 3126.904988
_symmetry_space_group_name_H-M "P C C N"
_symmetry_group_IT_number 56
_symmetry_cell_setting 'orthorhombic'
loop_
_space_group_symop_operation_xyz
x,y,z
1/2-x,1/2-y,z
1/2+x,-y,1/2-z
-x,1/2+y,1/2-z
-x,-y,-z
1/2+x,1/2+y,-z
1/2-x,y,1/2+z
x,1/2-y,1/2+z
loop_
_atom_site_type_symbol
_atom_site_label
_atom_site_fract_x
_atom_site_fract_y
_atom_site_fract_z
Si Si1 0.000437 0.275825 0.625958
Si Si2 0.956208 0.928372 0.072401
Si Si3 0.381111 0.529577 0.847371
Si Si4 0.827918 0.792490 0.321117
Si Si5 0.659621 0.658305 0.997540
Si Si6 0.863585 0.271113 0.345723
Si Si7 0.290472 0.925779 0.050502
Si Si8 0.873358 0.124989 0.740778
O O1 0.901433 0.283908 0.516516
O O2 0.945547 0.269003 0.791173
O O3 0.072314 0.229219 0.591157
O O4 0.072867 0.322383 0.623083
O O5 0.857286 0.898060 0.014177
O O6 0.019875 0.896353 0.194198
O O7 0.911581 0.974361 0.158420
O O8 0.024636 0.941145 0.922347
O O9 0.363864 0.545698 0.669801
O O10 0.278603 0.536813 0.952285
O O11 0.750000 0.750000 0.280846
O O12 0.861817 0.815588 0.159894
O O13 0.774491 0.831680 0.432992
O O14 0.750000 0.250000 0.350794
O O15 0.872580 0.317646 0.235368
O O16 0.220445 0.889926 0.148302
O O17 0.359428 0.894583 0.933476
#
# Coordination Sequence:
#
# PCOD8228507 Si02
#       8
#     8   8   8   8   8   8   8   8
#     4  11  22  41  58  84 123 159 200 250 299 353
#     4  10  20  39  60  87 124 151 195 255 309 367
#     4   9  20  38  62  88 117 158 194 250 316 367
#     4  10  21  38  62  84 116 161 204 246 300 356
#     4  11  22  39  61  87 116 158 203 246 300 359
#     4  12  26  38  59  90 123 165 207 252 299 359
#     4   9  20  38  62  85 114 159 203 244 305 378
#     4  10  21  39  58  83 121 157 200 249 302 360
#
# _framework density 20.467521999999999
#
# number of rings (size 3 to 8) (size 9 to 14) (size 15 to 20)
#    0.000    1.750    2.500    1.500    5.250    2.500 
#    0.000    1.250    0.000    0.000    0.000    0.000 
#    0.000    0.000    0.000    0.000    0.000    0.000 
#
# Total GULP energy -793500.203124 kJ/mol
# GULP energy per Si atom -12398.440674 kJ/mol
# Density = 2.042094 g / cm^3
# Si number density = 20.467522 Si / 1000 Ang^3
#
#
#
# Elastic Constant Matrix: (Units=GPa)
#
#
# Indices 1 2 3 4 5 6 
#
# 1 73.0726 14.3592 2.9036 0.0000 0.0000 0.0000
# 2 14.3592 50.7702 1.0914 0.0000 0.0000 0.0000
# 3 2.9036 1.0914 56.7069 0.0000 0.0000 0.0000
# 4 0.0000 0.0000 0.0000 17.4661 0.0000 0.0000
# 5 0.0000 0.0000 0.0000 0.0000 20.3377 0.0000
# 6 0.0000 0.0000 0.0000 0.0000 0.0000 30.4498
#
#
#
# Elastic Compliance Matrix: (Units=1/GPa)
#
#
# Indices 1 2 3 4 5 6 
#
# 1 0.014515 -0.004091 -0.000665 0.000000 0.000000 0.000000
# 2 -0.004091 0.020858 -0.000192 0.000000 0.000000 0.000000
# 3 -0.000665 -0.000192 0.017672 0.000000 0.000000 0.000000
# 4 0.000000 0.000000 0.000000 0.057254 0.000000 0.000000
# 5 0.000000 0.000000 0.000000 0.000000 0.049170 0.000000
# 6 0.000000 0.000000 0.000000 0.000000 0.000000 0.032841
#
#
# Mechanical properties :
#
#
# Convention : Reuss Voigt Hill
#
# Bulk Modulus (GPa) = 23.17478 24.13980 23.65729
# Shear Modulus (GPa) = 23.08525 24.46374 23.77449
#
# Velocity S-wave (km/s) = 3.36206 3.46098 3.41188
# Velocity P-wave (km/s) = 5.13990 5.27172 5.20623
#
# Compressibility (1/GPa) = 0.04315036
#
# Stress axis : x y z
#
# Youngs Moduli (GPa) = 68.89265 47.94368 56.58586
#
# Poissons Ratio (x) = 0.19614 0.03760
# Poissons Ratio (y) = 0.28184 0.01086
# Poissons Ratio (z) = 0.04578 0.00920
#
# Static dielectric constant tensor:
#      x y z
#    x 3.795210 0.000000 0.000000 
#    y 0.000000 3.639440 0.000000 
#    z 0.000000 0.000000 3.660890 
# 
# 
# High freq. dielectric constant tensor:
#      x y z
#    x 1.803650 0.000000 0.000000 
#    y 0.000000 1.788150 0.000000 
#    z 0.000000 0.000000 1.792770 
# 
# From -- ./inp_files/2961.got.cif
#   From: 2010.03.12/outbox.cif.g09.slc.cpg/sg56_2_cif.got.tgz:2961.got - 2010.04.16 15:33:40.
