data_PCOD8228888
_publ_section_title
;
Structure prediction by ZEFSAII (Michael W. Deem and Ramdas Pophale) SiO2 
 PCOD8228888
Probable space group: P C C N
;
_chemical_formula_sum "Si O2"
_cell_formula_units_Z 32
_cell_length_a 9.965577
_cell_length_b 11.668987
_cell_length_c 13.072638
_cell_angle_alpha 90.000000
_cell_angle_beta 90.000000
_cell_angle_gamma 90.000000
_cell_volume 1520.193391
_symmetry_space_group_name_H-M "P C C N"
_symmetry_group_IT_number 56
_symmetry_cell_setting 'orthorhombic'
loop_
_space_group_symop_operation_xyz
x,y,z
1/2-x,1/2-y,z
1/2+x,-y,1/2-z
-x,1/2+y,1/2-z
-x,-y,-z
1/2+x,1/2+y,-z
1/2-x,y,1/2+z
x,1/2-y,1/2+z
loop_
_atom_site_type_symbol
_atom_site_label
_atom_site_fract_x
_atom_site_fract_y
_atom_site_fract_z
Si Si1 0.606527 0.804246 0.905205
Si Si2 0.624520 0.331540 0.196177
Si Si3 0.675742 0.588573 0.200920
Si Si4 0.942384 0.688940 0.128183
O O1 0.750000 0.750000 0.928284
O O2 0.501294 0.708262 0.870653
O O3 0.620621 0.900802 0.817543
O O4 0.553855 0.858214 0.012146
O O5 0.750000 0.250000 0.175633
O O6 0.660332 0.459778 0.161348
O O7 0.585415 0.329656 0.316786
O O8 0.832231 0.622526 0.197035
O O9 0.592499 0.674819 0.127822
#
# Coordination Sequence:
#
# PCOD8228888 Si02
#       4
#     8   8   8   8
#     4  11  21  43  68  96 127 173 223 259 328 399
#     4  11  26  42  64  98 136 168 216 277 326 383
#     4  10  21  42  67  90 131 171 211 267 327 380
#     4  10  22  42  66  95 125 175 217 260 327 396
#
# _framework density 21.049954
#
# number of rings (size 3 to 8) (size 9 to 14) (size 15 to 20)
#    0.000    1.500    7.500    0.000    7.000    3.000 
#    4.500    0.000    0.000    0.000    0.000    0.000 
#    0.000    0.000    0.000    0.000    0.000    0.000 
#
# Total GULP energy -396750.326069 kJ/mol
# GULP energy per Si atom -12398.447690 kJ/mol
# Density = 2.100204 g / cm^3
# Si number density = 21.049954 Si / 1000 Ang^3
#
#
#
# Elastic Constant Matrix: (Units=GPa)
#
#
# Indices 1 2 3 4 5 6 
#
# 1 88.6431 49.1921 22.5833 0.0000 0.0000 0.0000
# 2 49.1921 143.9926 10.2388 0.0000 0.0000 0.0000
# 3 22.5833 10.2388 127.5653 0.0000 0.0000 0.0000
# 4 0.0000 0.0000 0.0000 8.3391 0.0000 0.0000
# 5 0.0000 0.0000 0.0000 0.0000 23.3213 0.0000
# 6 0.0000 0.0000 0.0000 0.0000 0.0000 15.9322
#
#
#
# Elastic Compliance Matrix: (Units=1/GPa)
#
#
# Indices 1 2 3 4 5 6 
#
# 1 0.014500 -0.004798 -0.002182 0.000000 0.000000 0.000000
# 2 -0.004798 0.008573 0.000161 0.000000 0.000000 0.000000
# 3 -0.002182 0.000161 0.008212 0.000000 0.000000 0.000000
# 4 0.000000 0.000000 0.000000 0.119917 0.000000 0.000000
# 5 0.000000 0.000000 0.000000 0.000000 0.042879 0.000000
# 6 0.000000 0.000000 0.000000 0.000000 0.000000 0.062766
#
#
# Mechanical properties :
#
#
# Convention : Reuss Voigt Hill
#
# Bulk Modulus (GPa) = 56.66609 58.24771 57.45690
# Shear Modulus (GPa) = 18.09186 28.06431 23.07809
#
# Velocity S-wave (km/s) = 2.93486 3.65530 3.31471
# Velocity P-wave (km/s) = 6.20184 6.74879 6.48109
#
# Compressibility (1/GPa) = 0.01764724
#
# Stress axis : x y z
#
# Youngs Moduli (GPa) = 68.96581 116.65046 121.76674
#
# Poissons Ratio (x) = 0.55974 0.26567
# Poissons Ratio (y) = 0.33093 -0.01966
# Poissons Ratio (z) = 0.15047 -0.01883
#
# Static dielectric constant tensor:
#      x y z
#    x 3.743150 0.000000 0.000000 
#    y 0.000000 3.518120 0.000000 
#    z 0.000000 0.000000 3.876330 
# 
# 
# High freq. dielectric constant tensor:
#      x y z
#    x 1.821760 0.000000 0.000000 
#    y 0.000000 1.805350 0.000000 
#    z 0.000000 0.000000 1.821000 
# 
# From -- ./inp_files/10169.got.cif
#   From: 2010.03.12/outbox.cif.g09.slc.cpg/sg56_6_cif.got.tgz:10169.got - 2010.04.16 15:33:40.
