data_PCOD8228563
_publ_section_title
;
Structure prediction by ZEFSAII (Michael W. Deem and Ramdas Pophale) SiO2 
 PCOD8228563
Probable space group: P C C N
;
_chemical_formula_sum "Si O2"
_cell_formula_units_Z 36
_cell_length_a 9.942072
_cell_length_b 12.306849
_cell_length_c 14.274487
_cell_angle_alpha 90.000000
_cell_angle_beta 90.000000
_cell_angle_gamma 90.000000
_cell_volume 1746.563120
_symmetry_space_group_name_H-M "P C C N"
_symmetry_group_IT_number 56
_symmetry_cell_setting 'orthorhombic'
loop_
_space_group_symop_operation_xyz
x,y,z
1/2-x,1/2-y,z
1/2+x,-y,1/2-z
-x,1/2+y,1/2-z
-x,-y,-z
1/2+x,1/2+y,-z
1/2-x,y,1/2+z
x,1/2-y,1/2+z
loop_
_atom_site_type_symbol
_atom_site_label
_atom_site_fract_x
_atom_site_fract_y
_atom_site_fract_z
Si Si1 0.343206 0.645557 0.315080
Si Si2 0.797915 0.526462 0.555139
Si Si3 0.415528 0.507171 0.138779
Si Si4 0.250000 0.250000 0.873201
Si Si5 0.395865 0.233920 0.693779
O O1 0.250000 0.750000 0.301395
O O2 0.288000 0.566790 0.395078
O O3 0.349331 0.583265 0.216694
O O4 0.491819 0.684751 0.347507
O O5 0.810325 0.493829 0.446913
O O6 0.727354 0.643975 0.562750
O O7 0.941445 0.547913 0.603025
O O8 0.443206 0.388834 0.180924
O O9 0.380529 0.259686 0.804800
O O10 0.250000 0.250000 0.643055
#
# Coordination Sequence:
#
# PCOD8228563 Si02
#       5
#     8   8   8   4   8
#     4  12  23  42  71  98 131 176 228 278 340 413
#     4  11  24  41  67  97 134 177 224 280 345 398
#     4  11  23  43  64  97 136 174 223 285 336 399
#     4  10  20  40  66  90 128 180 214 266 342 410
#     4  10  21  40  68  92 130 171 214 268 336 398
#
# _framework density 20.611909000000001
#
# number of rings (size 3 to 8) (size 9 to 14) (size 15 to 20)
#    0.667    0.444    6.667    0.000    1.556    0.889 
#    0.000    1.111    0.000    0.000    0.000    0.000 
#    0.000    0.000    0.000    0.000    0.000    0.000 
#
# Total GULP energy -446256.751968 kJ/mol
# GULP energy per Si atom -12396.020888 kJ/mol
# Density = 2.056500 g / cm^3
# Si number density = 20.611909 Si / 1000 Ang^3
#
#
#
# Elastic Constant Matrix: (Units=GPa)
#
#
# Indices 1 2 3 4 5 6 
#
# 1 88.2113 39.7095 48.5974 0.0000 0.0000 0.0000
# 2 39.7095 156.6126 62.4429 0.0000 0.0000 0.0000
# 3 48.5974 62.4429 96.9860 0.0000 0.0000 0.0000
# 4 0.0000 0.0000 0.0000 11.8512 0.0000 0.0000
# 5 0.0000 0.0000 0.0000 0.0000 25.8984 0.0000
# 6 0.0000 0.0000 0.0000 0.0000 0.0000 35.3038
#
#
#
# Elastic Compliance Matrix: (Units=1/GPa)
#
#
# Indices 1 2 3 4 5 6 
#
# 1 0.015810 -0.001144 -0.007186 0.000000 0.000000 0.000000
# 2 -0.001144 0.008673 -0.005011 0.000000 0.000000 0.000000
# 3 -0.007186 -0.005011 0.017138 0.000000 0.000000 0.000000
# 4 0.000000 0.000000 0.000000 0.084380 0.000000 0.000000
# 5 0.000000 0.000000 0.000000 0.000000 0.038612 0.000000
# 6 0.000000 0.000000 0.000000 0.000000 0.000000 0.028326
#
#
# Mechanical properties :
#
#
# Convention : Reuss Voigt Hill
#
# Bulk Modulus (GPa) = 66.93430 71.47883 69.20656
# Shear Modulus (GPa) = 22.26189 27.34802 24.80496
#
# Velocity S-wave (km/s) = 3.28998 3.64649 3.47281
# Velocity P-wave (km/s) = 6.85391 7.24451 7.05191
#
# Compressibility (1/GPa) = 0.01494002
#
# Stress axis : x y z
#
# Youngs Moduli (GPa) = 63.25118 115.29932 58.35139
#
# Poissons Ratio (x) = 0.13186 0.41929
# Poissons Ratio (y) = 0.07234 0.29240
# Poissons Ratio (z) = 0.45450 0.57776
#
# Static dielectric constant tensor:
#      x y z
#    x 3.694240 0.000000 0.000000 
#    y 0.000000 3.771770 0.000000 
#    z 0.000000 0.000000 3.559370 
# 
# 
# High freq. dielectric constant tensor:
#      x y z
#    x 1.797590 0.000000 0.000000 
#    y 0.000000 1.822400 0.000000 
#    z 0.000000 0.000000 1.793270 
# 
# From -- ./inp_files/11333.got.cif
#   From: 2010.03.12/outbox.cif.g09.slc.cpg/sg56_6_cif.got.tgz:11333.got - 2010.04.16 15:33:40.
