data_PCOD8228135
_publ_section_title
;
Structure prediction by ZEFSAII (Michael W. Deem and Ramdas Pophale) SiO2 
 PCOD8228135
Probable space group: P C C N
;
_chemical_formula_sum "Si O2"
_cell_formula_units_Z 40
_cell_length_a 10.246105
_cell_length_b 8.344693
_cell_length_c 23.730468
_cell_angle_alpha 90.000000
_cell_angle_beta 90.000000
_cell_angle_gamma 90.000000
_cell_volume 2028.969268
_symmetry_space_group_name_H-M "P C C N"
_symmetry_group_IT_number 56
_symmetry_cell_setting 'orthorhombic'
loop_
_space_group_symop_operation_xyz
x,y,z
1/2-x,1/2-y,z
1/2+x,-y,1/2-z
-x,1/2+y,1/2-z
-x,-y,-z
1/2+x,1/2+y,-z
1/2-x,y,1/2+z
x,1/2-y,1/2+z
loop_
_atom_site_type_symbol
_atom_site_label
_atom_site_fract_x
_atom_site_fract_y
_atom_site_fract_z
Si Si1 0.135660 0.874558 0.434621
Si Si2 0.037874 0.919256 0.313636
Si Si3 0.288520 0.932452 0.136235
Si Si4 0.634453 0.635289 0.783599
Si Si5 0.852732 0.886600 0.471343
O O1 0.250000 0.750000 0.449221
O O2 0.131508 0.905473 0.367855
O O3 0.996103 0.812339 0.458675
O O4 0.161816 0.044164 0.465695
O O5 0.994479 0.740139 0.295573
O O6 0.116911 0.999532 0.263268
O O7 0.914623 0.032138 0.325801
O O8 0.250000 0.750000 0.143122
O O9 0.171946 0.047253 0.157895
O O10 0.322171 0.968794 0.071578
O O11 0.750000 0.750000 0.762093
O O12 0.750000 0.750000 0.460979
#
# Coordination Sequence:
#
# PCOD8228135 Si02
#       5
#     8   8   8   8   8
#     4  10  22  38  58  86 117 150 192 245 295 343
#     4  10  21  37  55  83 119 149 193 248 293 346
#     4  10  19  35  59  81 108 151 197 240 294 359
#     4  10  21  36  56  82 114 155 197 239 295 358
#     4  10  21  40  60  83 117 153 195 241 291 359
#
# _framework density 19.714444
#
# number of rings (size 3 to 8) (size 9 to 14) (size 15 to 20)
#    0.000    2.000    0.000    4.800    0.000    5.600 
#    0.000    8.000    0.000    0.000    0.000    0.000 
#    0.000    0.000    0.000    0.000    0.000    0.000 
#
# Total GULP energy -496036.708378 kJ/mol
# GULP energy per Si atom -12400.917709 kJ/mol
# Density = 1.966957 g / cm^3
# Si number density = 19.714444 Si / 1000 Ang^3
#
#
#
# Elastic Constant Matrix: (Units=GPa)
#
#
# Indices 1 2 3 4 5 6 
#
# 1 87.8037 59.3132 37.6278 0.0000 0.0000 0.0000
# 2 59.3132 100.6507 28.6997 0.0000 0.0000 0.0000
# 3 37.6278 28.6997 107.2244 0.0000 0.0000 0.0000
# 4 0.0000 0.0000 0.0000 19.5444 0.0000 0.0000
# 5 0.0000 0.0000 0.0000 0.0000 17.7883 0.0000
# 6 0.0000 0.0000 0.0000 0.0000 0.0000 32.9261
#
#
#
# Elastic Compliance Matrix: (Units=1/GPa)
#
#
# Indices 1 2 3 4 5 6 
#
# 1 0.020611 -0.010917 -0.004311 0.000000 0.000000 0.000000
# 2 -0.010917 0.016538 -0.000596 0.000000 0.000000 0.000000
# 3 -0.004311 -0.000596 0.010998 0.000000 0.000000 0.000000
# 4 0.000000 0.000000 0.000000 0.051166 0.000000 0.000000
# 5 0.000000 0.000000 0.000000 0.000000 0.056217 0.000000
# 6 0.000000 0.000000 0.000000 0.000000 0.000000 0.030371
#
#
# Mechanical properties :
#
#
# Convention : Reuss Voigt Hill
#
# Bulk Modulus (GPa) = 60.60207 60.77336 60.68771
# Shear Modulus (GPa) = 22.41664 25.38762 23.90213
#
# Velocity S-wave (km/s) = 3.37570 3.59244 3.48576
# Velocity P-wave (km/s) = 6.78236 6.93551 6.85936
#
# Compressibility (1/GPa) = 0.01650109
#
# Stress axis : x y z
#
# Youngs Moduli (GPa) = 48.51788 60.46519 90.92153
#
# Poissons Ratio (x) = 0.66008 0.39196
# Poissons Ratio (y) = 0.52966 0.05416
# Poissons Ratio (z) = 0.20916 0.03602
#
# Static dielectric constant tensor:
#      x y z
#    x 3.604880 0.000000 0.000000 
#    y 0.000000 3.411170 0.000000 
#    z 0.000000 0.000000 3.605570 
# 
# 
# High freq. dielectric constant tensor:
#      x y z
#    x 1.765550 0.000000 0.000000 
#    y 0.000000 1.760680 0.000000 
#    z 0.000000 0.000000 1.775260 
# 
# From -- ./inp_files/17979.got.cif
#   From: 2010.03.12/outbox.cif.g09.slc.cpg/sg56_9_cif.got.tgz:17979.got - 2010.04.16 15:33:40.
