data_PCOD8228977
_publ_section_title
;
Structure prediction by ZEFSAII (Michael W. Deem and Ramdas Pophale) SiO2 
 PCOD8228977
Probable space group: P C C N
;
_chemical_formula_sum "Si O2"
_cell_formula_units_Z 32
_cell_length_a 17.221470
_cell_length_b 7.569513
_cell_length_c 11.373607
_cell_angle_alpha 90.000000
_cell_angle_beta 90.000000
_cell_angle_gamma 90.000000
_cell_volume 1482.642265
_symmetry_space_group_name_H-M "P C C N"
_symmetry_group_IT_number 56
_symmetry_cell_setting 'orthorhombic'
loop_
_space_group_symop_operation_xyz
x,y,z
1/2-x,1/2-y,z
1/2+x,-y,1/2-z
-x,1/2+y,1/2-z
-x,-y,-z
1/2+x,1/2+y,-z
1/2-x,y,1/2+z
x,1/2-y,1/2+z
loop_
_atom_site_type_symbol
_atom_site_label
_atom_site_fract_x
_atom_site_fract_y
_atom_site_fract_z
Si Si1 0.339021 0.702742 0.681596
Si Si2 0.428134 0.494370 0.087162
Si Si3 0.602946 0.623944 0.442835
Si Si4 0.064000 0.917287 0.340943
O O1 0.250000 0.750000 0.695130
O O2 0.350094 0.496994 0.649637
O O3 0.382117 0.749081 0.804940
O O4 0.378308 0.823401 0.577898
O O5 0.370003 0.328827 0.059065
O O6 0.458236 0.473912 0.222541
O O7 0.500000 0.500000 0.000000
O O8 0.512404 0.644256 0.408303
O O9 0.612493 0.547085 0.573671
#
# Coordination Sequence:
#
# PCOD8228977 Si02
#       4
#     8   8   8   8
#     4  10  24  42  63  96 139 168 219 281 341 397
#     4  10  22  38  65  96 126 170 224 272 328 405
#     4  11  20  40  67  91 134 173 220 277 325 403
#     4   9  22  39  61 100 124 169 223 268 327 395
#
# _framework density 21.583089000000001
#
# number of rings (size 3 to 8) (size 9 to 14) (size 15 to 20)
#    1.500    0.500    0.000    4.500    3.500    2.000 
#    0.000    0.000    5.500    0.000    0.000    0.000 
#    0.000    0.000    0.000    0.000    0.000    0.000 
#
# Total GULP energy -396508.269032 kJ/mol
# GULP energy per Si atom -12390.883407 kJ/mol
# Density = 2.153396 g / cm^3
# Si number density = 21.583089 Si / 1000 Ang^3
#
#
#
# Elastic Constant Matrix: (Units=GPa)
#
#
# Indices 1 2 3 4 5 6 
#
# 1 90.5341 11.3171 9.0962 0.0000 0.0000 0.0000
# 2 11.3171 123.4669 8.3820 0.0000 0.0000 0.0000
# 3 9.0962 8.3820 101.4278 0.0000 0.0000 0.0000
# 4 0.0000 0.0000 0.0000 29.0285 0.0000 0.0000
# 5 0.0000 0.0000 0.0000 0.0000 17.3004 0.0000
# 6 0.0000 0.0000 0.0000 0.0000 0.0000 23.3949
#
#
#
# Elastic Compliance Matrix: (Units=1/GPa)
#
#
# Indices 1 2 3 4 5 6 
#
# 1 0.011260 -0.000969 -0.000930 0.000000 0.000000 0.000000
# 2 -0.000969 0.008228 -0.000593 0.000000 0.000000 0.000000
# 3 -0.000930 -0.000593 0.009992 0.000000 0.000000 0.000000
# 4 0.000000 0.000000 0.000000 0.034449 0.000000 0.000000
# 5 0.000000 0.000000 0.000000 0.000000 0.057802 0.000000
# 6 0.000000 0.000000 0.000000 0.000000 0.000000 0.042744
#
#
# Mechanical properties :
#
#
# Convention : Reuss Voigt Hill
#
# Bulk Modulus (GPa) = 40.82221 41.44662 41.13442
# Shear Modulus (GPa) = 28.14922 33.05365 30.60143
#
# Velocity S-wave (km/s) = 3.61532 3.91763 3.76951
# Velocity P-wave (km/s) = 6.03179 6.30149 6.16811
#
# Compressibility (1/GPa) = 0.02449647
#
# Stress axis : x y z
#
# Youngs Moduli (GPa) = 88.80916 121.53005 100.08384
#
# Poissons Ratio (x) = 0.11776 0.09305
# Poissons Ratio (y) = 0.08606 0.05936
# Poissons Ratio (z) = 0.08257 0.07208
#
# Static dielectric constant tensor:
#      x y z
#    x 3.327270 0.000000 0.000000 
#    y 0.000000 4.288880 0.000000 
#    z 0.000000 0.000000 3.852180 
# 
# 
# High freq. dielectric constant tensor:
#      x y z
#    x 1.798470 0.000000 0.000000 
#    y 0.000000 1.857900 0.000000 
#    z 0.000000 0.000000 1.847980 
# 
# From -- ./inp_files/8154.got.cif
#   From: 2010.03.12/outbox.cif.g09.slc.cpg/sg56_5_cif.got.tgz:8154.got - 2010.04.16 15:33:40.
