data_PCOD8228633
_publ_section_title
;
Structure prediction by ZEFSAII (Michael W. Deem and Ramdas Pophale) SiO2 
 PCOD8228633
Probable space group: P C C N
;
_chemical_formula_sum "Si O2"
_cell_formula_units_Z 48
_cell_length_a 21.158323
_cell_length_b 21.193228
_cell_length_c 5.171069
_cell_angle_alpha 90.000000
_cell_angle_beta 90.000000
_cell_angle_gamma 90.000000
_cell_volume 2318.775409
_symmetry_space_group_name_H-M "P C C N"
_symmetry_group_IT_number 56
_symmetry_cell_setting 'orthorhombic'
loop_
_space_group_symop_operation_xyz
x,y,z
1/2-x,1/2-y,z
1/2+x,-y,1/2-z
-x,1/2+y,1/2-z
-x,-y,-z
1/2+x,1/2+y,-z
1/2-x,y,1/2+z
x,1/2-y,1/2+z
loop_
_atom_site_type_symbol
_atom_site_label
_atom_site_fract_x
_atom_site_fract_y
_atom_site_fract_z
Si Si1 0.503149 0.774084 0.651009
Si Si2 0.070786 0.958178 0.763232
Si Si3 0.499315 0.582076 0.261832
Si Si4 0.640063 0.720262 0.555366
Si Si5 0.788032 0.464746 0.854673
Si Si6 0.213738 0.112470 0.632269
O O1 0.464748 0.761349 0.382957
O O2 0.520455 0.846668 0.702997
O O3 0.565619 0.733971 0.567488
O O4 0.027875 0.923013 0.551257
O O5 0.142543 0.937830 0.702399
O O6 0.054283 0.935585 0.052034
O O7 0.058860 0.034151 0.758383
O O8 0.671794 0.764395 0.331377
O O9 0.650170 0.648168 0.461940
O O10 0.759372 0.441975 0.127826
O O11 0.798374 0.538897 0.875497
O O12 0.232763 0.132184 0.922154
#
# Coordination Sequence:
#
# PCOD8228633 Si02
#       6
#     8   8   8   8   8   8
#     4  10  21  36  54  80 111 147 186 234 281 349
#     4  10  21  37  61  82 115 154 188 256 285 357
#     4  10  21  38  57  87 113 151 201 235 303 343
#     4  10  21  33  47  70  93 147 185 232 275 306
#     4  10  21  37  56  83 113 149 192 241 288 335
#     4  10  21  35  49  70 104 145 193 239 265 308
#
# _framework density 20.700579999999999
#
# number of rings (size 3 to 8) (size 9 to 14) (size 15 to 20)
#    0.000    2.000    0.000    3.000    4.667    2.000 
#   12.000    0.000    0.000    0.000    0.000    0.000 
#    0.000   46.667    0.000    0.000    0.000    0.000 
#
# Total GULP energy -594687.157615 kJ/mol
# GULP energy per Si atom -12389.315784 kJ/mol
# Density = 2.065346 g / cm^3
# Si number density = 20.700580 Si / 1000 Ang^3
#
#
#
# Elastic Constant Matrix: (Units=GPa)
#
#
# Indices 1 2 3 4 5 6 
#
# 1 57.7933 3.2158 1.2053 0.0000 0.0000 0.0000
# 2 3.2158 56.0164 14.8656 0.0000 0.0000 0.0000
# 3 1.2053 14.8656 141.6918 0.0000 0.0000 0.0000
# 4 0.0000 0.0000 0.0000 25.4869 0.0000 0.0000
# 5 0.0000 0.0000 0.0000 0.0000 23.7568 0.0000
# 6 0.0000 0.0000 0.0000 0.0000 0.0000 11.2593
#
#
#
# Elastic Compliance Matrix: (Units=1/GPa)
#
#
# Indices 1 2 3 4 5 6 
#
# 1 0.017359 -0.000985 -0.000044 0.000000 0.000000 0.000000
# 2 -0.000985 0.018419 -0.001924 0.000000 0.000000 0.000000
# 3 -0.000044 -0.001924 0.007260 0.000000 0.000000 0.000000
# 4 0.000000 0.000000 0.000000 0.039236 0.000000 0.000000
# 5 0.000000 0.000000 0.000000 0.000000 0.042093 0.000000
# 6 0.000000 0.000000 0.000000 0.000000 0.000000 0.088816
#
#
# Mechanical properties :
#
#
# Convention : Reuss Voigt Hill
#
# Bulk Modulus (GPa) = 26.93149 32.67500 29.80325
# Shear Modulus (GPa) = 21.60145 27.84824 24.72485
#
# Velocity S-wave (km/s) = 3.23386 3.67180 3.45976
# Velocity P-wave (km/s) = 5.19443 5.81334 5.51258
#
# Compressibility (1/GPa) = 0.03713125
#
# Stress axis : x y z
#
# Youngs Moduli (GPa) = 57.60783 54.29160 137.74463
#
# Poissons Ratio (x) = 0.05347 0.00611
# Poissons Ratio (y) = 0.05673 0.26503
# Poissons Ratio (z) = 0.00255 0.10446
#
# Static dielectric constant tensor:
#      x y z
#    x 3.287620 0.000000 0.000000 
#    y 0.000000 3.437740 0.000000 
#    z 0.000000 0.000000 4.885280 
# 
# 
# High freq. dielectric constant tensor:
#      x y z
#    x 1.759980 0.000000 0.000000 
#    y 0.000000 1.776460 0.000000 
#    z 0.000000 0.000000 1.852290 
# 
# From -- ./inp_files/869.got.cif
#   From: 2010.03.12/outbox.cif.g09.slc.cpg/sg56_1_cif.got.tgz:869.got - 2010.04.16 15:33:40.
