data_PCOD8228590
_publ_section_title
;
Structure prediction by ZEFSAII (Michael W. Deem and Ramdas Pophale) SiO2 
 PCOD8228590
Probable space group: P C C N
;
_chemical_formula_sum "Si O2"
_cell_formula_units_Z 44
_cell_length_a 7.732022
_cell_length_b 16.080659
_cell_length_c 16.687610
_cell_angle_alpha 90.000000
_cell_angle_beta 90.000000
_cell_angle_gamma 90.000000
_cell_volume 2074.870830
_symmetry_space_group_name_H-M "P C C N"
_symmetry_group_IT_number 56
_symmetry_cell_setting 'orthorhombic'
loop_
_space_group_symop_operation_xyz
x,y,z
1/2-x,1/2-y,z
1/2+x,-y,1/2-z
-x,1/2+y,1/2-z
-x,-y,-z
1/2+x,1/2+y,-z
1/2-x,y,1/2+z
x,1/2-y,1/2+z
loop_
_atom_site_type_symbol
_atom_site_label
_atom_site_fract_x
_atom_site_fract_y
_atom_site_fract_z
Si Si1 0.565454 0.790592 0.630347
Si Si2 0.745346 0.402127 0.598240
Si Si3 0.390162 0.351645 0.122958
Si Si4 0.750000 0.250000 0.476449
Si Si5 0.645940 0.559277 0.033408
Si Si6 0.049612 0.321061 0.189557
O O1 0.750000 0.750000 0.613101
O O2 0.420113 0.743869 0.578665
O O3 0.576649 0.888001 0.608487
O O4 0.512130 0.783833 0.723275
O O5 0.757305 0.333583 0.528565
O O6 0.704622 0.494565 0.562572
O O7 0.601771 0.383444 0.664533
O O8 0.935675 0.404219 0.641092
O O9 0.237882 0.366887 0.188530
O O10 0.444180 0.254018 0.124503
O O11 0.302526 0.376440 0.037352
O O12 0.500000 0.500000 0.000000
#
# Coordination Sequence:
#
# PCOD8228590 Si02
#       6
#     8   8   8   4   8   8
#     4  12  26  44  65 102 133 174 223 283 331 399
#     4  11  22  43  67  95 125 177 218 271 330 390
#     4  10  20  41  66  89 129 170 211 272 318 397
#     4  12  24  38  74  94 126 178 230 266 328 400
#     4  10  22  44  67  94 138 168 223 283 324 389
#     4  11  23  40  67  96 128 173 221 261 342 391
#
# _framework density 21.206137999999999
#
# number of rings (size 3 to 8) (size 9 to 14) (size 15 to 20)
#    0.000    1.091    7.273    0.000    7.636    0.727 
#    6.545    0.000    0.000    0.000    0.000    0.000 
#    0.000    0.000    0.000    0.000    0.000    0.000 
#
# Total GULP energy -545323.114100 kJ/mol
# GULP energy per Si atom -12393.707139 kJ/mol
# Density = 2.115787 g / cm^3
# Si number density = 21.206138 Si / 1000 Ang^3
#
#
#
# Elastic Constant Matrix: (Units=GPa)
#
#
# Indices 1 2 3 4 5 6 
#
# 1 127.6381 19.5529 31.5182 0.0000 0.0000 0.0000
# 2 19.5529 106.2520 32.6523 0.0000 0.0000 0.0000
# 3 31.5182 32.6523 77.8727 0.0000 0.0000 0.0000
# 4 0.0000 0.0000 0.0000 21.2571 0.0000 0.0000
# 5 0.0000 0.0000 0.0000 0.0000 28.6573 0.0000
# 6 0.0000 0.0000 0.0000 0.0000 0.0000 27.1943
#
#
#
# Elastic Compliance Matrix: (Units=1/GPa)
#
#
# Indices 1 2 3 4 5 6 
#
# 1 0.008738 -0.000598 -0.003286 0.000000 0.000000 0.000000
# 2 -0.000598 0.010845 -0.004305 0.000000 0.000000 0.000000
# 3 -0.003286 -0.004305 0.015976 0.000000 0.000000 0.000000
# 4 0.000000 0.000000 0.000000 0.047043 0.000000 0.000000
# 5 0.000000 0.000000 0.000000 0.000000 0.034895 0.000000
# 6 0.000000 0.000000 0.000000 0.000000 0.000000 0.036772
#
#
# Mechanical properties :
#
#
# Convention : Reuss Voigt Hill
#
# Bulk Modulus (GPa) = 52.13534 53.24552 52.69043
# Shear Modulus (GPa) = 28.24206 30.62436 29.43321
#
# Velocity S-wave (km/s) = 3.65332 3.80429 3.72957
# Velocity P-wave (km/s) = 6.51415 6.66782 6.59143
#
# Compressibility (1/GPa) = 0.01918085
#
# Stress axis : x y z
#
# Youngs Moduli (GPa) = 114.44753 92.21113 62.59221
#
# Poissons Ratio (x) = 0.05516 0.20565
# Poissons Ratio (y) = 0.06847 0.26947
# Poissons Ratio (z) = 0.37603 0.39698
#
# Static dielectric constant tensor:
#      x y z
#    x 3.915970 0.000000 0.000000 
#    y 0.000000 2.962840 0.000000 
#    z 0.000000 0.000000 3.784440 
# 
# 
# High freq. dielectric constant tensor:
#      x y z
#    x 1.833390 0.000000 0.000000 
#    y 0.000000 1.822360 0.000000 
#    z 0.000000 0.000000 1.819330 
# 
# From -- ./inp_files/10580.got.cif
#   From: 2010.03.12/outbox.cif.g09.slc.cpg/sg56_6_cif.got.tgz:10580.got - 2010.04.16 15:33:40.
