data_PCOD8228569
_publ_section_title
;
Structure prediction by ZEFSAII (Michael W. Deem and Ramdas Pophale) SiO2 
 PCOD8228569
Probable space group: P C C N
;
_chemical_formula_sum "Si O2"
_cell_formula_units_Z 40
_cell_length_a 7.312911
_cell_length_b 15.591066
_cell_length_c 16.863334
_cell_angle_alpha 90.000000
_cell_angle_beta 90.000000
_cell_angle_gamma 90.000000
_cell_volume 1922.691206
_symmetry_space_group_name_H-M "P C C N"
_symmetry_group_IT_number 56
_symmetry_cell_setting 'orthorhombic'
loop_
_space_group_symop_operation_xyz
x,y,z
1/2-x,1/2-y,z
1/2+x,-y,1/2-z
-x,1/2+y,1/2-z
-x,-y,-z
1/2+x,1/2+y,-z
1/2-x,y,1/2+z
x,1/2-y,1/2+z
loop_
_atom_site_type_symbol
_atom_site_label
_atom_site_fract_x
_atom_site_fract_y
_atom_site_fract_z
Si Si1 0.416073 0.686822 0.336082
Si Si2 0.764791 0.909278 0.538649
Si Si3 0.085996 0.188284 0.824177
Si Si4 0.750000 0.250000 0.416388
Si Si5 0.832578 0.090104 0.510973
Si Si6 0.750000 0.750000 0.926550
O O1 0.250000 0.750000 0.317165
O O2 0.491524 0.646659 0.253597
O O3 0.371099 0.609510 0.396058
O O4 0.571155 0.745923 0.373930
O O5 0.666401 0.888629 0.622041
O O6 0.714665 0.833514 0.479348
O O7 0.985353 0.918721 0.543137
O O8 0.706395 0.004330 0.507637
O O9 0.250000 0.250000 0.798326
O O10 0.936228 0.250072 0.866117
O O11 0.721888 0.167964 0.472831
#
# Coordination Sequence:
#
# PCOD8228569 Si02
#       6
#     8   8   8   4   8   4
#     4  11  22  39  62  93 127 164 208 256 315 378
#     4  10  21  41  66  94 124 163 210 262 313 367
#     4  12  22  40  63  93 127 169 207 258 319 373
#     4  12  22  40  70  92 122 166 216 260 308 368
#     4  10  22  41  67  95 125 161 217 263 306 375
#     4  10  20  40  68  88 120 168 204 258 318 358
#
# _framework density 20.804172999999999
#
# number of rings (size 3 to 8) (size 9 to 14) (size 15 to 20)
#    0.000    1.200    6.000    1.200    0.000    0.800 
#    0.000    8.000    0.000    0.000    0.000    0.000 
#    0.000    0.000    0.000    0.000    0.000    0.000 
#
# Total GULP energy -495789.473779 kJ/mol
# GULP energy per Si atom -12394.736844 kJ/mol
# Density = 2.075682 g / cm^3
# Si number density = 20.804173 Si / 1000 Ang^3
#
#
#
# Elastic Constant Matrix: (Units=GPa)
#
#
# Indices 1 2 3 4 5 6 
#
# 1 91.9844 28.9495 48.7032 0.0000 0.0000 0.0000
# 2 28.9495 145.7918 56.1798 0.0000 0.0000 0.0000
# 3 48.7032 56.1798 140.6793 0.0000 0.0000 0.0000
# 4 0.0000 0.0000 0.0000 16.4014 0.0000 0.0000
# 5 0.0000 0.0000 0.0000 0.0000 10.9215 0.0000
# 6 0.0000 0.0000 0.0000 0.0000 0.0000 25.2039
#
#
#
# Elastic Compliance Matrix: (Units=1/GPa)
#
#
# Indices 1 2 3 4 5 6 
#
# 1 0.013442 -0.001035 -0.004240 0.000000 0.000000 0.000000
# 2 -0.001035 0.008186 -0.002911 0.000000 0.000000 0.000000
# 3 -0.004240 -0.002911 0.009739 0.000000 0.000000 0.000000
# 4 0.000000 0.000000 0.000000 0.060970 0.000000 0.000000
# 5 0.000000 0.000000 0.000000 0.000000 0.091563 0.000000
# 6 0.000000 0.000000 0.000000 0.000000 0.000000 0.039676
#
#
# Mechanical properties :
#
#
# Convention : Reuss Voigt Hill
#
# Bulk Modulus (GPa) = 66.68997 71.79117 69.24057
# Shear Modulus (GPa) = 20.41249 26.81354 23.61301
#
# Velocity S-wave (km/s) = 3.13577 3.59396 3.37265
# Velocity P-wave (km/s) = 6.72580 7.19757 6.96568
#
# Compressibility (1/GPa) = 0.01499476
#
# Stress axis : x y z
#
# Youngs Moduli (GPa) = 74.39176 122.15519 102.68228
#
# Poissons Ratio (x) = 0.12646 0.43541
# Poissons Ratio (y) = 0.07701 0.29889
# Poissons Ratio (z) = 0.31545 0.35557
#
# Static dielectric constant tensor:
#      x y z
#    x 3.938600 0.000000 0.000000 
#    y 0.000000 3.772510 0.000000 
#    z 0.000000 0.000000 3.853000 
# 
# 
# High freq. dielectric constant tensor:
#      x y z
#    x 1.826880 0.000000 0.000000 
#    y 0.000000 1.796720 0.000000 
#    z 0.000000 0.000000 1.808800 
# 
# From -- ./inp_files/14644.got.cif
#   From: 2010.03.12/outbox.cif.g09.slc.cpg/sg56_8_cif.got.tgz:14644.got - 2010.04.16 15:33:40.
