data_PCOD8228249
_publ_section_title
;
Structure prediction by ZEFSAII (Michael W. Deem and Ramdas Pophale) SiO2 
 PCOD8228249
Probable space group: P C C N
;
_chemical_formula_sum "Si O2"
_cell_formula_units_Z 52
_cell_length_a 15.994451
_cell_length_b 11.409110
_cell_length_c 14.802563
_cell_angle_alpha 90.000000
_cell_angle_beta 90.000000
_cell_angle_gamma 90.000000
_cell_volume 2701.207975
_symmetry_space_group_name_H-M "P C C N"
_symmetry_group_IT_number 56
_symmetry_cell_setting 'orthorhombic'
loop_
_space_group_symop_operation_xyz
x,y,z
1/2-x,1/2-y,z
1/2+x,-y,1/2-z
-x,1/2+y,1/2-z
-x,-y,-z
1/2+x,1/2+y,-z
1/2-x,y,1/2+z
x,1/2-y,1/2+z
loop_
_atom_site_type_symbol
_atom_site_label
_atom_site_fract_x
_atom_site_fract_y
_atom_site_fract_z
Si Si1 0.302388 0.633582 0.822807
Si Si2 0.057866 0.793940 0.275299
Si Si3 0.177131 0.973686 0.186063
Si Si4 0.750000 0.750000 0.589802
Si Si5 0.754124 0.500890 0.511089
Si Si6 0.069823 0.972479 0.428063
Si Si7 0.103422 0.326313 0.791077
O O1 0.250000 0.750000 0.842413
O O2 0.392749 0.670490 0.784522
O O3 0.254661 0.550303 0.752481
O O4 0.312932 0.561441 0.915036
O O5 0.104393 0.877921 0.203116
O O6 0.051447 0.852922 0.374064
O O7 0.965527 0.765779 0.241200
O O8 0.143860 0.104940 0.205807
O O9 0.209697 0.963407 0.084866
O O10 0.756593 0.640014 0.523307
O O11 0.670512 0.749638 0.655153
O O12 0.658920 0.457497 0.522944
O O13 0.065579 0.077447 0.357403
O O14 0.000000 0.000000 0.500000
#
# Coordination Sequence:
#
# PCOD8228249 Si02
#       7
#     8   8   8   4   8   8   8
#     4  10  19  41  63  90 127 159 206 265 308 369
#     4  10  22  40  63  94 126 162 212 268 314 370
#     4  10  22  40  62  94 121 165 214 252 324 374
#     4  10  22  42  60  86 130 172 204 262 314 388
#     4  11  22  40  64  92 128 166 216 258 315 385
#     4  10  22  39  56  92 129 160 211 264 312 371
#     4  10  22  41  60  87 129 163 209 257 315 388
#
# _framework density 19.250646
#
# number of rings (size 3 to 8) (size 9 to 14) (size 15 to 20)
#    0.000    1.846    6.154    0.000    2.154    9.846 
#    0.000    1.538    0.000    0.000    0.000    0.000 
#    0.000    0.000    0.000    0.000    0.000    0.000 
#
# Total GULP energy -644873.842441 kJ/mol
# GULP energy per Si atom -12401.420047 kJ/mol
# Density = 1.920683 g / cm^3
# Si number density = 19.250646 Si / 1000 Ang^3
#
#
#
# Elastic Constant Matrix: (Units=GPa)
#
#
# Indices 1 2 3 4 5 6 
#
# 1 104.2971 43.4531 58.7731 0.0000 0.0000 0.0000
# 2 43.4531 64.5340 44.1754 0.0000 0.0000 0.0000
# 3 58.7731 44.1754 144.1179 0.0000 0.0000 0.0000
# 4 0.0000 0.0000 0.0000 14.3416 0.0000 0.0000
# 5 0.0000 0.0000 0.0000 0.0000 34.5771 0.0000
# 6 0.0000 0.0000 0.0000 0.0000 0.0000 30.5270
#
#
#
# Elastic Compliance Matrix: (Units=1/GPa)
#
#
# Indices 1 2 3 4 5 6 
#
# 1 0.014784 -0.007375 -0.003769 0.000000 0.000000 0.000000
# 2 -0.007375 0.023289 -0.004131 0.000000 0.000000 0.000000
# 3 -0.003769 -0.004131 0.009742 0.000000 0.000000 0.000000
# 4 0.000000 0.000000 0.000000 0.069727 0.000000 0.000000
# 5 0.000000 0.000000 0.000000 0.000000 0.028921 0.000000
# 6 0.000000 0.000000 0.000000 0.000000 0.000000 0.032758
#
#
# Mechanical properties :
#
#
# Convention : Reuss Voigt Hill
#
# Bulk Modulus (GPa) = 57.91686 67.30580 62.61133
# Shear Modulus (GPa) = 23.19897 26.99230 25.09564
#
# Velocity S-wave (km/s) = 3.47522 3.74859 3.61449
# Velocity P-wave (km/s) = 6.80102 7.33312 7.07208
#
# Compressibility (1/GPa) = 0.01726613
#
# Stress axis : x y z
#
# Youngs Moduli (GPa) = 67.63919 42.93784 102.64922
#
# Poissons Ratio (x) = 0.31667 0.38684
# Poissons Ratio (y) = 0.49885 0.42405
# Poissons Ratio (z) = 0.25490 0.17738
#
# Static dielectric constant tensor:
#      x y z
#    x 3.552960 0.000000 0.000000 
#    y 0.000000 3.773690 0.000000 
#    z 0.000000 0.000000 3.481300 
# 
# 
# High freq. dielectric constant tensor:
#      x y z
#    x 1.745230 0.000000 0.000000 
#    y 0.000000 1.753640 0.000000 
#    z 0.000000 0.000000 1.743470 
# 
# From -- ./inp_files/12779.got.cif
#   From: 2010.03.12/outbox.cif.g09.slc.cpg/sg56_7_cif.got.tgz:12779.got - 2010.04.16 15:33:40.
