data_PCOD8228704
_publ_section_title
;
Structure prediction by ZEFSAII (Michael W. Deem and Ramdas Pophale) SiO2 
 PCOD8228704
Probable space group: P C C N
;
_chemical_formula_sum "Si O2"
_cell_formula_units_Z 56
_cell_length_a 10.182546
_cell_length_b 16.464814
_cell_length_c 16.834537
_cell_angle_alpha 90.000000
_cell_angle_beta 90.000000
_cell_angle_gamma 90.000000
_cell_volume 2822.372852
_symmetry_space_group_name_H-M "P C C N"
_symmetry_group_IT_number 56
_symmetry_cell_setting 'orthorhombic'
loop_
_space_group_symop_operation_xyz
x,y,z
1/2-x,1/2-y,z
1/2+x,-y,1/2-z
-x,1/2+y,1/2-z
-x,-y,-z
1/2+x,1/2+y,-z
1/2-x,y,1/2+z
x,1/2-y,1/2+z
loop_
_atom_site_type_symbol
_atom_site_label
_atom_site_fract_x
_atom_site_fract_y
_atom_site_fract_z
Si Si1 0.649468 0.465650 0.858645
Si Si2 0.750000 0.250000 0.108062
Si Si3 0.146297 0.812084 0.045057
Si Si4 0.350532 0.034350 0.358646
Si Si5 0.853703 0.687916 0.545057
Si Si6 0.250000 0.250000 0.608062
Si Si7 0.148149 0.594898 0.815635
Si Si8 0.648149 0.905102 0.815634
O O1 0.679561 0.404529 0.931153
O O2 0.500000 0.499000 0.863171
O O3 0.672920 0.415627 0.777750
O O4 0.750687 0.539742 0.865436
O O5 0.831535 0.310734 0.163650
O O6 0.846051 0.197105 0.050751
O O7 0.250000 0.750000 0.086067
O O8 0.000000 0.789786 0.074940
O O9 0.320441 0.095471 0.431154
O O10 0.327081 0.084374 0.277751
O O11 0.249312 0.960259 0.365437
O O12 0.750000 0.750000 0.586068
O O13 0.846050 0.697105 0.449249
O O14 0.168464 0.189267 0.663650
O O15 1.000000 0.569269 0.838775
#
# Coordination Sequence:
#
# PCOD8228704 Si02
#       8
#     8   4   8   8   8   4   8   8
#     4   9  20  39  60  82 111 147 189 230 277 330
#     4  10  22  34  58  82 116 142 184 232 274 330
#     4   9  20  37  56  80 111 148 184 225 276 332
#     4   9  20  39  60  82 111 147 189 230 277 330
#     4   9  20  37  56  80 111 148 184 225 276 332
#     4  10  22  34  58  82 116 142 184 232 274 330
#     4  10  21  38  59  85 112 146 188 231 278 328
#     4  10  21  38  59  85 112 146 188 231 278 328
#
# _framework density 19.841459
#
# number of rings (size 3 to 8) (size 9 to 14) (size 15 to 20)
#    0.857    1.714    0.000    0.857    2.000    4.571 
#    0.000    4.286    0.000    0.000    0.000    0.000 
#    0.000    0.000    0.000    0.000    0.000    0.000 
#
# Total GULP energy -694106.777236 kJ/mol
# GULP energy per Si atom -12394.763879 kJ/mol
# Density = 1.979630 g / cm^3
# Si number density = 19.841459 Si / 1000 Ang^3
#
#
#
# Elastic Constant Matrix: (Units=GPa)
#
#
# Indices 1 2 3 4 5 6 
#
# 1 118.6490 59.3794 21.1157 0.0000 0.0000 0.0000
# 2 59.3794 103.2184 41.4607 0.0000 0.0000 0.0000
# 3 21.1157 41.4607 49.1765 0.0000 0.0000 0.0000
# 4 0.0000 0.0000 0.0000 41.9544 0.0000 0.0000
# 5 0.0000 0.0000 0.0000 0.0000 11.7829 0.0000
# 6 0.0000 0.0000 0.0000 0.0000 0.0000 39.4993
#
#
#
# Elastic Compliance Matrix: (Units=1/GPa)
#
#
# Indices 1 2 3 4 5 6 
#
# 1 0.011868 -0.007229 0.000998 0.000000 0.000000 0.000000
# 2 -0.007229 0.019052 -0.012959 0.000000 0.000000 0.000000
# 3 0.000998 -0.012959 0.030832 0.000000 0.000000 0.000000
# 4 0.000000 0.000000 0.000000 0.023835 0.000000 0.000000
# 5 0.000000 0.000000 0.000000 0.000000 0.084869 0.000000
# 6 0.000000 0.000000 0.000000 0.000000 0.000000 0.025317
#
#
# Mechanical properties :
#
#
# Convention : Reuss Voigt Hill
#
# Bulk Modulus (GPa) = 42.78280 57.21728 50.00004
# Shear Modulus (GPa) = 20.66610 28.58654 24.62632
#
# Velocity S-wave (km/s) = 3.23082 3.79984 3.52682
# Velocity P-wave (km/s) = 5.96043 6.93913 6.46832
#
# Compressibility (1/GPa) = 0.02337388
#
# Stress axis : x y z
#
# Youngs Moduli (GPa) = 84.25913 52.48818 32.43398
#
# Poissons Ratio (x) = 0.37941 -0.03238
# Poissons Ratio (y) = 0.60907 0.42031
# Poissons Ratio (z) = -0.08412 0.68019
#
# Static dielectric constant tensor:
#      x y z
#    x 3.621070 0.000000 0.000000 
#    y 0.000000 3.426630 0.000000 
#    z 0.000000 0.000000 3.411020 
# 
# 
# High freq. dielectric constant tensor:
#      x y z
#    x 1.776230 0.000000 0.000000 
#    y 0.000000 1.765090 0.000000 
#    z 0.000000 0.000000 1.758200 
# 
# From -- ./inp_files/18346.got.cif
#   From: 2010.03.12/outbox.cif.g09.slc.cpg/sg56_10_cif.got.tgz:18346.got - 2010.04.16 15:33:40.
