data_PCOD8228356
_publ_section_title
;
Structure prediction by ZEFSAII (Michael W. Deem and Ramdas Pophale) SiO2 
 PCOD8228356
Probable space group: P C C N
;
_chemical_formula_sum "Si O2"
_cell_formula_units_Z 64
_cell_length_a 30.138769
_cell_length_b 22.437366
_cell_length_c 5.062155
_cell_angle_alpha 90.000000
_cell_angle_beta 90.000000
_cell_angle_gamma 90.000000
_cell_volume 3423.204315
_symmetry_space_group_name_H-M "P C C N"
_symmetry_group_IT_number 56
_symmetry_cell_setting 'orthorhombic'
loop_
_space_group_symop_operation_xyz
x,y,z
1/2-x,1/2-y,z
1/2+x,-y,1/2-z
-x,1/2+y,1/2-z
-x,-y,-z
1/2+x,1/2+y,-z
1/2-x,y,1/2+z
x,1/2-y,1/2+z
loop_
_atom_site_type_symbol
_atom_site_label
_atom_site_fract_x
_atom_site_fract_y
_atom_site_fract_z
Si Si1 0.567966 0.992835 0.147010
Si Si2 0.021744 0.790242 0.219886
Si Si3 0.878112 0.018313 0.133674
Si Si4 0.772932 0.151827 0.216330
Si Si5 0.225318 0.512518 0.334120
Si Si6 0.077266 0.638589 0.384251
Si Si7 0.357208 0.786674 0.106978
Si Si8 0.994833 0.095904 0.505537
O O1 0.593758 0.980744 0.420107
O O2 0.534721 0.049383 0.177754
O O3 0.604514 0.005196 0.925075
O O4 0.540807 0.933554 0.080740
O O5 0.014214 0.762840 0.927347
O O6 0.068995 0.824851 0.161049
O O7 0.991744 0.846099 0.318348
O O8 0.826721 0.000042 0.120757
O O9 0.885959 0.087995 0.060039
O O10 0.739208 0.180599 0.433487
O O11 0.822663 0.162641 0.310270
O O12 0.765253 0.082141 0.188264
O O13 0.254720 0.483501 0.568257
O O14 0.094110 0.686334 0.164481
O O15 0.031847 0.612336 0.262099
O O16 0.350605 0.730293 0.302863
#
# Coordination Sequence:
#
# PCOD8228356 Si02
#       8
#     8   8   8   8   8   8   8   8
#     4  10  23  36  60  83 107 138 185 228 287 322
#     4  12  23  36  54  76 105 146 187 227 274 326
#     4  11  21  37  59  82 103 136 180 230 275 331
#     4  10  21  38  53  67  89 126 170 222 284 338
#     4  10  20  36  56  75 102 133 170 215 273 337
#     4  11  23  38  53  74 105 138 181 234 280 323
#     4  12  26  36  50  71  94 129 176 230 283 327
#     4  10  23  39  57  79 111 144 179 237 280 326
#
# _framework density 18.695934000000001
#
# number of rings (size 3 to 8) (size 9 to 14) (size 15 to 20)
#    0.000    1.250    3.750    2.250    3.500    3.000 
#    0.000    0.000    0.000    0.000    0.000    0.000 
#    0.000    0.000    0.000    0.000    0.000   43.750 
#
# Total GULP energy -793023.540866 kJ/mol
# GULP energy per Si atom -12390.992826 kJ/mol
# Density = 1.865338 g / cm^3
# Si number density = 18.695934 Si / 1000 Ang^3
#
#
#
# Elastic Constant Matrix: (Units=GPa)
#
#
# Indices 1 2 3 4 5 6 
#
# 1 70.2097 17.5690 13.6989 0.0000 0.0000 0.0000
# 2 17.5690 49.9336 8.2955 0.0000 0.0000 0.0000
# 3 13.6989 8.2955 69.8238 0.0000 0.0000 0.0000
# 4 0.0000 0.0000 0.0000 20.8638 0.0000 0.0000
# 5 0.0000 0.0000 0.0000 0.0000 28.8225 0.0000
# 6 0.0000 0.0000 0.0000 0.0000 0.0000 19.1463
#
#
#
# Elastic Compliance Matrix: (Units=1/GPa)
#
#
# Indices 1 2 3 4 5 6 
#
# 1 0.016044 -0.005225 -0.002527 0.000000 0.000000 0.000000
# 2 -0.005225 0.022132 -0.001604 0.000000 0.000000 0.000000
# 3 -0.002527 -0.001604 0.015008 0.000000 0.000000 0.000000
# 4 0.000000 0.000000 0.000000 0.047930 0.000000 0.000000
# 5 0.000000 0.000000 0.000000 0.000000 0.034695 0.000000
# 6 0.000000 0.000000 0.000000 0.000000 0.000000 0.052230
#
#
# Mechanical properties :
#
#
# Convention : Reuss Voigt Hill
#
# Bulk Modulus (GPa) = 29.01002 29.89932 29.45467
# Shear Modulus (GPa) = 22.91050 23.79341 23.35195
#
# Velocity S-wave (km/s) = 3.50441 3.57129 3.53801
# Velocity P-wave (km/s) = 5.65022 5.74740 5.69902
#
# Compressibility (1/GPa) = 0.03447084
#
# Stress axis : x y z
#
# Youngs Moduli (GPa) = 62.33023 45.18432 66.63061
#
# Poissons Ratio (x) = 0.23609 0.16837
# Poissons Ratio (y) = 0.32568 0.10689
# Poissons Ratio (z) = 0.15750 0.07249
#
# Static dielectric constant tensor:
#      x y z
#    x 3.226840 0.000000 0.000000 
#    y 0.000000 3.230050 0.000000 
#    z 0.000000 0.000000 3.765800 
# 
# 
# High freq. dielectric constant tensor:
#      x y z
#    x 1.695450 0.000000 0.000000 
#    y 0.000000 1.676930 0.000000 
#    z 0.000000 0.000000 1.752530 
# 
# From -- ./inp_files/1258.got.cif
#   From: 2010.03.12/outbox.cif.g09.slc.cpg/sg56_1_cif.got.tgz:1258.got - 2010.04.16 15:33:40.
