data_PCOD8228444
_publ_section_title
;
Structure prediction by ZEFSAII (Michael W. Deem and Ramdas Pophale) SiO2 
 PCOD8228444
Probable space group: P C C N
;
_chemical_formula_sum "Si O2"
_cell_formula_units_Z 64
_cell_length_a 5.099498
_cell_length_b 19.346757
_cell_length_c 32.922367
_cell_angle_alpha 90.000000
_cell_angle_beta 90.000000
_cell_angle_gamma 90.000000
_cell_volume 3248.079530
_symmetry_space_group_name_H-M "P C C N"
_symmetry_group_IT_number 56
_symmetry_cell_setting 'orthorhombic'
loop_
_space_group_symop_operation_xyz
x,y,z
1/2-x,1/2-y,z
1/2+x,-y,1/2-z
-x,1/2+y,1/2-z
-x,-y,-z
1/2+x,1/2+y,-z
1/2-x,y,1/2+z
x,1/2-y,1/2+z
loop_
_atom_site_type_symbol
_atom_site_label
_atom_site_fract_x
_atom_site_fract_y
_atom_site_fract_z
Si Si1 0.430909 0.531505 0.383179
Si Si2 0.984692 0.792553 0.296668
Si Si3 0.440968 0.685067 0.384051
Si Si4 0.517543 0.960830 0.202362
Si Si5 0.518678 0.416772 0.763670
Si Si6 0.199419 0.935352 0.499902
Si Si7 0.486838 0.205902 0.027367
Si Si8 0.457588 0.494410 0.067890
O O1 0.306353 0.608969 0.381995
O O2 0.494141 0.503248 0.339014
O O3 0.701484 0.534813 0.408851
O O4 0.197281 0.484357 0.402160
O O5 0.750000 0.750000 0.275945
O O6 0.250000 0.750000 0.298293
O O7 0.887576 0.811962 0.342609
O O8 0.034386 0.859269 0.270356
O O9 0.250000 0.750000 0.383362
O O10 0.602531 0.688793 0.426128
O O11 0.265071 0.911491 0.205904
O O12 0.769130 0.911132 0.206487
O O13 0.516767 0.010334 0.241145
O O14 0.033352 0.864887 0.497397
O O15 0.363755 0.938679 0.542025
O O16 0.411447 0.938203 0.463086
O O17 0.000000 0.000000 0.500000
O O18 0.750000 0.250000 0.026257
O O19 0.250000 0.250000 0.007234
#
# Coordination Sequence:
#
# PCOD8228444 Si02
#       8
#     8   8   8   8   8   8   8   8
#     4  12  22  39  59  92 120 165 202 248 304 362
#     4  11  22  36  56  84 118 162 203 235 285 360
#     4  10  22  37  53  83 129 170 198 230 278 363
#     4  10  21  36  59  80 120 151 196 249 295 346
#     4  10  20  38  55  84 113 158 194 248 296 336
#     4  11  23  42  64  89 126 166 207 260 301 359
#     4  11  25  38  58  88 126 166 203 241 300 364
#     4  11  24  36  64  87 121 157 212 252 305 354
#
# _framework density 19.703952000000001
#
# number of rings (size 3 to 8) (size 9 to 14) (size 15 to 20)
#    0.000    1.250    3.750    1.875    5.250    2.000 
#    0.000    0.000    0.000    0.000    0.000   13.125 
#    0.000    0.000    0.000    0.000    0.000    0.000 
#
# Total GULP energy -792978.995754 kJ/mol
# GULP energy per Si atom -12390.296809 kJ/mol
# Density = 1.965910 g / cm^3
# Si number density = 19.703952 Si / 1000 Ang^3
#
#
#
# Elastic Constant Matrix: (Units=GPa)
#
#
# Indices 1 2 3 4 5 6 
#
# 1 156.7379 50.5410 48.6713 0.0000 0.0000 0.0000
# 2 50.5410 90.8295 35.8954 0.0000 0.0000 0.0000
# 3 48.6713 35.8954 76.0077 0.0000 0.0000 0.0000
# 4 0.0000 0.0000 0.0000 25.8671 0.0000 0.0000
# 5 0.0000 0.0000 0.0000 0.0000 12.1276 0.0000
# 6 0.0000 0.0000 0.0000 0.0000 0.0000 29.7114
#
#
#
# Elastic Compliance Matrix: (Units=1/GPa)
#
#
# Indices 1 2 3 4 5 6 
#
# 1 0.008674 -0.003235 -0.004026 0.000000 0.000000 0.000000
# 2 -0.003235 0.014743 -0.004891 0.000000 0.000000 0.000000
# 3 -0.004026 -0.004891 0.018044 0.000000 0.000000 0.000000
# 4 0.000000 0.000000 0.000000 0.038659 0.000000 0.000000
# 5 0.000000 0.000000 0.000000 0.000000 0.082456 0.000000
# 6 0.000000 0.000000 0.000000 0.000000 0.000000 0.033657
#
#
# Mechanical properties :
#
#
# Convention : Reuss Voigt Hill
#
# Bulk Modulus (GPa) = 58.28743 65.97672 62.13207
# Shear Modulus (GPa) = 22.09885 26.10572 24.10229
#
# Velocity S-wave (km/s) = 3.35258 3.64386 3.50125
# Velocity P-wave (km/s) = 6.68073 7.15963 6.92432
#
# Compressibility (1/GPa) = 0.01715636
#
# Stress axis : x y z
#
# Youngs Moduli (GPa) = 115.29343 67.83076 55.41864
#
# Poissons Ratio (x) = 0.21944 0.22313
# Poissons Ratio (y) = 0.37299 0.27104
# Poissons Ratio (z) = 0.46420 0.33174
#
# Static dielectric constant tensor:
#      x y z
#    x 3.894110 0.000000 0.000000 
#    y 0.000000 3.418230 0.000000 
#    z 0.000000 0.000000 3.681240 
# 
# 
# High freq. dielectric constant tensor:
#      x y z
#    x 1.782570 0.000000 0.000000 
#    y 0.000000 1.737580 0.000000 
#    z 0.000000 0.000000 1.754020 
# 
# From -- ./inp_files/22975.got.cif
#   From: 2010.03.12/outbox.cif.g09.slc.cpg/sg56_12_cif.got.tgz:22975.got - 2010.04.16 15:33:40.
