data_PCOD8228174
_publ_section_title
;
Structure prediction by ZEFSAII (Michael W. Deem and Ramdas Pophale) SiO2 
 PCOD8228174
Probable space group: P C C N
;
_chemical_formula_sum "Si O2"
_cell_formula_units_Z 60
_cell_length_a 22.311362
_cell_length_b 8.447339
_cell_length_c 15.011427
_cell_angle_alpha 90.000000
_cell_angle_beta 90.000000
_cell_angle_gamma 90.000000
_cell_volume 2829.228241
_symmetry_space_group_name_H-M "P C C N"
_symmetry_group_IT_number 56
_symmetry_cell_setting 'orthorhombic'
loop_
_space_group_symop_operation_xyz
x,y,z
1/2-x,1/2-y,z
1/2+x,-y,1/2-z
-x,1/2+y,1/2-z
-x,-y,-z
1/2+x,1/2+y,-z
1/2-x,y,1/2+z
x,1/2-y,1/2+z
loop_
_atom_site_type_symbol
_atom_site_label
_atom_site_fract_x
_atom_site_fract_y
_atom_site_fract_z
Si Si1 0.750000 0.750000 0.770614
Si Si2 0.458218 0.851516 0.847427
Si Si3 0.137816 0.074118 0.792447
Si Si4 0.053577 0.155849 0.247198
Si Si5 0.338141 0.030775 0.636547
Si Si6 0.526527 0.237440 0.463447
Si Si7 0.385997 0.772991 0.193025
Si Si8 0.591200 0.930820 0.525510
O O1 0.698680 0.824099 0.708564
O O2 0.776647 0.890094 0.831654
O O3 0.505834 0.712404 0.825976
O O4 0.399878 0.798820 0.791335
O O5 0.475684 0.031249 0.818235
O O6 0.452650 0.853488 0.955404
O O7 0.079459 0.185496 0.789779
O O8 0.126467 0.998599 0.889052
O O9 0.140572 0.947817 0.711830
O O10 0.106657 0.064012 0.200760
O O11 0.354140 0.109754 0.541631
O O12 0.336176 0.836753 0.641812
O O13 0.553767 0.292777 0.367873
O O14 0.453751 0.219062 0.457173
O O15 0.553311 0.065617 0.478706
#
# Coordination Sequence:
#
# PCOD8228174 Si02
#       8
#     4   8   8   8   8   8   8   8
#     4  10  24  42  64  82 118 160 216 260 328 340
#     4  11  19  36  56  90 129 169 196 243 301 386
#     4  11  22  41  59  89 118 166 205 266 303 371
#     4  10  21  34  56  86 129 161 204 241 306 362
#     4   9  20  40  61  88 117 162 201 267 300 371
#     4  10  20  35  61 100 130 166 193 248 301 395
#     4  10  21  36  64  89 126 157 207 248 318 368
#     4  10  19  36  63  93 131 160 202 239 317 367
#
# _framework density 21.207197000000001
#
# number of rings (size 3 to 8) (size 9 to 14) (size 15 to 20)
#    0.000    1.867    2.667    1.600    1.867    1.067 
#    4.800    2.000    2.933    1.600    0.000    0.000 
#    0.000    0.000    0.000    0.000    0.000    0.000 
#
# Total GULP energy -743291.106420 kJ/mol
# GULP energy per Si atom -12388.185107 kJ/mol
# Density = 2.115893 g / cm^3
# Si number density = 21.207197 Si / 1000 Ang^3
#
#
#
# Elastic Constant Matrix: (Units=GPa)
#
#
# Indices 1 2 3 4 5 6 
#
# 1 52.4547 16.8173 22.7910 0.0000 0.0000 0.0000
# 2 16.8173 96.1710 28.9473 0.0000 0.0000 0.0000
# 3 22.7910 28.9473 116.8635 0.0000 0.0000 0.0000
# 4 0.0000 0.0000 0.0000 16.0121 0.0000 0.0000
# 5 0.0000 0.0000 0.0000 0.0000 17.4314 0.0000
# 6 0.0000 0.0000 0.0000 0.0000 0.0000 26.8559
#
#
#
# Elastic Compliance Matrix: (Units=1/GPa)
#
#
# Indices 1 2 3 4 5 6 
#
# 1 0.021456 -0.002693 -0.003517 0.000000 0.000000 0.000000
# 2 -0.002693 0.011574 -0.002342 0.000000 0.000000 0.000000
# 3 -0.003517 -0.002342 0.009823 0.000000 0.000000 0.000000
# 4 0.000000 0.000000 0.000000 0.062453 0.000000 0.000000
# 5 0.000000 0.000000 0.000000 0.000000 0.057368 0.000000
# 6 0.000000 0.000000 0.000000 0.000000 0.000000 0.037236
#
#
# Mechanical properties :
#
#
# Convention : Reuss Voigt Hill
#
# Bulk Modulus (GPa) = 38.83735 44.73336 41.78536
# Shear Modulus (GPa) = 22.16354 25.18880 23.67617
#
# Velocity S-wave (km/s) = 3.23630 3.45011 3.34491
# Velocity P-wave (km/s) = 5.68488 6.08361 5.88762
#
# Compressibility (1/GPa) = 0.02574841
#
# Stress axis : x y z
#
# Youngs Moduli (GPa) = 46.60753 86.40101 101.80231
#
# Poissons Ratio (x) = 0.23270 0.35806
# Poissons Ratio (y) = 0.12553 0.23838
# Poissons Ratio (z) = 0.16393 0.20232
#
# Static dielectric constant tensor:
#      x y z
#    x 3.564190 0.000000 0.000000 
#    y 0.000000 4.139050 0.000000 
#    z 0.000000 0.000000 3.926370 
# 
# 
# High freq. dielectric constant tensor:
#      x y z
#    x 1.790130 0.000000 0.000000 
#    y 0.000000 1.835410 0.000000 
#    z 0.000000 0.000000 1.832550 
# 
# From -- ./inp_files/13236.got.cif
#   From: 2010.03.12/outbox.cif.g09.slc.cpg/sg56_7_cif.got.tgz:13236.got - 2010.04.16 15:33:40.
