data_PCOD8228545
_publ_section_title
;
Structure prediction by ZEFSAII (Michael W. Deem and Ramdas Pophale) SiO2 
 PCOD8228545
Probable space group: P C C N
;
_chemical_formula_sum "Si O2"
_cell_formula_units_Z 64
_cell_length_a 11.530556
_cell_length_b 17.212979
_cell_length_c 15.026285
_cell_angle_alpha 90.000000
_cell_angle_beta 90.000000
_cell_angle_gamma 90.000000
_cell_volume 2982.345195
_symmetry_space_group_name_H-M "P C C N"
_symmetry_group_IT_number 56
_symmetry_cell_setting 'orthorhombic'
loop_
_space_group_symop_operation_xyz
x,y,z
1/2-x,1/2-y,z
1/2+x,-y,1/2-z
-x,1/2+y,1/2-z
-x,-y,-z
1/2+x,1/2+y,-z
1/2-x,y,1/2+z
x,1/2-y,1/2+z
loop_
_atom_site_type_symbol
_atom_site_label
_atom_site_fract_x
_atom_site_fract_y
_atom_site_fract_z
Si Si1 0.447204 0.578483 0.848149
Si Si2 0.168413 0.566175 0.088914
Si Si3 0.617575 0.253608 0.189349
Si Si4 0.885358 0.276669 0.997357
Si Si5 0.265664 0.032026 0.427224
Si Si6 0.552896 0.986677 0.183308
Si Si7 0.972708 0.870228 0.039618
Si Si8 0.382071 0.886621 0.699190
O O1 0.415495 0.657353 0.796294
O O2 0.336848 0.522004 0.858209
O O3 0.547872 0.547288 0.783523
O O4 0.492671 0.591748 0.947026
O O5 0.251413 0.599688 0.165730
O O6 0.071565 0.512649 0.135404
O O7 0.101872 0.638038 0.043306
O O8 0.238503 0.515813 0.017044
O O9 0.750000 0.250000 0.166247
O O10 0.563817 0.220150 0.097631
O O11 0.591719 0.204276 0.278547
O O12 0.750000 0.250000 0.987010
O O13 0.975802 0.216715 0.949936
O O14 0.146981 0.056812 0.378257
O O15 0.334816 0.112651 0.449442
O O16 0.595558 0.073980 0.204335
O O17 0.031422 0.917064 0.121759
#
# Coordination Sequence:
#
# PCOD8228545 Si02
#       8
#     8   8   8   8   8   8   8   8
#     4  11  22  43  64  95 127 171 218 271 331 395
#     4  12  24  41  69  94 134 176 224 279 339 411
#     4  10  21  35  62  94 128 153 203 282 332 380
#     4  10  20  40  63 100 127 166 219 283 338 395
#     4  12  23  45  63  97 137 178 225 275 343 420
#     4  12  26  38  63  98 131 175 227 278 328 399
#     4  11  23  40  68  94 134 173 216 269 354 410
#     4  12  23  39  64  96 129 167 216 278 339 399
#
# _framework density 21.459620999999999
#
# number of rings (size 3 to 8) (size 9 to 14) (size 15 to 20)
#    0.000    0.750    3.750    6.000    3.500    0.000 
#    0.000    0.625    0.000    0.000    0.000    0.000 
#    0.000    0.000    0.000    0.000    0.000    0.000 
#
# Total GULP energy -793011.428017 kJ/mol
# GULP energy per Si atom -12390.803563 kJ/mol
# Density = 2.141078 g / cm^3
# Si number density = 21.459621 Si / 1000 Ang^3
#
#
#
# Elastic Constant Matrix: (Units=GPa)
#
#
# Indices 1 2 3 4 5 6 
#
# 1 98.2663 39.6435 42.6391 0.0000 0.0000 0.0000
# 2 39.6435 80.1833 33.8147 0.0000 0.0000 0.0000
# 3 42.6391 33.8147 98.9251 0.0000 0.0000 0.0000
# 4 0.0000 0.0000 0.0000 39.9570 0.0000 0.0000
# 5 0.0000 0.0000 0.0000 0.0000 42.6989 0.0000
# 6 0.0000 0.0000 0.0000 0.0000 0.0000 31.4920
#
#
#
# Elastic Compliance Matrix: (Units=1/GPa)
#
#
# Indices 1 2 3 4 5 6 
#
# 1 0.014138 -0.005165 -0.004329 0.000000 0.000000 0.000000
# 2 -0.005165 0.016459 -0.003400 0.000000 0.000000 0.000000
# 3 -0.004329 -0.003400 0.013136 0.000000 0.000000 0.000000
# 4 0.000000 0.000000 0.000000 0.025027 0.000000 0.000000
# 5 0.000000 0.000000 0.000000 0.000000 0.023420 0.000000
# 6 0.000000 0.000000 0.000000 0.000000 0.000000 0.031754
#
#
# Mechanical properties :
#
#
# Convention : Reuss Voigt Hill
#
# Bulk Modulus (GPa) = 55.71857 56.61880 56.16869
# Shear Modulus (GPa) = 32.11253 33.58144 32.84698
#
# Velocity S-wave (km/s) = 3.87255 3.96013 3.91659
# Velocity P-wave (km/s) = 6.78353 6.88123 6.83255
#
# Compressibility (1/GPa) = 0.01794734
#
# Stress axis : x y z
#
# Youngs Moduli (GPa) = 70.73037 60.75829 76.12394
#
# Poissons Ratio (x) = 0.31380 0.32950
# Poissons Ratio (y) = 0.36530 0.25881
# Poissons Ratio (z) = 0.30616 0.20657
#
# Static dielectric constant tensor:
#      x y z
#    x 3.693760 0.000000 0.000000 
#    y 0.000000 3.664020 0.000000 
#    z 0.000000 0.000000 4.079150 
# 
# 
# High freq. dielectric constant tensor:
#      x y z
#    x 1.813520 0.000000 0.000000 
#    y 0.000000 1.828830 0.000000 
#    z 0.000000 0.000000 1.869920 
# 
# From -- ./inp_files/11853.got.cif
#   From: 2010.03.12/outbox.cif.g09.slc.cpg/sg56_6_cif.got.tgz:11853.got - 2010.04.16 15:33:40.
