data_PCOD8228649
_publ_section_title
;
Structure prediction by ZEFSAII (Michael W. Deem and Ramdas Pophale) SiO2 
 PCOD8228649
Probable space group: P C C N
;
_chemical_formula_sum "Si O2"
_cell_formula_units_Z 60
_cell_length_a 13.403160
_cell_length_b 20.690750
_cell_length_c 11.812998
_cell_angle_alpha 90.000000
_cell_angle_beta 90.000000
_cell_angle_gamma 90.000000
_cell_volume 3275.997531
_symmetry_space_group_name_H-M "P C C N"
_symmetry_group_IT_number 56
_symmetry_cell_setting 'orthorhombic'
loop_
_space_group_symop_operation_xyz
x,y,z
1/2-x,1/2-y,z
1/2+x,-y,1/2-z
-x,1/2+y,1/2-z
-x,-y,-z
1/2+x,1/2+y,-z
1/2-x,y,1/2+z
x,1/2-y,1/2+z
loop_
_atom_site_type_symbol
_atom_site_label
_atom_site_fract_x
_atom_site_fract_y
_atom_site_fract_z
Si Si1 0.449759 0.524775 0.327169
Si Si2 0.850523 0.490125 0.940268
Si Si3 0.806247 0.350438 0.862191
Si Si4 0.250000 0.750000 0.476414
Si Si5 0.582983 0.159965 0.263772
Si Si6 0.915997 0.200611 0.166168
Si Si7 0.488704 0.609540 0.013968
Si Si8 0.369875 0.491646 0.082165
O O1 0.387030 0.495318 0.431938
O O2 0.566989 0.511522 0.348601
O O3 0.431896 0.601744 0.324632
O O4 0.415634 0.491803 0.209435
O O5 0.821464 0.415928 0.927679
O O6 0.746907 0.526626 0.914509
O O7 0.825532 0.291959 0.948602
O O8 0.696869 0.340614 0.807495
O O9 0.895918 0.344561 0.773344
O O10 0.312349 0.799072 0.401298
O O11 0.552658 0.226581 0.200886
O O12 0.506880 0.149506 0.368790
O O13 0.992663 0.161938 0.087313
O O14 0.583731 0.563991 0.996399
O O15 0.391710 0.561515 0.022556
#
# Coordination Sequence:
#
# PCOD8228649 Si02
#       8
#     8   8   8   4   8   8   8   8
#     4  10  23  37  53  86 111 153 200 233 297 345
#     4  11  22  37  58  79 117 152 190 250 291 344
#     4  12  20  31  50  80 112 152 179 219 297 356
#     4  12  18  30  46  78 114 152 180 212 292 364
#     4  11  20  35  50  82 119 144 191 232 285 353
#     4  12  20  31  52  78 119 150 184 231 287 364
#     4  10  21  35  55  85 110 151 198 232 292 353
#     4  10  21  39  59  83 117 152 198 244 289 352
#
# _framework density 18.315031999999999
#
# number of rings (size 3 to 8) (size 9 to 14) (size 15 to 20)
#    0.000    1.067    6.667    1.600    1.867    3.200 
#    0.000    0.000    0.000    0.800    0.000    3.733 
#    0.000    0.000    0.000    0.000    0.000    0.000 
#
# Total GULP energy -743631.238903 kJ/mol
# GULP energy per Si atom -12393.853982 kJ/mol
# Density = 1.827335 g / cm^3
# Si number density = 18.315032 Si / 1000 Ang^3
#
#
#
# Elastic Constant Matrix: (Units=GPa)
#
#
# Indices 1 2 3 4 5 6 
#
# 1 96.9844 22.4182 35.5153 0.0000 0.0000 0.0000
# 2 22.4182 71.1502 30.8894 0.0000 0.0000 0.0000
# 3 35.5153 30.8894 96.5107 0.0000 0.0000 0.0000
# 4 0.0000 0.0000 0.0000 34.0337 0.0000 0.0000
# 5 0.0000 0.0000 0.0000 0.0000 18.7522 0.0000
# 6 0.0000 0.0000 0.0000 0.0000 0.0000 21.4973
#
#
#
# Elastic Compliance Matrix: (Units=1/GPa)
#
#
# Indices 1 2 3 4 5 6 
#
# 1 0.012207 -0.002202 -0.003787 0.000000 0.000000 0.000000
# 2 -0.002202 0.016720 -0.004541 0.000000 0.000000 0.000000
# 3 -0.003787 -0.004541 0.013209 0.000000 0.000000 0.000000
# 4 0.000000 0.000000 0.000000 0.029383 0.000000 0.000000
# 5 0.000000 0.000000 0.000000 0.000000 0.053327 0.000000
# 6 0.000000 0.000000 0.000000 0.000000 0.000000 0.046517
#
#
# Mechanical properties :
#
#
# Convention : Reuss Voigt Hill
#
# Bulk Modulus (GPa) = 47.44995 49.14345 48.29670
# Shear Modulus (GPa) = 25.06915 26.57815 25.82365
#
# Velocity S-wave (km/s) = 3.70371 3.81355 3.75903
# Velocity P-wave (km/s) = 6.65236 6.80305 6.72812
#
# Compressibility (1/GPa) = 0.02107484
#
# Stress axis : x y z
#
# Youngs Moduli (GPa) = 81.92153 59.80835 75.70776
#
# Poissons Ratio (x) = 0.13169 0.28673
# Poissons Ratio (y) = 0.18039 0.34380
# Poissons Ratio (z) = 0.31026 0.27160
#
# Static dielectric constant tensor:
#      x y z
#    x 3.176440 0.000000 0.000000 
#    y 0.000000 3.471900 0.000000 
#    z 0.000000 0.000000 3.609430 
# 
# 
# High freq. dielectric constant tensor:
#      x y z
#    x 1.666240 0.000000 0.000000 
#    y 0.000000 1.704440 0.000000 
#    z 0.000000 0.000000 1.728980 
# 
# From -- ./inp_files/8102.got.cif
#   From: 2010.03.12/outbox.cif.g09.slc.cpg/sg56_5_cif.got.tgz:8102.got - 2010.04.16 15:33:40.
