data_PCOD8228034
_publ_section_title
;
Structure prediction by ZEFSAII (Michael W. Deem and Ramdas Pophale) SiO2 
 PCOD8228034
Probable space group: P C C N
;
_chemical_formula_sum "Si O2"
_cell_formula_units_Z 64
_cell_length_a 21.006999
_cell_length_b 16.106780
_cell_length_c 9.655250
_cell_angle_alpha 90.000000
_cell_angle_beta 90.000000
_cell_angle_gamma 90.000000
_cell_volume 3266.903189
_symmetry_space_group_name_H-M "P C C N"
_symmetry_group_IT_number 56
_symmetry_cell_setting 'orthorhombic'
loop_
_space_group_symop_operation_xyz
x,y,z
1/2-x,1/2-y,z
1/2+x,-y,1/2-z
-x,1/2+y,1/2-z
-x,-y,-z
1/2+x,1/2+y,-z
1/2-x,y,1/2+z
x,1/2-y,1/2+z
loop_
_atom_site_type_symbol
_atom_site_label
_atom_site_fract_x
_atom_site_fract_y
_atom_site_fract_z
Si Si1 0.133686 0.011658 0.881471
Si Si2 0.046236 0.168846 0.301514
Si Si3 0.733949 0.444256 0.665718
Si Si4 0.438624 0.173492 0.478901
Si Si5 0.913282 0.400928 0.857758
Si Si6 0.092276 0.992510 0.363746
Si Si7 0.222781 0.839917 0.592109
Si Si8 0.953426 0.064614 0.923965
O O1 0.209975 0.010172 0.867952
O O2 0.099858 0.979326 0.741982
O O3 0.109991 0.103953 0.919905
O O4 0.114835 0.944919 0.001703
O O5 0.073804 0.241893 0.397313
O O6 0.070676 0.182448 0.144195
O O7 0.969704 0.158048 0.302436
O O8 0.075549 0.088340 0.373169
O O9 0.668086 0.491864 0.651489
O O10 0.740974 0.409588 0.819530
O O11 0.735322 0.363889 0.566421
O O12 0.512809 0.152946 0.445225
O O13 0.851985 0.341337 0.869908
O O14 0.931752 0.441425 0.004163
O O15 0.053954 0.952059 0.237489
O O16 0.250000 0.750000 0.624314
O O17 0.000000 0.000000 0.000000
#
# Coordination Sequence:
#
# PCOD8228034 Si02
#       8
#     8   8   8   8   8   8   8   8
#     4  10  19  42  63  84 120 158 211 243 298 375
#     4  12  24  41  57  92 122 153 204 252 316 357
#     4  10  22  37  65  88 115 168 202 242 297 365
#     4  11  25  38  62  90 118 160 198 260 310 353
#     4  10  23  38  61  90 123 162 201 253 301 367
#     4  11  22  39  63  90 121 159 207 249 299 364
#     4  10  21  39  57  92 127 156 200 250 302 355
#     4  10  18  38  64  85 113 163 201 240 306 361
#
# _framework density 19.590416999999999
#
# number of rings (size 3 to 8) (size 9 to 14) (size 15 to 20)
#    0.000    1.500    3.750    2.250    3.500    2.000 
#    2.250    0.625    0.000    1.500    0.000    0.000 
#    0.000    0.000    0.000    0.000    0.000    0.000 
#
# Total GULP energy -793495.263685 kJ/mol
# GULP energy per Si atom -12398.363495 kJ/mol
# Density = 1.954583 g / cm^3
# Si number density = 19.590417 Si / 1000 Ang^3
#
#
#
# Elastic Constant Matrix: (Units=GPa)
#
#
# Indices 1 2 3 4 5 6 
#
# 1 80.9873 34.6522 19.9916 0.0000 0.0000 0.0000
# 2 34.6522 90.8463 33.0636 0.0000 0.0000 0.0000
# 3 19.9916 33.0636 112.7497 0.0000 0.0000 0.0000
# 4 0.0000 0.0000 0.0000 26.2587 0.0000 0.0000
# 5 0.0000 0.0000 0.0000 0.0000 27.6281 0.0000
# 6 0.0000 0.0000 0.0000 0.0000 0.0000 25.4069
#
#
#
# Elastic Compliance Matrix: (Units=1/GPa)
#
#
# Indices 1 2 3 4 5 6 
#
# 1 0.014875 -0.005277 -0.001090 0.000000 0.000000 0.000000
# 2 -0.005277 0.014195 -0.003227 0.000000 0.000000 0.000000
# 3 -0.001090 -0.003227 0.010009 0.000000 0.000000 0.000000
# 4 0.000000 0.000000 0.000000 0.038083 0.000000 0.000000
# 5 0.000000 0.000000 0.000000 0.000000 0.036195 0.000000
# 6 0.000000 0.000000 0.000000 0.000000 0.000000 0.039359
#
#
# Mechanical properties :
#
#
# Convention : Reuss Voigt Hill
#
# Bulk Modulus (GPa) = 50.27553 51.11090 50.69321
# Shear Modulus (GPa) = 28.00599 28.98379 28.49489
#
# Velocity S-wave (km/s) = 3.78507 3.85058 3.81797
# Velocity P-wave (km/s) = 6.69488 6.77611 6.73562
#
# Compressibility (1/GPa) = 0.01989039
#
# Stress axis : x y z
#
# Youngs Moduli (GPa) = 67.22883 70.44772 99.91249
#
# Poissons Ratio (x) = 0.37176 0.10890
# Poissons Ratio (y) = 0.35477 0.32241
# Poissons Ratio (z) = 0.07327 0.22733
#
# Static dielectric constant tensor:
#      x y z
#    x 3.921620 0.000000 0.000000 
#    y 0.000000 3.373480 0.000000 
#    z 0.000000 0.000000 3.845930 
# 
# 
# High freq. dielectric constant tensor:
#      x y z
#    x 1.762920 0.000000 0.000000 
#    y 0.000000 1.738640 0.000000 
#    z 0.000000 0.000000 1.783750 
# 
# From -- ./inp_files/4832.got.cif
#   From: 2010.03.12/outbox.cif.g09.slc.cpg/sg56_3_cif.got.tgz:4832.got - 2010.04.16 15:33:40.
