data_PCOD8228696
_publ_section_title
;
Structure prediction by ZEFSAII (Michael W. Deem and Ramdas Pophale) SiO2 
 PCOD8228696
Probable space group: P C C N
;
_chemical_formula_sum "Si O2"
_cell_formula_units_Z 56
_cell_length_a 15.126275
_cell_length_b 6.105601
_cell_length_c 28.991756
_cell_angle_alpha 90.000000
_cell_angle_beta 90.000000
_cell_angle_gamma 90.000000
_cell_volume 2677.533619
_symmetry_space_group_name_H-M "P C C N"
_symmetry_group_IT_number 56
_symmetry_cell_setting 'orthorhombic'
loop_
_space_group_symop_operation_xyz
x,y,z
1/2-x,1/2-y,z
1/2+x,-y,1/2-z
-x,1/2+y,1/2-z
-x,-y,-z
1/2+x,1/2+y,-z
1/2-x,y,1/2+z
x,1/2-y,1/2+z
loop_
_atom_site_type_symbol
_atom_site_label
_atom_site_fract_x
_atom_site_fract_y
_atom_site_fract_z
Si Si1 0.250000 0.750000 0.691470
Si Si2 0.379112 0.097395 0.468236
Si Si3 0.598127 0.519424 0.597527
Si Si4 0.460615 0.206164 0.559338
Si Si5 0.116014 0.422199 0.225552
Si Si6 0.962676 0.782118 0.689992
Si Si7 0.750000 0.250000 0.560862
Si Si8 0.601865 0.539797 0.846286
O O1 0.296473 0.571854 0.724480
O O2 0.178981 0.638809 0.657848
O O3 0.362814 0.270441 0.427923
O O4 0.393502 0.229688 0.516203
O O5 0.465997 0.966454 0.454915
O O6 0.292865 0.939484 0.471566
O O7 0.506804 0.436629 0.573307
O O8 0.581807 0.568398 0.651049
O O9 0.672730 0.333462 0.594624
O O10 0.402338 0.116773 0.601263
O O11 0.112503 0.302589 0.274966
O O12 0.122771 0.247841 0.184856
O O13 0.029547 0.571654 0.219771
O O14 0.009210 0.571496 0.667331
#
# Coordination Sequence:
#
# PCOD8228696 Si02
#       8
#     4   8   8   8   8   8   4   8
#     4  10  26  41  63  92 136 160 204 263 333 368
#     4  10  21  40  61  96 127 168 207 270 312 383
#     4  11  21  41  65  96 125 172 209 270 309 383
#     4  10  21  37  69  93 123 162 221 257 318 373
#     4  11  22  43  65  96 124 166 207 270 311 389
#     4  11  22  38  74  90 123 166 221 256 321 370
#     4  10  24  41  61  88 140 166 212 257 323 370
#     4  11  21  42  64  96 124 165 208 267 309 386
#
# _framework density 20.914770999999998
#
# number of rings (size 3 to 8) (size 9 to 14) (size 15 to 20)
#    0.000    1.429    4.286    1.286    0.000    0.571 
#    0.000    7.143    0.000    0.000    0.000    0.000 
#    0.000    0.000    0.000    0.000    0.000    0.000 
#
# Total GULP energy -694570.425497 kJ/mol
# GULP energy per Si atom -12403.043312 kJ/mol
# Density = 2.086717 g / cm^3
# Si number density = 20.914771 Si / 1000 Ang^3
#
#
#
# Elastic Constant Matrix: (Units=GPa)
#
#
# Indices 1 2 3 4 5 6 
#
# 1 88.1513 24.3242 39.6356 0.0000 0.0000 0.0000
# 2 24.3242 76.0040 27.2319 0.0000 0.0000 0.0000
# 3 39.6356 27.2319 128.5784 0.0000 0.0000 0.0000
# 4 0.0000 0.0000 0.0000 31.2057 0.0000 0.0000
# 5 0.0000 0.0000 0.0000 0.0000 18.3724 0.0000
# 6 0.0000 0.0000 0.0000 0.0000 0.0000 32.5766
#
#
#
# Elastic Compliance Matrix: (Units=1/GPa)
#
#
# Indices 1 2 3 4 5 6 
#
# 1 0.013827 -0.003136 -0.003598 0.000000 0.000000 0.000000
# 2 -0.003136 0.014949 -0.002199 0.000000 0.000000 0.000000
# 3 -0.003598 -0.002199 0.009352 0.000000 0.000000 0.000000
# 4 0.000000 0.000000 0.000000 0.032045 0.000000 0.000000
# 5 0.000000 0.000000 0.000000 0.000000 0.054429 0.000000
# 6 0.000000 0.000000 0.000000 0.000000 0.000000 0.030697
#
#
# Mechanical properties :
#
#
# Convention : Reuss Voigt Hill
#
# Bulk Modulus (GPa) = 49.35508 52.79079 51.07294
# Shear Modulus (GPa) = 27.78992 29.86707 28.82849
#
# Velocity S-wave (km/s) = 3.64912 3.78304 3.71668
# Velocity P-wave (km/s) = 6.43461 6.66165 6.54911
#
# Compressibility (1/GPa) = 0.02026134
#
# Stress axis : x y z
#
# Youngs Moduli (GPa) = 72.32028 66.89468 106.92497
#
# Poissons Ratio (x) = 0.20979 0.38474
# Poissons Ratio (y) = 0.22680 0.23516
# Poissons Ratio (z) = 0.26023 0.14712
#
# Static dielectric constant tensor:
#      x y z
#    x 3.782280 0.000000 0.000000 
#    y 0.000000 3.983170 0.000000 
#    z 0.000000 0.000000 3.723100 
# 
# 
# High freq. dielectric constant tensor:
#      x y z
#    x 1.810410 0.000000 0.000000 
#    y 0.000000 1.832710 0.000000 
#    z 0.000000 0.000000 1.808130 
# 
# From -- ./inp_files/22923.got.cif
#   From: 2010.03.12/outbox.cif.g09.slc.cpg/sg56_12_cif.got.tgz:22923.got - 2010.04.16 15:33:40.
