data_PCOD8228161
_publ_section_title
;
Structure prediction by ZEFSAII (Michael W. Deem and Ramdas Pophale) SiO2 
 PCOD8228161
Probable space group: P C C N
;
_chemical_formula_sum "Si O2"
_cell_formula_units_Z 60
_cell_length_a 10.533313
_cell_length_b 31.629108
_cell_length_c 9.042403
_cell_angle_alpha 90.000000
_cell_angle_beta 90.000000
_cell_angle_gamma 90.000000
_cell_volume 3012.560604
_symmetry_space_group_name_H-M "P C C N"
_symmetry_group_IT_number 56
_symmetry_cell_setting 'orthorhombic'
loop_
_space_group_symop_operation_xyz
x,y,z
1/2-x,1/2-y,z
1/2+x,-y,1/2-z
-x,1/2+y,1/2-z
-x,-y,-z
1/2+x,1/2+y,-z
1/2-x,y,1/2+z
x,1/2-y,1/2+z
loop_
_atom_site_type_symbol
_atom_site_label
_atom_site_fract_x
_atom_site_fract_y
_atom_site_fract_z
Si Si1 0.336666 0.692374 0.912617
Si Si2 0.527542 0.000668 0.266974
Si Si3 0.127384 0.552984 0.470045
Si Si4 0.580996 0.925145 0.871164
Si Si5 0.699787 0.922586 0.168524
Si Si6 0.750000 0.250000 0.843920
Si Si7 0.489734 0.875947 0.302093
Si Si8 0.652349 0.116148 0.001424
O O1 0.348776 0.725568 0.047223
O O2 0.317549 0.715844 0.757422
O O3 0.470463 0.668814 0.885219
O O4 0.224398 0.658390 0.945105
O O5 0.601663 0.033985 0.369584
O O6 0.482272 0.028139 0.125764
O O7 0.398498 0.983474 0.347081
O O8 0.622665 0.963712 0.222272
O O9 0.028081 0.589833 0.431380
O O10 0.267566 0.573284 0.469960
O O11 0.653039 0.919867 0.714256
O O12 0.475826 0.889021 0.900726
O O13 0.693616 0.922610 0.991641
O O14 0.629031 0.880719 0.232263
O O15 0.382746 0.881447 0.172386
#
# Coordination Sequence:
#
# PCOD8228161 Si02
#       8
#     8   8   8   8   8   4   8   8
#     4  10  19  36  59  93 124 148 177 227 295 365
#     4  10  22  36  55  77 110 153 196 269 313 344
#     4   9  21  34  53  81 109 145 200 241 304 359
#     4  11  25  38  58  78 111 156 210 255 304 346
#     4  10  24  41  53  79 110 154 212 256 300 347
#     4  10  20  32  60  98 128 140 172 224 294 374
#     4   9  19  37  55  78 115 153 188 237 280 356
#     4  10  21  37  57  83 115 158 196 236 295 361
#
# _framework density 19.916612000000001
#
# number of rings (size 3 to 8) (size 9 to 14) (size 15 to 20)
#    0.000    2.133    1.333    0.400   11.200    2.133 
#    0.000    0.000    0.000    0.000    0.000    5.600 
#    0.000    0.000    0.000    0.000    0.000    0.000 
#
# Total GULP energy -743416.565088 kJ/mol
# GULP energy per Si atom -12390.276085 kJ/mol
# Density = 1.987128 g / cm^3
# Si number density = 19.916612 Si / 1000 Ang^3
#
#
#
# Elastic Constant Matrix: (Units=GPa)
#
#
# Indices 1 2 3 4 5 6 
#
# 1 61.1522 19.6352 8.5762 0.0000 0.0000 0.0000
# 2 19.6352 89.6543 27.7952 0.0000 0.0000 0.0000
# 3 8.5762 27.7952 57.7832 0.0000 0.0000 0.0000
# 4 0.0000 0.0000 0.0000 34.3758 0.0000 0.0000
# 5 0.0000 0.0000 0.0000 0.0000 24.6646 0.0000
# 6 0.0000 0.0000 0.0000 0.0000 0.0000 21.9257
#
#
#
# Elastic Compliance Matrix: (Units=1/GPa)
#
#
# Indices 1 2 3 4 5 6 
#
# 1 0.017629 -0.003584 -0.000892 0.000000 0.000000 0.000000
# 2 -0.003584 0.013838 -0.006124 0.000000 0.000000 0.000000
# 3 -0.000892 -0.006124 0.020384 0.000000 0.000000 0.000000
# 4 0.000000 0.000000 0.000000 0.029090 0.000000 0.000000
# 5 0.000000 0.000000 0.000000 0.000000 0.040544 0.000000
# 6 0.000000 0.000000 0.000000 0.000000 0.000000 0.045609
#
#
# Mechanical properties :
#
#
# Convention : Reuss Voigt Hill
#
# Bulk Modulus (GPa) = 32.62747 35.62256 34.12501
# Shear Modulus (GPa) = 25.18746 26.36542 25.77644
#
# Velocity S-wave (km/s) = 3.56004 3.64234 3.60143
# Velocity P-wave (km/s) = 5.77201 5.96771 5.87068
#
# Compressibility (1/GPa) = 0.03064902
#
# Stress axis : x y z
#
# Youngs Moduli (GPa) = 56.72586 72.26676 49.05699
#
# Poissons Ratio (x) = 0.25902 0.04378
# Poissons Ratio (y) = 0.20332 0.30044
# Poissons Ratio (z) = 0.05062 0.44258
#
# Static dielectric constant tensor:
#      x y z
#    x 3.367450 0.000000 0.000000 
#    y 0.000000 3.684720 0.000000 
#    z 0.000000 0.000000 3.782770 
# 
# 
# High freq. dielectric constant tensor:
#      x y z
#    x 1.746790 0.000000 0.000000 
#    y 0.000000 1.755890 0.000000 
#    z 0.000000 0.000000 1.793800 
# 
# From -- ./inp_files/2952.got.cif
#   From: 2010.03.12/outbox.cif.g09.slc.cpg/sg56_2_cif.got.tgz:2952.got - 2010.04.16 15:33:40.
