data_PCOD8228088
_publ_section_title
;
Structure prediction by ZEFSAII (Michael W. Deem and Ramdas Pophale) SiO2 
 PCOD8228088
Probable space group: P C C N
;
_chemical_formula_sum "Si O2"
_cell_formula_units_Z 48
_cell_length_a 12.287419
_cell_length_b 11.663632
_cell_length_c 15.610864
_cell_angle_alpha 90.000000
_cell_angle_beta 90.000000
_cell_angle_gamma 90.000000
_cell_volume 2237.285546
_symmetry_space_group_name_H-M "P C C N"
_symmetry_group_IT_number 56
_symmetry_cell_setting 'orthorhombic'
loop_
_space_group_symop_operation_xyz
x,y,z
1/2-x,1/2-y,z
1/2+x,-y,1/2-z
-x,1/2+y,1/2-z
-x,-y,-z
1/2+x,1/2+y,-z
1/2-x,y,1/2+z
x,1/2-y,1/2+z
loop_
_atom_site_type_symbol
_atom_site_label
_atom_site_fract_x
_atom_site_fract_y
_atom_site_fract_z
Si Si1 0.731066 0.628451 0.834457
Si Si2 0.870177 0.799794 0.128113
Si Si3 0.190134 0.964458 0.808299
Si Si4 0.599468 0.647501 0.476860
Si Si5 0.084464 0.542746 0.881822
Si Si6 0.481783 0.362836 0.244667
O O1 0.750000 0.750000 0.784762
O O2 0.779529 0.523138 0.781839
O O3 0.785569 0.639186 0.927367
O O4 0.599280 0.620446 0.836967
O O5 0.750000 0.750000 0.142189
O O6 0.865953 0.937532 0.132648
O O7 0.954363 0.750384 0.199661
O O8 0.910613 0.762665 0.033287
O O9 0.296959 0.910437 0.853161
O O10 0.105329 0.861128 0.790721
O O11 0.601014 0.537753 0.536997
O O12 0.497797 0.644952 0.409636
O O13 0.029928 0.474206 0.804568
#
# Coordination Sequence:
#
# PCOD8228088 Si02
#       6
#     8   8   8   8   8   8
#     4  11  19  32  57  86 108 141 205 240 281 345
#     4  11  18  36  57  90 120 151 202 252 288 342
#     4  11  19  35  57  86 121 151 192 252 292 343
#     4  10  19  32  57  86 111 150 190 245 296 345
#     4   9  19  33  53  88 114 148 190 243 302 348
#     4  10  19  33  55  88 117 148 193 250 289 348
#
# _framework density 21.45457
#
# number of rings (size 3 to 8) (size 9 to 14) (size 15 to 20)
#    0.000    1.667    8.333    0.500    0.000    0.000 
#    0.000    0.833    0.000    9.000    8.667    0.000 
#    0.000    0.000    0.000    0.000    0.000    0.000 
#
# Total GULP energy -594716.671185 kJ/mol
# GULP energy per Si atom -12389.930650 kJ/mol
# Density = 2.140574 g / cm^3
# Si number density = 21.454570 Si / 1000 Ang^3
#
#
#
# Elastic Constant Matrix: (Units=GPa)
#
#
# Indices 1 2 3 4 5 6 
#
# 1 142.4804 16.5988 42.4712 0.0000 0.0000 0.0000
# 2 16.5988 25.7827 5.1138 0.0000 0.0000 0.0000
# 3 42.4712 5.1138 78.2927 0.0000 0.0000 0.0000
# 4 0.0000 0.0000 0.0000 3.5615 0.0000 0.0000
# 5 0.0000 0.0000 0.0000 0.0000 21.2010 0.0000
# 6 0.0000 0.0000 0.0000 0.0000 0.0000 32.1165
#
#
#
# Elastic Compliance Matrix: (Units=1/GPa)
#
#
# Indices 1 2 3 4 5 6 
#
# 1 0.008934 -0.004853 -0.004529 0.000000 0.000000 0.000000
# 2 -0.004853 0.041931 -0.000106 0.000000 0.000000 0.000000
# 3 -0.004529 -0.000106 0.015237 0.000000 0.000000 0.000000
# 4 0.000000 0.000000 0.000000 0.280777 0.000000 0.000000
# 5 0.000000 0.000000 0.000000 0.000000 0.047168 0.000000
# 6 0.000000 0.000000 0.000000 0.000000 0.000000 0.031137
#
#
# Mechanical properties :
#
#
# Convention : Reuss Voigt Hill
#
# Bulk Modulus (GPa) = 21.22049 41.65815 31.43932
# Shear Modulus (GPa) = 10.87267 23.53393 17.20330
#
# Velocity S-wave (km/s) = 2.25361 3.31557 2.83476
# Velocity P-wave (km/s) = 4.08461 5.84093 5.03986
#
# Compressibility (1/GPa) = 0.04712427
#
# Stress axis : x y z
#
# Youngs Moduli (GPa) = 111.93111 23.84857 65.63157
#
# Poissons Ratio (x) = 0.11574 0.29727
# Poissons Ratio (y) = 0.54324 0.00696
# Poissons Ratio (z) = 0.50698 0.00253
#
# Static dielectric constant tensor:
#      x y z
#    x 4.103660 0.000000 0.000000 
#    y 0.000000 3.773200 0.000000 
#    z 0.000000 0.000000 3.962580 
# 
# 
# High freq. dielectric constant tensor:
#      x y z
#    x 1.840700 0.000000 0.000000 
#    y 0.000000 1.798250 0.000000 
#    z 0.000000 0.000000 1.844290 
# 
# From -- ./inp_files/11626.got.cif
#   From: 2010.03.12/outbox.cif.g09.slc.cpg/sg56_6_cif.got.tgz:11626.got - 2010.04.16 15:33:40.
