data_PCOD8228772
_publ_section_title
;
Structure prediction by ZEFSAII (Michael W. Deem and Ramdas Pophale) SiO2 
 PCOD8228772
Probable space group: P C C N
;
_chemical_formula_sum "Si O2"
_cell_formula_units_Z 56
_cell_length_a 10.883111
_cell_length_b 15.109205
_cell_length_c 16.087431
_cell_angle_alpha 90.000000
_cell_angle_beta 90.000000
_cell_angle_gamma 90.000000
_cell_volume 2645.339212
_symmetry_space_group_name_H-M "P C C N"
_symmetry_group_IT_number 56
_symmetry_cell_setting 'orthorhombic'
loop_
_space_group_symop_operation_xyz
x,y,z
1/2-x,1/2-y,z
1/2+x,-y,1/2-z
-x,1/2+y,1/2-z
-x,-y,-z
1/2+x,1/2+y,-z
1/2-x,y,1/2+z
x,1/2-y,1/2+z
loop_
_atom_site_type_symbol
_atom_site_label
_atom_site_fract_x
_atom_site_fract_y
_atom_site_fract_z
Si Si1 0.002558 0.709567 0.984121
Si Si2 0.672841 0.056856 0.051106
Si Si3 0.228610 0.926582 0.637722
Si Si4 0.885906 0.344090 0.629711
Si Si5 0.250000 0.750000 0.230272
Si Si6 0.637408 0.595870 0.807449
Si Si7 0.750000 0.750000 0.400406
Si Si8 0.042648 0.397545 0.867460
O O1 0.866886 0.733208 0.956652
O O2 0.052595 0.618526 0.944473
O O3 0.096235 0.786654 0.955091
O O4 0.995680 0.693256 0.083846
O O5 0.771914 0.089258 0.119202
O O6 0.623999 0.959001 0.071349
O O7 0.739938 0.061586 0.961708
O O8 0.281174 0.832243 0.669679
O O9 0.085527 0.941621 0.662524
O O10 0.311243 0.997586 0.684997
O O11 0.862601 0.278630 0.708530
O O12 0.007641 0.400633 0.645202
O O13 0.734691 0.663938 0.844298
O O14 0.624424 0.623652 0.711745
#
# Coordination Sequence:
#
# PCOD8228772 Si02
#       8
#     8   8   8   8   4   8   4   8
#     4  10  21  39  64  89 122 171 214 260 318 398
#     4  11  22  40  66  94 124 175 216 268 324 396
#     4  11  25  42  66  93 135 167 221 270 327 391
#     4  11  23  40  67  93 129 167 221 269 332 380
#     4  12  22  42  64 102 126 170 218 272 324 396
#     4  11  24  43  61  99 130 170 213 279 326 385
#     4  10  22  42  66  88 138 168 214 270 340 380
#     4  11  23  39  67  94 125 169 225 258 332 394
#
# _framework density 21.169307
#
# number of rings (size 3 to 8) (size 9 to 14) (size 15 to 20)
#    0.000    1.143    2.857    4.286    4.000    1.143 
#    0.000    0.000    0.000    0.000    0.000    0.000 
#    0.000    0.000    0.000    0.000    0.000    0.000 
#
# Total GULP energy -694260.072446 kJ/mol
# GULP energy per Si atom -12397.501294 kJ/mol
# Density = 2.112112 g / cm^3
# Si number density = 21.169307 Si / 1000 Ang^3
#
#
#
# Elastic Constant Matrix: (Units=GPa)
#
#
# Indices 1 2 3 4 5 6 
#
# 1 78.3266 26.0577 18.8453 0.0000 0.0000 0.0000
# 2 26.0577 98.9573 36.2504 0.0000 0.0000 0.0000
# 3 18.8453 36.2504 90.7588 0.0000 0.0000 0.0000
# 4 0.0000 0.0000 0.0000 32.7241 0.0000 0.0000
# 5 0.0000 0.0000 0.0000 0.0000 13.7952 0.0000
# 6 0.0000 0.0000 0.0000 0.0000 0.0000 29.3876
#
#
#
# Elastic Compliance Matrix: (Units=1/GPa)
#
#
# Indices 1 2 3 4 5 6 
#
# 1 0.014215 -0.003118 -0.001706 0.000000 0.000000 0.000000
# 2 -0.003118 0.012521 -0.004354 0.000000 0.000000 0.000000
# 3 -0.001706 -0.004354 0.013111 0.000000 0.000000 0.000000
# 4 0.000000 0.000000 0.000000 0.030558 0.000000 0.000000
# 5 0.000000 0.000000 0.000000 0.000000 0.072489 0.000000
# 6 0.000000 0.000000 0.000000 0.000000 0.000000 0.034028
#
#
# Mechanical properties :
#
#
# Convention : Reuss Voigt Hill
#
# Bulk Modulus (GPa) = 46.52984 47.81661 47.17322
# Shear Modulus (GPa) = 24.69832 27.64068 26.16950
#
# Velocity S-wave (km/s) = 3.41941 3.61736 3.51978
# Velocity P-wave (km/s) = 6.13330 6.33118 6.23303
#
# Compressibility (1/GPa) = 0.02149159
#
# Stress axis : x y z
#
# Youngs Moduli (GPa) = 70.34883 79.86392 76.26931
#
# Poissons Ratio (x) = 0.24902 0.13013
# Poissons Ratio (y) = 0.21935 0.33206
# Poissons Ratio (z) = 0.12003 0.34771
#
# Static dielectric constant tensor:
#      x y z
#    x 3.770450 0.000000 0.000000 
#    y 0.000000 3.827070 0.000000 
#    z 0.000000 0.000000 3.918950 
# 
# 
# High freq. dielectric constant tensor:
#      x y z
#    x 1.829900 0.000000 0.000000 
#    y 0.000000 1.818230 0.000000 
#    z 0.000000 0.000000 1.834610 
# 
# From -- ./inp_files/11717.got.cif
#   From: 2010.03.12/outbox.cif.g09.slc.cpg/sg56_6_cif.got.tgz:11717.got - 2010.04.16 15:33:40.
