data_PCOD8228969
_publ_section_title
;
Structure prediction by ZEFSAII (Michael W. Deem and Ramdas Pophale) SiO2 
 PCOD8228969
Probable space group: P C C N
;
_chemical_formula_sum "Si O2"
_cell_formula_units_Z 48
_cell_length_a 7.634883
_cell_length_b 24.391349
_cell_length_c 13.090953
_cell_angle_alpha 90.000000
_cell_angle_beta 90.000000
_cell_angle_gamma 90.000000
_cell_volume 2437.863977
_symmetry_space_group_name_H-M "P C C N"
_symmetry_group_IT_number 56
_symmetry_cell_setting 'orthorhombic'
loop_
_space_group_symop_operation_xyz
x,y,z
1/2-x,1/2-y,z
1/2+x,-y,1/2-z
-x,1/2+y,1/2-z
-x,-y,-z
1/2+x,1/2+y,-z
1/2-x,y,1/2+z
x,1/2-y,1/2+z
loop_
_atom_site_type_symbol
_atom_site_label
_atom_site_fract_x
_atom_site_fract_y
_atom_site_fract_z
Si Si1 0.352847 0.572620 0.046521
Si Si2 0.003197 0.311070 0.510731
Si Si3 0.250000 0.250000 0.385605
Si Si4 0.485693 0.684823 0.753397
Si Si5 0.524875 0.065256 0.815647
Si Si6 0.750000 0.250000 0.370950
Si Si7 0.840881 0.990349 0.140052
O O1 0.159480 0.579321 0.093664
O O2 0.497179 0.551471 0.127094
O O3 0.420778 0.629756 0.004076
O O4 0.333630 0.531564 0.953339
O O5 0.903179 0.264668 0.448043
O O6 0.193792 0.301438 0.459533
O O7 0.001071 0.296966 0.629683
O O8 0.389237 0.275797 0.309463
O O9 0.525287 0.620286 0.745393
O O10 0.295426 0.698531 0.704083
O O11 0.343586 0.041133 0.857821
O O12 0.625859 0.022091 0.744855
#
# Coordination Sequence:
#
# PCOD8228969 Si02
#       7
#     8   8   4   8   8   4   8
#     4  11  23  42  64  90 128 166 209 263 316 376
#     4  11  21  40  63  90 123 162 207 255 317 375
#     4  10  24  40  62  94 126 160 210 264 314 376
#     4  11  22  40  63  89 123 163 204 258 317 376
#     4  12  22  41  65  92 125 167 212 256 322 382
#     4  10  22  38  62  88 120 158 206 252 306 376
#     4  11  24  40  63  93 125 165 210 265 314 378
#
# _framework density 19.689368999999999
#
# number of rings (size 3 to 8) (size 9 to 14) (size 15 to 20)
#    0.000    1.000    5.000    2.500    0.000    0.000 
#    0.000    0.000    0.000    0.000    0.000    0.000 
#    0.000    0.000    0.000    0.000    0.000    0.000 
#
# Total GULP energy -594986.235899 kJ/mol
# GULP energy per Si atom -12395.546581 kJ/mol
# Density = 1.964455 g / cm^3
# Si number density = 19.689369 Si / 1000 Ang^3
#
#
#
# Elastic Constant Matrix: (Units=GPa)
#
#
# Indices 1 2 3 4 5 6 
#
# 1 103.9473 41.5082 51.3912 0.0000 0.0000 0.0000
# 2 41.5082 95.3745 45.6201 0.0000 0.0000 0.0000
# 3 51.3912 45.6201 136.5315 0.0000 0.0000 0.0000
# 4 0.0000 0.0000 0.0000 29.6056 0.0000 0.0000
# 5 0.0000 0.0000 0.0000 0.0000 20.4667 0.0000
# 6 0.0000 0.0000 0.0000 0.0000 0.0000 46.4044
#
#
#
# Elastic Compliance Matrix: (Units=1/GPa)
#
#
# Indices 1 2 3 4 5 6 
#
# 1 0.012951 -0.003933 -0.003561 0.000000 0.000000 0.000000
# 2 -0.003933 0.013674 -0.003088 0.000000 0.000000 0.000000
# 3 -0.003561 -0.003088 0.009697 0.000000 0.000000 0.000000
# 4 0.000000 0.000000 0.000000 0.033777 0.000000 0.000000
# 5 0.000000 0.000000 0.000000 0.000000 0.048860 0.000000
# 6 0.000000 0.000000 0.000000 0.000000 0.000000 0.021550
#
#
# Mechanical properties :
#
#
# Convention : Reuss Voigt Hill
#
# Bulk Modulus (GPa) = 65.97643 68.09914 67.03778
# Shear Modulus (GPa) = 29.98926 32.45094 31.22010
#
# Velocity S-wave (km/s) = 3.90695 4.06414 3.98632
# Velocity P-wave (km/s) = 7.34396 7.52893 7.43702
#
# Compressibility (1/GPa) = 0.01515693
#
# Stress axis : x y z
#
# Youngs Moduli (GPa) = 77.21215 73.13066 103.12969
#
# Poissons Ratio (x) = 0.28765 0.36721
# Poissons Ratio (y) = 0.30371 0.31851
# Poissons Ratio (z) = 0.27493 0.22586
#
# Static dielectric constant tensor:
#      x y z
#    x 3.966860 0.000000 0.000000 
#    y 0.000000 3.567430 0.000000 
#    z 0.000000 0.000000 3.659350 
# 
# 
# High freq. dielectric constant tensor:
#      x y z
#    x 1.773550 0.000000 0.000000 
#    y 0.000000 1.772680 0.000000 
#    z 0.000000 0.000000 1.777030 
# 
# From -- ./inp_files/6435.got.cif
#   From: 2010.03.12/outbox.cif.g09.slc.cpg/sg56_4_cif.got.tgz:6435.got - 2010.04.16 15:33:40.
