data_PCOD8228918
_publ_section_title
;
Structure prediction by ZEFSAII (Michael W. Deem and Ramdas Pophale) SiO2 
 PCOD8228918
Probable space group: P C C N
;
_chemical_formula_sum "Si O2"
_cell_formula_units_Z 64
_cell_length_a 27.627275
_cell_length_b 10.963986
_cell_length_c 8.932694
_cell_angle_alpha 90.000000
_cell_angle_beta 90.000000
_cell_angle_gamma 90.000000
_cell_volume 2705.758179
_symmetry_space_group_name_H-M "P C C N"
_symmetry_group_IT_number 56
_symmetry_cell_setting 'orthorhombic'
loop_
_space_group_symop_operation_xyz
x,y,z
1/2-x,1/2-y,z
1/2+x,-y,1/2-z
-x,1/2+y,1/2-z
-x,-y,-z
1/2+x,1/2+y,-z
1/2-x,y,1/2+z
x,1/2-y,1/2+z
loop_
_atom_site_type_symbol
_atom_site_label
_atom_site_fract_x
_atom_site_fract_y
_atom_site_fract_z
Si Si1 0.541148 0.246337 0.365312
Si Si2 0.199985 0.821917 0.792102
Si Si3 0.395503 0.425963 0.258255
Si Si4 0.358821 0.638028 0.090781
Si Si5 0.193139 0.185770 0.372892
Si Si6 0.224263 0.090373 0.700893
Si Si7 0.469768 0.244338 0.119140
Si Si8 0.944391 0.002081 0.463378
O O1 0.583366 0.159914 0.427619
O O2 0.521214 0.216461 0.200935
O O3 0.490035 0.231722 0.453250
O O4 0.565479 0.381408 0.360055
O O5 0.250000 0.750000 0.825045
O O6 0.163611 0.735461 0.704155
O O7 0.209175 0.948043 0.702351
O O8 0.173496 0.857784 0.944112
O O9 0.359087 0.499627 0.150394
O O10 0.364116 0.329086 0.352553
O O11 0.440138 0.361003 0.175284
O O12 0.415390 0.519635 0.382241
O O13 0.210204 0.147339 0.540016
O O14 0.219005 0.102588 0.243153
O O15 0.202083 0.328923 0.338453
O O16 0.433528 0.126862 0.120008
O O17 0.000000 0.000000 0.500000
#
# Coordination Sequence:
#
# PCOD8228918 Si02
#       8
#     8   8   8   8   8   8   8   8
#     4  11  24  45  70  97 147 189 248 299 381 445
#     4  12  29  49  80 111 152 200 253 304 388 448
#     4  12  26  44  74 105 149 186 254 308 369 452
#     4  12  28  48  71 114 146 199 253 316 367 458
#     4  11  27  47  77 111 146 192 240 314 371 450
#     4  11  27  49  79 108 151 195 245 306 389 443
#     4  11  23  43  71 103 135 199 238 305 378 439
#     4  10  21  44  66  96 140 188 230 299 374 430
#
# _framework density 23.65326
#
# number of rings (size 3 to 8) (size 9 to 14) (size 15 to 20)
#    0.000    0.750    2.500    5.625   12.250    0.500 
#    2.250    0.000    0.000    0.000    0.000    0.000 
#    0.000    0.000    0.000    0.000    0.000    0.000 
#
# Total GULP energy -792924.718374 kJ/mol
# GULP energy per Si atom -12389.448725 kJ/mol
# Density = 2.359942 g / cm^3
# Si number density = 23.653260 Si / 1000 Ang^3
#
#
#
# Elastic Constant Matrix: (Units=GPa)
#
#
# Indices 1 2 3 4 5 6 
#
# 1 90.6506 30.8873 21.9649 0.0000 0.0000 0.0000
# 2 30.8873 109.2458 29.7890 0.0000 0.0000 0.0000
# 3 21.9649 29.7890 81.5454 0.0000 0.0000 0.0000
# 4 0.0000 0.0000 0.0000 33.2467 0.0000 0.0000
# 5 0.0000 0.0000 0.0000 0.0000 38.5682 0.0000
# 6 0.0000 0.0000 0.0000 0.0000 0.0000 39.1185
#
#
#
# Elastic Compliance Matrix: (Units=1/GPa)
#
#
# Indices 1 2 3 4 5 6 
#
# 1 0.012591 -0.002927 -0.002322 0.000000 0.000000 0.000000
# 2 -0.002927 0.010847 -0.003174 0.000000 0.000000 0.000000
# 3 -0.002322 -0.003174 0.014048 0.000000 0.000000 0.000000
# 4 0.000000 0.000000 0.000000 0.030078 0.000000 0.000000
# 5 0.000000 0.000000 0.000000 0.000000 0.025928 0.000000
# 6 0.000000 0.000000 0.000000 0.000000 0.000000 0.025563
#
#
# Mechanical properties :
#
#
# Convention : Reuss Voigt Hill
#
# Bulk Modulus (GPa) = 48.45000 49.63601 49.04301
# Shear Modulus (GPa) = 35.01845 35.44006 35.22925
#
# Velocity S-wave (km/s) = 3.85189 3.87501 3.86347
# Velocity P-wave (km/s) = 6.34907 6.40713 6.37816
#
# Compressibility (1/GPa) = 0.02063983
#
# Stress axis : x y z
#
# Youngs Moduli (GPa) = 79.41986 92.19464 71.18374
#
# Poissons Ratio (x) = 0.26983 0.16532
# Poissons Ratio (y) = 0.23244 0.22594
# Poissons Ratio (z) = 0.18445 0.29263
#
# Static dielectric constant tensor:
#      x y z
#    x 4.280230 0.000000 0.000000 
#    y 0.000000 -5.491230 0.000000 
#    z 0.000000 0.000000 4.318880 
# 
# 
# High freq. dielectric constant tensor:
#      x y z
#    x 1.946430 0.000000 0.000000 
#    y 0.000000 1.943210 0.000000 
#    z 0.000000 0.000000 1.933360 
# 
# From -- ./inp_files/5208.got.cif
#   From: 2010.03.12/outbox.cif.g09.slc.cpg/sg56_3_cif.got.tgz:5208.got - 2010.04.16 15:33:40.
