data_PCOD8228600
_publ_section_title
;
Structure prediction by ZEFSAII (Michael W. Deem and Ramdas Pophale) SiO2 
 PCOD8228600
Probable space group: P C C N
;
_chemical_formula_sum "Si O2"
_cell_formula_units_Z 48
_cell_length_a 11.676087
_cell_length_b 8.913112
_cell_length_c 23.891983
_cell_angle_alpha 90.000000
_cell_angle_beta 90.000000
_cell_angle_gamma 90.000000
_cell_volume 2486.445149
_symmetry_space_group_name_H-M "P C C N"
_symmetry_group_IT_number 56
_symmetry_cell_setting 'orthorhombic'
loop_
_space_group_symop_operation_xyz
x,y,z
1/2-x,1/2-y,z
1/2+x,-y,1/2-z
-x,1/2+y,1/2-z
-x,-y,-z
1/2+x,1/2+y,-z
1/2-x,y,1/2+z
x,1/2-y,1/2+z
loop_
_atom_site_type_symbol
_atom_site_label
_atom_site_fract_x
_atom_site_fract_y
_atom_site_fract_z
Si Si1 0.371793 0.767892 0.906718
Si Si2 0.750000 0.250000 0.776724
Si Si3 0.137395 0.102637 0.386688
Si Si4 0.033944 0.648716 0.653374
Si Si5 0.750000 0.750000 0.009916
Si Si6 0.171128 0.527237 0.313776
Si Si7 0.563473 0.572495 0.949374
O O1 0.250000 0.750000 0.941311
O O2 0.348914 0.670704 0.851892
O O3 0.483649 0.714125 0.937735
O O4 0.406855 0.933874 0.889208
O O5 0.643566 0.293396 0.814608
O O6 0.778106 0.403555 0.743032
O O7 0.169714 0.153115 0.449335
O O8 0.034291 0.205531 0.366662
O O9 0.247425 0.097522 0.344439
O O10 0.074137 0.543743 0.601829
O O11 0.951116 0.554782 0.695298
O O12 0.685895 0.634100 0.968896
O O13 0.500000 0.500000 0.000000
#
# Coordination Sequence:
#
# PCOD8228600 Si02
#       7
#     8   4   8   8   4   8   8
#     4   9  19  36  65  90 123 163 221 263 314 398
#     4  12  26  40  66 102 130 170 214 280 334 386
#     4  11  19  41  68  96 117 175 224 260 317 413
#     4  11  25  42  65  95 137 161 225 277 319 402
#     4  12  22  38  72  88 132 178 224 256 344 386
#     4  10  20  42  66  91 126 177 215 266 329 398
#     4  11  22  43  61  92 130 174 215 276 324 383
#
# _framework density 19.304669000000001
#
# number of rings (size 3 to 8) (size 9 to 14) (size 15 to 20)
#    0.000    1.333    5.833    2.000    2.333    2.000 
#    4.500    1.667    0.000    0.000    0.000    0.000 
#    0.000    0.000    0.000    0.000    0.000    0.000 
#
# Total GULP energy -594772.964181 kJ/mol
# GULP energy per Si atom -12391.103420 kJ/mol
# Density = 1.926073 g / cm^3
# Si number density = 19.304669 Si / 1000 Ang^3
#
#
#
# Elastic Constant Matrix: (Units=GPa)
#
#
# Indices 1 2 3 4 5 6 
#
# 1 136.4887 71.0445 71.2024 0.0000 0.0000 0.0000
# 2 71.0445 123.6623 43.5734 0.0000 0.0000 0.0000
# 3 71.2024 43.5734 90.8599 0.0000 0.0000 0.0000
# 4 0.0000 0.0000 0.0000 17.1235 0.0000 0.0000
# 5 0.0000 0.0000 0.0000 0.0000 37.5505 0.0000
# 6 0.0000 0.0000 0.0000 0.0000 0.0000 40.0293
#
#
#
# Elastic Compliance Matrix: (Units=1/GPa)
#
#
# Indices 1 2 3 4 5 6 
#
# 1 0.014827 -0.005324 -0.009066 0.000000 0.000000 0.000000
# 2 -0.005324 0.011642 -0.001411 0.000000 0.000000 0.000000
# 3 -0.009066 -0.001411 0.018788 0.000000 0.000000 0.000000
# 4 0.000000 0.000000 0.000000 0.058399 0.000000 0.000000
# 5 0.000000 0.000000 0.000000 0.000000 0.026631 0.000000
# 6 0.000000 0.000000 0.000000 0.000000 0.000000 0.024982
#
#
# Mechanical properties :
#
#
# Convention : Reuss Voigt Hill
#
# Bulk Modulus (GPa) = 73.23617 80.29460 76.76538
# Shear Modulus (GPa) = 26.12006 29.95337 28.03672
#
# Velocity S-wave (km/s) = 3.68237 3.94332 3.81508
# Velocity P-wave (km/s) = 7.48994 7.90043 7.69792
#
# Compressibility (1/GPa) = 0.01365446
#
# Stress axis : x y z
#
# Youngs Moduli (GPa) = 67.44264 85.89319 53.22641
#
# Poissons Ratio (x) = 0.45728 0.48257
# Poissons Ratio (y) = 0.35905 0.07512
# Poissons Ratio (z) = 0.61146 0.12122
#
# Static dielectric constant tensor:
#      x y z
#    x 3.843540 0.000000 0.000000 
#    y 0.000000 3.502430 0.000000 
#    z 0.000000 0.000000 3.479010 
# 
# 
# High freq. dielectric constant tensor:
#      x y z
#    x 1.752620 0.000000 0.000000 
#    y 0.000000 1.773550 0.000000 
#    z 0.000000 0.000000 1.728510 
# 
# From -- ./inp_files/20934.got.cif
#   From: 2010.03.12/outbox.cif.g09.slc.cpg/sg56_11_cif.got.tgz:20934.got - 2010.04.16 15:33:40.
