data_PCOD8228506
_publ_section_title
;
Structure prediction by ZEFSAII (Michael W. Deem and Ramdas Pophale) SiO2 
 PCOD8228506
Probable space group: P C C N
;
_chemical_formula_sum "Si O2"
_cell_formula_units_Z 60
_cell_length_a 5.392469
_cell_length_b 33.144138
_cell_length_c 15.404579
_cell_angle_alpha 90.000000
_cell_angle_beta 90.000000
_cell_angle_gamma 90.000000
_cell_volume 2753.240944
_symmetry_space_group_name_H-M "P C C N"
_symmetry_group_IT_number 56
_symmetry_cell_setting 'orthorhombic'
loop_
_space_group_symop_operation_xyz
x,y,z
1/2-x,1/2-y,z
1/2+x,-y,1/2-z
-x,1/2+y,1/2-z
-x,-y,-z
1/2+x,1/2+y,-z
1/2-x,y,1/2+z
x,1/2-y,1/2+z
loop_
_atom_site_type_symbol
_atom_site_label
_atom_site_fract_x
_atom_site_fract_y
_atom_site_fract_z
Si Si1 0.580455 0.687900 0.912200
Si Si2 0.318258 0.984357 0.141883
Si Si3 0.684020 0.026014 0.652769
Si Si4 0.120700 0.606245 0.123306
Si Si5 0.679478 0.383967 0.182754
Si Si6 0.750000 0.250000 0.668995
Si Si7 0.458818 0.320265 0.730235
Si Si8 0.639435 0.651393 0.090756
O O1 0.456999 0.646173 0.881473
O O2 0.428096 0.728545 0.900040
O O3 0.813500 0.695775 0.852094
O O4 0.646819 0.683306 0.012843
O O5 0.313566 0.982097 0.245276
O O6 0.321294 0.940035 0.099579
O O7 0.569028 0.006734 0.110051
O O8 0.067971 0.007555 0.110872
O O9 0.700867 0.073659 0.633036
O O10 0.043119 0.610283 0.224788
O O11 0.366799 0.631008 0.096755
O O12 0.870791 0.620924 0.074202
O O13 0.946029 0.365266 0.207136
O O14 0.664723 0.285127 0.736212
O O15 0.311101 0.323129 0.820887
#
# Coordination Sequence:
#
# PCOD8228506 Si02
#       8
#     8   8   8   8   8   4   8   8
#     4  11  23  42  66  94 128 167 206 264 314 387
#     4   9  17  29  52  83 127 157 215 261 318 358
#     4   9  17  28  51  89 116 167 209 265 309 376
#     4  10  20  39  59  94 127 171 213 274 307 378
#     4   9  20  35  62  88 130 162 223 260 321 371
#     4  10  24  44  66  96 130 160 204 260 326 384
#     4  10  22  43  65  95 125 169 207 267 317 385
#     4  11  24  39  69  94 128 168 218 252 320 374
#
# _framework density 21.792497000000001
#
# number of rings (size 3 to 8) (size 9 to 14) (size 15 to 20)
#    0.000    2.133    1.333    1.200    5.600    3.733 
#    0.000    2.667    0.000    4.800    0.000    0.000 
#    0.000    0.000    0.000    0.000    0.000    0.000 
#
# Total GULP energy -743541.392177 kJ/mol
# GULP energy per Si atom -12392.356536 kJ/mol
# Density = 2.174290 g / cm^3
# Si number density = 21.792497 Si / 1000 Ang^3
#
#
#
# Elastic Constant Matrix: (Units=GPa)
#
#
# Indices 1 2 3 4 5 6 
#
# 1 128.9534 43.8330 15.1783 0.0000 0.0000 0.0000
# 2 43.8330 131.1286 26.8007 0.0000 0.0000 0.0000
# 3 15.1783 26.8007 56.0081 0.0000 0.0000 0.0000
# 4 0.0000 0.0000 0.0000 29.2946 0.0000 0.0000
# 5 0.0000 0.0000 0.0000 0.0000 12.8557 0.0000
# 6 0.0000 0.0000 0.0000 0.0000 0.0000 14.1871
#
#
#
# Elastic Compliance Matrix: (Units=1/GPa)
#
#
# Indices 1 2 3 4 5 6 
#
# 1 0.008808 -0.002723 -0.001084 0.000000 0.000000 0.000000
# 2 -0.002723 0.009294 -0.003710 0.000000 0.000000 0.000000
# 3 -0.001084 -0.003710 0.019924 0.000000 0.000000 0.000000
# 4 0.000000 0.000000 0.000000 0.034136 0.000000 0.000000
# 5 0.000000 0.000000 0.000000 0.000000 0.077786 0.000000
# 6 0.000000 0.000000 0.000000 0.000000 0.000000 0.070487
#
#
# Mechanical properties :
#
#
# Convention : Reuss Voigt Hill
#
# Bulk Modulus (GPa) = 43.49177 54.19046 48.84112
# Shear Modulus (GPa) = 20.56497 26.61936 23.59216
#
# Velocity S-wave (km/s) = 3.07526 3.49878 3.29383
# Velocity P-wave (km/s) = 5.71053 6.42203 6.07670
#
# Compressibility (1/GPa) = 0.02299285
#
# Stress axis : x y z
#
# Youngs Moduli (GPa) = 113.53565 107.59145 50.19198
#
# Poissons Ratio (x) = 0.29293 0.05441
# Poissons Ratio (y) = 0.30912 0.18620
# Poissons Ratio (z) = 0.12308 0.39913
#
# Static dielectric constant tensor:
#      x y z
#    x 4.068090 0.000000 0.000000 
#    y 0.000000 3.982680 0.000000 
#    z 0.000000 0.000000 3.590000 
# 
# 
# High freq. dielectric constant tensor:
#      x y z
#    x 1.859310 0.000000 0.000000 
#    y 0.000000 1.862050 0.000000 
#    z 0.000000 0.000000 1.825380 
# 
# From -- ./inp_files/14160.got.cif
#   From: 2010.03.12/outbox.cif.g09.slc.cpg/sg56_8_cif.got.tgz:14160.got - 2010.04.16 15:33:40.
