data_PCOD8228763
_publ_section_title
;
Structure prediction by ZEFSAII (Michael W. Deem and Ramdas Pophale) SiO2 
 PCOD8228763
Probable space group: P C C N
;
_chemical_formula_sum "Si O2"
_cell_formula_units_Z 60
_cell_length_a 12.513805
_cell_length_b 8.540676
_cell_length_c 25.533424
_cell_angle_alpha 90.000000
_cell_angle_beta 90.000000
_cell_angle_gamma 90.000000
_cell_volume 2728.919263
_symmetry_space_group_name_H-M "P C C N"
_symmetry_group_IT_number 56
_symmetry_cell_setting 'orthorhombic'
loop_
_space_group_symop_operation_xyz
x,y,z
1/2-x,1/2-y,z
1/2+x,-y,1/2-z
-x,1/2+y,1/2-z
-x,-y,-z
1/2+x,1/2+y,-z
1/2-x,y,1/2+z
x,1/2-y,1/2+z
loop_
_atom_site_type_symbol
_atom_site_label
_atom_site_fract_x
_atom_site_fract_y
_atom_site_fract_z
Si Si1 0.438177 0.894897 0.459083
Si Si2 0.096380 0.161965 0.131924
Si Si3 0.060711 0.961520 0.234306
Si Si4 0.685543 0.510022 0.375909
Si Si5 0.371161 0.250963 0.789743
Si Si6 0.750000 0.250000 0.298782
Si Si7 0.052919 0.634360 0.032901
Si Si8 0.639296 0.814079 0.588201
O O1 0.513651 0.822897 0.414789
O O2 0.387217 0.751658 0.492114
O O3 0.500000 0.000000 0.500000
O O4 0.354120 0.003588 0.428440
O O5 0.123038 0.340629 0.147897
O O6 0.196054 0.065495 0.109000
O O7 0.054389 0.068069 0.182204
O O8 0.159573 0.838614 0.235064
O O9 0.947392 0.873700 0.240802
O O10 0.079757 0.076699 0.283481
O O11 0.684469 0.373985 0.333112
O O12 0.638735 0.439900 0.428864
O O13 0.250000 0.250000 0.765836
O O14 0.368374 0.298744 0.849772
O O15 0.962122 0.726713 0.064588
O O16 0.000000 0.500000 0.000000
O O17 0.750000 0.750000 0.565890
#
# Coordination Sequence:
#
# PCOD8228763 Si02
#       8
#     8   8   8   8   8   4   8   8
#     4  10  21  39  63  90 127 173 221 263 333 400
#     4  10  21  42  65  95 133 175 214 284 349 390
#     4  11  25  43  73 100 137 178 230 292 344 419
#     4  10  22  37  64  97 132 166 219 280 338 402
#     4  11  26  45  72 102 137 184 235 278 356 424
#     4  10  24  42  70 100 136 176 226 290 356 398
#     4  11  22  38  63  97 127 171 224 274 327 404
#     4  10  23  46  64  86 135 183 214 270 337 402
#
# _framework density 21.986725
#
# number of rings (size 3 to 8) (size 9 to 14) (size 15 to 20)
#    0.000    1.600    2.667    0.800   11.200    3.200 
#    0.000    0.000    0.000    0.000    0.000    0.000 
#    0.000    0.000    0.000    0.000    0.000    0.000 
#
# Total GULP energy -743789.115150 kJ/mol
# GULP energy per Si atom -12396.485253 kJ/mol
# Density = 2.193668 g / cm^3
# Si number density = 21.986725 Si / 1000 Ang^3
#
#
#
# Elastic Constant Matrix: (Units=GPa)
#
#
# Indices 1 2 3 4 5 6 
#
# 1 108.1157 56.6147 29.9264 0.0000 0.0000 0.0000
# 2 56.6147 161.1138 39.1266 0.0000 0.0000 0.0000
# 3 29.9264 39.1266 56.7898 0.0000 0.0000 0.0000
# 4 0.0000 0.0000 0.0000 46.1631 0.0000 0.0000
# 5 0.0000 0.0000 0.0000 0.0000 14.6319 0.0000
# 6 0.0000 0.0000 0.0000 0.0000 0.0000 38.9211
#
#
#
# Elastic Compliance Matrix: (Units=1/GPa)
#
#
# Indices 1 2 3 4 5 6 
#
# 1 0.012094 -0.003245 -0.004137 0.000000 0.000000 0.000000
# 2 -0.003245 0.008325 -0.004025 0.000000 0.000000 0.000000
# 3 -0.004137 -0.004025 0.022562 0.000000 0.000000 0.000000
# 4 0.000000 0.000000 0.000000 0.021662 0.000000 0.000000
# 5 0.000000 0.000000 0.000000 0.000000 0.068344 0.000000
# 6 0.000000 0.000000 0.000000 0.000000 0.000000 0.025693
#
#
# Mechanical properties :
#
#
# Convention : Reuss Voigt Hill
#
# Bulk Modulus (GPa) = 49.58998 64.15054 56.87026
# Shear Modulus (GPa) = 26.56505 33.29999 29.93252
#
# Velocity S-wave (km/s) = 3.47973 3.89594 3.69371
# Velocity P-wave (km/s) = 6.22480 7.03407 6.64177
#
# Compressibility (1/GPa) = 0.02016536
#
# Stress axis : x y z
#
# Youngs Moduli (GPa) = 82.68704 120.12535 44.32135
#
# Poissons Ratio (x) = 0.38980 0.18337
# Poissons Ratio (y) = 0.26831 0.17841
# Poissons Ratio (z) = 0.34211 0.48356
#
# Static dielectric constant tensor:
#      x y z
#    x 3.949230 0.000000 0.000000 
#    y 0.000000 4.447560 0.000000 
#    z 0.000000 0.000000 4.009020 
# 
# 
# High freq. dielectric constant tensor:
#      x y z
#    x 1.852950 0.000000 0.000000 
#    y 0.000000 1.887410 0.000000 
#    z 0.000000 0.000000 1.860660 
# 
# From -- ./inp_files/22342.got.cif
#   From: 2010.03.12/outbox.cif.g09.slc.cpg/sg56_12_cif.got.tgz:22342.got - 2010.04.16 15:33:40.
