data_PCOD8228239
_publ_section_title
;
Structure prediction by ZEFSAII (Michael W. Deem and Ramdas Pophale) SiO2 
 PCOD8228239
Probable space group: P C C N
;
_chemical_formula_sum "Si O2"
_cell_formula_units_Z 48
_cell_length_a 14.933740
_cell_length_b 9.702695
_cell_length_c 17.013456
_cell_angle_alpha 90.000000
_cell_angle_beta 90.000000
_cell_angle_gamma 90.000000
_cell_volume 2465.207656
_symmetry_space_group_name_H-M "P C C N"
_symmetry_group_IT_number 56
_symmetry_cell_setting 'orthorhombic'
loop_
_space_group_symop_operation_xyz
x,y,z
1/2-x,1/2-y,z
1/2+x,-y,1/2-z
-x,1/2+y,1/2-z
-x,-y,-z
1/2+x,1/2+y,-z
1/2-x,y,1/2+z
x,1/2-y,1/2+z
loop_
_atom_site_type_symbol
_atom_site_label
_atom_site_fract_x
_atom_site_fract_y
_atom_site_fract_z
Si Si1 0.505155 0.756600 0.171782
Si Si2 0.591022 0.985581 0.765147
Si Si3 0.785391 0.894734 0.403985
Si Si4 0.240441 0.902962 0.316379
Si Si5 0.321950 0.635625 0.143978
Si Si6 0.326925 0.355632 0.417909
O O1 0.541590 0.649794 0.235719
O O2 0.421099 0.690613 0.125055
O O3 0.578165 0.792515 0.106275
O O4 0.479358 0.892455 0.220561
O O5 0.639406 0.955252 0.847321
O O6 0.661798 0.034534 0.699941
O O7 0.750000 0.750000 0.370179
O O8 0.828304 0.875682 0.489052
O O9 0.700207 0.998708 0.406259
O O10 0.250000 0.750000 0.352934
O O11 0.182855 0.895960 0.236753
O O12 0.187688 0.996890 0.377773
O O13 0.250000 0.750000 0.119821
O O14 0.250000 0.250000 0.390757
#
# Coordination Sequence:
#
# PCOD8228239 Si02
#       6
#     8   8   8   8   8   8
#     4  12  23  40  69  95 126 162 217 269 309 371
#     4  11  24  39  67  96 122 168 214 262 316 367
#     4  10  24  43  63  90 131 174 208 251 325 381
#     4  10  19  40  62  91 129 161 214 261 308 371
#     4  10  20  42  63  91 124 163 214 261 309 373
#     4  11  24  42  62  94 132 168 210 259 320 379
#
# _framework density 19.470977999999999
#
# number of rings (size 3 to 8) (size 9 to 14) (size 15 to 20)
#    0.000    1.333    6.667    1.000    7.000    1.333 
#    0.000    5.000    0.000    0.000    0.000    0.000 
#    0.000    0.000    0.000    0.000    0.000    0.000 
#
# Total GULP energy -595372.715296 kJ/mol
# GULP energy per Si atom -12403.598235 kJ/mol
# Density = 1.942666 g / cm^3
# Si number density = 19.470978 Si / 1000 Ang^3
#
#
#
# Elastic Constant Matrix: (Units=GPa)
#
#
# Indices 1 2 3 4 5 6 
#
# 1 136.2846 64.3344 41.3425 0.0000 0.0000 0.0000
# 2 64.3344 161.2558 50.1701 0.0000 0.0000 0.0000
# 3 41.3425 50.1701 48.1670 0.0000 0.0000 0.0000
# 4 0.0000 0.0000 0.0000 19.3583 0.0000 0.0000
# 5 0.0000 0.0000 0.0000 0.0000 14.4885 0.0000
# 6 0.0000 0.0000 0.0000 0.0000 0.0000 42.7891
#
#
#
# Elastic Compliance Matrix: (Units=1/GPa)
#
#
# Indices 1 2 3 4 5 6 
#
# 1 0.010347 -0.002019 -0.006778 0.000000 0.000000 0.000000
# 2 -0.002019 0.009568 -0.008233 0.000000 0.000000 0.000000
# 3 -0.006778 -0.008233 0.035154 0.000000 0.000000 0.000000
# 4 0.000000 0.000000 0.000000 0.051658 0.000000 0.000000
# 5 0.000000 0.000000 0.000000 0.000000 0.069020 0.000000
# 6 0.000000 0.000000 0.000000 0.000000 0.000000 0.023370
#
#
# Mechanical properties :
#
#
# Convention : Reuss Voigt Hill
#
# Bulk Modulus (GPa) = 47.59831 73.04459 60.32145
# Shear Modulus (GPa) = 20.81768 27.98454 24.40111
#
# Velocity S-wave (km/s) = 3.27336 3.79521 3.54390
# Velocity P-wave (km/s) = 6.22779 7.53664 6.91326
#
# Compressibility (1/GPa) = 0.02100915
#
# Stress axis : x y z
#
# Youngs Moduli (GPa) = 96.64810 104.51003 28.44635
#
# Poissons Ratio (x) = 0.21104 0.19280
# Poissons Ratio (y) = 0.19516 0.23420
# Poissons Ratio (z) = 0.65504 0.86045
#
# Static dielectric constant tensor:
#      x y z
#    x 3.636110 0.000000 0.000000 
#    y 0.000000 3.972730 0.000000 
#    z 0.000000 0.000000 3.160510 
# 
# 
# High freq. dielectric constant tensor:
#      x y z
#    x 1.759670 0.000000 0.000000 
#    y 0.000000 1.784950 0.000000 
#    z 0.000000 0.000000 1.727470 
# 
# From -- ./inp_files/14773.got.cif
#   From: 2010.03.12/outbox.cif.g09.slc.cpg/sg56_8_cif.got.tgz:14773.got - 2010.04.16 15:33:40.
