data_PCOD8228042
_publ_section_title
;
Structure prediction by ZEFSAII (Michael W. Deem and Ramdas Pophale) SiO2 
 PCOD8228042
Probable space group: P C C N
;
_chemical_formula_sum "Si O2"
_cell_formula_units_Z 48
_cell_length_a 8.729244
_cell_length_b 14.940380
_cell_length_c 18.150659
_cell_angle_alpha 90.000000
_cell_angle_beta 90.000000
_cell_angle_gamma 90.000000
_cell_volume 2367.176683
_symmetry_space_group_name_H-M "P C C N"
_symmetry_group_IT_number 56
_symmetry_cell_setting 'orthorhombic'
loop_
_space_group_symop_operation_xyz
x,y,z
1/2-x,1/2-y,z
1/2+x,-y,1/2-z
-x,1/2+y,1/2-z
-x,-y,-z
1/2+x,1/2+y,-z
1/2-x,y,1/2+z
x,1/2-y,1/2+z
loop_
_atom_site_type_symbol
_atom_site_label
_atom_site_fract_x
_atom_site_fract_y
_atom_site_fract_z
Si Si1 0.640153 0.921784 0.271665
Si Si2 0.062499 0.409500 0.308788
Si Si3 0.194899 0.148802 0.582044
Si Si4 0.078444 0.764389 0.758142
Si Si5 0.582125 0.246395 0.572668
Si Si6 0.925253 0.592752 0.520240
O O1 0.766358 0.942111 0.209423
O O2 0.737279 0.891249 0.342854
O O3 0.519441 0.851907 0.234227
O O4 0.557262 0.013371 0.291231
O O5 0.060583 0.384519 0.394476
O O6 0.021922 0.322083 0.261028
O O7 0.250000 0.250000 0.579655
O O8 0.250451 0.092063 0.510578
O O9 0.009021 0.157722 0.574849
O O10 0.250000 0.750000 0.723220
O O11 0.097120 0.785784 0.843865
O O12 0.750000 0.250000 0.536853
O O13 0.500502 0.171403 0.525732
O O14 0.000000 0.500000 0.500000
#
# Coordination Sequence:
#
# PCOD8228042 Si02
#       6
#     8   8   8   8   8   8
#     4  12  22  43  63  99 135 173 225 275 339 392
#     4  12  25  39  70  99 131 177 227 279 331 408
#     4  10  18  39  66  88 127 178 209 266 336 397
#     4  11  22  40  65  94 132 176 223 273 331 401
#     4  10  21  39  67  94 128 180 224 262 340 409
#     4  11  22  41  66  94 130 170 220 278 339 397
#
# _framework density 20.27732
#
# number of rings (size 3 to 8) (size 9 to 14) (size 15 to 20)
#    0.000    1.000    6.667    1.500    0.000    6.000 
#    0.000    2.500    0.000    0.000    0.000    0.000 
#    0.000    0.000    0.000    0.000    0.000    0.000 
#
# Total GULP energy -594683.809153 kJ/mol
# GULP energy per Si atom -12389.246024 kJ/mol
# Density = 2.023117 g / cm^3
# Si number density = 20.277320 Si / 1000 Ang^3
#
#
#
# Elastic Constant Matrix: (Units=GPa)
#
#
# Indices 1 2 3 4 5 6 
#
# 1 121.5237 20.4561 34.7263 0.0000 0.0000 0.0000
# 2 20.4561 77.0742 41.2739 0.0000 0.0000 0.0000
# 3 34.7263 41.2739 92.8075 0.0000 0.0000 0.0000
# 4 0.0000 0.0000 0.0000 26.6798 0.0000 0.0000
# 5 0.0000 0.0000 0.0000 0.0000 23.0951 0.0000
# 6 0.0000 0.0000 0.0000 0.0000 0.0000 41.5546
#
#
#
# Elastic Compliance Matrix: (Units=1/GPa)
#
#
# Indices 1 2 3 4 5 6 
#
# 1 0.009251 -0.000790 -0.003110 0.000000 0.000000 0.000000
# 2 -0.000790 0.017098 -0.007308 0.000000 0.000000 0.000000
# 3 -0.003110 -0.007308 0.015189 0.000000 0.000000 0.000000
# 4 0.000000 0.000000 0.000000 0.037482 0.000000 0.000000
# 5 0.000000 0.000000 0.000000 0.000000 0.043299 0.000000
# 6 0.000000 0.000000 0.000000 0.000000 0.000000 0.024065
#
#
# Mechanical properties :
#
#
# Convention : Reuss Voigt Hill
#
# Bulk Modulus (GPa) = 52.29867 53.81310 53.05589
# Shear Modulus (GPa) = 28.54328 31.26252 29.90290
#
# Velocity S-wave (km/s) = 3.75593 3.93077 3.84434
# Velocity P-wave (km/s) = 6.68259 6.87004 6.77696
#
# Compressibility (1/GPa) = 0.01912095
#
# Stress axis : x y z
#
# Youngs Moduli (GPa) = 108.10213 58.48718 65.83738
#
# Poissons Ratio (x) = 0.04618 0.20476
# Poissons Ratio (y) = 0.08536 0.48116
# Poissons Ratio (z) = 0.33621 0.42744
#
# Static dielectric constant tensor:
#      x y z
#    x 6.396960 0.000000 0.000000 
#    y 0.000000 3.700020 0.000000 
#    z 0.000000 0.000000 3.817810 
# 
# 
# High freq. dielectric constant tensor:
#      x y z
#    x 1.810990 0.000000 0.000000 
#    y 0.000000 1.782530 0.000000 
#    z 0.000000 0.000000 1.779490 
# 
# From -- ./inp_files/14828.got.cif
#   From: 2010.03.12/outbox.cif.g09.slc.cpg/sg56_8_cif.got.tgz:14828.got - 2010.04.16 15:33:40.
