data_PCOD8228179
_publ_section_title
;
Structure prediction by ZEFSAII (Michael W. Deem and Ramdas Pophale) SiO2 
 PCOD8228179
Probable space group: P C C N
;
_chemical_formula_sum "Si O2"
_cell_formula_units_Z 64
_cell_length_a 12.066355
_cell_length_b 13.722408
_cell_length_c 19.198821
_cell_angle_alpha 90.000000
_cell_angle_beta 90.000000
_cell_angle_gamma 90.000000
_cell_volume 3178.930152
_symmetry_space_group_name_H-M "P C C N"
_symmetry_group_IT_number 56
_symmetry_cell_setting 'orthorhombic'
loop_
_space_group_symop_operation_xyz
x,y,z
1/2-x,1/2-y,z
1/2+x,-y,1/2-z
-x,1/2+y,1/2-z
-x,-y,-z
1/2+x,1/2+y,-z
1/2-x,y,1/2+z
x,1/2-y,1/2+z
loop_
_atom_site_type_symbol
_atom_site_label
_atom_site_fract_x
_atom_site_fract_y
_atom_site_fract_z
Si Si1 0.034964 0.319640 0.706276
Si Si2 0.061064 0.146896 0.812149
Si Si3 0.555745 0.263923 0.564166
Si Si4 0.126288 0.481567 0.519206
Si Si5 0.830262 0.048912 0.224414
Si Si6 0.743530 0.108967 0.579288
Si Si7 0.353563 0.517496 0.173265
Si Si8 0.374230 0.215361 0.464194
O O1 0.076645 0.242028 0.763569
O O2 0.125842 0.403052 0.690106
O O3 0.003924 0.258922 0.637386
O O4 0.935059 0.382761 0.738241
O O5 0.073672 0.178682 0.892090
O O6 0.150306 0.064199 0.794176
O O7 0.944654 0.093184 0.798651
O O8 0.646313 0.179431 0.549303
O O9 0.629769 0.361436 0.565742
O O10 0.465800 0.284235 0.502321
O O11 0.215462 0.509430 0.460032
O O12 0.157001 0.532487 0.590989
O O13 0.136891 0.366077 0.524038
O O14 0.000000 0.500000 0.500000
O O15 0.762229 0.097245 0.161834
O O16 0.761290 0.052274 0.294899
O O17 0.250000 0.250000 0.449354
#
# Coordination Sequence:
#
# PCOD8228179 Si02
#       8
#     8   8   8   8   8   8   8   8
#     4  10  22  39  61  90 133 167 208 272 315 386
#     4  11  23  40  63  88 126 173 205 260 325 375
#     4  10  20  39  61  97 122 161 218 257 318 374
#     4  12  19  42  66  89 124 169 215 252 313 385
#     4  10  22  39  60  96 123 169 216 257 331 378
#     4  10  19  36  70  89 123 167 208 268 311 379
#     4  11  22  38  66  90 125 169 217 260 309 391
#     4  12  25  40  63  94 129 168 213 262 318 386
#
# _framework density 20.132560000000002
#
# number of rings (size 3 to 8) (size 9 to 14) (size 15 to 20)
#    0.000    1.250    5.000    1.500    1.750    3.500 
#    0.000    0.625    0.000    0.000    0.000    0.000 
#    0.000    0.000    0.000    0.000    0.000    0.000 
#
# Total GULP energy -793035.466038 kJ/mol
# GULP energy per Si atom -12391.179157 kJ/mol
# Density = 2.008674 g / cm^3
# Si number density = 20.132560 Si / 1000 Ang^3
#
#
#
# Elastic Constant Matrix: (Units=GPa)
#
#
# Indices 1 2 3 4 5 6 
#
# 1 86.2505 25.0623 38.5212 0.0000 0.0000 0.0000
# 2 25.0623 71.8636 16.9305 0.0000 0.0000 0.0000
# 3 38.5212 16.9305 101.6746 0.0000 0.0000 0.0000
# 4 0.0000 0.0000 0.0000 34.5448 0.0000 0.0000
# 5 0.0000 0.0000 0.0000 0.0000 33.9566 0.0000
# 6 0.0000 0.0000 0.0000 0.0000 0.0000 25.3915
#
#
#
# Elastic Compliance Matrix: (Units=1/GPa)
#
#
# Indices 1 2 3 4 5 6 
#
# 1 0.015011 -0.004054 -0.005012 0.000000 0.000000 0.000000
# 2 -0.004054 0.015578 -0.001058 0.000000 0.000000 0.000000
# 3 -0.005012 -0.001058 0.011910 0.000000 0.000000 0.000000
# 4 0.000000 0.000000 0.000000 0.028948 0.000000 0.000000
# 5 0.000000 0.000000 0.000000 0.000000 0.029449 0.000000
# 6 0.000000 0.000000 0.000000 0.000000 0.000000 0.039383
#
#
# Mechanical properties :
#
#
# Convention : Reuss Voigt Hill
#
# Bulk Modulus (GPa) = 44.94178 46.75743 45.84961
# Shear Modulus (GPa) = 29.77161 30.73024 30.25093
#
# Velocity S-wave (km/s) = 3.84966 3.91115 3.88053
# Velocity P-wave (km/s) = 6.49086 6.60843 6.54991
#
# Compressibility (1/GPa) = 0.02225101
#
# Stress axis : x y z
#
# Youngs Moduli (GPa) = 66.61955 64.19144 83.96062
#
# Poissons Ratio (x) = 0.26024 0.42081
# Poissons Ratio (y) = 0.27009 0.08884
# Poissons Ratio (z) = 0.33389 0.06792
#
# Static dielectric constant tensor:
#      x y z
#    x 3.521110 0.000000 0.000000 
#    y 0.000000 3.721410 0.000000 
#    z 0.000000 0.000000 3.645720 
# 
# 
# High freq. dielectric constant tensor:
#      x y z
#    x 1.777050 0.000000 0.000000 
#    y 0.000000 1.779850 0.000000 
#    z 0.000000 0.000000 1.786530 
# 
# From -- ./inp_files/15807.got.cif
#   From: 2010.03.12/outbox.cif.g09.slc.cpg/sg56_8_cif.got.tgz:15807.got - 2010.04.16 15:33:40.
