data_PCOD8228325
_publ_section_title
;
Structure prediction by ZEFSAII (Michael W. Deem and Ramdas Pophale) SiO2 
 PCOD8228325
Probable space group: P C C N
;
_chemical_formula_sum "Si O2"
_cell_formula_units_Z 40
_cell_length_a 18.406586
_cell_length_b 5.126485
_cell_length_c 21.959808
_cell_angle_alpha 90.000000
_cell_angle_beta 90.000000
_cell_angle_gamma 90.000000
_cell_volume 2072.151354
_symmetry_space_group_name_H-M "P C C N"
_symmetry_group_IT_number 56
_symmetry_cell_setting 'orthorhombic'
loop_
_space_group_symop_operation_xyz
x,y,z
1/2-x,1/2-y,z
1/2+x,-y,1/2-z
-x,1/2+y,1/2-z
-x,-y,-z
1/2+x,1/2+y,-z
1/2-x,y,1/2+z
x,1/2-y,1/2+z
loop_
_atom_site_type_symbol
_atom_site_label
_atom_site_fract_x
_atom_site_fract_y
_atom_site_fract_z
Si Si1 0.424454 0.910141 0.701307
Si Si2 0.556423 0.289254 0.168726
Si Si3 0.165504 0.756713 0.935933
Si Si4 0.088937 0.099009 0.634848
Si Si5 0.165485 0.243154 0.510830
O O1 0.411513 0.852408 0.771823
O O2 0.512162 0.947847 0.689350
O O3 0.388962 0.684861 0.659289
O O4 0.383542 0.178249 0.682548
O O5 0.623592 0.343536 0.124733
O O6 0.499171 0.106038 0.132425
O O7 0.250000 0.750000 0.919387
O O8 0.145220 0.468825 0.959326
O O9 0.144546 0.969138 0.987473
O O10 0.120153 0.161793 0.569291
O O11 0.250000 0.250000 0.528169
#
# Coordination Sequence:
#
# PCOD8228325 Si02
#       5
#     8   8   8   8   8
#     4  10  20  35  56  84 111 142 176 232 283 318
#     4  10  21  36  60  79 119 138 186 229 278 331
#     4  10  23  38  57  80 110 151 184 227 279 329
#     4  10  20  35  57  83 107 146 184 221 282 327
#     4  10  22  40  55  78 116 148 185 232 277 326
#
# _framework density 19.303609999999999
#
# number of rings (size 3 to 8) (size 9 to 14) (size 15 to 20)
#    1.200    0.800    2.000    1.200    2.800    1.600 
#    0.000    2.000    0.000    0.000    0.000    0.000 
#    0.000    0.000    0.000    0.000    0.000    0.000 
#
# Total GULP energy -495635.088498 kJ/mol
# GULP energy per Si atom -12390.877212 kJ/mol
# Density = 1.925967 g / cm^3
# Si number density = 19.303610 Si / 1000 Ang^3
#
#
#
# Elastic Constant Matrix: (Units=GPa)
#
#
# Indices 1 2 3 4 5 6 
#
# 1 32.5160 9.2593 41.5929 0.0000 0.0000 0.0000
# 2 9.2593 102.1420 16.6580 0.0000 0.0000 0.0000
# 3 41.5929 16.6580 114.9086 0.0000 0.0000 0.0000
# 4 0.0000 0.0000 0.0000 20.8527 0.0000 0.0000
# 5 0.0000 0.0000 0.0000 0.0000 -1.8337 0.0000
# 6 0.0000 0.0000 0.0000 0.0000 0.0000 17.7920
#
#
#
# Elastic Compliance Matrix: (Units=1/GPa)
#
#
# Indices 1 2 3 4 5 6 
#
# 1 0.057616 -0.001866 -0.020585 0.000000 0.000000 0.000000
# 2 -0.001866 0.010088 -0.000787 0.000000 0.000000 0.000000
# 3 -0.020585 -0.000787 0.016268 0.000000 0.000000 0.000000
# 4 0.000000 0.000000 0.000000 0.047955 0.000000 0.000000
# 5 0.000000 0.000000 0.000000 0.000000 -0.545332 0.000000
# 6 0.000000 0.000000 0.000000 0.000000 0.000000 0.056205
#
#
# Mechanical properties :
#
#
# Convention : Reuss Voigt Hill
#
# Bulk Modulus (GPa) = 26.66906 42.73188 34.70047
# Shear Modulus (GPa) = -16.76581 19.49929 1.36674
#
# Velocity S-wave (km/s) = -2.95028 3.18171 0.84235
# Velocity P-wave (km/s) = 1.49666 5.97348 4.35445
#
# Compressibility (1/GPa) = 0.03749664
#
# Stress axis : x y z
#
# Youngs Moduli (GPa) = 17.35618 99.12980 61.47198
#
# Poissons Ratio (x) = 0.18497 1.26538
# Poissons Ratio (y) = 0.03239 0.04838
# Poissons Ratio (z) = 0.35727 0.07801
#
# Static dielectric constant tensor:
#      x y z
#    x 3.198620 0.000000 0.000000 
#    y 0.000000 3.742820 0.000000 
#    z 0.000000 0.000000 3.257470 
# 
# 
# High freq. dielectric constant tensor:
#      x y z
#    x 1.710970 0.000000 0.000000 
#    y 0.000000 1.764760 0.000000 
#    z 0.000000 0.000000 1.749180 
# 
# From -- ./inp_files/17431.got.cif
#   From: 2010.03.12/outbox.cif.g09.slc.cpg/sg56_9_cif.got.tgz:17431.got - 2010.04.16 15:33:40.
