data_PCOD8228945
_publ_section_title
;
Structure prediction by ZEFSAII (Michael W. Deem and Ramdas Pophale) SiO2 
 PCOD8228945
Probable space group: P C C N
;
_chemical_formula_sum "Si O2"
_cell_formula_units_Z 56
_cell_length_a 17.586649
_cell_length_b 14.292212
_cell_length_c 9.251401
_cell_angle_alpha 90.000000
_cell_angle_beta 90.000000
_cell_angle_gamma 90.000000
_cell_volume 2325.359216
_symmetry_space_group_name_H-M "P C C N"
_symmetry_group_IT_number 56
_symmetry_cell_setting 'orthorhombic'
loop_
_space_group_symop_operation_xyz
x,y,z
1/2-x,1/2-y,z
1/2+x,-y,1/2-z
-x,1/2+y,1/2-z
-x,-y,-z
1/2+x,1/2+y,-z
1/2-x,y,1/2+z
x,1/2-y,1/2+z
loop_
_atom_site_type_symbol
_atom_site_label
_atom_site_fract_x
_atom_site_fract_y
_atom_site_fract_z
Si Si1 0.250000 0.750000 0.664345
Si Si2 0.848593 0.002884 0.478977
Si Si3 0.386921 0.360224 0.732125
Si Si4 0.407587 0.688237 0.564491
Si Si5 0.637002 0.592937 0.958475
Si Si6 0.250000 0.250000 0.636241
Si Si7 0.000998 0.207170 0.163437
Si Si8 0.719841 0.047252 0.269529
O O1 0.319677 0.720130 0.563044
O O2 0.282527 0.839762 0.755239
O O3 0.907581 0.086562 0.513934
O O4 0.802439 0.023439 0.330873
O O5 0.793706 0.991668 0.618306
O O6 0.892760 0.909917 0.427690
O O7 0.310579 0.299203 0.739338
O O8 0.460377 0.295439 0.740883
O O9 0.386492 0.425511 0.874884
O O10 0.458848 0.762657 0.482540
O O11 0.437835 0.669939 0.726119
O O12 0.706052 0.669140 0.955276
O O13 0.563472 0.628939 0.870952
O O14 0.659160 0.493410 0.885993
#
# Coordination Sequence:
#
# PCOD8228945 Si02
#       8
#     4   8   8   8   8   4   8   8
#     4  10  26  50  80 100 144 194 256 320 370 434
#     4  11  25  42  73 104 151 185 255 303 368 444
#     4  11  23  42  67 109 152 199 234 308 371 459
#     4  11  25  49  70 104 138 196 253 314 372 451
#     4  11  23  42  70 108 157 192 243 301 375 458
#     4  10  22  36  74 106 152 190 236 288 374 450
#     4  11  25  45  70 103 154 197 248 299 398 448
#     4  11  24  44  72 113 141 192 245 311 361 440
#
# _framework density 24.082301000000001
#
# number of rings (size 3 to 8) (size 9 to 14) (size 15 to 20)
#    0.000    1.143    2.857    2.143    2.000   10.286 
#    2.571    1.429    0.000    0.857    0.000    0.000 
#    0.000    0.000    0.000    0.000    0.000    0.000 
#
# Total GULP energy -694061.383090 kJ/mol
# GULP energy per Si atom -12393.953269 kJ/mol
# Density = 2.402749 g / cm^3
# Si number density = 24.082301 Si / 1000 Ang^3
#
#
#
# Elastic Constant Matrix: (Units=GPa)
#
#
# Indices 1 2 3 4 5 6 
#
# 1 105.1342 25.2728 16.3941 0.0000 0.0000 0.0000
# 2 25.2728 100.6030 25.5305 0.0000 0.0000 0.0000
# 3 16.3941 25.5305 115.3096 0.0000 0.0000 0.0000
# 4 0.0000 0.0000 0.0000 30.4030 0.0000 0.0000
# 5 0.0000 0.0000 0.0000 0.0000 26.7239 0.0000
# 6 0.0000 0.0000 0.0000 0.0000 0.0000 30.8364
#
#
#
# Elastic Compliance Matrix: (Units=1/GPa)
#
#
# Indices 1 2 3 4 5 6 
#
# 1 0.010218 -0.002329 -0.000937 0.000000 0.000000 0.000000
# 2 -0.002329 0.011063 -0.002118 0.000000 0.000000 0.000000
# 3 -0.000937 -0.002118 0.009275 0.000000 0.000000 0.000000
# 4 0.000000 0.000000 0.000000 0.032891 0.000000 0.000000
# 5 0.000000 0.000000 0.000000 0.000000 0.037420 0.000000
# 6 0.000000 0.000000 0.000000 0.000000 0.000000 0.032429
#
#
# Mechanical properties :
#
#
# Convention : Reuss Voigt Hill
#
# Bulk Modulus (GPa) = 50.54007 50.60463 50.57235
# Shear Modulus (GPa) = 33.18748 34.51595 33.85171
#
# Velocity S-wave (km/s) = 3.71629 3.78994 3.75329
# Velocity P-wave (km/s) = 6.28063 6.34116 6.31097
#
# Compressibility (1/GPa) = 0.01978628
#
# Stress axis : x y z
#
# Youngs Moduli (GPa) = 97.87005 90.39381 107.82226
#
# Poissons Ratio (x) = 0.21053 0.10103
# Poissons Ratio (y) = 0.22794 0.22839
# Poissons Ratio (z) = 0.09171 0.19148
#
# Static dielectric constant tensor:
#      x y z
#    x 4.297080 0.000000 0.000000 
#    y 0.000000 4.621510 0.000000 
#    z 0.000000 0.000000 3.993320 
# 
# 
# High freq. dielectric constant tensor:
#      x y z
#    x 1.952830 0.000000 0.000000 
#    y 0.000000 1.949360 0.000000 
#    z 0.000000 0.000000 1.948720 
# 
# From -- ./inp_files/4517.got.cif
#   From: 2010.03.12/outbox.cif.g09.slc.cpg/sg56_3_cif.got.tgz:4517.got - 2010.04.16 15:33:40.
