data_PCOD8228793
_publ_section_title
;
Structure prediction by ZEFSAII (Michael W. Deem and Ramdas Pophale) SiO2 
 PCOD8228793
Probable space group: P C C N
;
_chemical_formula_sum "Si O2"
_cell_formula_units_Z 56
_cell_length_a 14.766695
_cell_length_b 14.831377
_cell_length_c 12.678870
_cell_angle_alpha 90.000000
_cell_angle_beta 90.000000
_cell_angle_gamma 90.000000
_cell_volume 2776.804651
_symmetry_space_group_name_H-M "P C C N"
_symmetry_group_IT_number 56
_symmetry_cell_setting 'orthorhombic'
loop_
_space_group_symop_operation_xyz
x,y,z
1/2-x,1/2-y,z
1/2+x,-y,1/2-z
-x,1/2+y,1/2-z
-x,-y,-z
1/2+x,1/2+y,-z
1/2-x,y,1/2+z
x,1/2-y,1/2+z
loop_
_atom_site_type_symbol
_atom_site_label
_atom_site_fract_x
_atom_site_fract_y
_atom_site_fract_z
Si Si1 0.838642 0.193156 0.237394
Si Si2 0.687217 0.496930 0.132687
Si Si3 0.913532 0.468498 0.432590
Si Si4 0.876806 0.979275 0.705922
Si Si5 0.945486 0.336121 0.129556
Si Si6 0.500851 0.333320 0.393643
Si Si7 0.043524 0.152587 0.830057
O O1 0.750000 0.250000 0.270397
O O2 0.818373 0.089882 0.207863
O O3 0.887104 0.243937 0.138888
O O4 0.905448 0.191836 0.336871
O O5 0.780012 0.550084 0.157919
O O6 0.612218 0.571714 0.155450
O O7 0.673435 0.463881 0.010998
O O8 0.884885 0.532051 0.333317
O O9 0.000000 0.500000 0.500000
O O10 0.945064 0.373943 0.381153
O O11 0.957095 0.920984 0.657438
O O12 0.883670 0.081760 0.667525
O O13 0.033116 0.330302 0.205236
O O14 0.980409 0.354482 0.013842
O O15 0.431001 0.248115 0.384058
#
# Coordination Sequence:
#
# PCOD8228793 Si02
#       7
#     8   8   8   8   8   8   8
#     4  11  22  40  60  91 119 157 211 260 310 376
#     4  11  22  39  63  89 127 159 207 265 310 372
#     4   9  19  39  63  83 119 170 211 248 318 374
#     4  11  23  38  59  97 124 164 213 254 317 387
#     4  10  21  40  59  87 124 156 211 258 315 361
#     4  11  23  38  63  86 128 166 203 258 319 371
#     4   9  21  39  61  89 119 169 212 252 307 389
#
# _framework density 20.167065000000001
#
# number of rings (size 3 to 8) (size 9 to 14) (size 15 to 20)
#    0.000    1.714    1.429    3.857    0.000    6.857 
#    0.000    0.000    0.000    6.857    0.000    0.000 
#    0.000    0.000    0.000    0.000    0.000    0.000 
#
# Total GULP energy -693913.170142 kJ/mol
# GULP energy per Si atom -12391.306610 kJ/mol
# Density = 2.012116 g / cm^3
# Si number density = 20.167065 Si / 1000 Ang^3
#
#
#
# Elastic Constant Matrix: (Units=GPa)
#
#
# Indices 1 2 3 4 5 6 
#
# 1 94.4935 28.2305 50.3699 0.0000 0.0000 0.0000
# 2 28.2305 70.9882 22.7103 0.0000 0.0000 0.0000
# 3 50.3699 22.7103 149.2461 0.0000 0.0000 0.0000
# 4 0.0000 0.0000 0.0000 25.4719 0.0000 0.0000
# 5 0.0000 0.0000 0.0000 0.0000 29.5204 0.0000
# 6 0.0000 0.0000 0.0000 0.0000 0.0000 32.5996
#
#
#
# Elastic Compliance Matrix: (Units=1/GPa)
#
#
# Indices 1 2 3 4 5 6 
#
# 1 0.014039 -0.004275 -0.004087 0.000000 0.000000 0.000000
# 2 -0.004275 0.016110 -0.001008 0.000000 0.000000 0.000000
# 3 -0.004087 -0.001008 0.008233 0.000000 0.000000 0.000000
# 4 0.000000 0.000000 0.000000 0.039259 0.000000 0.000000
# 5 0.000000 0.000000 0.000000 0.000000 0.033875 0.000000
# 6 0.000000 0.000000 0.000000 0.000000 0.000000 0.030675
#
#
# Mechanical properties :
#
#
# Convention : Reuss Voigt Hill
#
# Bulk Modulus (GPa) = 50.91828 57.48326 54.20077
# Shear Modulus (GPa) = 29.85434 31.74618 30.80026
#
# Velocity S-wave (km/s) = 3.85171 3.97187 3.91225
# Velocity P-wave (km/s) = 6.71446 7.04271 6.88054
#
# Compressibility (1/GPa) = 0.01963931
#
# Stress axis : x y z
#
# Youngs Moduli (GPa) = 71.23088 62.07455 121.45784
#
# Poissons Ratio (x) = 0.26539 0.49646
# Poissons Ratio (y) = 0.30453 0.12249
# Poissons Ratio (z) = 0.29116 0.06260
#
# Static dielectric constant tensor:
#      x y z
#    x 3.563960 0.000000 0.000000 
#    y 0.000000 3.742890 0.000000 
#    z 0.000000 0.000000 3.907240 
# 
# 
# High freq. dielectric constant tensor:
#      x y z
#    x 1.766990 0.000000 0.000000 
#    y 0.000000 1.791390 0.000000 
#    z 0.000000 0.000000 1.793330 
# 
# From -- ./inp_files/7895.got.cif
#   From: 2010.03.12/outbox.cif.g09.slc.cpg/sg56_4_cif.got.tgz:7895.got - 2010.04.16 15:33:40.
