data_PCOD8228496
_publ_section_title
;
Structure prediction by ZEFSAII (Michael W. Deem and Ramdas Pophale) SiO2 
 PCOD8228496
Probable space group: P C C N
;
_chemical_formula_sum "Si O2"
_cell_formula_units_Z 60
_cell_length_a 14.893257
_cell_length_b 15.982860
_cell_length_c 13.002309
_cell_angle_alpha 90.000000
_cell_angle_beta 90.000000
_cell_angle_gamma 90.000000
_cell_volume 3095.028568
_symmetry_space_group_name_H-M "P C C N"
_symmetry_group_IT_number 56
_symmetry_cell_setting 'orthorhombic'
loop_
_space_group_symop_operation_xyz
x,y,z
1/2-x,1/2-y,z
1/2+x,-y,1/2-z
-x,1/2+y,1/2-z
-x,-y,-z
1/2+x,1/2+y,-z
1/2-x,y,1/2+z
x,1/2-y,1/2+z
loop_
_atom_site_type_symbol
_atom_site_label
_atom_site_fract_x
_atom_site_fract_y
_atom_site_fract_z
Si Si1 0.139798 0.040757 0.570715
Si Si2 0.024009 0.657248 0.913003
Si Si3 0.339521 0.597325 0.976237
Si Si4 0.998129 0.657090 0.346533
Si Si5 0.328294 0.533996 0.361898
Si Si6 0.907006 0.359500 0.863222
Si Si7 0.750000 0.250000 0.911240
Si Si8 0.330761 0.455710 0.139483
O O1 0.234709 0.081248 0.603496
O O2 0.059534 0.097251 0.609993
O O3 0.130698 0.028614 0.447834
O O4 0.136697 0.950237 0.624075
O O5 0.110729 0.617699 0.856700
O O6 0.998164 0.744262 0.862495
O O7 0.041518 0.669055 0.033994
O O8 0.433511 0.611694 0.922022
O O9 0.272673 0.558008 0.892405
O O10 0.298611 0.683958 0.015201
O O11 0.358161 0.534307 0.069520
O O12 0.900603 0.619967 0.371409
O O13 0.022633 0.639638 0.228585
O O14 0.327326 0.485853 0.256002
O O15 0.824270 0.295834 0.840249
#
# Coordination Sequence:
#
# PCOD8228496 Si02
#       8
#     8   8   8   8   8   8   4   8
#     4  10  21  41  62  82 119 162 204 246 295 360
#     4  11  22  38  61  88 119 159 201 247 298 363
#     4  11  22  39  60  92 126 154 193 261 317 362
#     4  12  25  37  59  90 125 161 204 247 302 363
#     4  10  20  38  65  86 114 158 200 247 317 365
#     4  11  22  41  62  93 123 153 199 254 315 378
#     4  12  20  40  64  94 122 146 192 260 322 364
#     4  11  23  40  59  87 123 166 204 248 297 363
#
# _framework density 19.385928
#
# number of rings (size 3 to 8) (size 9 to 14) (size 15 to 20)
#    0.000    1.067    5.333    4.400    1.867    1.067 
#    0.000    2.667    0.000    4.800    0.000    0.000 
#    0.000    0.000    0.000    0.000    0.000    0.000 
#
# Total GULP energy -744236.902212 kJ/mol
# GULP energy per Si atom -12403.948370 kJ/mol
# Density = 1.934180 g / cm^3
# Si number density = 19.385928 Si / 1000 Ang^3
#
#
#
# Elastic Constant Matrix: (Units=GPa)
#
#
# Indices 1 2 3 4 5 6 
#
# 1 102.4171 44.6411 23.8003 0.0000 0.0000 0.0000
# 2 44.6411 63.5645 24.1799 0.0000 0.0000 0.0000
# 3 23.8003 24.1799 71.1794 0.0000 0.0000 0.0000
# 4 0.0000 0.0000 0.0000 14.7351 0.0000 0.0000
# 5 0.0000 0.0000 0.0000 0.0000 24.7050 0.0000
# 6 0.0000 0.0000 0.0000 0.0000 0.0000 44.0441
#
#
#
# Elastic Compliance Matrix: (Units=1/GPa)
#
#
# Indices 1 2 3 4 5 6 
#
# 1 0.014222 -0.009393 -0.001565 0.000000 0.000000 0.000000
# 2 -0.009393 0.024270 -0.005104 0.000000 0.000000 0.000000
# 3 -0.001565 -0.005104 0.016306 0.000000 0.000000 0.000000
# 4 0.000000 0.000000 0.000000 0.067865 0.000000 0.000000
# 5 0.000000 0.000000 0.000000 0.000000 0.040478 0.000000
# 6 0.000000 0.000000 0.000000 0.000000 0.000000 0.022705
#
#
# Mechanical properties :
#
#
# Convention : Reuss Voigt Hill
#
# Bulk Modulus (GPa) = 44.10097 46.93373 45.51735
# Shear Modulus (GPa) = 22.17043 26.33282 24.25162
#
# Velocity S-wave (km/s) = 3.38544 3.68957 3.54077
# Velocity P-wave (km/s) = 6.17089 6.51256 6.34402
#
# Compressibility (1/GPa) = 0.02267524
#
# Stress axis : x y z
#
# Youngs Moduli (GPa) = 70.31559 41.20308 61.32709
#
# Poissons Ratio (x) = 0.38700 0.09595
# Poissons Ratio (y) = 0.66045 0.31301
# Poissons Ratio (z) = 0.11001 0.21030
#
# Static dielectric constant tensor:
#      x y z
#    x 3.769050 0.000000 0.000000 
#    y 0.000000 3.468420 0.000000 
#    z 0.000000 0.000000 3.555890 
# 
# 
# High freq. dielectric constant tensor:
#      x y z
#    x 1.764120 0.000000 0.000000 
#    y 0.000000 1.745310 0.000000 
#    z 0.000000 0.000000 1.753280 
# 
# From -- ./inp_files/8031.got.cif
#   From: 2010.03.12/outbox.cif.g09.slc.cpg/sg56_5_cif.got.tgz:8031.got - 2010.04.16 15:33:40.
