data_PCOD8228646
_publ_section_title
;
Structure prediction by ZEFSAII (Michael W. Deem and Ramdas Pophale) SiO2 
 PCOD8228646
Probable space group: P C C N
;
_chemical_formula_sum "Si O2"
_cell_formula_units_Z 64
_cell_length_a 18.509942
_cell_length_b 9.337569
_cell_length_c 20.491595
_cell_angle_alpha 90.000000
_cell_angle_beta 90.000000
_cell_angle_gamma 90.000000
_cell_volume 3541.723440
_symmetry_space_group_name_H-M "P C C N"
_symmetry_group_IT_number 56
_symmetry_cell_setting 'orthorhombic'
loop_
_space_group_symop_operation_xyz
x,y,z
1/2-x,1/2-y,z
1/2+x,-y,1/2-z
-x,1/2+y,1/2-z
-x,-y,-z
1/2+x,1/2+y,-z
1/2-x,y,1/2+z
x,1/2-y,1/2+z
loop_
_atom_site_type_symbol
_atom_site_label
_atom_site_fract_x
_atom_site_fract_y
_atom_site_fract_z
Si Si1 0.073181 0.584454 0.760317
Si Si2 0.411724 0.912100 0.616444
Si Si3 0.926819 0.084454 0.239683
Si Si4 0.167707 0.081747 0.507834
Si Si5 0.420156 0.417827 0.381748
Si Si6 0.167707 0.418253 0.507834
Si Si7 0.411724 0.587900 0.616444
Si Si8 0.420156 0.082173 0.381748
O O1 0.115840 0.573523 0.691571
O O2 0.057634 0.750000 0.777612
O O3 0.113686 0.507112 0.820758
O O4 0.000000 0.500000 0.750000
O O5 0.402011 0.750000 0.591823
O O6 0.495661 0.956309 0.609397
O O7 0.362342 0.013197 0.573455
O O8 0.884160 0.073523 0.308429
O O9 0.886315 0.007112 0.179242
O O10 0.121650 0.029874 0.445864
O O11 0.160882 0.250000 0.516730
O O12 0.250000 0.033467 0.497029
O O13 0.137658 0.013197 0.573455
O O14 0.504339 0.456309 0.390603
O O15 0.408789 0.250000 0.367672
O O16 0.121650 0.470126 0.445864
#
# Coordination Sequence:
#
# PCOD8228646 Si02
#       8
#     8   8   8   8   8   8   8   8
#     4   9  17  30  50  77 103 126 159 202 247 293
#     4   9  18  32  51  75 100 128 162 201 245 291
#     4   9  17  30  50  77 103 126 159 202 247 293
#     4  10  21  35  50  71 100 133 168 205 245 290
#     4   9  18  33  52  75 102 129 161 203 247 291
#     4  10  21  35  50  71 100 133 168 205 245 290
#     4   9  18  32  51  75 100 128 162 201 245 291
#     4   9  18  33  52  75 102 129 161 203 247 291
#
# _framework density 18.070298999999999
#
# number of rings (size 3 to 8) (size 9 to 14) (size 15 to 20)
#    0.000    2.750    0.000    3.000    0.000    6.500 
#    0.000    1.250    0.000    4.500    0.000    0.000 
#    0.000    0.000    0.000    0.000    0.000    0.000 
#
# Total GULP energy -793339.908272 kJ/mol
# GULP energy per Si atom -12395.936067 kJ/mol
# Density = 1.802917 g / cm^3
# Si number density = 18.070299 Si / 1000 Ang^3
#
#
#
# Elastic Constant Matrix: (Units=GPa)
#
#
# Indices 1 2 3 4 5 6 
#
# 1 55.8666 26.7062 37.5744 0.0000 0.0000 0.0000
# 2 26.7062 67.6716 58.3844 0.0000 0.0000 0.0000
# 3 37.5744 58.3844 125.5759 0.0000 0.0000 0.0000
# 4 0.0000 0.0000 0.0000 40.4890 0.0000 0.0000
# 5 0.0000 0.0000 0.0000 0.0000 3.4985 0.0000
# 6 0.0000 0.0000 0.0000 0.0000 0.0000 20.7113
#
#
#
# Elastic Compliance Matrix: (Units=1/GPa)
#
#
# Indices 1 2 3 4 5 6 
#
# 1 0.023519 -0.005360 -0.004545 0.000000 0.000000 0.000000
# 2 -0.005360 0.025897 -0.010436 0.000000 0.000000 0.000000
# 3 -0.004545 -0.010436 0.014175 0.000000 0.000000 0.000000
# 4 0.000000 0.000000 0.000000 0.024698 0.000000 0.000000
# 5 0.000000 0.000000 0.000000 0.000000 0.285841 0.000000
# 6 0.000000 0.000000 0.000000 0.000000 0.000000 0.048283
#
#
# Mechanical properties :
#
#
# Convention : Reuss Voigt Hill
#
# Bulk Modulus (GPa) = 43.65334 54.93824 49.29579
# Shear Modulus (GPa) = 10.62174 21.36968 15.99571
#
# Velocity S-wave (km/s) = 2.42709 3.44261 2.97845
# Velocity P-wave (km/s) = 5.66254 6.80225 6.25839
#
# Compressibility (1/GPa) = 0.02290775
#
# Stress axis : x y z
#
# Youngs Moduli (GPa) = 42.51851 38.61488 70.54437
#
# Poissons Ratio (x) = 0.20699 0.32063
# Poissons Ratio (y) = 0.22792 0.73622
# Poissons Ratio (z) = 0.19325 0.40300
#
# Static dielectric constant tensor:
#      x y z
#    x 3.056200 0.000000 0.000000 
#    y 0.000000 3.449840 0.000000 
#    z 0.000000 0.000000 3.908690 
# 
# 
# High freq. dielectric constant tensor:
#      x y z
#    x 1.657770 0.000000 0.000000 
#    y 0.000000 1.701650 0.000000 
#    z 0.000000 0.000000 1.717260 
# 
# From -- ./inp_files/19336.got.cif
#   From: 2010.03.12/outbox.cif.g09.slc.cpg/sg56_10_cif.got.tgz:19336.got - 2010.04.16 15:33:40.
