data_PCOD8228657
_publ_section_title
;
Structure prediction by ZEFSAII (Michael W. Deem and Ramdas Pophale) SiO2 
 PCOD8228657
Probable space group: P C C N
;
_chemical_formula_sum "Si O2"
_cell_formula_units_Z 32
_cell_length_a 14.033935
_cell_length_b 8.568245
_cell_length_c 9.589969
_cell_angle_alpha 90.000000
_cell_angle_beta 90.000000
_cell_angle_gamma 90.000000
_cell_volume 1153.157267
_symmetry_space_group_name_H-M "P C C N"
_symmetry_group_IT_number 56
_symmetry_cell_setting 'orthorhombic'
loop_
_space_group_symop_operation_xyz
x,y,z
1/2-x,1/2-y,z
1/2+x,-y,1/2-z
-x,1/2+y,1/2-z
-x,-y,-z
1/2+x,1/2+y,-z
1/2-x,y,1/2+z
x,1/2-y,1/2+z
loop_
_atom_site_type_symbol
_atom_site_label
_atom_site_fract_x
_atom_site_fract_y
_atom_site_fract_z
Si Si1 0.888613 0.261389 0.469261
Si Si2 0.360713 0.347969 0.755668
Si Si3 0.759754 0.512470 0.003629
Si Si4 0.992234 0.378170 0.718001
O O1 0.830043 0.419743 0.438498
O O2 0.831554 0.124908 0.552471
O O3 0.979564 0.305721 0.563553
O O4 0.913686 0.194043 0.319932
O O5 0.311629 0.373599 0.606084
O O6 0.279564 0.383853 0.868380
O O7 0.399014 0.166895 0.763798
O O8 0.462130 0.439687 0.779836
#
# Coordination Sequence:
#
# PCOD8228657 Si02
#       4
#     8   8   8   8
#     4   9  18  36  60  87 116 158 204 239 286 364
#     4  10  21  39  63  89 118 156 202 248 295 353
#     4   9  18  34  62  87 114 157 206 241 284 361
#     4  10  21  35  61  91 120 152 200 252 297 347
#
# _framework density 27.749903
#
# number of rings (size 3 to 8) (size 9 to 14) (size 15 to 20)
#    0.000    2.500    0.000    1.500    0.000   14.000 
#    0.000    2.500    0.000   37.500    0.000    0.000 
#    0.000    0.000    0.000    0.000    0.000    0.000 
#
# Total GULP energy -396497.161801 kJ/mol
# GULP energy per Si atom -12390.536306 kJ/mol
# Density = 2.768674 g / cm^3
# Si number density = 27.749903 Si / 1000 Ang^3
#
#
#
# Elastic Constant Matrix: (Units=GPa)
#
#
# Indices 1 2 3 4 5 6 
#
# 1 86.6827 51.3590 10.0190 0.0000 0.0000 0.0000
# 2 51.3590 99.3378 26.1257 0.0000 0.0000 0.0000
# 3 10.0190 26.1257 80.7689 0.0000 0.0000 0.0000
# 4 0.0000 0.0000 0.0000 -12.8427 0.0000 0.0000
# 5 0.0000 0.0000 0.0000 0.0000 15.7060 0.0000
# 6 0.0000 0.0000 0.0000 0.0000 0.0000 57.3370
#
#
#
# Elastic Compliance Matrix: (Units=1/GPa)
#
#
# Indices 1 2 3 4 5 6 
#
# 1 0.016676 -0.008829 0.000787 0.000000 0.000000 0.000000
# 2 -0.008829 0.015677 -0.003976 0.000000 0.000000 0.000000
# 3 0.000787 -0.003976 0.013569 0.000000 0.000000 0.000000
# 4 0.000000 0.000000 0.000000 -0.077865 0.000000 0.000000
# 5 0.000000 0.000000 0.000000 0.000000 0.063670 0.000000
# 6 0.000000 0.000000 0.000000 0.000000 0.000000 0.017441
#
#
# Mechanical properties :
#
#
# Convention : Reuss Voigt Hill
#
# Bulk Modulus (GPa) = 45.68757 49.08853 47.38805
# Shear Modulus (GPa) = 62.11203 23.99241 43.05222
#
# Velocity S-wave (km/s) = 4.73618 2.94359 3.94310
# Velocity P-wave (km/s) = 6.81236 5.41119 6.15180
#
# Compressibility (1/GPa) = 0.02188779
#
# Stress axis : x y z
#
# Youngs Moduli (GPa) = 59.96465 63.78769 73.69550
#
# Poissons Ratio (x) = 0.56318 -0.05802
# Poissons Ratio (y) = 0.52943 0.29299
# Poissons Ratio (z) = -0.04721 0.25360
#
# Static dielectric constant tensor:
#      x y z
#    x 5.002370 0.000000 0.000000 
#    y 0.000000 5.365980 0.000000 
#    z 0.000000 0.000000 4.695950 
# 
# 
# High freq. dielectric constant tensor:
#      x y z
#    x 2.126410 0.000000 0.000000 
#    y 0.000000 2.135250 0.000000 
#    z 0.000000 0.000000 2.105150 
# 
# From -- ./inp_files/3103.got.cif
#   From: 2010.03.12/outbox.cif.g09.slc.cpg/sg56_2_cif.got.tgz:3103.got - 2010.04.16 15:33:40.
