data_PCOD8228593
_publ_section_title
;
Structure prediction by ZEFSAII (Michael W. Deem and Ramdas Pophale) SiO2 
 PCOD8228593
Probable space group: P C C N
;
_chemical_formula_sum "Si O2"
_cell_formula_units_Z 48
_cell_length_a 11.979443
_cell_length_b 11.623029
_cell_length_c 17.541411
_cell_angle_alpha 90.000000
_cell_angle_beta 90.000000
_cell_angle_gamma 90.000000
_cell_volume 2442.420695
_symmetry_space_group_name_H-M "P C C N"
_symmetry_group_IT_number 56
_symmetry_cell_setting 'orthorhombic'
loop_
_space_group_symop_operation_xyz
x,y,z
1/2-x,1/2-y,z
1/2+x,-y,1/2-z
-x,1/2+y,1/2-z
-x,-y,-z
1/2+x,1/2+y,-z
1/2-x,y,1/2+z
x,1/2-y,1/2+z
loop_
_atom_site_type_symbol
_atom_site_label
_atom_site_fract_x
_atom_site_fract_y
_atom_site_fract_z
Si Si1 0.603464 0.342109 0.869058
Si Si2 0.599720 0.489960 0.153675
Si Si3 0.074677 0.431372 0.056820
Si Si4 0.848075 0.094546 0.319186
Si Si5 0.715136 0.622518 0.035052
Si Si6 0.512635 0.182047 0.532877
O O1 0.504795 0.423145 0.837488
O O2 0.593142 0.218523 0.827759
O O3 0.721322 0.400951 0.849707
O O4 0.595191 0.316127 0.959926
O O5 0.647659 0.443169 0.232118
O O6 0.704674 0.553451 0.113996
O O7 0.568933 0.380301 0.103202
O O8 0.081158 0.497239 0.136766
O O9 0.021757 0.305915 0.065580
O O10 0.198037 0.431281 0.022629
O O11 0.000000 0.500000 0.000000
O O12 0.750000 0.750000 0.058562
O O13 0.596971 0.612594 0.992388
#
# Coordination Sequence:
#
# PCOD8228593 Si02
#       6
#     8   8   8   8   8   8
#     4  10  22  45  60  85 127 167 206 256 312 366
#     4  11  23  40  65  90 123 165 208 256 319 374
#     4  11  21  38  62  95 122 162 208 251 300 372
#     4  11  24  39  60  94 131 160 198 267 316 361
#     4   9  20  40  64  90 118 159 215 254 303 371
#     4  10  20  41  69  87 117 168 209 251 304 379
#
# _framework density 19.652633999999999
#
# number of rings (size 3 to 8) (size 9 to 14) (size 15 to 20)
#    0.000    1.667    1.667    4.000    2.333    1.333 
#    3.000    2.500    0.000    0.000    0.000    0.000 
#    0.000    0.000    0.000    0.000    0.000    0.000 
#
# Total GULP energy -595238.358903 kJ/mol
# GULP energy per Si atom -12400.799144 kJ/mol
# Density = 1.960790 g / cm^3
# Si number density = 19.652634 Si / 1000 Ang^3
#
#
#
# Elastic Constant Matrix: (Units=GPa)
#
#
# Indices 1 2 3 4 5 6 
#
# 1 65.9268 33.1652 36.9933 0.0000 0.0000 0.0000
# 2 33.1652 90.1159 58.3785 0.0000 0.0000 0.0000
# 3 36.9933 58.3785 138.3733 0.0000 0.0000 0.0000
# 4 0.0000 0.0000 0.0000 35.0619 0.0000 0.0000
# 5 0.0000 0.0000 0.0000 0.0000 12.6620 0.0000
# 6 0.0000 0.0000 0.0000 0.0000 0.0000 26.6345
#
#
#
# Elastic Compliance Matrix: (Units=1/GPa)
#
#
# Indices 1 2 3 4 5 6 
#
# 1 0.019482 -0.005223 -0.003005 0.000000 0.000000 0.000000
# 2 -0.005223 0.016671 -0.005637 0.000000 0.000000 0.000000
# 3 -0.003005 -0.005637 0.010408 0.000000 0.000000 0.000000
# 4 0.000000 0.000000 0.000000 0.028521 0.000000 0.000000
# 5 0.000000 0.000000 0.000000 0.000000 0.078977 0.000000
# 6 0.000000 0.000000 0.000000 0.000000 0.000000 0.037545
#
#
# Mechanical properties :
#
#
# Convention : Reuss Voigt Hill
#
# Bulk Modulus (GPa) = 53.10336 61.27667 57.19002
# Shear Modulus (GPa) = 22.16201 25.93027 24.04614
#
# Velocity S-wave (km/s) = 3.36175 3.63634 3.50173
# Velocity P-wave (km/s) = 6.49216 6.99129 6.74634
#
# Compressibility (1/GPa) = 0.01883120
#
# Stress axis : x y z
#
# Youngs Moduli (GPa) = 51.32920 59.98496 96.07779
#
# Poissons Ratio (x) = 0.31333 0.28868
# Poissons Ratio (y) = 0.26812 0.54157
# Poissons Ratio (z) = 0.15423 0.33812
#
# Static dielectric constant tensor:
#      x y z
#    x 3.493390 0.000000 0.000000 
#    y 0.000000 3.632310 0.000000 
#    z 0.000000 0.000000 3.304880 
# 
# 
# High freq. dielectric constant tensor:
#      x y z
#    x 1.766590 0.000000 0.000000 
#    y 0.000000 1.785570 0.000000 
#    z 0.000000 0.000000 1.755620 
# 
# From -- ./inp_files/15589.got.cif
#   From: 2010.03.12/outbox.cif.g09.slc.cpg/sg56_8_cif.got.tgz:15589.got - 2010.04.16 15:33:40.
