data_PCOD8228132
_publ_section_title
;
Structure prediction by ZEFSAII (Michael W. Deem and Ramdas Pophale) SiO2 
 PCOD8228132
Probable space group: P C C N
;
_chemical_formula_sum "Si O2"
_cell_formula_units_Z 56
_cell_length_a 8.509696
_cell_length_b 15.836125
_cell_length_c 19.200638
_cell_angle_alpha 90.000000
_cell_angle_beta 90.000000
_cell_angle_gamma 90.000000
_cell_volume 2587.489681
_symmetry_space_group_name_H-M "P C C N"
_symmetry_group_IT_number 56
_symmetry_cell_setting 'orthorhombic'
loop_
_space_group_symop_operation_xyz
x,y,z
1/2-x,1/2-y,z
1/2+x,-y,1/2-z
-x,1/2+y,1/2-z
-x,-y,-z
1/2+x,1/2+y,-z
1/2-x,y,1/2+z
x,1/2-y,1/2+z
loop_
_atom_site_type_symbol
_atom_site_label
_atom_site_fract_x
_atom_site_fract_y
_atom_site_fract_z
Si Si1 0.362836 0.063540 0.388722
Si Si2 0.915241 0.568939 0.352674
Si Si3 0.433384 0.441750 0.602696
Si Si4 0.667485 0.031614 0.219888
Si Si5 0.876783 0.185817 0.223555
Si Si6 0.568294 0.743029 0.148018
Si Si7 0.445293 0.108630 0.954407
O O1 0.467690 0.146571 0.373274
O O2 0.238737 0.079781 0.450902
O O3 0.477250 0.984570 0.407334
O O4 0.257346 0.042571 0.320915
O O5 0.743029 0.585764 0.380301
O O6 0.921042 0.511342 0.283497
O O7 0.996049 0.659279 0.335443
O O8 0.542119 0.421706 0.669126
O O9 0.442607 0.541047 0.584051
O O10 0.490313 0.386824 0.536081
O O11 0.788813 0.100891 0.248873
O O12 0.750000 0.250000 0.190474
O O13 0.958530 0.230502 0.288657
O O14 0.750000 0.750000 0.170517
O O15 0.530744 0.800860 0.081051
#
# Coordination Sequence:
#
# PCOD8228132 Si02
#       7
#     8   8   8   8   8   8   8
#     4   9  19  34  56  82 113 150 197 249 286 343
#     4  11  20  34  58  86 114 153 197 235 298 363
#     4  10  20  36  59  82 113 156 193 232 286 353
#     4  10  20  37  58  86 119 153 193 240 296 360
#     4  11  23  36  54  85 121 149 188 251 306 349
#     4  10  19  35  58  84 110 146 197 246 288 341
#     4   9  19  36  56  82 112 147 194 243 288 336
#
# _framework density 21.642598
#
# number of rings (size 3 to 8) (size 9 to 14) (size 15 to 20)
#    0.000    2.000    0.000    6.000    0.000    1.714 
#    0.000    4.286    0.000    0.857    0.000    0.000 
#    0.000    0.000    0.000    0.000    0.000    0.000 
#
# Total GULP energy -694316.301674 kJ/mol
# GULP energy per Si atom -12398.505387 kJ/mol
# Density = 2.159334 g / cm^3
# Si number density = 21.642598 Si / 1000 Ang^3
#
#
#
# Elastic Constant Matrix: (Units=GPa)
#
#
# Indices 1 2 3 4 5 6 
#
# 1 92.4973 32.4230 21.4951 0.0000 0.0000 0.0000
# 2 32.4230 97.8395 19.0450 0.0000 0.0000 0.0000
# 3 21.4951 19.0450 60.3211 0.0000 0.0000 0.0000
# 4 0.0000 0.0000 0.0000 19.4279 0.0000 0.0000
# 5 0.0000 0.0000 0.0000 0.0000 27.6228 0.0000
# 6 0.0000 0.0000 0.0000 0.0000 0.0000 42.4253
#
#
#
# Elastic Compliance Matrix: (Units=1/GPa)
#
#
# Indices 1 2 3 4 5 6 
#
# 1 0.012873 -0.003594 -0.003453 0.000000 0.000000 0.000000
# 2 -0.003594 0.011893 -0.002474 0.000000 0.000000 0.000000
# 3 -0.003453 -0.002474 0.018589 0.000000 0.000000 0.000000
# 4 0.000000 0.000000 0.000000 0.051472 0.000000 0.000000
# 5 0.000000 0.000000 0.000000 0.000000 0.036202 0.000000
# 6 0.000000 0.000000 0.000000 0.000000 0.000000 0.023571
#
#
# Mechanical properties :
#
#
# Convention : Reuss Voigt Hill
#
# Bulk Modulus (GPa) = 41.12813 44.06492 42.59653
# Shear Modulus (GPa) = 27.51058 29.74152 28.62605
#
# Velocity S-wave (km/s) = 3.56916 3.71106 3.64080
# Velocity P-wave (km/s) = 6.00248 6.22632 6.11543
#
# Compressibility (1/GPa) = 0.02431426
#
# Stress axis : x y z
#
# Youngs Moduli (GPa) = 77.68040 84.07958 53.79387
#
# Poissons Ratio (x) = 0.30218 0.18573
# Poissons Ratio (y) = 0.27918 0.13311
# Poissons Ratio (z) = 0.26820 0.20805
#
# Static dielectric constant tensor:
#      x y z
#    x 4.026390 0.000000 0.000000 
#    y 0.000000 3.958530 0.000000 
#    z 0.000000 0.000000 3.626700 
# 
# 
# High freq. dielectric constant tensor:
#      x y z
#    x 1.856790 0.000000 0.000000 
#    y 0.000000 1.841480 0.000000 
#    z 0.000000 0.000000 1.820740 
# 
# From -- ./inp_files/18255.got.cif
#   From: 2010.03.12/outbox.cif.g09.slc.cpg/sg56_10_cif.got.tgz:18255.got - 2010.04.16 15:33:40.
