data_PCOD8228242
_publ_section_title
;
Structure prediction by ZEFSAII (Michael W. Deem and Ramdas Pophale) SiO2 
 PCOD8228242
Probable space group: P C C N
;
_chemical_formula_sum "Si O2"
_cell_formula_units_Z 44
_cell_length_a 8.102957
_cell_length_b 18.138401
_cell_length_c 14.614829
_cell_angle_alpha 90.000000
_cell_angle_beta 90.000000
_cell_angle_gamma 90.000000
_cell_volume 2148.009865
_symmetry_space_group_name_H-M "P C C N"
_symmetry_group_IT_number 56
_symmetry_cell_setting 'orthorhombic'
loop_
_space_group_symop_operation_xyz
x,y,z
1/2-x,1/2-y,z
1/2+x,-y,1/2-z
-x,1/2+y,1/2-z
-x,-y,-z
1/2+x,1/2+y,-z
1/2-x,y,1/2+z
x,1/2-y,1/2+z
loop_
_atom_site_type_symbol
_atom_site_label
_atom_site_fract_x
_atom_site_fract_y
_atom_site_fract_z
Si Si1 0.756961 0.333221 0.564582
Si Si2 0.409790 0.390096 0.512828
Si Si3 0.910689 0.301642 0.387638
Si Si4 0.250000 0.250000 0.947751
Si Si5 0.484904 0.987305 0.145851
Si Si6 0.707741 0.412210 0.748006
O O1 0.750000 0.250000 0.601084
O O2 0.586655 0.351533 0.514495
O O3 0.897874 0.344073 0.486306
O O4 0.786442 0.383646 0.652904
O O5 0.273415 0.324628 0.508650
O O6 0.398289 0.444410 0.425636
O O7 0.389702 0.442026 0.601926
O O8 0.750000 0.250000 0.381547
O O9 0.910798 0.354120 0.299152
O O10 0.086086 0.258761 0.384837
O O11 0.600557 0.015269 0.227857
O O12 0.354600 0.929814 0.183764
#
# Coordination Sequence:
#
# PCOD8228242 Si02
#       6
#     8   8   8   4   8   8
#     4  10  19  40  65  88 123 172 204 262 335 376
#     4  10  21  41  63  89 127 169 209 274 321 388
#     4  11  22  42  66  96 132 167 214 273 333 385
#     4  12  22  38  74  98 120 168 226 272 334 386
#     4  10  23  41  60  89 133 169 213 264 327 392
#     4  11  23  39  63  91 129 174 216 262 322 389
#
# _framework density 20.484078
#
# number of rings (size 3 to 8) (size 9 to 14) (size 15 to 20)
#    0.000    1.455    5.455    0.545    2.545    1.455 
#    0.000    5.455    0.000    0.000    0.000    0.000 
#    0.000    0.000    0.000    0.000    0.000    0.000 
#
# Total GULP energy -545441.543338 kJ/mol
# GULP energy per Si atom -12396.398712 kJ/mol
# Density = 2.043746 g / cm^3
# Si number density = 20.484078 Si / 1000 Ang^3
#
#
#
# Elastic Constant Matrix: (Units=GPa)
#
#
# Indices 1 2 3 4 5 6 
#
# 1 88.4464 25.6972 30.4380 0.0000 0.0000 0.0000
# 2 25.6972 93.6903 28.9065 0.0000 0.0000 0.0000
# 3 30.4380 28.9065 84.0462 0.0000 0.0000 0.0000
# 4 0.0000 0.0000 0.0000 36.1138 0.0000 0.0000
# 5 0.0000 0.0000 0.0000 0.0000 17.6303 0.0000
# 6 0.0000 0.0000 0.0000 0.0000 0.0000 39.8207
#
#
#
# Elastic Compliance Matrix: (Units=1/GPa)
#
#
# Indices 1 2 3 4 5 6 
#
# 1 0.013395 -0.002436 -0.004013 0.000000 0.000000 0.000000
# 2 -0.002436 0.012383 -0.003377 0.000000 0.000000 0.000000
# 3 -0.004013 -0.003377 0.014513 0.000000 0.000000 0.000000
# 4 0.000000 0.000000 0.000000 0.027690 0.000000 0.000000
# 5 0.000000 0.000000 0.000000 0.000000 0.056721 0.000000
# 6 0.000000 0.000000 0.000000 0.000000 0.000000 0.025113
#
#
# Mechanical properties :
#
#
# Convention : Reuss Voigt Hill
#
# Bulk Modulus (GPa) = 48.45081 48.47401 48.46241
# Shear Modulus (GPa) = 28.35315 30.78903 29.57109
#
# Velocity S-wave (km/s) = 3.72446 3.88115 3.80361
# Velocity P-wave (km/s) = 6.49613 6.61816 6.55743
#
# Compressibility (1/GPa) = 0.02063949
#
# Stress axis : x y z
#
# Youngs Moduli (GPa) = 74.65391 80.75305 68.90285
#
# Poissons Ratio (x) = 0.19669 0.27654
# Poissons Ratio (y) = 0.18184 0.23268
# Poissons Ratio (z) = 0.29962 0.27270
#
# Static dielectric constant tensor:
#      x y z
#    x 3.477100 0.000000 0.000000 
#    y 0.000000 4.242690 0.000000 
#    z 0.000000 0.000000 3.798650 
# 
# 
# High freq. dielectric constant tensor:
#      x y z
#    x 1.775400 0.000000 0.000000 
#    y 0.000000 1.810610 0.000000 
#    z 0.000000 0.000000 1.796690 
# 
# From -- ./inp_files/10556.got.cif
#   From: 2010.03.12/outbox.cif.g09.slc.cpg/sg56_6_cif.got.tgz:10556.got - 2010.04.16 15:33:40.
