data_PCOD8228363
_publ_section_title
;
Structure prediction by ZEFSAII (Michael W. Deem and Ramdas Pophale) SiO2 
 PCOD8228363
Probable space group: P C C N
;
_chemical_formula_sum "Si O2"
_cell_formula_units_Z 40
_cell_length_a 19.034209
_cell_length_b 4.901878
_cell_length_c 17.951277
_cell_angle_alpha 90.000000
_cell_angle_beta 90.000000
_cell_angle_gamma 90.000000
_cell_volume 1674.914646
_symmetry_space_group_name_H-M "P C C N"
_symmetry_group_IT_number 56
_symmetry_cell_setting 'orthorhombic'
loop_
_space_group_symop_operation_xyz
x,y,z
1/2-x,1/2-y,z
1/2+x,-y,1/2-z
-x,1/2+y,1/2-z
-x,-y,-z
1/2+x,1/2+y,-z
1/2-x,y,1/2+z
x,1/2-y,1/2+z
loop_
_atom_site_type_symbol
_atom_site_label
_atom_site_fract_x
_atom_site_fract_y
_atom_site_fract_z
Si Si1 0.250000 0.250000 0.070286
Si Si2 0.537893 0.218085 0.073564
Si Si3 0.461248 0.274594 0.823933
Si Si4 0.607594 0.428173 0.791025
Si Si5 0.250000 0.750000 0.176872
Si Si6 0.392543 0.078619 0.538157
O O1 0.231839 0.499970 0.123630
O O2 0.182138 0.211469 0.015622
O O3 0.544190 0.416953 0.145985
O O4 0.460928 0.223933 0.033609
O O5 0.551626 0.915449 0.103533
O O6 0.595099 0.309834 0.012368
O O7 0.539197 0.227754 0.787277
O O8 0.404614 0.194707 0.760980
O O9 0.681957 0.291320 0.768760
O O10 0.618193 0.505714 0.876265
#
# Coordination Sequence:
#
# PCOD8228363 Si02
#       6
#     4   8   8   8   4   8
#     4  10  20  36  58  86 114 152 196 246 292 350
#     4  10  22  37  56  85 116 149 188 242 291 344
#     4  11  22  37  59  85 117 151 193 239 295 346
#     4  10  21  39  62  88 116 157 201 247 293 354
#     4  10  22  36  58  88 118 148 198 250 296 342
#     4   9  20  37  59  83 113 149 195 237 287 344
#
# _framework density 23.881813999999999
#
# number of rings (size 3 to 8) (size 9 to 14) (size 15 to 20)
#    0.000    2.000    0.000    3.600    0.000   15.200 
#    0.000    2.000    0.000    0.000    0.000    0.000 
#    0.000    0.000    0.000    0.000    0.000    0.000 
#
# Total GULP energy -495768.919659 kJ/mol
# GULP energy per Si atom -12394.222991 kJ/mol
# Density = 2.382746 g / cm^3
# Si number density = 23.881814 Si / 1000 Ang^3
#
#
#
# Elastic Constant Matrix: (Units=GPa)
#
#
# Indices 1 2 3 4 5 6 
#
# 1 174.4312 4.6933 20.0871 0.0000 0.0000 0.0000
# 2 4.6933 51.2492 -9.9154 0.0000 0.0000 0.0000
# 3 20.0871 -9.9154 81.8054 0.0000 0.0000 0.0000
# 4 0.0000 0.0000 0.0000 29.3866 0.0000 0.0000
# 5 0.0000 0.0000 0.0000 0.0000 29.1525 0.0000
# 6 0.0000 0.0000 0.0000 0.0000 0.0000 36.7940
#
#
#
# Elastic Compliance Matrix: (Units=1/GPa)
#
#
# Indices 1 2 3 4 5 6 
#
# 1 0.005935 -0.000845 -0.001560 0.000000 0.000000 0.000000
# 2 -0.000845 0.020101 0.002644 0.000000 0.000000 0.000000
# 3 -0.001560 0.002644 0.012928 0.000000 0.000000 0.000000
# 4 0.000000 0.000000 0.000000 0.034029 0.000000 0.000000
# 5 0.000000 0.000000 0.000000 0.000000 0.034302 0.000000
# 6 0.000000 0.000000 0.000000 0.000000 0.000000 0.027178
#
#
# Mechanical properties :
#
#
# Convention : Reuss Voigt Hill
#
# Bulk Modulus (GPa) = 25.35369 37.46842 31.41105
# Shear Modulus (GPa) = 33.98035 38.57468 36.27751
#
# Velocity S-wave (km/s) = 3.77617 4.02336 3.90172
# Velocity P-wave (km/s) = 5.44536 6.10789 5.78612
#
# Compressibility (1/GPa) = 0.03944199
#
# Stress axis : x y z
#
# Youngs Moduli (GPa) = 168.48369 49.74766 77.35379
#
# Poissons Ratio (x) = 0.04205 0.12066
# Poissons Ratio (y) = 0.14242 -0.20452
# Poissons Ratio (z) = 0.26281 -0.13153
#
# Static dielectric constant tensor:
#      x y z
#    x 5.031020 0.000000 0.000000 
#    y 0.000000 3.988330 0.000000 
#    z 0.000000 0.000000 4.133240 
# 
# 
# High freq. dielectric constant tensor:
#      x y z
#    x 1.939800 0.000000 0.000000 
#    y 0.000000 1.943460 0.000000 
#    z 0.000000 0.000000 1.937360 
# 
# From -- ./inp_files/19383.got.cif
#   From: 2010.03.12/outbox.cif.g09.slc.cpg/sg56_10_cif.got.tgz:19383.got - 2010.04.16 15:33:40.
