data_PCOD8228911
_publ_section_title
;
Structure prediction by ZEFSAII (Michael W. Deem and Ramdas Pophale) SiO2 
 PCOD8228911
Probable space group: P C C N
;
_chemical_formula_sum "Si O2"
_cell_formula_units_Z 48
_cell_length_a 8.541725
_cell_length_b 26.399894
_cell_length_c 9.396742
_cell_angle_alpha 90.000000
_cell_angle_beta 90.000000
_cell_angle_gamma 90.000000
_cell_volume 2118.971284
_symmetry_space_group_name_H-M "P C C N"
_symmetry_group_IT_number 56
_symmetry_cell_setting 'orthorhombic'
loop_
_space_group_symop_operation_xyz
x,y,z
1/2-x,1/2-y,z
1/2+x,-y,1/2-z
-x,1/2+y,1/2-z
-x,-y,-z
1/2+x,1/2+y,-z
1/2-x,y,1/2+z
x,1/2-y,1/2+z
loop_
_atom_site_type_symbol
_atom_site_label
_atom_site_fract_x
_atom_site_fract_y
_atom_site_fract_z
Si Si1 0.050916 0.859014 0.224962
Si Si2 0.896712 0.637338 0.321478
Si Si3 0.185852 0.052968 0.800079
Si Si4 0.227282 0.192593 0.902410
Si Si5 0.822161 0.007613 0.461992
Si Si6 0.777316 0.380478 0.540772
O O1 0.126627 0.855407 0.381868
O O2 0.975051 0.914956 0.201357
O O3 0.920434 0.815310 0.205946
O O4 0.186223 0.851465 0.106163
O O5 0.824486 0.585677 0.265962
O O6 0.802557 0.657127 0.460906
O O7 0.880224 0.676738 0.189110
O O8 0.076847 0.626475 0.352900
O O9 0.183967 0.001476 0.707271
O O10 0.220096 0.036205 0.960940
O O11 0.250000 0.250000 0.952563
O O12 0.756239 0.061593 0.504991
O O13 0.000000 0.000000 0.500000
#
# Coordination Sequence:
#
# PCOD8228911 Si02
#       6
#     8   8   8   8   8   8
#     4  10  23  41  62  95 128 171 207 268 325 384
#     4  10  23  40  67  93 130 170 207 276 321 391
#     4  11  24  42  58  92 129 177 233 254 321 371
#     4  10  21  43  70  98 122 161 218 262 332 406
#     4  12  25  38  62  91 130 180 223 273 299 381
#     4  11  23  39  60  93 132 169 214 259 330 362
#
# _framework density 22.652501000000001
#
# number of rings (size 3 to 8) (size 9 to 14) (size 15 to 20)
#    0.000    1.333    1.667    4.500    4.667    4.000 
#    0.000    0.833    0.000    4.000    0.000    0.000 
#    0.000    0.000    0.000    0.000    0.000    0.000 
#
# Total GULP energy -595019.154820 kJ/mol
# GULP energy per Si atom -12396.232392 kJ/mol
# Density = 2.260094 g / cm^3
# Si number density = 22.652501 Si / 1000 Ang^3
#
#
#
# Elastic Constant Matrix: (Units=GPa)
#
#
# Indices 1 2 3 4 5 6 
#
# 1 68.0923 12.1810 8.9488 0.0000 0.0000 0.0000
# 2 12.1810 63.0421 -4.2971 0.0000 0.0000 0.0000
# 3 8.9488 -4.2971 61.6595 0.0000 0.0000 0.0000
# 4 0.0000 0.0000 0.0000 19.6797 0.0000 0.0000
# 5 0.0000 0.0000 0.0000 0.0000 49.9687 0.0000
# 6 0.0000 0.0000 0.0000 0.0000 0.0000 22.9779
#
#
#
# Elastic Compliance Matrix: (Units=1/GPa)
#
#
# Indices 1 2 3 4 5 6 
#
# 1 0.015581 -0.003180 -0.002483 0.000000 0.000000 0.000000
# 2 -0.003180 0.016587 0.001617 0.000000 0.000000 0.000000
# 3 -0.002483 0.001617 0.016691 0.000000 0.000000 0.000000
# 4 0.000000 0.000000 0.000000 0.050814 0.000000 0.000000
# 5 0.000000 0.000000 0.000000 0.000000 0.020013 0.000000
# 6 0.000000 0.000000 0.000000 0.000000 0.000000 0.043520
#
#
# Mechanical properties :
#
#
# Convention : Reuss Voigt Hill
#
# Bulk Modulus (GPa) = 24.52858 25.16215 24.84537
# Shear Modulus (GPa) = 27.04370 30.25600 28.64985
#
# Velocity S-wave (km/s) = 3.45896 3.65863 3.56020
# Velocity P-wave (km/s) = 5.17728 5.38326 5.28127
#
# Compressibility (1/GPa) = 0.04076876
#
# Stress axis : x y z
#
# Youngs Moduli (GPa) = 64.18030 60.28787 59.91192
#
# Poissons Ratio (x) = 0.19171 0.14876
# Poissons Ratio (y) = 0.20408 -0.09691
# Poissons Ratio (z) = 0.15936 -0.09751
#
# Static dielectric constant tensor:
#      x y z
#    x 4.052370 0.000000 0.000000 
#    y 0.000000 4.136170 0.000000 
#    z 0.000000 0.000000 5.115140 
# 
# 
# High freq. dielectric constant tensor:
#      x y z
#    x 1.892280 0.000000 0.000000 
#    y 0.000000 1.858850 0.000000 
#    z 0.000000 0.000000 1.913670 
# 
# From -- ./inp_files/2230.got.cif
#   From: 2010.03.12/outbox.cif.g09.slc.cpg/sg56_2_cif.got.tgz:2230.got - 2010.04.16 15:33:40.
