data_PCOD8228682
_publ_section_title
;
Structure prediction by ZEFSAII (Michael W. Deem and Ramdas Pophale) SiO2 
 PCOD8228682
Probable space group: P C C N
;
_chemical_formula_sum "Si O2"
_cell_formula_units_Z 36
_cell_length_a 7.443753
_cell_length_b 7.625193
_cell_length_c 27.328909
_cell_angle_alpha 90.000000
_cell_angle_beta 90.000000
_cell_angle_gamma 90.000000
_cell_volume 1551.190331
_symmetry_space_group_name_H-M "P C C N"
_symmetry_group_IT_number 56
_symmetry_cell_setting 'orthorhombic'
loop_
_space_group_symop_operation_xyz
x,y,z
1/2-x,1/2-y,z
1/2+x,-y,1/2-z
-x,1/2+y,1/2-z
-x,-y,-z
1/2+x,1/2+y,-z
1/2-x,y,1/2+z
x,1/2-y,1/2+z
loop_
_atom_site_type_symbol
_atom_site_label
_atom_site_fract_x
_atom_site_fract_y
_atom_site_fract_z
Si Si1 0.250000 0.750000 0.509766
Si Si2 0.750000 0.750000 0.747107
Si Si3 0.356910 0.510584 0.085809
Si Si4 0.522044 0.011952 0.307047
Si Si5 0.523609 0.133338 0.073443
Si Si6 0.750000 0.250000 0.654846
O O1 0.099608 0.654057 0.544108
O O2 0.140779 0.889914 0.475934
O O3 0.922954 0.681003 0.716325
O O4 0.687481 0.577471 0.777596
O O5 0.403224 0.575766 0.140308
O O6 0.459715 0.334382 0.074345
O O7 0.141337 0.496620 0.078632
O O8 0.383107 0.852651 0.310270
O O9 0.649650 0.105952 0.120810
#
# Coordination Sequence:
#
# PCOD8228682 Si02
#       6
#     4   4   8   8   8   4
#     4  11  20  32  57  88 116 156 203 246 290 363
#     4  12  26  44  68  94 124 162 216 266 320 382
#     4  10  21  37  57  84 121 158 201 249 306 366
#     4  11  24  42  65  93 124 165 207 264 319 375
#     4   9  19  36  57  83 121 162 197 243 304 368
#     4   9  18  38  63  86 120 164 205 248 316 377
#
# _framework density 23.207984
#
# number of rings (size 3 to 8) (size 9 to 14) (size 15 to 20)
#    0.000    1.778    0.000    5.333    0.000    3.556 
#    0.000    4.444    0.000    0.000    0.000    0.000 
#    0.000    0.000    0.000    0.000    0.000    0.000 
#
# Total GULP energy -446162.047970 kJ/mol
# GULP energy per Si atom -12393.390221 kJ/mol
# Density = 2.315516 g / cm^3
# Si number density = 23.207984 Si / 1000 Ang^3
#
#
#
# Elastic Constant Matrix: (Units=GPa)
#
#
# Indices 1 2 3 4 5 6 
#
# 1 90.3894 4.1756 36.0343 0.0000 0.0000 0.0000
# 2 4.1756 43.3530 22.5350 0.0000 0.0000 0.0000
# 3 36.0343 22.5350 124.4685 0.0000 0.0000 0.0000
# 4 0.0000 0.0000 0.0000 19.9407 0.0000 0.0000
# 5 0.0000 0.0000 0.0000 0.0000 46.2164 0.0000
# 6 0.0000 0.0000 0.0000 0.0000 0.0000 40.1475
#
#
#
# Elastic Compliance Matrix: (Units=1/GPa)
#
#
# Indices 1 2 3 4 5 6 
#
# 1 0.012529 0.000749 -0.003763 0.000000 0.000000 0.000000
# 2 0.000749 0.025508 -0.004835 0.000000 0.000000 0.000000
# 3 -0.003763 -0.004835 0.009999 0.000000 0.000000 0.000000
# 4 0.000000 0.000000 0.000000 0.050149 0.000000 0.000000
# 5 0.000000 0.000000 0.000000 0.000000 0.021637 0.000000
# 6 0.000000 0.000000 0.000000 0.000000 0.000000 0.024908
#
#
# Mechanical properties :
#
#
# Convention : Reuss Voigt Hill
#
# Bulk Modulus (GPa) = 30.92346 42.63340 36.77843
# Shear Modulus (GPa) = 29.20462 34.29200 31.74831
#
# Velocity S-wave (km/s) = 3.55122 3.84812 3.70265
# Velocity P-wave (km/s) = 5.49257 6.17690 5.84476
#
# Compressibility (1/GPa) = 0.03233791
#
# Stress axis : x y z
#
# Youngs Moduli (GPa) = 79.81688 39.20407 100.01119
#
# Poissons Ratio (x) = -0.02937 0.37632
# Poissons Ratio (y) = -0.05980 0.48356
# Poissons Ratio (z) = 0.30033 0.18955
#
# Static dielectric constant tensor:
#      x y z
#    x 4.365110 0.000000 0.000000 
#    y 0.000000 3.757760 0.000000 
#    z 0.000000 0.000000 4.319320 
# 
# 
# High freq. dielectric constant tensor:
#      x y z
#    x 1.922510 0.000000 0.000000 
#    y 0.000000 1.885290 0.000000 
#    z 0.000000 0.000000 1.931610 
# 
# From -- ./inp_files/17913.got.cif
#   From: 2010.03.12/outbox.cif.g09.slc.cpg/sg56_9_cif.got.tgz:17913.got - 2010.04.16 15:33:40.
