data_PCOD8228177
_publ_section_title
;
Structure prediction by ZEFSAII (Michael W. Deem and Ramdas Pophale) SiO2 
 PCOD8228177
Probable space group: P C C N
;
_chemical_formula_sum "Si O2"
_cell_formula_units_Z 52
_cell_length_a 14.061343
_cell_length_b 8.664272
_cell_length_c 20.763128
_cell_angle_alpha 90.000000
_cell_angle_beta 90.000000
_cell_angle_gamma 90.000000
_cell_volume 2529.598885
_symmetry_space_group_name_H-M "P C C N"
_symmetry_group_IT_number 56
_symmetry_cell_setting 'orthorhombic'
loop_
_space_group_symop_operation_xyz
x,y,z
1/2-x,1/2-y,z
1/2+x,-y,1/2-z
-x,1/2+y,1/2-z
-x,-y,-z
1/2+x,1/2+y,-z
1/2-x,y,1/2+z
x,1/2-y,1/2+z
loop_
_atom_site_type_symbol
_atom_site_label
_atom_site_fract_x
_atom_site_fract_y
_atom_site_fract_z
Si Si1 0.566449 0.581131 0.446646
Si Si2 0.739947 0.574740 0.749510
Si Si3 0.406668 0.925428 0.184837
Si Si4 0.394992 0.781339 0.889015
Si Si5 0.768769 0.998387 0.102969
Si Si6 0.935157 0.377384 0.247121
Si Si7 0.750000 0.750000 0.004623
O O1 0.500000 0.500000 0.500000
O O2 0.585266 0.453512 0.391501
O O3 0.501592 0.715943 0.416064
O O4 0.666496 0.662482 0.465197
O O5 0.750000 0.750000 0.774569
O O6 0.799329 0.453972 0.792581
O O7 0.770808 0.568208 0.674930
O O8 0.632057 0.522690 0.762989
O O9 0.442137 0.748588 0.195519
O O10 0.464453 0.049757 0.227796
O O11 0.348063 0.624719 0.910756
O O12 0.390501 0.781634 0.811838
O O13 0.335322 0.931071 0.913649
O O14 0.799940 0.870905 0.051876
#
# Coordination Sequence:
#
# PCOD8228177 Si02
#       7
#     8   8   8   8   8   8   4
#     4  11  25  45  63  90 139 178 219 273 327 401
#     4  11  21  37  65 100 131 163 209 280 335 392
#     4  11  23  40  65  94 133 169 216 278 338 398
#     4   9  19  40  63  89 131 168 211 279 321 390
#     4  10  19  36  68  95 121 171 227 259 326 396
#     4  10  21  39  63  95 130 169 210 270 348 390
#     4  12  24  40  68  98 124 184 230 260 326 412
#
# _framework density 20.556619999999999
#
# number of rings (size 3 to 8) (size 9 to 14) (size 15 to 20)
#    0.000    1.538    3.846    1.385    1.077    1.846 
#    0.000    3.077    0.000    0.000    0.000    0.000 
#    0.000    0.000    0.000    0.000    0.000    0.000 
#
# Total GULP energy -644551.235081 kJ/mol
# GULP energy per Si atom -12395.216059 kJ/mol
# Density = 2.050983 g / cm^3
# Si number density = 20.556620 Si / 1000 Ang^3
#
#
#
# Elastic Constant Matrix: (Units=GPa)
#
#
# Indices 1 2 3 4 5 6 
#
# 1 84.6129 20.1640 34.5887 0.0000 0.0000 0.0000
# 2 20.1640 106.0505 46.4311 0.0000 0.0000 0.0000
# 3 34.5887 46.4311 87.6435 0.0000 0.0000 0.0000
# 4 0.0000 0.0000 0.0000 27.3190 0.0000 0.0000
# 5 0.0000 0.0000 0.0000 0.0000 28.6744 0.0000
# 6 0.0000 0.0000 0.0000 0.0000 0.0000 28.9666
#
#
#
# Elastic Compliance Matrix: (Units=1/GPa)
#
#
# Indices 1 2 3 4 5 6 
#
# 1 0.014100 -0.000318 -0.005396 0.000000 0.000000 0.000000
# 2 -0.000318 0.012284 -0.006382 0.000000 0.000000 0.000000
# 3 -0.005396 -0.006382 0.016920 0.000000 0.000000 0.000000
# 4 0.000000 0.000000 0.000000 0.036605 0.000000 0.000000
# 5 0.000000 0.000000 0.000000 0.000000 0.034874 0.000000
# 6 0.000000 0.000000 0.000000 0.000000 0.000000 0.034523
#
#
# Mechanical properties :
#
#
# Convention : Reuss Voigt Hill
#
# Bulk Modulus (GPa) = 52.32385 53.40826 52.86606
# Shear Modulus (GPa) = 27.79781 28.80020 28.29901
#
# Velocity S-wave (km/s) = 3.68129 3.74708 3.71433
# Velocity P-wave (km/s) = 6.60136 6.69016 6.64591
#
# Compressibility (1/GPa) = 0.01911174
#
# Stress axis : x y z
#
# Youngs Moduli (GPa) = 70.92079 81.40491 59.09995
#
# Poissons Ratio (x) = 0.02593 0.31890
# Poissons Ratio (y) = 0.02259 0.37719
# Poissons Ratio (z) = 0.38269 0.51954
#
# Static dielectric constant tensor:
#      x y z
#    x 3.768560 0.000000 0.000000 
#    y 0.000000 3.617920 0.000000 
#    z 0.000000 0.000000 3.607870 
# 
# 
# High freq. dielectric constant tensor:
#      x y z
#    x 1.808830 0.000000 0.000000 
#    y 0.000000 1.804070 0.000000 
#    z 0.000000 0.000000 1.786230 
# 
# From -- ./inp_files/19049.got.cif
#   From: 2010.03.12/outbox.cif.g09.slc.cpg/sg56_10_cif.got.tgz:19049.got - 2010.04.16 15:33:40.
