data_PCOD8228432
_publ_section_title
;
Structure prediction by ZEFSAII (Michael W. Deem and Ramdas Pophale) SiO2 
 PCOD8228432
Probable space group: P C C N
;
_chemical_formula_sum "Si O2"
_cell_formula_units_Z 60
_cell_length_a 11.274703
_cell_length_b 19.854519
_cell_length_c 12.900102
_cell_angle_alpha 90.000000
_cell_angle_beta 90.000000
_cell_angle_gamma 90.000000
_cell_volume 2887.736917
_symmetry_space_group_name_H-M "P C C N"
_symmetry_group_IT_number 56
_symmetry_cell_setting 'orthorhombic'
loop_
_space_group_symop_operation_xyz
x,y,z
1/2-x,1/2-y,z
1/2+x,-y,1/2-z
-x,1/2+y,1/2-z
-x,-y,-z
1/2+x,1/2+y,-z
1/2-x,y,1/2+z
x,1/2-y,1/2+z
loop_
_atom_site_type_symbol
_atom_site_label
_atom_site_fract_x
_atom_site_fract_y
_atom_site_fract_z
Si Si1 0.647661 0.152766 0.176946
Si Si2 0.750000 0.250000 0.521693
Si Si3 0.873737 0.464808 0.015047
Si Si4 0.737219 0.904010 0.550768
Si Si5 0.916301 0.838680 0.200987
Si Si6 0.811540 0.353927 0.864470
Si Si7 0.076536 0.191323 0.341275
Si Si8 0.218982 0.323090 0.642810
O O1 0.651184 0.218935 0.101404
O O2 0.619506 0.087530 0.109218
O O3 0.551761 0.159829 0.266871
O O4 0.767011 0.144099 0.245587
O O5 0.778056 0.312525 0.443068
O O6 0.775085 0.519035 0.044672
O O7 0.830876 0.429009 0.908909
O O8 0.000000 0.500000 0.000000
O O9 0.623739 0.899646 0.626636
O O10 0.848127 0.857682 0.585507
O O11 0.688062 0.878210 0.441916
O O12 0.887909 0.769233 0.139066
O O13 0.838940 0.847233 0.303138
O O14 0.938065 0.316671 0.864429
O O15 0.107301 0.176978 0.220993
O O16 0.250000 0.250000 0.594867
#
# Coordination Sequence:
#
# PCOD8228432 Si02
#       8
#     8   4   8   8   8   8   8   8
#     4  11  24  43  64  96 130 170 217 268 330 387
#     4  10  22  40  68  94 124 166 218 266 324 388
#     4  11  24  43  65  90 125 183 223 259 324 395
#     4  11  21  40  61  93 128 166 221 261 324 397
#     4  10  21  37  63  93 126 164 206 275 328 384
#     4  11  23  43  65  96 130 169 219 270 325 394
#     4  10  20  37  63  94 127 164 210 270 332 387
#     4   9  19  35  59  93 123 161 206 259 332 382
#
# _framework density 20.777517
#
# number of rings (size 3 to 8) (size 9 to 14) (size 15 to 20)
#    0.000    1.600    1.333    4.800    1.867    3.200 
#   12.000    0.667    0.000    0.000    0.000    0.000 
#    0.000    0.000    0.000    0.000    0.000    0.000 
#
# Total GULP energy -743523.451398 kJ/mol
# GULP energy per Si atom -12392.057523 kJ/mol
# Density = 2.073023 g / cm^3
# Si number density = 20.777517 Si / 1000 Ang^3
#
#
#
# Elastic Constant Matrix: (Units=GPa)
#
#
# Indices 1 2 3 4 5 6 
#
# 1 70.2452 28.2569 35.9796 0.0000 0.0000 0.0000
# 2 28.2569 116.4035 50.9968 0.0000 0.0000 0.0000
# 3 35.9796 50.9968 92.8775 0.0000 0.0000 0.0000
# 4 0.0000 0.0000 0.0000 26.0135 0.0000 0.0000
# 5 0.0000 0.0000 0.0000 0.0000 26.8831 0.0000
# 6 0.0000 0.0000 0.0000 0.0000 0.0000 29.4895
#
#
#
# Elastic Compliance Matrix: (Units=1/GPa)
#
#
# Indices 1 2 3 4 5 6 
#
# 1 0.018021 -0.001733 -0.006030 0.000000 0.000000 0.000000
# 2 -0.001733 0.011479 -0.005631 0.000000 0.000000 0.000000
# 3 -0.006030 -0.005631 0.016195 0.000000 0.000000 0.000000
# 4 0.000000 0.000000 0.000000 0.038442 0.000000 0.000000
# 5 0.000000 0.000000 0.000000 0.000000 0.037198 0.000000
# 6 0.000000 0.000000 0.000000 0.000000 0.000000 0.033910
#
#
# Mechanical properties :
#
#
# Convention : Reuss Voigt Hill
#
# Bulk Modulus (GPa) = 52.89138 56.66585 54.77861
# Shear Modulus (GPa) = 26.54846 27.43009 26.98928
#
# Velocity S-wave (km/s) = 3.57844 3.63737 3.60803
# Velocity P-wave (km/s) = 6.52572 6.70615 6.61655
#
# Compressibility (1/GPa) = 0.01890667
#
# Stress axis : x y z
#
# Youngs Moduli (GPa) = 55.48965 87.11888 61.74868
#
# Poissons Ratio (x) = 0.15098 0.37232
# Poissons Ratio (y) = 0.09617 0.34772
# Poissons Ratio (z) = 0.33459 0.49059
#
# Static dielectric constant tensor:
#      x y z
#    x 3.659180 0.000000 0.000000 
#    y 0.000000 3.776800 0.000000 
#    z 0.000000 0.000000 3.857030 
# 
# 
# High freq. dielectric constant tensor:
#      x y z
#    x 1.797590 0.000000 0.000000 
#    y 0.000000 1.803910 0.000000 
#    z 0.000000 0.000000 1.823850 
# 
# From -- ./inp_files/7323.got.cif
#   From: 2010.03.12/outbox.cif.g09.slc.cpg/sg56_4_cif.got.tgz:7323.got - 2010.04.16 15:33:40.
