data_PCOD8228250
_publ_section_title
;
Structure prediction by ZEFSAII (Michael W. Deem and Ramdas Pophale) SiO2 
 PCOD8228250
Probable space group: P C C N
;
_chemical_formula_sum "Si O2"
_cell_formula_units_Z 64
_cell_length_a 16.028135
_cell_length_b 8.922454
_cell_length_c 21.710436
_cell_angle_alpha 90.000000
_cell_angle_beta 90.000000
_cell_angle_gamma 90.000000
_cell_volume 3104.815906
_symmetry_space_group_name_H-M "P C C N"
_symmetry_group_IT_number 56
_symmetry_cell_setting 'orthorhombic'
loop_
_space_group_symop_operation_xyz
x,y,z
1/2-x,1/2-y,z
1/2+x,-y,1/2-z
-x,1/2+y,1/2-z
-x,-y,-z
1/2+x,1/2+y,-z
1/2-x,y,1/2+z
x,1/2-y,1/2+z
loop_
_atom_site_type_symbol
_atom_site_label
_atom_site_fract_x
_atom_site_fract_y
_atom_site_fract_z
Si Si1 0.451028 0.433314 0.776231
Si Si2 0.967152 0.607596 0.173496
Si Si3 0.934752 0.064624 0.450378
Si Si4 0.225582 0.419482 0.213702
Si Si5 0.263167 0.423741 0.571819
Si Si6 0.309354 0.947531 0.823841
Si Si7 0.861447 0.373644 0.632450
Si Si8 0.836266 0.334852 0.496700
O O1 0.480724 0.275857 0.803669
O O2 0.522595 0.496940 0.731987
O O3 0.369592 0.433003 0.733872
O O4 0.437468 0.542267 0.834492
O O5 0.871586 0.578372 0.152793
O O6 0.027184 0.562393 0.117781
O O7 0.904134 0.235007 0.460878
O O8 0.853480 0.960650 0.455941
O O9 0.000000 0.000000 0.500000
O O10 0.250000 0.250000 0.226740
O O11 0.237529 0.467032 0.143435
O O12 0.285047 0.531257 0.252105
O O13 0.250000 0.250000 0.559760
O O14 0.186801 0.514920 0.540722
O O15 0.351298 0.786617 0.834689
O O16 0.224860 0.966817 0.863036
O O17 0.883091 0.367219 0.560720
O O18 0.750000 0.250000 0.510760
#
# Coordination Sequence:
#
# PCOD8228250 Si02
#       8
#     8   8   8   8   8   8   8   8
#     4  11  24  40  62  92 132 163 211 264 329 399
#     4  12  24  41  60  98 129 171 207 267 342 388
#     4  11  25  43  67  95 137 176 221 274 338 396
#     4  10  19  41  63  95 122 161 214 267 322 381
#     4  10  23  43  70  93 126 174 225 272 320 395
#     4  10  20  36  65  88 123 162 205 268 320 384
#     4  10  21  40  62  92 121 169 217 260 319 374
#     4  10  21  43  63  94 127 173 221 265 314 393
#
# _framework density 20.613139
#
# number of rings (size 3 to 8) (size 9 to 14) (size 15 to 20)
#    0.000    1.500    3.750    1.500    1.750    3.000 
#    6.750    1.250    0.000    0.000    0.000    0.000 
#    0.000    0.000    0.000    0.000    0.000    0.000 
#
# Total GULP energy -793567.496487 kJ/mol
# GULP energy per Si atom -12399.492133 kJ/mol
# Density = 2.056622 g / cm^3
# Si number density = 20.613139 Si / 1000 Ang^3
#
#
#
# Elastic Constant Matrix: (Units=GPa)
#
#
# Indices 1 2 3 4 5 6 
#
# 1 68.9023 25.3940 26.2181 0.0000 0.0000 0.0000
# 2 25.3940 89.8739 48.5909 0.0000 0.0000 0.0000
# 3 26.2181 48.5909 105.6231 0.0000 0.0000 0.0000
# 4 0.0000 0.0000 0.0000 58.2821 0.0000 0.0000
# 5 0.0000 0.0000 0.0000 0.0000 -14.5573 0.0000
# 6 0.0000 0.0000 0.0000 0.0000 0.0000 32.8053
#
#
#
# Elastic Compliance Matrix: (Units=1/GPa)
#
#
# Indices 1 2 3 4 5 6 
#
# 1 0.016733 -0.003304 -0.002634 0.000000 0.000000 0.000000
# 2 -0.003304 0.015463 -0.006293 0.000000 0.000000 0.000000
# 3 -0.002634 -0.006293 0.013017 0.000000 0.000000 0.000000
# 4 0.000000 0.000000 0.000000 0.017158 0.000000 0.000000
# 5 0.000000 0.000000 0.000000 0.000000 -0.068694 0.000000
# 6 0.000000 0.000000 0.000000 0.000000 0.000000 0.030483
#
#
# Mechanical properties :
#
#
# Convention : Reuss Voigt Hill
#
# Bulk Modulus (GPa) = 48.19174 51.64505 49.91839
# Shear Modulus (GPa) = 90.02827 26.25244 58.14036
#
# Velocity S-wave (km/s) = 6.61589 3.57259 5.31665
# Velocity P-wave (km/s) = 9.04378 6.49051 7.87136
#
# Compressibility (1/GPa) = 0.02075044
#
# Stress axis : x y z
#
# Youngs Moduli (GPa) = 59.76169 64.67122 76.82539
#
# Poissons Ratio (x) = 0.21368 0.20232
# Poissons Ratio (y) = 0.19746 0.48349
# Poissons Ratio (z) = 0.15738 0.40700
#
# Static dielectric constant tensor:
#      x y z
#    x 3.691210 0.000000 0.000000 
#    y 0.000000 3.699740 0.000000 
#    z 0.000000 0.000000 3.759030 
# 
# 
# High freq. dielectric constant tensor:
#      x y z
#    x 1.802990 0.000000 0.000000 
#    y 0.000000 1.803860 0.000000 
#    z 0.000000 0.000000 1.811150 
# 
# From -- ./inp_files/19363.got.cif
#   From: 2010.03.12/outbox.cif.g09.slc.cpg/sg56_10_cif.got.tgz:19363.got - 2010.04.16 15:33:40.
