data_PCOD8228728
_publ_section_title
;
Structure prediction by ZEFSAII (Michael W. Deem and Ramdas Pophale) SiO2 
 PCOD8228728
Probable space group: P C C N
;
_chemical_formula_sum "Si O2"
_cell_formula_units_Z 48
_cell_length_a 22.798148
_cell_length_b 9.642384
_cell_length_c 9.356306
_cell_angle_alpha 90.000000
_cell_angle_beta 90.000000
_cell_angle_gamma 90.000000
_cell_volume 2056.782690
_symmetry_space_group_name_H-M "P C C N"
_symmetry_group_IT_number 56
_symmetry_cell_setting 'orthorhombic'
loop_
_space_group_symop_operation_xyz
x,y,z
1/2-x,1/2-y,z
1/2+x,-y,1/2-z
-x,1/2+y,1/2-z
-x,-y,-z
1/2+x,1/2+y,-z
1/2-x,y,1/2+z
x,1/2-y,1/2+z
loop_
_atom_site_type_symbol
_atom_site_label
_atom_site_fract_x
_atom_site_fract_y
_atom_site_fract_z
Si Si1 0.945925 0.361028 0.859507
Si Si2 0.825810 0.466292 0.787117
Si Si3 0.308375 0.344406 0.311621
Si Si4 0.373336 0.241666 0.076689
Si Si5 0.750123 0.410687 0.044330
Si Si6 0.496702 0.345357 0.651911
O O1 0.876485 0.355519 0.825671
O O2 0.975096 0.502554 0.799406
O O3 0.976364 0.228592 0.789174
O O4 0.953642 0.356610 0.030216
O O5 0.848182 0.616357 0.827694
O O6 0.811204 0.463813 0.616283
O O7 0.764663 0.432979 0.875590
O O8 0.250000 0.250000 0.298923
O O9 0.159686 0.131442 0.157797
O O10 0.354898 0.265204 0.413080
O O11 0.299290 0.497750 0.374387
O O12 0.443421 0.245655 0.086612
O O13 0.750000 0.250000 0.085068
#
# Coordination Sequence:
#
# PCOD8228728 Si02
#       6
#     8   8   8   8   8   8
#     4  10  23  43  68  93 128 169 216 273 321 380
#     4  10  23  42  62  90 129 166 210 258 316 381
#     4  11  21  37  64  89 127 161 203 259 316 373
#     4  10  21  38  64  95 122 163 210 263 314 378
#     4  11  24  41  60  91 128 166 207 256 313 385
#     4  10  22  44  66  93 129 168 220 267 322 381
#
# _framework density 23.337420999999999
#
# number of rings (size 3 to 8) (size 9 to 14) (size 15 to 20)
#    0.000    1.667    1.667    2.000    4.667    2.000 
#    0.000    0.000    0.000    0.000    0.000    0.000 
#    0.000    0.000    0.000    0.000    0.000    0.000 
#
# Total GULP energy -594738.957492 kJ/mol
# GULP energy per Si atom -12390.394948 kJ/mol
# Density = 2.328430 g / cm^3
# Si number density = 23.337421 Si / 1000 Ang^3
#
#
#
# Elastic Constant Matrix: (Units=GPa)
#
#
# Indices 1 2 3 4 5 6 
#
# 1 77.3474 -11.6922 23.5294 0.0000 0.0000 0.0000
# 2 -11.6922 61.9032 6.7335 0.0000 0.0000 0.0000
# 3 23.5294 6.7335 85.2509 0.0000 0.0000 0.0000
# 4 0.0000 0.0000 0.0000 28.8839 0.0000 0.0000
# 5 0.0000 0.0000 0.0000 0.0000 33.7914 0.0000
# 6 0.0000 0.0000 0.0000 0.0000 0.0000 27.8308
#
#
#
# Elastic Compliance Matrix: (Units=1/GPa)
#
#
# Indices 1 2 3 4 5 6 
#
# 1 0.014736 0.003254 -0.004324 0.000000 0.000000 0.000000
# 2 0.003254 0.017013 -0.002242 0.000000 0.000000 0.000000
# 3 -0.004324 -0.002242 0.013101 0.000000 0.000000 0.000000
# 4 0.000000 0.000000 0.000000 0.034621 0.000000 0.000000
# 5 0.000000 0.000000 0.000000 0.000000 0.029593 0.000000
# 6 0.000000 0.000000 0.000000 0.000000 0.000000 0.035931
#
#
# Mechanical properties :
#
#
# Convention : Reuss Voigt Hill
#
# Bulk Modulus (GPa) = 26.16107 29.07143 27.61625
# Shear Modulus (GPa) = 30.42077 31.82993 31.12535
#
# Velocity S-wave (km/s) = 3.61434 3.69711 3.65596
# Velocity P-wave (km/s) = 5.35278 5.54156 5.44799
#
# Compressibility (1/GPa) = 0.03822474
#
# Stress axis : x y z
#
# Youngs Moduli (GPa) = 67.86131 58.77981 76.33232
#
# Poissons Ratio (x) = -0.19125 0.33007
# Poissons Ratio (y) = -0.22080 0.17112
# Poissons Ratio (z) = 0.29344 0.13177
#
# Static dielectric constant tensor:
#      x y z
#    x 4.415190 0.000000 0.000000 
#    y 0.000000 4.195250 0.000000 
#    z 0.000000 0.000000 4.206730 
# 
# 
# High freq. dielectric constant tensor:
#      x y z
#    x 1.912980 0.000000 0.000000 
#    y 0.000000 1.910050 0.000000 
#    z 0.000000 0.000000 1.924060 
# 
# From -- ./inp_files/4756.got.cif
#   From: 2010.03.12/outbox.cif.g09.slc.cpg/sg56_3_cif.got.tgz:4756.got - 2010.04.16 15:33:40.
