data_PCOD8228421
_publ_section_title
;
Structure prediction by ZEFSAII (Michael W. Deem and Ramdas Pophale) SiO2 
 PCOD8228421
Probable space group: P C C N
;
_chemical_formula_sum "Si O2"
_cell_formula_units_Z 48
_cell_length_a 15.915676
_cell_length_b 8.420510
_cell_length_c 16.612081
_cell_angle_alpha 90.000000
_cell_angle_beta 90.000000
_cell_angle_gamma 90.000000
_cell_volume 2226.319681
_symmetry_space_group_name_H-M "P C C N"
_symmetry_group_IT_number 56
_symmetry_cell_setting 'orthorhombic'
loop_
_space_group_symop_operation_xyz
x,y,z
1/2-x,1/2-y,z
1/2+x,-y,1/2-z
-x,1/2+y,1/2-z
-x,-y,-z
1/2+x,1/2+y,-z
1/2-x,y,1/2+z
x,1/2-y,1/2+z
loop_
_atom_site_type_symbol
_atom_site_label
_atom_site_fract_x
_atom_site_fract_y
_atom_site_fract_z
Si Si1 0.667555 0.831833 0.075073
Si Si2 0.493010 0.198499 0.353814
Si Si3 0.334754 0.209066 0.597804
Si Si4 0.000011 0.168919 0.186015
Si Si5 0.331274 0.853541 0.822058
Si Si6 0.171812 0.859867 0.132767
O O1 0.750000 0.750000 0.114294
O O2 0.582165 0.731029 0.085616
O O3 0.662415 0.003755 0.114763
O O4 0.675363 0.826972 0.978679
O O5 0.477915 0.314069 0.279151
O O6 0.586113 0.235949 0.389215
O O7 0.492246 0.015688 0.329670
O O8 0.250000 0.250000 0.650372
O O9 0.422251 0.251507 0.639936
O O10 0.329587 0.019842 0.579665
O O11 0.913763 0.250605 0.160875
O O12 0.250000 0.750000 0.843690
O O13 0.327954 0.907126 0.728258
O O14 0.250000 0.750000 0.109053
#
# Coordination Sequence:
#
# PCOD8228421 Si02
#       6
#     8   8   8   8   8   8
#     4  11  23  39  57  83 121 159 197 241 296 360
#     4  10  20  37  61  89 119 153 198 248 298 349
#     4  10  23  39  55  83 120 158 197 237 294 355
#     4  10  21  37  60  88 117 152 198 248 295 350
#     4  10  21  39  63  92 118 151 199 248 300 353
#     4   9  20  38  62  89 117 151 195 245 293 348
#
# _framework density 21.560247
#
# number of rings (size 3 to 8) (size 9 to 14) (size 15 to 20)
#    0.000    2.000    0.000    4.000    0.000   11.333 
#    0.000    8.333    0.000    0.000    0.000    0.000 
#    0.000    0.000    0.000    0.000    0.000    0.000 
#
# Total GULP energy -594842.880388 kJ/mol
# GULP energy per Si atom -12392.560008 kJ/mol
# Density = 2.151118 g / cm^3
# Si number density = 21.560247 Si / 1000 Ang^3
#
#
#
# Elastic Constant Matrix: (Units=GPa)
#
#
# Indices 1 2 3 4 5 6 
#
# 1 208.0309 33.4555 24.1111 0.0000 0.0000 0.0000
# 2 33.4555 54.6927 10.1507 0.0000 0.0000 0.0000
# 3 24.1111 10.1507 29.0975 0.0000 0.0000 0.0000
# 4 0.0000 0.0000 0.0000 36.0114 0.0000 0.0000
# 5 0.0000 0.0000 0.0000 0.0000 15.4494 0.0000
# 6 0.0000 0.0000 0.0000 0.0000 0.0000 41.6358
#
#
#
# Elastic Compliance Matrix: (Units=1/GPa)
#
#
# Indices 1 2 3 4 5 6 
#
# 1 0.005689 -0.002785 -0.003742 0.000000 0.000000 0.000000
# 2 -0.002785 0.020913 -0.004988 0.000000 0.000000 0.000000
# 3 -0.003742 -0.004988 0.039208 0.000000 0.000000 0.000000
# 4 0.000000 0.000000 0.000000 0.027769 0.000000 0.000000
# 5 0.000000 0.000000 0.000000 0.000000 0.064727 0.000000
# 6 0.000000 0.000000 0.000000 0.000000 0.000000 0.024018
#
#
# Mechanical properties :
#
#
# Convention : Reuss Voigt Hill
#
# Bulk Modulus (GPa) = 23.37552 47.47287 35.42420
# Shear Modulus (GPa) = 22.76717 33.55957 28.16337
#
# Velocity S-wave (km/s) = 3.25311 3.94959 3.61815
# Velocity P-wave (km/s) = 4.99758 6.54718 5.82414
#
# Compressibility (1/GPa) = 0.04277980
#
# Stress axis : x y z
#
# Youngs Moduli (GPa) = 175.78981 47.81620 25.50498
#
# Poissons Ratio (x) = 0.13318 0.09544
# Poissons Ratio (y) = 0.48961 0.12721
# Poissons Ratio (z) = 0.65783 0.23850
#
# Static dielectric constant tensor:
#      x y z
#    x 5.336390 0.000000 0.000000 
#    y 0.000000 3.705110 0.000000 
#    z 0.000000 0.000000 3.581840 
# 
# 
# High freq. dielectric constant tensor:
#      x y z
#    x 1.888030 0.000000 0.000000 
#    y 0.000000 1.841180 0.000000 
#    z 0.000000 0.000000 1.811680 
# 
# From -- ./inp_files/16155.got.cif
#   From: 2010.03.12/outbox.cif.g09.slc.cpg/sg56_9_cif.got.tgz:16155.got - 2010.04.16 15:33:40.
