data_PCOD8228775
_publ_section_title
;
Structure prediction by ZEFSAII (Michael W. Deem and Ramdas Pophale) SiO2 
 PCOD8228775
Probable space group: P C C N
;
_chemical_formula_sum "Si O2"
_cell_formula_units_Z 48
_cell_length_a 11.185221
_cell_length_b 9.248232
_cell_length_c 21.882788
_cell_angle_alpha 90.000000
_cell_angle_beta 90.000000
_cell_angle_gamma 90.000000
_cell_volume 2263.632591
_symmetry_space_group_name_H-M "P C C N"
_symmetry_group_IT_number 56
_symmetry_cell_setting 'orthorhombic'
loop_
_space_group_symop_operation_xyz
x,y,z
1/2-x,1/2-y,z
1/2+x,-y,1/2-z
-x,1/2+y,1/2-z
-x,-y,-z
1/2+x,1/2+y,-z
1/2-x,y,1/2+z
x,1/2-y,1/2+z
loop_
_atom_site_type_symbol
_atom_site_label
_atom_site_fract_x
_atom_site_fract_y
_atom_site_fract_z
Si Si1 0.459141 0.978304 0.136952
Si Si2 0.382227 0.207020 0.046630
Si Si3 0.116201 0.229351 0.905881
Si Si4 0.283007 0.604630 0.175171
Si Si5 0.625212 0.290801 0.694671
Si Si6 0.502201 0.562826 0.875001
O O1 0.515867 0.818624 0.130890
O O2 0.345579 0.975762 0.183781
O O3 0.414350 0.047347 0.072561
O O4 0.564595 0.073527 0.163817
O O5 0.250000 0.250000 0.069341
O O6 0.480524 0.320395 0.071478
O O7 0.388500 0.208599 0.974029
O O8 0.250000 0.250000 0.879174
O O9 0.087688 0.059666 0.899267
O O10 0.250000 0.750000 0.136053
O O11 0.347316 0.663447 0.236102
O O12 0.368615 0.501392 0.138444
O O13 0.750000 0.250000 0.661214
O O14 0.544249 0.145974 0.686214
#
# Coordination Sequence:
#
# PCOD8228775 Si02
#       6
#     8   8   8   8   8   8
#     4  11  22  43  67  92 131 169 213 270 315 383
#     4  10  21  39  64  99 125 164 214 263 322 386
#     4  11  23  39  65  94 130 168 211 262 325 383
#     4  11  23  40  65  93 122 169 218 259 315 377
#     4  10  25  41  63  93 128 163 214 263 318 379
#     4  11  22  41  65  90 131 166 209 268 317 377
#
# _framework density 21.204855999999999
#
# number of rings (size 3 to 8) (size 9 to 14) (size 15 to 20)
#    0.000    1.333    3.333    2.000    4.667    0.000 
#    0.000    0.000   11.000    0.000    0.000    0.000 
#    0.000    0.000    0.000    0.000    0.000    0.000 
#
# Total GULP energy -594838.221082 kJ/mol
# GULP energy per Si atom -12392.462939 kJ/mol
# Density = 2.115659 g / cm^3
# Si number density = 21.204856 Si / 1000 Ang^3
#
#
#
# Elastic Constant Matrix: (Units=GPa)
#
#
# Indices 1 2 3 4 5 6 
#
# 1 120.4786 25.2856 16.2145 0.0000 0.0000 0.0000
# 2 25.2856 92.4541 7.9739 0.0000 0.0000 0.0000
# 3 16.2145 7.9739 50.9624 0.0000 0.0000 0.0000
# 4 0.0000 0.0000 0.0000 27.8542 0.0000 0.0000
# 5 0.0000 0.0000 0.0000 0.0000 29.3367 0.0000
# 6 0.0000 0.0000 0.0000 0.0000 0.0000 48.9790
#
#
#
# Elastic Compliance Matrix: (Units=1/GPa)
#
#
# Indices 1 2 3 4 5 6 
#
# 1 0.009120 -0.002275 -0.002546 0.000000 0.000000 0.000000
# 2 -0.002275 0.011532 -0.001081 0.000000 0.000000 0.000000
# 3 -0.002546 -0.001081 0.020601 0.000000 0.000000 0.000000
# 4 0.000000 0.000000 0.000000 0.035901 0.000000 0.000000
# 5 0.000000 0.000000 0.000000 0.000000 0.034087 0.000000
# 6 0.000000 0.000000 0.000000 0.000000 0.000000 0.020417
#
#
# Mechanical properties :
#
#
# Convention : Reuss Voigt Hill
#
# Bulk Modulus (GPa) = 33.95483 40.31589 37.13536
# Shear Modulus (GPa) = 32.62057 35.52873 34.07465
#
# Velocity S-wave (km/s) = 3.92644 4.09773 4.01300
# Velocity P-wave (km/s) = 6.05008 6.43757 6.24683
#
# Compressibility (1/GPa) = 0.02945089
#
# Stress axis : x y z
#
# Youngs Moduli (GPa) = 109.64577 86.71895 48.54039
#
# Poissons Ratio (x) = 0.19727 0.12358
# Poissons Ratio (y) = 0.24942 0.05245
# Poissons Ratio (z) = 0.27914 0.09370
#
# Static dielectric constant tensor:
#      x y z
#    x 4.329730 0.000000 0.000000 
#    y 0.000000 4.038520 0.000000 
#    z 0.000000 0.000000 3.401980 
# 
# 
# High freq. dielectric constant tensor:
#      x y z
#    x 1.854560 0.000000 0.000000 
#    y 0.000000 1.846190 0.000000 
#    z 0.000000 0.000000 1.795310 
# 
# From -- ./inp_files/20908.got.cif
#   From: 2010.03.12/outbox.cif.g09.slc.cpg/sg56_11_cif.got.tgz:20908.got - 2010.04.16 15:33:40.
