data_PCOD8228891
_publ_section_title
;
Structure prediction by ZEFSAII (Michael W. Deem and Ramdas Pophale) SiO2 
 PCOD8228891
Probable space group: P C C N
;
_chemical_formula_sum "Si O2"
_cell_formula_units_Z 56
_cell_length_a 8.868341
_cell_length_b 20.783092
_cell_length_c 14.671724
_cell_angle_alpha 90.000000
_cell_angle_beta 90.000000
_cell_angle_gamma 90.000000
_cell_volume 2704.168146
_symmetry_space_group_name_H-M "P C C N"
_symmetry_group_IT_number 56
_symmetry_cell_setting 'orthorhombic'
loop_
_space_group_symop_operation_xyz
x,y,z
1/2-x,1/2-y,z
1/2+x,-y,1/2-z
-x,1/2+y,1/2-z
-x,-y,-z
1/2+x,1/2+y,-z
1/2-x,y,1/2+z
x,1/2-y,1/2+z
loop_
_atom_site_type_symbol
_atom_site_label
_atom_site_fract_x
_atom_site_fract_y
_atom_site_fract_z
Si Si1 0.922722 0.252522 0.133979
Si Si2 0.247622 0.886322 0.127443
Si Si3 0.489431 0.885207 0.784657
Si Si4 0.512164 0.213997 0.832620
Si Si5 0.993406 0.828651 0.033766
Si Si6 0.998349 0.014763 0.395120
Si Si7 0.246184 0.379664 0.857730
O O1 0.750000 0.250000 0.101830
O O2 0.987307 0.324691 0.145335
O O3 0.939846 0.214742 0.227790
O O4 0.016960 0.213809 0.057133
O O5 0.158484 0.881903 0.222129
O O6 0.366533 0.828789 0.114445
O O7 0.134392 0.878648 0.040220
O O8 0.336605 0.953469 0.127135
O O9 0.642353 0.888689 0.727036
O O10 0.481771 0.949035 0.842790
O O11 0.512651 0.284839 0.875165
O O12 0.346303 0.185163 0.840299
O O13 0.839481 0.869263 0.047656
O O14 0.137596 0.059613 0.366421
O O15 0.000000 0.000000 0.500000
#
# Coordination Sequence:
#
# PCOD8228891 Si02
#       7
#     8   8   8   8   8   8   8
#     4  12  23  37  70 103 129 168 223 269 329 416
#     4  10  21  42  68  86 133 175 214 270 323 395
#     4  11  23  43  64  94 127 177 219 262 335 396
#     4  11  20  41  62  97 132 167 207 268 339 394
#     4  11  23  39  65  99 132 167 213 271 333 388
#     4  11  26  42  66  93 126 176 231 273 319 383
#     4  10  24  44  64  91 136 173 211 275 333 389
#
# _framework density 20.708772
#
# number of rings (size 3 to 8) (size 9 to 14) (size 15 to 20)
#    0.000    1.143    4.286    2.571    6.000    1.143 
#    2.571    2.857    0.000    0.000    0.000    0.000 
#    0.000    0.000    0.000    0.000    0.000    0.000 
#
# Total GULP energy -694473.014183 kJ/mol
# GULP energy per Si atom -12401.303825 kJ/mol
# Density = 2.066164 g / cm^3
# Si number density = 20.708772 Si / 1000 Ang^3
#
#
#
# Elastic Constant Matrix: (Units=GPa)
#
#
# Indices 1 2 3 4 5 6 
#
# 1 110.4550 36.1118 19.7701 0.0000 0.0000 0.0000
# 2 36.1118 93.5505 18.4852 0.0000 0.0000 0.0000
# 3 19.7701 18.4852 80.9138 0.0000 0.0000 0.0000
# 4 0.0000 0.0000 0.0000 42.5984 0.0000 0.0000
# 5 0.0000 0.0000 0.0000 0.0000 18.0301 0.0000
# 6 0.0000 0.0000 0.0000 0.0000 0.0000 23.0890
#
#
#
# Elastic Compliance Matrix: (Units=1/GPa)
#
#
# Indices 1 2 3 4 5 6 
#
# 1 0.010588 -0.003745 -0.001731 0.000000 0.000000 0.000000
# 2 -0.003745 0.012519 -0.001945 0.000000 0.000000 0.000000
# 3 -0.001731 -0.001945 0.013226 0.000000 0.000000 0.000000
# 4 0.000000 0.000000 0.000000 0.023475 0.000000 0.000000
# 5 0.000000 0.000000 0.000000 0.000000 0.055463 0.000000
# 6 0.000000 0.000000 0.000000 0.000000 0.000000 0.043311
#
#
# Mechanical properties :
#
#
# Convention : Reuss Voigt Hill
#
# Bulk Modulus (GPa) = 46.53220 48.18372 47.35796
# Shear Modulus (GPa) = 27.68731 30.78029 29.23380
#
# Velocity S-wave (km/s) = 3.66045 3.85949 3.76129
# Velocity P-wave (km/s) = 6.35482 6.57105 6.46384
#
# Compressibility (1/GPa) = 0.02149050
#
# Stress axis : x y z
#
# Youngs Moduli (GPa) = 94.44913 79.87641 75.60721
#
# Poissons Ratio (x) = 0.29913 0.13091
# Poissons Ratio (y) = 0.35370 0.14706
# Poissons Ratio (z) = 0.16353 0.15537
#
# Static dielectric constant tensor:
#      x y z
#    x 4.020720 0.000000 0.000000 
#    y 0.000000 4.067770 0.000000 
#    z 0.000000 0.000000 3.420740 
# 
# 
# High freq. dielectric constant tensor:
#      x y z
#    x 1.826520 0.000000 0.000000 
#    y 0.000000 1.811410 0.000000 
#    z 0.000000 0.000000 1.799610 
# 
# From -- ./inp_files/10864.got.cif
#   From: 2010.03.12/outbox.cif.g09.slc.cpg/sg56_6_cif.got.tgz:10864.got - 2010.04.16 15:33:40.
