data_PCOD8228278
_publ_section_title
;
Structure prediction by ZEFSAII (Michael W. Deem and Ramdas Pophale) SiO2 
 PCOD8228278
Probable space group: P C C N
;
_chemical_formula_sum "Si O2"
_cell_formula_units_Z 36
_cell_length_a 5.068892
_cell_length_b 17.524043
_cell_length_c 21.350602
_cell_angle_alpha 90.000000
_cell_angle_beta 90.000000
_cell_angle_gamma 90.000000
_cell_volume 1896.520201
_symmetry_space_group_name_H-M "P C C N"
_symmetry_group_IT_number 56
_symmetry_cell_setting 'orthorhombic'
loop_
_space_group_symop_operation_xyz
x,y,z
1/2-x,1/2-y,z
1/2+x,-y,1/2-z
-x,1/2+y,1/2-z
-x,-y,-z
1/2+x,1/2+y,-z
1/2-x,y,1/2+z
x,1/2-y,1/2+z
loop_
_atom_site_type_symbol
_atom_site_label
_atom_site_fract_x
_atom_site_fract_y
_atom_site_fract_z
Si Si1 0.578854 0.529427 0.782722
Si Si2 0.250000 0.750000 0.420874
Si Si3 0.264710 0.485713 0.581046
Si Si4 0.498861 0.707764 0.799439
Si Si5 0.760498 0.408990 0.530297
O O1 0.311054 0.483798 0.767588
O O2 0.691998 0.496489 0.847684
O O3 0.506573 0.618418 0.785487
O O4 0.487627 0.777357 0.374804
O O5 0.315142 0.679938 0.466651
O O6 0.558807 0.451544 0.577279
O O7 0.267588 0.564200 0.541508
O O8 0.057634 0.425604 0.552326
O O9 0.750000 0.750000 0.770762
O O10 0.250000 0.750000 0.766759
#
# Coordination Sequence:
#
# PCOD8228278 Si02
#       5
#     8   4   8   8   8
#     4  12  23  36  60  87 118 162 205 239 288 357
#     4  10  20  32  62  88 106 146 188 250 292 346
#     4  10  20  38  52  88 116 149 181 241 296 346
#     4  10  20  35  57  83 115 141 196 250 288 335
#     4  10  20  33  62  82 117 139 185 245 302 341
#
# _framework density 18.982133999999999
#
# number of rings (size 3 to 8) (size 9 to 14) (size 15 to 20)
#    0.667    0.889    2.222    4.000    0.000    0.000 
#    0.000    0.000    7.333    0.000    0.000    0.000 
#    0.000    0.000    0.000    0.000    0.000    0.000 
#
# Total GULP energy -446202.371296 kJ/mol
# GULP energy per Si atom -12394.510314 kJ/mol
# Density = 1.893893 g / cm^3
# Si number density = 18.982134 Si / 1000 Ang^3
#
#
#
# Elastic Constant Matrix: (Units=GPa)
#
#
# Indices 1 2 3 4 5 6 
#
# 1 116.6115 44.8223 22.0016 0.0000 0.0000 0.0000
# 2 44.8223 141.6835 56.8544 0.0000 0.0000 0.0000
# 3 22.0016 56.8544 70.3678 0.0000 0.0000 0.0000
# 4 0.0000 0.0000 0.0000 29.5910 0.0000 0.0000
# 5 0.0000 0.0000 0.0000 0.0000 21.6174 0.0000
# 6 0.0000 0.0000 0.0000 0.0000 0.0000 28.1345
#
#
#
# Elastic Compliance Matrix: (Units=1/GPa)
#
#
# Indices 1 2 3 4 5 6 
#
# 1 0.009795 -0.002767 -0.000827 0.000000 0.000000 0.000000
# 2 -0.002767 0.011226 -0.008205 0.000000 0.000000 0.000000
# 3 -0.000827 -0.008205 0.021099 0.000000 0.000000 0.000000
# 4 0.000000 0.000000 0.000000 0.033794 0.000000 0.000000
# 5 0.000000 0.000000 0.000000 0.000000 0.046259 0.000000
# 6 0.000000 0.000000 0.000000 0.000000 0.000000 0.035544
#
#
# Mechanical properties :
#
#
# Convention : Reuss Voigt Hill
#
# Bulk Modulus (GPa) = 53.98960 64.00214 58.99587
# Shear Modulus (GPa) = 26.66841 29.53420 28.10131
#
# Velocity S-wave (km/s) = 3.75229 3.94876 3.85178
# Velocity P-wave (km/s) = 6.87583 7.38786 7.13644
#
# Compressibility (1/GPa) = 0.01852208
#
# Stress axis : x y z
#
# Youngs Moduli (GPa) = 102.09270 89.08139 47.39598
#
# Poissons Ratio (x) = 0.24647 0.03920
# Poissons Ratio (y) = 0.28247 0.38888
# Poissons Ratio (z) = 0.08444 0.73090
#
# Static dielectric constant tensor:
#      x y z
#    x 3.645880 0.000000 0.000000 
#    y 0.000000 3.367850 0.000000 
#    z 0.000000 0.000000 3.291220 
# 
# 
# High freq. dielectric constant tensor:
#      x y z
#    x 1.756060 0.000000 0.000000 
#    y 0.000000 1.730910 0.000000 
#    z 0.000000 0.000000 1.704670 
# 
# From -- ./inp_files/17409.got.cif
#   From: 2010.03.12/outbox.cif.g09.slc.cpg/sg56_9_cif.got.tgz:17409.got - 2010.04.16 15:33:40.
