data_PCOD8228998
_publ_section_title
;
Structure prediction by ZEFSAII (Michael W. Deem and Ramdas Pophale) SiO2 
 PCOD8228998
Probable space group: P C C N
;
_chemical_formula_sum "Si O2"
_cell_formula_units_Z 48
_cell_length_a 9.703105
_cell_length_b 14.223016
_cell_length_c 16.784182
_cell_angle_alpha 90.000000
_cell_angle_beta 90.000000
_cell_angle_gamma 90.000000
_cell_volume 2316.341615
_symmetry_space_group_name_H-M "P C C N"
_symmetry_group_IT_number 56
_symmetry_cell_setting 'orthorhombic'
loop_
_space_group_symop_operation_xyz
x,y,z
1/2-x,1/2-y,z
1/2+x,-y,1/2-z
-x,1/2+y,1/2-z
-x,-y,-z
1/2+x,1/2+y,-z
1/2-x,y,1/2+z
x,1/2-y,1/2+z
loop_
_atom_site_type_symbol
_atom_site_label
_atom_site_fract_x
_atom_site_fract_y
_atom_site_fract_z
Si Si1 0.869055 0.477717 0.448291
Si Si2 0.773564 0.550375 0.208176
Si Si3 0.346013 0.164045 0.648063
Si Si4 0.959595 0.404641 0.293696
Si Si5 0.879624 0.035488 0.556343
Si Si6 0.405366 0.782137 0.841555
O O1 0.814063 0.571561 0.403604
O O2 0.913699 0.396726 0.385504
O O3 0.748959 0.434967 0.501904
O O4 0.000000 0.500000 0.500000
O O5 0.821472 0.642097 0.257803
O O6 0.837046 0.459545 0.249650
O O7 0.607259 0.542903 0.210131
O O8 0.831288 0.548009 0.117204
O O9 0.250000 0.250000 0.620709
O O10 0.503463 0.193840 0.630521
O O11 0.961788 0.305188 0.248014
O O12 0.931392 0.127974 0.602347
O O13 0.000000 0.000000 0.500000
O O14 0.250000 0.750000 0.841374
#
# Coordination Sequence:
#
# PCOD8228998 Si02
#       6
#     8   8   8   8   8   8
#     4  11  22  40  66  90 130 171 208 257 323 391
#     4  10  22  39  64  91 122 165 217 254 308 391
#     4  11  22  40  65  92 125 165 216 270 322 369
#     4  10  22  39  64  91 121 167 216 253 312 388
#     4  11  24  42  65  95 130 173 215 255 322 400
#     4  11  24  42  64  94 128 164 219 277 324 372
#
# _framework density 20.722332000000002
#
# number of rings (size 3 to 8) (size 9 to 14) (size 15 to 20)
#    0.000    1.333    3.333    2.000   14.000    0.000 
#    0.000   10.000    0.000    0.000    0.000    0.000 
#    0.000    0.000    0.000    0.000    0.000    0.000 
#
# Total GULP energy -594998.005604 kJ/mol
# GULP energy per Si atom -12395.791783 kJ/mol
# Density = 2.067517 g / cm^3
# Si number density = 20.722332 Si / 1000 Ang^3
#
#
#
# Elastic Constant Matrix: (Units=GPa)
#
#
# Indices 1 2 3 4 5 6 
#
# 1 96.9624 -9.1163 24.3190 0.0000 0.0000 0.0000
# 2 -9.1163 50.9817 13.7254 0.0000 0.0000 0.0000
# 3 24.3190 13.7254 114.9627 0.0000 0.0000 0.0000
# 4 0.0000 0.0000 0.0000 22.1901 0.0000 0.0000
# 5 0.0000 0.0000 0.0000 0.0000 41.5196 0.0000
# 6 0.0000 0.0000 0.0000 0.0000 0.0000 36.5039
#
#
#
# Elastic Compliance Matrix: (Units=1/GPa)
#
#
# Indices 1 2 3 4 5 6 
#
# 1 0.011250 0.002740 -0.002707 0.000000 0.000000 0.000000
# 2 0.002740 0.020934 -0.003079 0.000000 0.000000 0.000000
# 3 -0.002707 -0.003079 0.009639 0.000000 0.000000 0.000000
# 4 0.000000 0.000000 0.000000 0.045065 0.000000 0.000000
# 5 0.000000 0.000000 0.000000 0.000000 0.024085 0.000000
# 6 0.000000 0.000000 0.000000 0.000000 0.000000 0.027394
#
#
# Mechanical properties :
#
#
# Convention : Reuss Voigt Hill
#
# Bulk Modulus (GPa) = 27.98664 35.64034 31.81349
# Shear Modulus (GPa) = 31.97578 35.64131 33.80855
#
# Velocity S-wave (km/s) = 3.93244 4.15172 4.04357
# Velocity P-wave (km/s) = 5.84411 6.34183 6.09805
#
# Compressibility (1/GPa) = 0.03573134
#
# Stress axis : x y z
#
# Youngs Moduli (GPa) = 88.89005 47.76950 103.74842
#
# Poissons Ratio (x) = -0.13091 0.28084
# Poissons Ratio (y) = -0.24360 0.31944
# Poissons Ratio (z) = 0.24062 0.14708
#
# Static dielectric constant tensor:
#      x y z
#    x 3.104180 0.000000 0.000000 
#    y 0.000000 3.692060 0.000000 
#    z 0.000000 0.000000 4.097750 
# 
# 
# High freq. dielectric constant tensor:
#      x y z
#    x 1.831060 0.000000 0.000000 
#    y 0.000000 1.782360 0.000000 
#    z 0.000000 0.000000 1.817760 
# 
# From -- ./inp_files/14841.got.cif
#   From: 2010.03.12/outbox.cif.g09.slc.cpg/sg56_8_cif.got.tgz:14841.got - 2010.04.16 15:33:40.
