data_PCOD8228935
_publ_section_title
;
Structure prediction by ZEFSAII (Michael W. Deem and Ramdas Pophale) SiO2 
 PCOD8228935
Probable space group: P C C N
;
_chemical_formula_sum "Si O2"
_cell_formula_units_Z 28
_cell_length_a 11.926972
_cell_length_b 5.156828
_cell_length_c 16.446659
_cell_angle_alpha 90.000000
_cell_angle_beta 90.000000
_cell_angle_gamma 90.000000
_cell_volume 1011.557406
_symmetry_space_group_name_H-M "P C C N"
_symmetry_group_IT_number 56
_symmetry_cell_setting 'orthorhombic'
loop_
_space_group_symop_operation_xyz
x,y,z
1/2-x,1/2-y,z
1/2+x,-y,1/2-z
-x,1/2+y,1/2-z
-x,-y,-z
1/2+x,1/2+y,-z
1/2-x,y,1/2+z
x,1/2-y,1/2+z
loop_
_atom_site_type_symbol
_atom_site_label
_atom_site_fract_x
_atom_site_fract_y
_atom_site_fract_z
Si Si1 0.250000 0.750000 0.055754
Si Si2 0.612521 0.863917 0.347416
Si Si3 0.399945 0.645485 0.410421
Si Si4 0.897265 0.630415 0.683291
O O1 0.279704 0.495725 0.109746
O O2 0.142087 0.673163 0.002652
O O3 0.535198 0.696741 0.410366
O O4 0.652239 0.681400 0.272952
O O5 0.532897 0.092767 0.309428
O O6 0.366887 0.367941 0.375438
O O7 0.341156 0.873493 0.356078
#
# Coordination Sequence:
#
# PCOD8228935 Si02
#       4
#     4   8   8   8
#     4  12  26  44  72 118 148 186 252 304 388 458
#     4  10  22  47  75 103 140 202 246 307 368 446
#     4  10  23  46  67 106 142 194 227 318 370 439
#     4  10  21  46  76  90 146 195 247 292 379 423
#
# _framework density 27.680091000000001
#
# number of rings (size 3 to 8) (size 9 to 14) (size 15 to 20)
#    1.714    0.000    2.857    0.857    0.000    3.429 
#    5.143    0.000    0.000    0.000    0.000    0.000 
#    0.000    0.000    0.000    0.000    0.000    0.000 
#
# Total GULP energy -347149.210321 kJ/mol
# GULP energy per Si atom -12398.186083 kJ/mol
# Density = 2.761709 g / cm^3
# Si number density = 27.680091 Si / 1000 Ang^3
#
#
#
# Elastic Constant Matrix: (Units=GPa)
#
#
# Indices 1 2 3 4 5 6 
#
# 1 86.6325 20.6539 38.9615 0.0000 0.0000 0.0000
# 2 20.6539 169.3973 54.0368 0.0000 0.0000 0.0000
# 3 38.9615 54.0368 154.9122 0.0000 0.0000 0.0000
# 4 0.0000 0.0000 0.0000 11.0835 0.0000 0.0000
# 5 0.0000 0.0000 0.0000 0.0000 -2.3989 0.0000
# 6 0.0000 0.0000 0.0000 0.0000 0.0000 27.8842
#
#
#
# Elastic Compliance Matrix: (Units=1/GPa)
#
#
# Indices 1 2 3 4 5 6 
#
# 1 0.013072 -0.000613 -0.003074 0.000000 0.000000 0.000000
# 2 -0.000613 0.006671 -0.002173 0.000000 0.000000 0.000000
# 3 -0.003074 -0.002173 0.007986 0.000000 0.000000 0.000000
# 4 0.000000 0.000000 0.000000 0.090224 0.000000 0.000000
# 5 0.000000 0.000000 0.000000 0.000000 -0.416855 0.000000
# 6 0.000000 0.000000 0.000000 0.000000 0.000000 0.035863
#
#
# Mechanical properties :
#
#
# Convention : Reuss Voigt Hill
#
# Bulk Modulus (GPa) = 62.46306 70.91627 66.68967
# Shear Modulus (GPa) = -20.32653 27.13308 3.40328
#
# Velocity S-wave (km/s) = -2.71281 3.13427 1.11003
# Velocity P-wave (km/s) = 3.57808 6.22686 5.07821
#
# Compressibility (1/GPa) = 0.01600946
#
# Stress axis : x y z
#
# Youngs Moduli (GPa) = 76.50204 149.89878 125.21537
#
# Poissons Ratio (x) = 0.09193 0.38487
# Poissons Ratio (y) = 0.04692 0.27207
# Poissons Ratio (z) = 0.23514 0.32570
#
# Static dielectric constant tensor:
#      x y z
#    x 4.757300 0.000000 0.000000 
#    y 0.000000 4.924850 0.000000 
#    z 0.000000 0.000000 4.578140 
# 
# 
# High freq. dielectric constant tensor:
#      x y z
#    x 2.122610 0.000000 0.000000 
#    y 0.000000 2.126020 0.000000 
#    z 0.000000 0.000000 2.103700 
# 
# From -- ./inp_files/15939.got.cif
#   From: 2010.03.12/outbox.cif.g09.slc.cpg/sg56_8_cif.got.tgz:15939.got - 2010.04.16 15:33:40.
