data_PCOD8228191
_publ_section_title
;
Structure prediction by ZEFSAII (Michael W. Deem and Ramdas Pophale) SiO2 
 PCOD8228191
Probable space group: P C C N
;
_chemical_formula_sum "Si O2"
_cell_formula_units_Z 56
_cell_length_a 14.477505
_cell_length_b 14.310744
_cell_length_c 13.370014
_cell_angle_alpha 90.000000
_cell_angle_beta 90.000000
_cell_angle_gamma 90.000000
_cell_volume 2770.051213
_symmetry_space_group_name_H-M "P C C N"
_symmetry_group_IT_number 56
_symmetry_cell_setting 'orthorhombic'
loop_
_space_group_symop_operation_xyz
x,y,z
1/2-x,1/2-y,z
1/2+x,-y,1/2-z
-x,1/2+y,1/2-z
-x,-y,-z
1/2+x,1/2+y,-z
1/2-x,y,1/2+z
x,1/2-y,1/2+z
loop_
_atom_site_type_symbol
_atom_site_label
_atom_site_fract_x
_atom_site_fract_y
_atom_site_fract_z
Si Si1 0.491946 0.762063 0.865811
Si Si2 0.801324 0.980449 0.712722
Si Si3 0.489799 0.086731 0.749149
Si Si4 0.932253 0.299754 0.924129
Si Si5 0.169131 0.817975 0.236394
Si Si6 0.879769 0.582490 0.799380
Si Si7 0.887773 0.013605 0.497358
O O1 0.476680 0.653453 0.839922
O O2 0.404641 0.821005 0.826127
O O3 0.579698 0.812463 0.811908
O O4 0.496106 0.761920 0.985926
O O5 0.785675 0.079618 0.768444
O O6 0.833610 0.987772 0.597797
O O7 0.882927 0.930921 0.773038
O O8 0.708115 0.919225 0.724783
O O9 0.499025 0.147413 0.849505
O O10 0.544448 0.989123 0.753884
O O11 0.876175 0.216796 0.868730
O O12 0.863660 0.378551 0.969723
O O13 0.250000 0.750000 0.269119
O O14 0.847850 0.551275 0.909729
O O15 0.000000 0.000000 0.500000
#
# Coordination Sequence:
#
# PCOD8228191 Si02
#       7
#     8   8   8   8   8   8   8
#     4  11  20  39  64  84 126 168 202 255 321 374
#     4  12  21  39  65  92 128 158 209 268 317 365
#     4  10  21  39  62  91 118 162 212 254 307 380
#     4  10  19  37  63  86 117 163 212 249 302 384
#     4  11  22  37  58  93 122 153 209 271 313 364
#     4  11  22  40  63  94 124 164 216 257 313 390
#     4  11  17  39  67  85 116 172 216 250 304 390
#
# _framework density 20.216232000000002
#
# number of rings (size 3 to 8) (size 9 to 14) (size 15 to 20)
#    0.000    1.143    7.143    2.571    0.000    1.143 
#    7.714    3.571    0.000    5.143    0.000    0.000 
#    0.000    0.000    0.000    0.000    0.000    0.000 
#
# Total GULP energy -693965.220382 kJ/mol
# GULP energy per Si atom -12392.236078 kJ/mol
# Density = 2.017022 g / cm^3
# Si number density = 20.216232 Si / 1000 Ang^3
#
#
#
# Elastic Constant Matrix: (Units=GPa)
#
#
# Indices 1 2 3 4 5 6 
#
# 1 102.4381 3.2581 31.5036 0.0000 0.0000 0.0000
# 2 3.2581 41.9220 9.4901 0.0000 0.0000 0.0000
# 3 31.5036 9.4901 83.7234 0.0000 0.0000 0.0000
# 4 0.0000 0.0000 0.0000 16.8182 0.0000 0.0000
# 5 0.0000 0.0000 0.0000 0.0000 26.9589 0.0000
# 6 0.0000 0.0000 0.0000 0.0000 0.0000 32.1819
#
#
#
# Elastic Compliance Matrix: (Units=1/GPa)
#
#
# Indices 1 2 3 4 5 6 
#
# 1 0.011040 0.000085 -0.004164 0.000000 0.000000 0.000000
# 2 0.000085 0.024483 -0.002807 0.000000 0.000000 0.000000
# 3 -0.004164 -0.002807 0.013829 0.000000 0.000000 0.000000
# 4 0.000000 0.000000 0.000000 0.059460 0.000000 0.000000
# 5 0.000000 0.000000 0.000000 0.000000 0.037093 0.000000
# 6 0.000000 0.000000 0.000000 0.000000 0.000000 0.031073
#
#
# Mechanical properties :
#
#
# Convention : Reuss Voigt Hill
#
# Bulk Modulus (GPa) = 28.10621 35.17634 31.64128
# Shear Modulus (GPa) = 24.67800 27.44725 26.06263
#
# Velocity S-wave (km/s) = 3.49765 3.68867 3.59443
# Velocity P-wave (km/s) = 5.49949 5.96486 5.73689
#
# Compressibility (1/GPa) = 0.03557932
#
# Stress axis : x y z
#
# Youngs Moduli (GPa) = 90.58149 40.84523 72.31193
#
# Poissons Ratio (x) = -0.00345 0.30108
# Poissons Ratio (y) = -0.00766 0.20298
# Poissons Ratio (z) = 0.37715 0.11465
#
# Static dielectric constant tensor:
#      x y z
#    x 3.546790 0.000000 0.000000 
#    y 0.000000 3.815300 0.000000 
#    z 0.000000 0.000000 3.796790 
# 
# 
# High freq. dielectric constant tensor:
#      x y z
#    x 1.768010 0.000000 0.000000 
#    y 0.000000 1.787270 0.000000 
#    z 0.000000 0.000000 1.783340 
# 
# From -- ./inp_files/12364.got.cif
#   From: 2010.03.12/outbox.cif.g09.slc.cpg/sg56_7_cif.got.tgz:12364.got - 2010.04.16 15:33:40.
