data_PCOD8228562
_publ_section_title
;
Structure prediction by ZEFSAII (Michael W. Deem and Ramdas Pophale) SiO2 
 PCOD8228562
Probable space group: P C C N
;
_chemical_formula_sum "Si O2"
_cell_formula_units_Z 64
_cell_length_a 9.193021
_cell_length_b 14.255606
_cell_length_c 20.451740
_cell_angle_alpha 90.000000
_cell_angle_beta 90.000000
_cell_angle_gamma 90.000000
_cell_volume 2680.243176
_symmetry_space_group_name_H-M "P C C N"
_symmetry_group_IT_number 56
_symmetry_cell_setting 'orthorhombic'
loop_
_space_group_symop_operation_xyz
x,y,z
1/2-x,1/2-y,z
1/2+x,-y,1/2-z
-x,1/2+y,1/2-z
-x,-y,-z
1/2+x,1/2+y,-z
1/2-x,y,1/2+z
x,1/2-y,1/2+z
loop_
_atom_site_type_symbol
_atom_site_label
_atom_site_fract_x
_atom_site_fract_y
_atom_site_fract_z
Si Si1 0.588027 0.898694 0.912351
Si Si2 0.989468 0.026078 0.871875
Si Si3 0.075352 0.760685 0.338055
Si Si4 0.086364 0.353388 0.554517
Si Si5 0.815960 0.400816 0.873668
Si Si6 0.996333 0.607713 0.246685
Si Si7 0.271538 0.145464 0.856259
Si Si8 0.012445 0.197328 0.463404
O O1 0.495707 0.865129 0.847297
O O2 0.744839 0.846455 0.922454
O O3 0.612994 0.008635 0.908448
O O4 0.488565 0.870149 0.974150
O O5 0.989269 0.964527 0.806146
O O6 0.973098 0.959733 0.936357
O O7 0.130606 0.088057 0.875000
O O8 0.857097 0.098976 0.872642
O O9 0.250000 0.750000 0.335971
O O10 0.005334 0.714075 0.273884
O O11 0.017694 0.709026 0.401650
O O12 0.055548 0.306046 0.482692
O O13 0.860740 0.402431 0.797763
O O14 0.871513 0.310147 0.915298
O O15 0.855840 0.591454 0.201400
O O16 0.250000 0.250000 0.829104
O O17 0.356586 0.150270 0.923909
#
# Coordination Sequence:
#
# PCOD8228562 Si02
#       8
#     8   8   8   8   8   8   8   8
#     4  10  20  40  66  90 126 177 227 272 330 408
#     4  10  22  43  67  96 128 174 230 274 322 403
#     4  10  21  36  61  95 128 167 221 278 327 390
#     4   9  20  41  68  93 123 169 223 276 328 395
#     4  10  22  38  62  96 130 170 217 279 342 386
#     4  10  23  40  61  93 133 175 217 269 333 397
#     4  11  24  41  66  96 133 178 219 270 339 400
#     4  10  20  41  63  91 132 170 214 272 338 399
#
# _framework density 23.878430000000002
#
# number of rings (size 3 to 8) (size 9 to 14) (size 15 to 20)
#    0.000    2.000    0.000    3.375    0.000   10.000 
#    0.000   17.500    0.000    0.000    0.000    0.000 
#    0.000    0.000    0.000    0.000    0.000    0.000 
#
# Total GULP energy -792941.504412 kJ/mol
# GULP energy per Si atom -12389.711006 kJ/mol
# Density = 2.382408 g / cm^3
# Si number density = 23.878430 Si / 1000 Ang^3
#
#
#
# Elastic Constant Matrix: (Units=GPa)
#
#
# Indices 1 2 3 4 5 6 
#
# 1 146.8628 44.4460 53.4182 0.0000 0.0000 0.0000
# 2 44.4460 76.2480 43.3244 0.0000 0.0000 0.0000
# 3 53.4182 43.3244 117.6945 0.0000 0.0000 0.0000
# 4 0.0000 0.0000 0.0000 35.1864 0.0000 0.0000
# 5 0.0000 0.0000 0.0000 0.0000 8.4922 0.0000
# 6 0.0000 0.0000 0.0000 0.0000 0.0000 28.1769
#
#
#
# Elastic Compliance Matrix: (Units=1/GPa)
#
#
# Indices 1 2 3 4 5 6 
#
# 1 0.008894 -0.003655 -0.002691 0.000000 0.000000 0.000000
# 2 -0.003655 0.018086 -0.004999 0.000000 0.000000 0.000000
# 3 -0.002691 -0.004999 0.011558 0.000000 0.000000 0.000000
# 4 0.000000 0.000000 0.000000 0.028420 0.000000 0.000000
# 5 0.000000 0.000000 0.000000 0.000000 0.117755 0.000000
# 6 0.000000 0.000000 0.000000 0.000000 0.000000 0.035490
#
#
# Mechanical properties :
#
#
# Convention : Reuss Voigt Hill
#
# Bulk Modulus (GPa) = 63.09964 69.24252 66.17108
# Shear Modulus (GPa) = 20.14692 27.67886 23.91289
#
# Velocity S-wave (km/s) = 2.90785 3.40833 3.16799
# Velocity P-wave (km/s) = 6.14466 6.67457 6.41509
#
# Compressibility (1/GPa) = 0.01584795
#
# Stress axis : x y z
#
# Youngs Moduli (GPa) = 112.43271 55.29115 86.51954
#
# Poissons Ratio (x) = 0.20211 0.23285
# Poissons Ratio (y) = 0.41098 0.43248
# Poissons Ratio (z) = 0.30259 0.27638
#
# Static dielectric constant tensor:
#      x y z
#    x 4.456140 0.000000 0.000000 
#    y 0.000000 4.740300 0.000000 
#    z 0.000000 0.000000 4.597240 
# 
# 
# High freq. dielectric constant tensor:
#      x y z
#    x 1.945470 0.000000 0.000000 
#    y 0.000000 1.944710 0.000000 
#    z 0.000000 0.000000 1.950600 
# 
# From -- ./inp_files/18391.got.cif
#   From: 2010.03.12/outbox.cif.g09.slc.cpg/sg56_10_cif.got.tgz:18391.got - 2010.04.16 15:33:40.
