data_PCOD8228138
_publ_section_title
;
Structure prediction by ZEFSAII (Michael W. Deem and Ramdas Pophale) SiO2 
 PCOD8228138
Probable space group: P C C N
;
_chemical_formula_sum "Si O2"
_cell_formula_units_Z 48
_cell_length_a 8.755292
_cell_length_b 18.227689
_cell_length_c 15.714357
_cell_angle_alpha 90.000000
_cell_angle_beta 90.000000
_cell_angle_gamma 90.000000
_cell_volume 2507.834429
_symmetry_space_group_name_H-M "P C C N"
_symmetry_group_IT_number 56
_symmetry_cell_setting 'orthorhombic'
loop_
_space_group_symop_operation_xyz
x,y,z
1/2-x,1/2-y,z
1/2+x,-y,1/2-z
-x,1/2+y,1/2-z
-x,-y,-z
1/2+x,1/2+y,-z
1/2-x,y,1/2+z
x,1/2-y,1/2+z
loop_
_atom_site_type_symbol
_atom_site_label
_atom_site_fract_x
_atom_site_fract_y
_atom_site_fract_z
Si Si1 0.405134 0.658319 0.156956
Si Si2 0.828325 0.466350 0.225941
Si Si3 0.595708 0.551318 0.561075
Si Si4 0.451017 0.822006 0.159723
Si Si5 0.991396 0.915253 0.815265
Si Si6 0.066781 0.420533 0.497654
O O1 0.415268 0.608289 0.242830
O O2 0.492148 0.735944 0.163200
O O3 0.226797 0.668393 0.142370
O O4 0.481821 0.622122 0.075975
O O5 0.906334 0.500227 0.143729
O O6 0.651274 0.456333 0.203709
O O7 0.852991 0.526740 0.300704
O O8 0.500000 0.500000 0.500000
O O9 0.525378 0.631027 0.583441
O O10 0.754897 0.572908 0.519479
O O11 0.515287 0.847590 0.250840
O O12 0.972359 0.883686 0.910778
O O13 0.000000 0.500000 0.500000
#
# Coordination Sequence:
#
# PCOD8228138 Si02
#       6
#     8   8   8   8   8   8
#     4  10  20  40  63  84 122 159 200 245 310 357
#     4  10  19  35  59  85 115 154 195 243 296 362
#     4  11  23  37  60  87 122 153 207 253 299 355
#     4   9  22  41  59  87 121 162 196 250 302 370
#     4  10  21  36  60  88 117 154 201 241 301 356
#     4  12  21  37  62  92 120 158 201 257 298 358
#
# _framework density 19.140018999999999
#
# number of rings (size 3 to 8) (size 9 to 14) (size 15 to 20)
#    0.000    1.667    3.333    1.000    4.667    0.667 
#    3.000    1.667    0.000    0.000    0.000    0.000 
#    0.000    0.000    0.000    0.000    0.000    0.000 
#
# Total GULP energy -594724.411266 kJ/mol
# GULP energy per Si atom -12390.091901 kJ/mol
# Density = 1.909646 g / cm^3
# Si number density = 19.140019 Si / 1000 Ang^3
#
#
#
# Elastic Constant Matrix: (Units=GPa)
#
#
# Indices 1 2 3 4 5 6 
#
# 1 54.0712 51.6857 51.3253 0.0000 0.0000 0.0000
# 2 51.6857 146.7699 59.2921 0.0000 0.0000 0.0000
# 3 51.3253 59.2921 120.6017 0.0000 0.0000 0.0000
# 4 0.0000 0.0000 0.0000 28.8078 0.0000 0.0000
# 5 0.0000 0.0000 0.0000 0.0000 30.1540 0.0000
# 6 0.0000 0.0000 0.0000 0.0000 0.0000 25.6672
#
#
#
# Elastic Compliance Matrix: (Units=1/GPa)
#
#
# Indices 1 2 3 4 5 6 
#
# 1 0.038053 -0.008558 -0.011987 0.000000 0.000000 0.000000
# 2 -0.008558 0.010427 -0.001484 0.000000 0.000000 0.000000
# 3 -0.011987 -0.001484 0.014123 0.000000 0.000000 0.000000
# 4 0.000000 0.000000 0.000000 0.034713 0.000000 0.000000
# 5 0.000000 0.000000 0.000000 0.000000 0.033163 0.000000
# 6 0.000000 0.000000 0.000000 0.000000 0.000000 0.038960
#
#
# Mechanical properties :
#
#
# Convention : Reuss Voigt Hill
#
# Bulk Modulus (GPa) = 53.92519 71.78324 62.85421
# Shear Modulus (GPa) = 22.76060 27.53511 25.14785
#
# Velocity S-wave (km/s) = 3.45217 3.79702 3.62869
# Velocity P-wave (km/s) = 6.64268 7.53716 7.10401
#
# Compressibility (1/GPa) = 0.01854421
#
# Stress axis : x y z
#
# Youngs Moduli (GPa) = 26.27923 95.90821 70.80766
#
# Poissons Ratio (x) = 0.82078 0.84877
# Poissons Ratio (y) = 0.22490 0.10508
# Poissons Ratio (z) = 0.31501 0.14233
#
# Static dielectric constant tensor:
#      x y z
#    x 3.483760 0.000000 0.000000 
#    y 0.000000 3.872490 0.000000 
#    z 0.000000 0.000000 3.666150 
# 
# 
# High freq. dielectric constant tensor:
#      x y z
#    x 1.744960 0.000000 0.000000 
#    y 0.000000 1.740530 0.000000 
#    z 0.000000 0.000000 1.751060 
# 
# From -- ./inp_files/10631.got.cif
#   From: 2010.03.12/outbox.cif.g09.slc.cpg/sg56_6_cif.got.tgz:10631.got - 2010.04.16 15:33:40.
