data_PCOD8228120
_publ_section_title
;
Structure prediction by ZEFSAII (Michael W. Deem and Ramdas Pophale) SiO2 
 PCOD8228120
Probable space group: P C C N
;
_chemical_formula_sum "Si O2"
_cell_formula_units_Z 40
_cell_length_a 18.702423
_cell_length_b 6.281314
_cell_length_c 18.325907
_cell_angle_alpha 90.000000
_cell_angle_beta 90.000000
_cell_angle_gamma 90.000000
_cell_volume 2152.850428
_symmetry_space_group_name_H-M "P C C N"
_symmetry_group_IT_number 56
_symmetry_cell_setting 'orthorhombic'
loop_
_space_group_symop_operation_xyz
x,y,z
1/2-x,1/2-y,z
1/2+x,-y,1/2-z
-x,1/2+y,1/2-z
-x,-y,-z
1/2+x,1/2+y,-z
1/2-x,y,1/2+z
x,1/2-y,1/2+z
loop_
_atom_site_type_symbol
_atom_site_label
_atom_site_fract_x
_atom_site_fract_y
_atom_site_fract_z
Si Si1 0.079853 0.419684 0.488451
Si Si2 0.067048 0.430069 0.100004
Si Si3 0.331926 0.804674 0.597162
Si Si4 0.956247 0.761381 0.652075
Si Si5 0.578648 0.548811 0.796271
O O1 0.085062 0.189295 0.525330
O O2 0.135766 0.587307 0.523335
O O3 0.093146 0.385722 0.401167
O O4 0.000000 0.500000 0.500000
O O5 0.134166 0.579023 0.115782
O O6 0.995700 0.573917 0.097267
O O7 0.055615 0.265125 0.165021
O O8 0.250000 0.750000 0.585506
O O9 0.348458 0.959390 0.666457
O O10 0.015028 0.621663 0.694915
O O11 0.909078 0.891972 0.711121
#
# Coordination Sequence:
#
# PCOD8228120 Si02
#       5
#     8   8   8   8   8
#     4  11  20  33  57  94 112 146 200 249 307 344
#     4  10  19  34  59  82 118 148 185 250 293 349
#     4  10  23  40  57  83 116 165 204 235 296 372
#     4  11  19  32  54  92 117 138 191 250 308 341
#     4  10  20  32  57  88 114 153 189 241 307 358
#
# _framework density 18.580016000000001
#
# number of rings (size 3 to 8) (size 9 to 14) (size 15 to 20)
#    0.000    1.600    8.000    0.600    0.000    3.200 
#    0.000    0.000    0.000    7.200    0.000    0.000 
#    0.000    0.000    0.000    0.000    0.000    0.000 
#
# Total GULP energy -495642.840804 kJ/mol
# GULP energy per Si atom -12391.071020 kJ/mol
# Density = 1.853773 g / cm^3
# Si number density = 18.580016 Si / 1000 Ang^3
#
#
#
# Elastic Constant Matrix: (Units=GPa)
#
#
# Indices 1 2 3 4 5 6 
#
# 1 96.7636 29.8879 38.5433 0.0000 0.0000 0.0000
# 2 29.8879 89.3912 26.2351 0.0000 0.0000 0.0000
# 3 38.5433 26.2351 115.0521 0.0000 0.0000 0.0000
# 4 0.0000 0.0000 0.0000 33.5750 0.0000 0.0000
# 5 0.0000 0.0000 0.0000 0.0000 17.7156 0.0000
# 6 0.0000 0.0000 0.0000 0.0000 0.0000 20.0847
#
#
#
# Elastic Compliance Matrix: (Units=1/GPa)
#
#
# Indices 1 2 3 4 5 6 
#
# 1 0.012737 -0.003222 -0.003532 0.000000 0.000000 0.000000
# 2 -0.003222 0.012804 -0.001840 0.000000 0.000000 0.000000
# 3 -0.003532 -0.001840 0.010295 0.000000 0.000000 0.000000
# 4 0.000000 0.000000 0.000000 0.029784 0.000000 0.000000
# 5 0.000000 0.000000 0.000000 0.000000 0.056447 0.000000
# 6 0.000000 0.000000 0.000000 0.000000 0.000000 0.049789
#
#
# Mechanical properties :
#
#
# Convention : Reuss Voigt Hill
#
# Bulk Modulus (GPa) = 53.62899 54.50440 54.06670
# Shear Modulus (GPa) = 25.60685 28.04443 26.82564
#
# Velocity S-wave (km/s) = 3.71643 3.88930 3.80385
# Velocity P-wave (km/s) = 6.88057 7.04042 6.96095
#
# Compressibility (1/GPa) = 0.01864663
#
# Stress axis : x y z
#
# Youngs Moduli (GPa) = 78.51417 78.09989 97.13757
#
# Poissons Ratio (x) = 0.25162 0.34311
# Poissons Ratio (y) = 0.25296 0.17877
# Poissons Ratio (z) = 0.27733 0.14373
#
# Static dielectric constant tensor:
#      x y z
#    x 2.945240 0.000000 0.000000 
#    y 0.000000 3.799580 0.000000 
#    z 0.000000 0.000000 3.683280 
# 
# 
# High freq. dielectric constant tensor:
#      x y z
#    x 1.659490 0.000000 0.000000 
#    y 0.000000 1.746950 0.000000 
#    z 0.000000 0.000000 1.722030 
# 
# From -- ./inp_files/13908.got.cif
#   From: 2010.03.12/outbox.cif.g09.slc.cpg/sg56_7_cif.got.tgz:13908.got - 2010.04.16 15:33:40.
