data_PCOD8228367
_publ_section_title
;
Structure prediction by ZEFSAII (Michael W. Deem and Ramdas Pophale) SiO2 
 PCOD8228367
Probable space group: P C C N
;
_chemical_formula_sum "Si O2"
_cell_formula_units_Z 56
_cell_length_a 20.320464
_cell_length_b 8.810268
_cell_length_c 14.614024
_cell_angle_alpha 90.000000
_cell_angle_beta 90.000000
_cell_angle_gamma 90.000000
_cell_volume 2616.330211
_symmetry_space_group_name_H-M "P C C N"
_symmetry_group_IT_number 56
_symmetry_cell_setting 'orthorhombic'
loop_
_space_group_symop_operation_xyz
x,y,z
1/2-x,1/2-y,z
1/2+x,-y,1/2-z
-x,1/2+y,1/2-z
-x,-y,-z
1/2+x,1/2+y,-z
1/2-x,y,1/2+z
x,1/2-y,1/2+z
loop_
_atom_site_type_symbol
_atom_site_label
_atom_site_fract_x
_atom_site_fract_y
_atom_site_fract_z
Si Si1 0.865117 0.974906 0.555031
Si Si2 0.770497 0.576165 0.889092
Si Si3 0.112850 0.516100 0.235366
Si Si4 0.919394 0.834001 0.089738
Si Si5 0.179706 0.747705 0.845663
Si Si6 0.554109 0.338587 0.430271
Si Si7 0.652062 0.083471 0.473760
O O1 0.812788 0.976814 0.474640
O O2 0.868938 0.805117 0.592001
O O3 0.840675 0.074213 0.639726
O O4 0.933878 0.051763 0.518720
O O5 0.750000 0.750000 0.891808
O O6 0.816229 0.546491 0.800101
O O7 0.703030 0.479322 0.897489
O O8 0.079781 0.401997 0.308173
O O9 0.124219 0.676386 0.284209
O O10 0.058682 0.549379 0.157374
O O11 0.988322 0.758828 0.061592
O O12 0.897242 0.951926 0.011350
O O13 0.250000 0.750000 0.794946
O O14 0.188995 0.843398 0.939628
O O15 0.612220 0.214981 0.422767
#
# Coordination Sequence:
#
# PCOD8228367 Si02
#       7
#     8   8   8   8   8   8   8
#     4  10  21  38  69  91 117 167 209 265 301 366
#     4  11  21  41  62  95 127 153 210 261 323 363
#     4  10  26  39  58  94 128 164 202 257 320 381
#     4  11  22  44  63  92 128 165 214 254 311 373
#     4  10  20  36  59  93 123 156 202 251 314 372
#     4  10  23  42  63  92 125 168 217 250 308 373
#     4  10  21  39  68  90 119 166 208 265 299 368
#
# _framework density 21.404025000000001
#
# number of rings (size 3 to 8) (size 9 to 14) (size 15 to 20)
#    0.000    1.714    2.857    0.857    2.000    2.286 
#    2.571    2.857    0.000    0.000    0.000    0.000 
#    0.000    0.000    0.000    0.000    0.000    0.000 
#
# Total GULP energy -694149.222395 kJ/mol
# GULP energy per Si atom -12395.521828 kJ/mol
# Density = 2.135531 g / cm^3
# Si number density = 21.404025 Si / 1000 Ang^3
#
#
#
# Elastic Constant Matrix: (Units=GPa)
#
#
# Indices 1 2 3 4 5 6 
#
# 1 53.3142 -0.5527 2.5749 0.0000 0.0000 0.0000
# 2 -0.5527 98.8616 19.5101 0.0000 0.0000 0.0000
# 3 2.5749 19.5101 39.6435 0.0000 0.0000 0.0000
# 4 0.0000 0.0000 0.0000 27.4137 0.0000 0.0000
# 5 0.0000 0.0000 0.0000 0.0000 14.8694 0.0000
# 6 0.0000 0.0000 0.0000 0.0000 0.0000 39.2400
#
#
#
# Elastic Compliance Matrix: (Units=1/GPa)
#
#
# Indices 1 2 3 4 5 6 
#
# 1 0.018829 0.000384 -0.001412 0.000000 0.000000 0.000000
# 2 0.000384 0.011211 -0.005542 0.000000 0.000000 0.000000
# 3 -0.001412 -0.005542 0.028044 0.000000 0.000000 0.000000
# 4 0.000000 0.000000 0.000000 0.036478 0.000000 0.000000
# 5 0.000000 0.000000 0.000000 0.000000 0.067252 0.000000
# 6 0.000000 0.000000 0.000000 0.000000 0.000000 0.025484
#
#
# Mechanical properties :
#
#
# Convention : Reuss Voigt Hill
#
# Bulk Modulus (GPa) = 22.25021 26.09822 24.17422
# Shear Modulus (GPa) = 23.21044 27.65708 25.43376
#
# Velocity S-wave (km/s) = 3.29659 3.59854 3.45087
# Velocity P-wave (km/s) = 4.99078 5.43006 5.21505
#
# Compressibility (1/GPa) = 0.04494339
#
# Stress axis : x y z
#
# Youngs Moduli (GPa) = 53.10987 89.19755 35.65810
#
# Poissons Ratio (x) = -0.03424 0.05035
# Poissons Ratio (y) = -0.02039 0.19763
# Poissons Ratio (z) = 0.07499 0.49436
#
# Static dielectric constant tensor:
#      x y z
#    x 3.776670 0.000000 0.000000 
#    y 0.000000 4.125470 0.000000 
#    z 0.000000 0.000000 3.686500 
# 
# 
# High freq. dielectric constant tensor:
#      x y z
#    x 1.834070 0.000000 0.000000 
#    y 0.000000 1.859490 0.000000 
#    z 0.000000 0.000000 1.819910 
# 
# From -- ./inp_files/10901.got.cif
#   From: 2010.03.12/outbox.cif.g09.slc.cpg/sg56_6_cif.got.tgz:10901.got - 2010.04.16 15:33:40.
