data_PCOD8228782
_publ_section_title
;
Structure prediction by ZEFSAII (Michael W. Deem and Ramdas Pophale) SiO2 
 PCOD8228782
Probable space group: P C C N
;
_chemical_formula_sum "Si O2"
_cell_formula_units_Z 40
_cell_length_a 23.765074
_cell_length_b 5.742605
_cell_length_c 13.203009
_cell_angle_alpha 90.000000
_cell_angle_beta 90.000000
_cell_angle_gamma 90.000000
_cell_volume 1801.859961
_symmetry_space_group_name_H-M "P C C N"
_symmetry_group_IT_number 56
_symmetry_cell_setting 'orthorhombic'
loop_
_space_group_symop_operation_xyz
x,y,z
1/2-x,1/2-y,z
1/2+x,-y,1/2-z
-x,1/2+y,1/2-z
-x,-y,-z
1/2+x,1/2+y,-z
1/2-x,y,1/2+z
x,1/2-y,1/2+z
loop_
_atom_site_type_symbol
_atom_site_label
_atom_site_fract_x
_atom_site_fract_y
_atom_site_fract_z
Si Si1 0.938760 0.810967 0.590245
Si Si2 0.856831 0.526333 0.455567
Si Si3 0.125108 0.325757 0.224865
Si Si4 0.937750 0.355256 0.913470
Si Si5 0.718602 0.002865 0.639977
O O1 0.908283 0.617882 0.523246
O O2 0.903409 0.849058 0.693470
O O3 0.003077 0.728864 0.611897
O O4 0.940243 0.052486 0.529175
O O5 0.839674 0.693143 0.362421
O O6 0.881490 0.296420 0.404568
O O7 0.801991 0.482968 0.523622
O O8 0.072050 0.450204 0.171979
O O9 0.167134 0.502702 0.281288
O O10 0.750000 0.750000 0.653277
O O11 0.750000 0.250000 0.661791
#
# Coordination Sequence:
#
# PCOD8228782 Si02
#       5
#     8   8   8   8   8
#     4   9  21  40  62 100 142 176 217 269 348 406
#     4  10  23  42  69  95 135 175 231 282 339 418
#     4  10  24  41  66 105 130 175 233 282 335 426
#     4  10  21  39  67  97 139 181 215 277 338 420
#     4  11  28  50  73  97 137 182 232 300 359 398
#
# _framework density 22.199282
#
# number of rings (size 3 to 8) (size 9 to 14) (size 15 to 20)
#    0.000    2.000    0.000    0.600   14.000    2.400 
#    3.600    0.000    0.000    0.000    0.000    0.000 
#    0.000    0.000    0.000    0.000    0.000    0.000 
#
# Total GULP energy -495642.003729 kJ/mol
# GULP energy per Si atom -12391.050093 kJ/mol
# Density = 2.214876 g / cm^3
# Si number density = 22.199282 Si / 1000 Ang^3
#
#
#
# Elastic Constant Matrix: (Units=GPa)
#
#
# Indices 1 2 3 4 5 6 
#
# 1 89.3741 31.5542 46.6180 0.0000 0.0000 0.0000
# 2 31.5542 86.7835 28.6587 0.0000 0.0000 0.0000
# 3 46.6180 28.6587 141.2924 0.0000 0.0000 0.0000
# 4 0.0000 0.0000 0.0000 17.2531 0.0000 0.0000
# 5 0.0000 0.0000 0.0000 0.0000 27.0337 0.0000
# 6 0.0000 0.0000 0.0000 0.0000 0.0000 38.7565
#
#
#
# Elastic Compliance Matrix: (Units=1/GPa)
#
#
# Indices 1 2 3 4 5 6 
#
# 1 0.014714 -0.004016 -0.004040 0.000000 0.000000 0.000000
# 2 -0.004016 0.013446 -0.001402 0.000000 0.000000 0.000000
# 3 -0.004040 -0.001402 0.008695 0.000000 0.000000 0.000000
# 4 0.000000 0.000000 0.000000 0.057961 0.000000 0.000000
# 5 0.000000 0.000000 0.000000 0.000000 0.036991 0.000000
# 6 0.000000 0.000000 0.000000 0.000000 0.000000 0.025802
#
#
# Mechanical properties :
#
#
# Convention : Reuss Voigt Hill
#
# Bulk Modulus (GPa) = 55.74596 59.01242 57.37919
# Shear Modulus (GPa) = 27.39648 30.64994 29.02321
#
# Velocity S-wave (km/s) = 3.51681 3.71977 3.61971
# Velocity P-wave (km/s) = 6.45420 6.71488 6.58583
#
# Compressibility (1/GPa) = 0.01793852
#
# Stress axis : x y z
#
# Youngs Moduli (GPa) = 67.96176 74.37065 115.00854
#
# Poissons Ratio (x) = 0.29866 0.46466
# Poissons Ratio (y) = 0.27292 0.16128
# Poissons Ratio (z) = 0.27458 0.10429
#
# Static dielectric constant tensor:
#      x y z
#    x 3.946010 0.000000 0.000000 
#    y 0.000000 3.751010 0.000000 
#    z 0.000000 0.000000 4.189220 
# 
# 
# High freq. dielectric constant tensor:
#      x y z
#    x 1.867650 0.000000 0.000000 
#    y 0.000000 1.855080 0.000000 
#    z 0.000000 0.000000 1.888460 
# 
# From -- ./inp_files/5618.got.cif
#   From: 2010.03.12/outbox.cif.g09.slc.cpg/sg56_3_cif.got.tgz:5618.got - 2010.04.16 15:33:40.
