data_PCOD8228667
_publ_section_title
;
Structure prediction by ZEFSAII (Michael W. Deem and Ramdas Pophale) SiO2 
 PCOD8228667
Probable space group: P C C N
;
_chemical_formula_sum "Si O2"
_cell_formula_units_Z 60
_cell_length_a 6.550776
_cell_length_b 17.043584
_cell_length_c 27.516867
_cell_angle_alpha 90.000000
_cell_angle_beta 90.000000
_cell_angle_gamma 90.000000
_cell_volume 3072.222457
_symmetry_space_group_name_H-M "P C C N"
_symmetry_group_IT_number 56
_symmetry_cell_setting 'orthorhombic'
loop_
_space_group_symop_operation_xyz
x,y,z
1/2-x,1/2-y,z
1/2+x,-y,1/2-z
-x,1/2+y,1/2-z
-x,-y,-z
1/2+x,1/2+y,-z
1/2-x,y,1/2+z
x,1/2-y,1/2+z
loop_
_atom_site_type_symbol
_atom_site_label
_atom_site_fract_x
_atom_site_fract_y
_atom_site_fract_z
Si Si1 0.057403 0.936114 0.911046
Si Si2 0.298347 0.338494 0.023814
Si Si3 0.080399 0.899243 0.058078
Si Si4 0.492228 0.893925 0.220266
Si Si5 0.903329 0.422133 0.017732
Si Si6 0.153681 0.505441 0.309039
Si Si7 0.750000 0.750000 0.210449
Si Si8 0.908652 0.356758 0.333849
O O1 0.271921 0.944456 0.936322
O O2 0.944223 0.856763 0.929564
O O3 0.115928 0.936857 0.854528
O O4 0.918357 0.008794 0.928512
O O5 0.250000 0.250000 0.013766
O O6 0.076079 0.366902 0.037889
O O7 0.382038 0.377251 0.973969
O O8 0.091053 0.850928 0.107801
O O9 0.277519 0.879899 0.025536
O O10 0.625964 0.960855 0.191984
O O11 0.644189 0.823381 0.239563
O O12 0.324448 0.851256 0.185700
O O13 0.375489 0.937422 0.263522
O O14 0.000000 0.500000 0.000000
O O15 0.982031 0.439182 0.311874
O O16 0.561956 0.713337 0.180201
#
# Coordination Sequence:
#
# PCOD8228667 Si02
#       8
#     8   8   8   8   8   8   4   8
#     4  10  21  38  59  91 115 154 210 251 297 373
#     4  11  23  39  58  85 130 158 204 257 301 359
#     4  10  21  36  61  91 117 155 204 244 299 375
#     4  11  21  42  63  91 123 162 203 262 315 373
#     4  11  19  36  63  83 115 163 196 240 300 354
#     4  10  22  38  67  91 119 153 212 261 307 372
#     4  10  24  40  60  88 130 160 194 254 318 382
#     4  10  22  39  62  92 125 156 200 251 317 375
#
# _framework density 19.529836
#
# number of rings (size 3 to 8) (size 9 to 14) (size 15 to 20)
#    0.000    1.600    4.000    1.200    2.800    3.200 
#    3.600    0.000    2.933    0.000    0.000    0.000 
#    0.000    0.000    0.000    0.000    0.000    0.000 
#
# Total GULP energy -743288.085847 kJ/mol
# GULP energy per Si atom -12388.134764 kJ/mol
# Density = 1.948539 g / cm^3
# Si number density = 19.529836 Si / 1000 Ang^3
#
#
#
# Elastic Constant Matrix: (Units=GPa)
#
#
# Indices 1 2 3 4 5 6 
#
# 1 108.0074 16.5894 37.1165 0.0000 0.0000 0.0000
# 2 16.5894 55.0573 21.8035 0.0000 0.0000 0.0000
# 3 37.1165 21.8035 99.8919 0.0000 0.0000 0.0000
# 4 0.0000 0.0000 0.0000 17.9567 0.0000 0.0000
# 5 0.0000 0.0000 0.0000 0.0000 12.5773 0.0000
# 6 0.0000 0.0000 0.0000 0.0000 0.0000 38.7387
#
#
#
# Elastic Compliance Matrix: (Units=1/GPa)
#
#
# Indices 1 2 3 4 5 6 
#
# 1 0.010778 -0.001819 -0.003608 0.000000 0.000000 0.000000
# 2 -0.001819 0.020188 -0.003731 0.000000 0.000000 0.000000
# 3 -0.003608 -0.003731 0.012166 0.000000 0.000000 0.000000
# 4 0.000000 0.000000 0.000000 0.055690 0.000000 0.000000
# 5 0.000000 0.000000 0.000000 0.000000 0.079508 0.000000
# 6 0.000000 0.000000 0.000000 0.000000 0.000000 0.025814
#
#
# Mechanical properties :
#
#
# Convention : Reuss Voigt Hill
#
# Bulk Modulus (GPa) = 40.29435 45.99726 43.14581
# Shear Modulus (GPa) = 21.67032 26.35102 24.01067
#
# Velocity S-wave (km/s) = 3.33468 3.67723 3.51013
# Velocity P-wave (km/s) = 5.95851 6.45234 6.21034
#
# Compressibility (1/GPa) = 0.02481737
#
# Stress axis : x y z
#
# Youngs Moduli (GPa) = 92.78381 49.53350 82.19882
#
# Poissons Ratio (x) = 0.09009 0.29655
# Poissons Ratio (y) = 0.16875 0.30666
# Poissons Ratio (z) = 0.33473 0.18480
#
# Static dielectric constant tensor:
#      x y z
#    x 3.734860 0.000000 0.000000 
#    y 0.000000 3.520780 0.000000 
#    z 0.000000 0.000000 3.269140 
# 
# 
# High freq. dielectric constant tensor:
#      x y z
#    x 1.778450 0.000000 0.000000 
#    y 0.000000 1.754730 0.000000 
#    z 0.000000 0.000000 1.738250 
# 
# From -- ./inp_files/21810.got.cif
#   From: 2010.03.12/outbox.cif.g09.slc.cpg/sg56_11_cif.got.tgz:21810.got - 2010.04.16 15:33:40.
