data_PCOD8228875
_publ_section_title
;
Structure prediction by ZEFSAII (Michael W. Deem and Ramdas Pophale) SiO2 
 PCOD8228875
Probable space group: P C C N
;
_chemical_formula_sum "Si O2"
_cell_formula_units_Z 60
_cell_length_a 8.251853
_cell_length_b 30.792741
_cell_length_c 11.138091
_cell_angle_alpha 90.000000
_cell_angle_beta 90.000000
_cell_angle_gamma 90.000000
_cell_volume 2830.157427
_symmetry_space_group_name_H-M "P C C N"
_symmetry_group_IT_number 56
_symmetry_cell_setting 'orthorhombic'
loop_
_space_group_symop_operation_xyz
x,y,z
1/2-x,1/2-y,z
1/2+x,-y,1/2-z
-x,1/2+y,1/2-z
-x,-y,-z
1/2+x,1/2+y,-z
1/2-x,y,1/2+z
x,1/2-y,1/2+z
loop_
_atom_site_type_symbol
_atom_site_label
_atom_site_fract_x
_atom_site_fract_y
_atom_site_fract_z
Si Si1 0.824071 0.051621 0.903719
Si Si2 0.514736 0.684849 0.415795
Si Si3 0.658593 0.612772 0.572578
Si Si4 0.306676 0.640530 0.970693
Si Si5 0.250000 0.250000 0.474830
Si Si6 0.361252 0.457680 0.028632
Si Si7 0.082376 0.584247 0.271193
Si Si8 0.579673 0.828084 0.647323
O O1 0.744595 0.057346 0.770955
O O2 0.778388 0.005052 0.961756
O O3 0.756469 0.092814 0.979518
O O4 0.021527 0.049242 0.911213
O O5 0.629277 0.649032 0.472856
O O6 0.335762 0.676456 0.470329
O O7 0.599493 0.731239 0.445434
O O8 0.494781 0.679503 0.273991
O O9 0.709243 0.572744 0.489826
O O10 0.506884 0.598981 0.650903
O O11 0.800631 0.630712 0.658863
O O12 0.368843 0.629372 0.836472
O O13 0.446865 0.662082 0.047406
O O14 0.320472 0.214207 0.386797
O O15 0.468351 0.446218 0.146828
#
# Coordination Sequence:
#
# PCOD8228875 Si02
#       8
#     8   8   8   8   4   8   8   8
#     4  10  21  42  59  91 136 176 227 276 324 389
#     4  11  24  44  71  98 133 173 214 269 339 397
#     4  11  22  40  66  99 128 178 221 275 331 396
#     4  11  23  43  67  99 129 179 218 275 329 401
#     4  10  26  46  70 106 130 166 214 268 340 412
#     4  10  23  40  60  94 136 180 227 283 328 384
#     4  11  22  40  62  97 131 180 225 275 333 393
#     4  11  23  45  69  98 136 165 218 272 331 407
#
# _framework density 21.200234999999999
#
# number of rings (size 3 to 8) (size 9 to 14) (size 15 to 20)
#    0.000    1.333    4.000    2.000    1.867    4.267 
#    4.800    1.333    0.000    0.000    0.000    0.000 
#    0.000    0.000    0.000    0.000    0.000    0.000 
#
# Total GULP energy -743404.678594 kJ/mol
# GULP energy per Si atom -12390.077977 kJ/mol
# Density = 2.115198 g / cm^3
# Si number density = 21.200235 Si / 1000 Ang^3
#
#
#
# Elastic Constant Matrix: (Units=GPa)
#
#
# Indices 1 2 3 4 5 6 
#
# 1 86.5235 36.3868 35.5061 0.0000 0.0000 0.0000
# 2 36.3868 103.4286 25.0673 0.0000 0.0000 0.0000
# 3 35.5061 25.0673 84.5479 0.0000 0.0000 0.0000
# 4 0.0000 0.0000 0.0000 24.2383 0.0000 0.0000
# 5 0.0000 0.0000 0.0000 0.0000 40.7499 0.0000
# 6 0.0000 0.0000 0.0000 0.0000 0.0000 40.9454
#
#
#
# Elastic Compliance Matrix: (Units=1/GPa)
#
#
# Indices 1 2 3 4 5 6 
#
# 1 0.015469 -0.004167 -0.005261 0.000000 0.000000 0.000000
# 2 -0.004167 0.011540 -0.001671 0.000000 0.000000 0.000000
# 3 -0.005261 -0.001671 0.014532 0.000000 0.000000 0.000000
# 4 0.000000 0.000000 0.000000 0.041257 0.000000 0.000000
# 5 0.000000 0.000000 0.000000 0.000000 0.024540 0.000000
# 6 0.000000 0.000000 0.000000 0.000000 0.000000 0.024423
#
#
# Mechanical properties :
#
#
# Convention : Reuss Voigt Hill
#
# Bulk Modulus (GPa) = 51.69943 52.04672 51.87307
# Shear Modulus (GPa) = 31.17090 33.02270 32.09680
#
# Velocity S-wave (km/s) = 3.83862 3.95100 3.89522
# Velocity P-wave (km/s) = 6.63972 6.73923 6.68966
#
# Compressibility (1/GPa) = 0.01934257
#
# Stress axis : x y z
#
# Youngs Moduli (GPa) = 64.64650 86.65838 68.81183
#
# Poissons Ratio (x) = 0.36111 0.36200
# Poissons Ratio (y) = 0.26938 0.11501
# Poissons Ratio (z) = 0.34008 0.14484
#
# Static dielectric constant tensor:
#      x y z
#    x 3.870440 0.000000 0.000000 
#    y 0.000000 3.980610 0.000000 
#    z 0.000000 0.000000 3.813340 
# 
# 
# High freq. dielectric constant tensor:
#      x y z
#    x 1.831870 0.000000 0.000000 
#    y 0.000000 1.831670 0.000000 
#    z 0.000000 0.000000 1.822850 
# 
# From -- ./inp_files/6556.got.cif
#   From: 2010.03.12/outbox.cif.g09.slc.cpg/sg56_4_cif.got.tgz:6556.got - 2010.04.16 15:33:40.
