data_PCOD8228942
_publ_section_title
;
Structure prediction by ZEFSAII (Michael W. Deem and Ramdas Pophale) SiO2 
 PCOD8228942
Probable space group: P C C N
;
_chemical_formula_sum "Si O2"
_cell_formula_units_Z 48
_cell_length_a 16.263903
_cell_length_b 8.424947
_cell_length_c 15.955212
_cell_angle_alpha 90.000000
_cell_angle_beta 90.000000
_cell_angle_gamma 90.000000
_cell_volume 2186.223368
_symmetry_space_group_name_H-M "P C C N"
_symmetry_group_IT_number 56
_symmetry_cell_setting 'orthorhombic'
loop_
_space_group_symop_operation_xyz
x,y,z
1/2-x,1/2-y,z
1/2+x,-y,1/2-z
-x,1/2+y,1/2-z
-x,-y,-z
1/2+x,1/2+y,-z
1/2-x,y,1/2+z
x,1/2-y,1/2+z
loop_
_atom_site_type_symbol
_atom_site_label
_atom_site_fract_x
_atom_site_fract_y
_atom_site_fract_z
Si Si1 0.406355 0.820703 0.367342
Si Si2 0.250000 0.250000 0.381364
Si Si3 0.159886 0.920913 0.244123
Si Si4 0.700327 0.500000 1.000000
Si Si5 0.340114 0.420913 0.755877
Si Si6 0.093645 0.179297 0.132658
Si Si7 0.250000 0.750000 0.118636
O O1 0.369994 0.654020 0.331791
O O2 0.355708 0.874636 0.449010
O O3 0.404135 0.953984 0.294227
O O4 0.500000 0.793198 0.394512
O O5 0.260890 0.406452 0.437960
O O6 0.169307 0.274646 0.322839
O O7 0.250000 0.500000 0.250000
O O8 0.095865 0.046016 0.205773
O O9 0.169307 0.774646 0.177161
O O10 0.644292 0.625364 0.949010
O O11 0.760890 0.406452 0.937960
O O12 0.369994 0.345980 0.668209
#
# Coordination Sequence:
#
# PCOD8228942 Si02
#       7
#     8   4   8   8   8   8   4
#     4  11  23  40  61  91 127 162 201 256 315 368
#     4  10  22  36  60  92 116 156 210 256 294 356
#     4  11  21  39  64  90 116 160 215 254 294 365
#     4  10  25  36  62  88 127 162 202 250 315 366
#     4  11  21  39  64  90 116 160 215 254 294 365
#     4  11  23  40  61  91 127 162 201 256 315 368
#     4  10  22  36  60  92 116 156 210 256 294 356
#
# _framework density 21.955670000000001
#
# number of rings (size 3 to 8) (size 9 to 14) (size 15 to 20)
#    0.000    1.333    3.333    1.500    9.333    0.000 
#    0.000    0.000    0.000    2.000    0.000    0.000 
#    0.000    0.000    0.000    0.000    0.000    0.000 
#
# Total GULP energy -594842.914885 kJ/mol
# GULP energy per Si atom -12392.560727 kJ/mol
# Density = 2.190570 g / cm^3
# Si number density = 21.955670 Si / 1000 Ang^3
#
#
#
# Elastic Constant Matrix: (Units=GPa)
#
#
# Indices 1 2 3 4 5 6 
#
# 1 86.6294 36.3953 15.4172 0.0000 0.0000 0.0000
# 2 36.3953 57.3228 26.7396 0.0000 0.0000 0.0000
# 3 15.4172 26.7396 87.9595 0.0000 0.0000 0.0000
# 4 0.0000 0.0000 0.0000 62.8980 0.0000 0.0000
# 5 0.0000 0.0000 0.0000 0.0000 14.8515 0.0000
# 6 0.0000 0.0000 0.0000 0.0000 0.0000 31.6253
#
#
#
# Elastic Compliance Matrix: (Units=1/GPa)
#
#
# Indices 1 2 3 4 5 6 
#
# 1 0.015751 -0.010152 0.000326 0.000000 0.000000 0.000000
# 2 -0.010152 0.026871 -0.006389 0.000000 0.000000 0.000000
# 3 0.000326 -0.006389 0.013254 0.000000 0.000000 0.000000
# 4 0.000000 0.000000 0.000000 0.015899 0.000000 0.000000
# 5 0.000000 0.000000 0.000000 0.000000 0.067333 0.000000
# 6 0.000000 0.000000 0.000000 0.000000 0.000000 0.031620
#
#
# Mechanical properties :
#
#
# Convention : Reuss Voigt Hill
#
# Bulk Modulus (GPa) = 42.65479 43.22399 42.93939
# Shear Modulus (GPa) = 23.69941 32.09893 27.89917
#
# Velocity S-wave (km/s) = 3.28902 3.82774 3.56856
# Velocity P-wave (km/s) = 5.82180 6.26619 6.04808
#
# Compressibility (1/GPa) = 0.02344403
#
# Stress axis : x y z
#
# Youngs Moduli (GPa) = 63.48912 37.21424 75.44786
#
# Poissons Ratio (x) = 0.37781 -0.02456
# Poissons Ratio (y) = 0.64456 0.48207
# Poissons Ratio (z) = -0.02067 0.23778
#
# Static dielectric constant tensor:
#      x y z
#    x 3.518380 0.000000 0.000000 
#    y 0.000000 4.310490 0.000000 
#    z 0.000000 0.000000 4.295260 
# 
# 
# High freq. dielectric constant tensor:
#      x y z
#    x 1.818140 0.000000 0.000000 
#    y 0.000000 1.877140 0.000000 
#    z 0.000000 0.000000 1.873690 
# 
# From -- ./inp_files/13006.got.cif
#   From: 2010.03.12/outbox.cif.g09.slc.cpg/sg56_7_cif.got.tgz:13006.got - 2010.04.16 15:33:40.
