data_PCOD8228570
_publ_section_title
;
Structure prediction by ZEFSAII (Michael W. Deem and Ramdas Pophale) SiO2 
 PCOD8228570
Probable space group: P C C N
;
_chemical_formula_sum "Si O2"
_cell_formula_units_Z 44
_cell_length_a 9.180620
_cell_length_b 26.228943
_cell_length_c 9.133360
_cell_angle_alpha 90.000000
_cell_angle_beta 90.000000
_cell_angle_gamma 90.000000
_cell_volume 2199.294444
_symmetry_space_group_name_H-M "P C C N"
_symmetry_group_IT_number 56
_symmetry_cell_setting 'orthorhombic'
loop_
_space_group_symop_operation_xyz
x,y,z
1/2-x,1/2-y,z
1/2+x,-y,1/2-z
-x,1/2+y,1/2-z
-x,-y,-z
1/2+x,1/2+y,-z
1/2-x,y,1/2+z
x,1/2-y,1/2+z
loop_
_atom_site_type_symbol
_atom_site_label
_atom_site_fract_x
_atom_site_fract_y
_atom_site_fract_z
Si Si1 0.250000 0.750000 0.090944
Si Si2 0.993867 0.905797 0.458706
Si Si3 0.724184 0.017393 0.141238
Si Si4 0.678414 0.946680 0.402586
Si Si5 0.077422 0.893410 0.781642
Si Si6 0.670848 0.319336 0.660628
O O1 0.353581 0.715586 0.195834
O O2 0.153490 0.713998 0.986608
O O3 0.088134 0.957374 0.442912
O O4 0.008249 0.883808 0.622529
O O5 0.049987 0.863407 0.343605
O O6 0.828522 0.916393 0.417772
O O7 0.813028 0.058931 0.232110
O O8 0.661068 0.974106 0.246376
O O9 0.833945 0.989393 0.028331
O O10 0.546256 0.905758 0.404141
O O11 0.166168 0.843718 0.834312
#
# Coordination Sequence:
#
# PCOD8228570 Si02
#       6
#     4   8   8   8   8   8
#     4  10  20  40  68  94 104 138 194 236 300 364
#     4  11  22  39  56  86 124 151 197 247 282 334
#     4  11  22  36  57  81 117 168 208 239 268 323
#     4  12  22  36  57  81 125 166 194 235 286 330
#     4  11  22  38  57  87 120 153 201 240 285 338
#     4  10  22  39  67  90 111 143 185 248 294 351
#
# _framework density 20.006415000000001
#
# number of rings (size 3 to 8) (size 9 to 14) (size 15 to 20)
#    0.000    1.091    5.455    2.182    0.000    1.455 
#    0.000    0.000    0.000    6.545    0.000    0.000 
#    0.000    0.000    0.000    0.000    0.000    0.000 
#
# Total GULP energy -545615.844369 kJ/mol
# GULP energy per Si atom -12400.360099 kJ/mol
# Density = 1.996088 g / cm^3
# Si number density = 20.006415 Si / 1000 Ang^3
#
#
#
# Elastic Constant Matrix: (Units=GPa)
#
#
# Indices 1 2 3 4 5 6 
#
# 1 64.8388 30.4488 2.2564 0.0000 0.0000 0.0000
# 2 30.4488 94.4124 36.9196 0.0000 0.0000 0.0000
# 3 2.2564 36.9196 84.6441 0.0000 0.0000 0.0000
# 4 0.0000 0.0000 0.0000 35.8370 0.0000 0.0000
# 5 0.0000 0.0000 0.0000 0.0000 22.9524 0.0000
# 6 0.0000 0.0000 0.0000 0.0000 0.0000 8.2973
#
#
#
# Elastic Compliance Matrix: (Units=1/GPa)
#
#
# Indices 1 2 3 4 5 6 
#
# 1 0.018625 -0.007008 0.002560 0.000000 0.000000 0.000000
# 2 -0.007008 0.015407 -0.006533 0.000000 0.000000 0.000000
# 3 0.002560 -0.006533 0.014596 0.000000 0.000000 0.000000
# 4 0.000000 0.000000 0.000000 0.027904 0.000000 0.000000
# 5 0.000000 0.000000 0.000000 0.000000 0.043568 0.000000
# 6 0.000000 0.000000 0.000000 0.000000 0.000000 0.120522
#
#
# Mechanical properties :
#
#
# Convention : Reuss Voigt Hill
#
# Bulk Modulus (GPa) = 37.50203 42.57168 40.03685
# Shear Modulus (GPa) = 18.41817 25.03537 21.72677
#
# Velocity S-wave (km/s) = 3.03745 3.54130 3.29901
# Velocity P-wave (km/s) = 5.57559 6.16817 5.87935
#
# Compressibility (1/GPa) = 0.02666522
#
# Stress axis : x y z
#
# Youngs Moduli (GPa) = 53.69227 64.90704 68.51412
#
# Poissons Ratio (x) = 0.45485 -0.17540
# Poissons Ratio (y) = 0.37626 0.44761
# Poissons Ratio (z) = -0.13746 0.42405
#
# Static dielectric constant tensor:
#      x y z
#    x 3.377820 0.000000 0.000000 
#    y 0.000000 3.727790 0.000000 
#    z 0.000000 0.000000 3.731950 
# 
# 
# High freq. dielectric constant tensor:
#      x y z
#    x 1.753460 0.000000 0.000000 
#    y 0.000000 1.776400 0.000000 
#    z 0.000000 0.000000 1.790230 
# 
# From -- ./inp_files/2167.got.cif
#   From: 2010.03.12/outbox.cif.g09.slc.cpg/sg56_2_cif.got.tgz:2167.got - 2010.04.16 15:33:40.
