data_PCOD8228489
_publ_section_title
;
Structure prediction by ZEFSAII (Michael W. Deem and Ramdas Pophale) SiO2 
 PCOD8228489
Probable space group: P C C N
;
_chemical_formula_sum "Si O2"
_cell_formula_units_Z 28
_cell_length_a 11.292396
_cell_length_b 9.109935
_cell_length_c 13.367658
_cell_angle_alpha 90.000000
_cell_angle_beta 90.000000
_cell_angle_gamma 90.000000
_cell_volume 1375.170995
_symmetry_space_group_name_H-M "P C C N"
_symmetry_group_IT_number 56
_symmetry_cell_setting 'orthorhombic'
loop_
_space_group_symop_operation_xyz
x,y,z
1/2-x,1/2-y,z
1/2+x,-y,1/2-z
-x,1/2+y,1/2-z
-x,-y,-z
1/2+x,1/2+y,-z
1/2-x,y,1/2+z
x,1/2-y,1/2+z
loop_
_atom_site_type_symbol
_atom_site_label
_atom_site_fract_x
_atom_site_fract_y
_atom_site_fract_z
Si Si1 0.389809 0.764818 0.161317
Si Si2 0.750000 0.750000 0.143454
Si Si3 0.948171 0.659293 0.001866
Si Si4 0.931587 0.899817 0.284936
O O1 0.250000 0.750000 0.151838
O O2 0.451378 0.735747 0.052458
O O3 0.441156 0.643738 0.237590
O O4 0.429240 0.926194 0.197897
O O5 0.832380 0.654346 0.071063
O O6 0.824789 0.860442 0.211360
O O7 0.917099 0.697422 0.886820
O O8 0.000000 0.500000 0.000000
#
# Coordination Sequence:
#
# PCOD8228489 Si02
#       4
#     8   4   8   8
#     4  10  23  39  62  91 121 162 204 246 310 361
#     4  10  20  38  64  90 116 166 198 246 306 362
#     4   9  20  39  58  87 122 154 199 250 298 355
#     4  10  22  40  63  86 127 155 207 249 302 359
#
# _framework density 20.361103
#
# number of rings (size 3 to 8) (size 9 to 14) (size 15 to 20)
#    0.000    2.286    0.000    0.857   12.000    1.143 
#    5.143    2.857    0.000    0.000    0.000    0.000 
#    0.000    0.000    0.000    0.000    0.000    0.000 
#
# Total GULP energy -346990.194959 kJ/mol
# GULP energy per Si atom -12392.506963 kJ/mol
# Density = 2.031476 g / cm^3
# Si number density = 20.361103 Si / 1000 Ang^3
#
#
#
# Elastic Constant Matrix: (Units=GPa)
#
#
# Indices 1 2 3 4 5 6 
#
# 1 172.8219 31.9140 75.0589 0.0000 0.0000 0.0000
# 2 31.9140 67.6948 28.2230 0.0000 0.0000 0.0000
# 3 75.0589 28.2230 149.8189 0.0000 0.0000 0.0000
# 4 0.0000 0.0000 0.0000 21.7102 0.0000 0.0000
# 5 0.0000 0.0000 0.0000 0.0000 20.8003 0.0000
# 6 0.0000 0.0000 0.0000 0.0000 0.0000 28.8456
#
#
#
# Elastic Compliance Matrix: (Units=1/GPa)
#
#
# Indices 1 2 3 4 5 6 
#
# 1 0.007683 -0.002189 -0.003437 0.000000 0.000000 0.000000
# 2 -0.002189 0.016655 -0.002041 0.000000 0.000000 0.000000
# 3 -0.003437 -0.002041 0.008781 0.000000 0.000000 0.000000
# 4 0.000000 0.000000 0.000000 0.046061 0.000000 0.000000
# 5 0.000000 0.000000 0.000000 0.000000 0.048076 0.000000
# 6 0.000000 0.000000 0.000000 0.000000 0.000000 0.034667
#
#
# Mechanical properties :
#
#
# Convention : Reuss Voigt Hill
#
# Bulk Modulus (GPa) = 56.22501 73.41416 64.81958
# Shear Modulus (GPa) = 27.29461 31.28055 29.28758
#
# Velocity S-wave (km/s) = 3.66529 3.92381 3.79675
# Velocity P-wave (km/s) = 6.75177 7.52746 7.15014
#
# Compressibility (1/GPa) = 0.01778568
#
# Stress axis : x y z
#
# Youngs Moduli (GPa) = 130.15291 60.04173 113.88215
#
# Poissons Ratio (x) = 0.13145 0.39140
# Poissons Ratio (y) = 0.28495 0.23239
# Poissons Ratio (z) = 0.44732 0.12252
#
# Static dielectric constant tensor:
#      x y z
#    x 3.877950 0.000000 0.000000 
#    y 0.000000 3.364520 0.000000 
#    z 0.000000 0.000000 5.182630 
# 
# 
# High freq. dielectric constant tensor:
#      x y z
#    x 1.807090 0.000000 0.000000 
#    y 0.000000 1.767160 0.000000 
#    z 0.000000 0.000000 1.816670 
# 
# From -- ./inp_files/6720.got.cif
#   From: 2010.03.12/outbox.cif.g09.slc.cpg/sg56_4_cif.got.tgz:6720.got - 2010.04.16 15:33:40.
