data_PCOD8228223
_publ_section_title
;
Structure prediction by ZEFSAII (Michael W. Deem and Ramdas Pophale) SiO2 
 PCOD8228223
Probable space group: P C C N
;
_chemical_formula_sum "Si O2"
_cell_formula_units_Z 52
_cell_length_a 11.872908
_cell_length_b 7.738697
_cell_length_c 24.667408
_cell_angle_alpha 90.000000
_cell_angle_beta 90.000000
_cell_angle_gamma 90.000000
_cell_volume 2266.462107
_symmetry_space_group_name_H-M "P C C N"
_symmetry_group_IT_number 56
_symmetry_cell_setting 'orthorhombic'
loop_
_space_group_symop_operation_xyz
x,y,z
1/2-x,1/2-y,z
1/2+x,-y,1/2-z
-x,1/2+y,1/2-z
-x,-y,-z
1/2+x,1/2+y,-z
1/2-x,y,1/2+z
x,1/2-y,1/2+z
loop_
_atom_site_type_symbol
_atom_site_label
_atom_site_fract_x
_atom_site_fract_y
_atom_site_fract_z
Si Si1 0.883690 0.082176 0.935810
Si Si2 0.627579 0.781098 0.825270
Si Si3 0.082155 0.588798 0.685764
Si Si4 0.750000 0.250000 0.234169
Si Si5 0.836589 0.598687 0.711889
Si Si6 0.987361 0.786047 0.434732
Si Si7 0.858915 0.082708 0.486596
O O1 0.854468 0.091890 0.872148
O O2 0.772511 0.071740 0.973392
O O3 0.930323 0.271872 0.951651
O O4 0.967570 0.919636 0.946055
O O5 0.750000 0.750000 0.853456
O O6 0.588167 0.608783 0.793496
O O7 0.638420 0.920294 0.777049
O O8 0.538974 0.833580 0.871938
O O9 0.141773 0.710654 0.728746
O O10 0.950687 0.637926 0.679082
O O11 0.717056 0.412725 0.196070
O O12 0.750000 0.750000 0.697875
O O13 0.113390 0.852491 0.451153
O O14 0.905078 0.893072 0.474156
#
# Coordination Sequence:
#
# PCOD8228223 Si02
#       7
#     8   8   8   4   8   8   8
#     4  10  21  37  61  89 121 158 210 261 309 385
#     4  10  19  39  60  92 125 167 209 264 314 381
#     4  11  22  39  65  95 126 171 220 264 321 381
#     4  12  22  36  66  92 120 178 216 260 316 384
#     4  11  24  42  61  94 136 169 216 269 320 383
#     4  10  20  34  59  88 126 154 202 263 316 370
#     4  10  20  35  59  94 115 159 207 258 316 377
#
# _framework density 22.943247
#
# number of rings (size 3 to 8) (size 9 to 14) (size 15 to 20)
#    0.000    1.538    3.077    4.615    2.154    0.000 
#    0.000    0.000    0.000   41.538    0.000    0.000 
#    0.000    0.000    0.000    0.000    0.000    0.000 
#
# Total GULP energy -644189.409251 kJ/mol
# GULP energy per Si atom -12388.257870 kJ/mol
# Density = 2.289103 g / cm^3
# Si number density = 22.943247 Si / 1000 Ang^3
#
#
#
# Elastic Constant Matrix: (Units=GPa)
#
#
# Indices 1 2 3 4 5 6 
#
# 1 119.5843 19.3513 16.6232 0.0000 0.0000 0.0000
# 2 19.3513 107.7570 -1.5316 0.0000 0.0000 0.0000
# 3 16.6232 -1.5316 44.6404 0.0000 0.0000 0.0000
# 4 0.0000 0.0000 0.0000 17.2365 0.0000 0.0000
# 5 0.0000 0.0000 0.0000 0.0000 37.1809 0.0000
# 6 0.0000 0.0000 0.0000 0.0000 0.0000 31.1725
#
#
#
# Elastic Compliance Matrix: (Units=1/GPa)
#
#
# Indices 1 2 3 4 5 6 
#
# 1 0.009115 -0.001686 -0.003452 0.000000 0.000000 0.000000
# 2 -0.001686 0.009597 0.000957 0.000000 0.000000 0.000000
# 3 -0.003452 0.000957 0.023720 0.000000 0.000000 0.000000
# 4 0.000000 0.000000 0.000000 0.058016 0.000000 0.000000
# 5 0.000000 0.000000 0.000000 0.000000 0.026896 0.000000
# 6 0.000000 0.000000 0.000000 0.000000 0.000000 0.032080
#
#
# Mechanical properties :
#
#
# Convention : Reuss Voigt Hill
#
# Bulk Modulus (GPa) = 29.35209 37.87415 33.61312
# Shear Modulus (GPa) = 27.91100 32.95391 30.43246
#
# Velocity S-wave (km/s) = 3.49165 3.79400 3.64596
# Velocity P-wave (km/s) = 5.39228 5.97797 5.69266
#
# Compressibility (1/GPa) = 0.03406912
#
# Stress axis : x y z
#
# Youngs Moduli (GPa) = 109.70937 104.20448 42.15933
#
# Poissons Ratio (x) = 0.17568 0.14554
# Poissons Ratio (y) = 0.18497 -0.04035
# Poissons Ratio (z) = 0.37873 -0.09973
#
# Static dielectric constant tensor:
#      x y z
#    x 4.161350 0.000000 0.000000 
#    y 0.000000 4.535800 0.000000 
#    z 0.000000 0.000000 3.830120 
# 
# 
# High freq. dielectric constant tensor:
#      x y z
#    x 1.888770 0.000000 0.000000 
#    y 0.000000 1.926630 0.000000 
#    z 0.000000 0.000000 1.867620 
# 
# From -- ./inp_files/22291.got.cif
#   From: 2010.03.12/outbox.cif.g09.slc.cpg/sg56_12_cif.got.tgz:22291.got - 2010.04.16 15:33:40.
