data_PCOD8228504
_publ_section_title
;
Structure prediction by ZEFSAII (Michael W. Deem and Ramdas Pophale) SiO2 
 PCOD8228504
Probable space group: P C C N
;
_chemical_formula_sum "Si O2"
_cell_formula_units_Z 60
_cell_length_a 17.321783
_cell_length_b 11.943802
_cell_length_c 13.634419
_cell_angle_alpha 90.000000
_cell_angle_beta 90.000000
_cell_angle_gamma 90.000000
_cell_volume 2820.796948
_symmetry_space_group_name_H-M "P C C N"
_symmetry_group_IT_number 56
_symmetry_cell_setting 'orthorhombic'
loop_
_space_group_symop_operation_xyz
x,y,z
1/2-x,1/2-y,z
1/2+x,-y,1/2-z
-x,1/2+y,1/2-z
-x,-y,-z
1/2+x,1/2+y,-z
1/2-x,y,1/2+z
x,1/2-y,1/2+z
loop_
_atom_site_type_symbol
_atom_site_label
_atom_site_fract_x
_atom_site_fract_y
_atom_site_fract_z
Si Si1 0.609275 0.575328 0.732028
Si Si2 0.356786 0.687283 0.505252
Si Si3 0.750000 0.250000 0.831264
Si Si4 0.491147 0.086538 0.323643
Si Si5 0.728529 0.085283 0.178981
Si Si6 0.399159 0.878658 0.375258
Si Si7 0.019170 0.187775 0.441467
Si Si8 0.953390 0.735186 0.844021
O O1 0.569778 0.471690 0.788288
O O2 0.696356 0.538867 0.703031
O O3 0.565032 0.607708 0.631445
O O4 0.612774 0.680483 0.805153
O O5 0.308012 0.678167 0.603277
O O6 0.308554 0.624258 0.422534
O O7 0.372402 0.818233 0.475832
O O8 0.438978 0.627728 0.525980
O O9 0.801559 0.168652 0.763368
O O10 0.503615 0.193682 0.392443
O O11 0.448764 0.124161 0.222660
O O12 0.440334 0.998772 0.387598
O O13 0.821319 0.094344 0.185273
O O14 0.461673 0.793654 0.325441
O O15 0.065970 0.209057 0.542631
#
# Coordination Sequence:
#
# PCOD8228504 Si02
#       8
#     8   8   4   8   8   8   8   8
#     4  10  22  38  60  91 120 158 209 245 310 364
#     4  11  22  37  58  91 121 152 200 240 312 363
#     4  12  22  34  62  84 124 156 182 248 316 358
#     4  10  21  36  61  86 116 162 205 246 302 365
#     4  12  23  39  57  91 127 153 192 259 302 363
#     4  10  20  39  58  85 125 151 198 255 303 356
#     4  10  22  39  61  82 124 159 198 265 287 357
#     4   9  21  39  59  87 119 159 209 245 298 367
#
# _framework density 21.270585000000001
#
# number of rings (size 3 to 8) (size 9 to 14) (size 15 to 20)
#    0.000    1.600    2.667    2.400    5.600    8.000 
#    0.000    2.667    0.000    1.600    0.000    0.000 
#    0.000    0.000    0.000    0.000    0.000    0.000 
#
# Total GULP energy -743414.657635 kJ/mol
# GULP energy per Si atom -12390.244294 kJ/mol
# Density = 2.122217 g / cm^3
# Si number density = 21.270585 Si / 1000 Ang^3
#
#
#
# Elastic Constant Matrix: (Units=GPa)
#
#
# Indices 1 2 3 4 5 6 
#
# 1 75.4809 9.7318 6.6543 0.0000 0.0000 0.0000
# 2 9.7318 31.3922 -16.2775 0.0000 0.0000 0.0000
# 3 6.6543 -16.2775 86.3904 0.0000 0.0000 0.0000
# 4 0.0000 0.0000 0.0000 8.0797 0.0000 0.0000
# 5 0.0000 0.0000 0.0000 0.0000 15.2893 0.0000
# 6 0.0000 0.0000 0.0000 0.0000 0.0000 30.0971
#
#
#
# Elastic Compliance Matrix: (Units=1/GPa)
#
#
# Indices 1 2 3 4 5 6 
#
# 1 0.014143 -0.005485 -0.002123 0.000000 0.000000 0.000000
# 2 -0.005485 0.037432 0.007475 0.000000 0.000000 0.000000
# 3 -0.002123 0.007475 0.013147 0.000000 0.000000 0.000000
# 4 0.000000 0.000000 0.000000 0.123767 0.000000 0.000000
# 5 0.000000 0.000000 0.000000 0.000000 0.065405 0.000000
# 6 0.000000 0.000000 0.000000 0.000000 0.000000 0.033226
#
#
# Mechanical properties :
#
#
# Convention : Reuss Voigt Hill
#
# Bulk Modulus (GPa) = 15.51440 21.49788 18.50614
# Shear Modulus (GPa) = 16.18799 23.57020 19.87910
#
# Velocity S-wave (km/s) = 2.76171 3.33244 3.06041
# Velocity P-wave (km/s) = 4.18079 4.99357 4.60515
#
# Compressibility (1/GPa) = 0.06445623
#
# Stress axis : x y z
#
# Youngs Moduli (GPa) = 70.70769 26.71543 76.06095
#
# Poissons Ratio (x) = 0.14654 0.16147
# Poissons Ratio (y) = 0.38784 -0.56858
# Poissons Ratio (z) = 0.15010 -0.19971
#
# Static dielectric constant tensor:
#      x y z
#    x 3.754540 0.000000 0.000000 
#    y 0.000000 3.825200 0.000000 
#    z 0.000000 0.000000 3.922680 
# 
# 
# High freq. dielectric constant tensor:
#      x y z
#    x 1.808350 0.000000 0.000000 
#    y 0.000000 1.818030 0.000000 
#    z 0.000000 0.000000 1.845380 
# 
# From -- ./inp_files/12816.got.cif
#   From: 2010.03.12/outbox.cif.g09.slc.cpg/sg56_7_cif.got.tgz:12816.got - 2010.04.16 15:33:40.
