data_PCOD8228409
_publ_section_title
;
Structure prediction by ZEFSAII (Michael W. Deem and Ramdas Pophale) SiO2 
 PCOD8228409
Probable space group: P C C N
;
_chemical_formula_sum "Si O2"
_cell_formula_units_Z 48
_cell_length_a 25.050301
_cell_length_b 15.713479
_cell_length_c 5.123549
_cell_angle_alpha 90.000000
_cell_angle_beta 90.000000
_cell_angle_gamma 90.000000
_cell_volume 2016.769163
_symmetry_space_group_name_H-M "P C C N"
_symmetry_group_IT_number 56
_symmetry_cell_setting 'orthorhombic'
loop_
_space_group_symop_operation_xyz
x,y,z
1/2-x,1/2-y,z
1/2+x,-y,1/2-z
-x,1/2+y,1/2-z
-x,-y,-z
1/2+x,1/2+y,-z
1/2-x,y,1/2+z
x,1/2-y,1/2+z
loop_
_atom_site_type_symbol
_atom_site_label
_atom_site_fract_x
_atom_site_fract_y
_atom_site_fract_z
Si Si1 0.162007 0.693796 0.698376
Si Si2 0.927821 0.064313 0.935208
Si Si3 0.117027 0.280012 0.077754
Si Si4 0.393791 0.025899 0.034450
Si Si5 0.718389 0.469246 0.683288
Si Si6 0.497919 0.295255 0.046666
O O1 0.163837 0.729994 0.405284
O O2 0.108943 0.636544 0.697824
O O3 0.210959 0.632657 0.784226
O O4 0.901190 0.027312 0.199233
O O5 0.985416 0.105859 0.002378
O O6 0.935705 0.996471 0.698789
O O7 0.151135 0.257246 0.819781
O O8 0.097819 0.376029 0.107005
O O9 0.065868 0.215972 0.043756
O O10 0.335723 0.014622 0.905748
O O11 0.762984 0.497604 0.472443
O O12 0.523398 0.237465 0.816333
#
# Coordination Sequence:
#
# PCOD8228409 Si02
#       6
#     8   8   8   8   8   8
#     4  11  21  34  55  84 120 162 199 238 291 354
#     4  11  21  37  60  89 122 162 208 251 299 363
#     4  10  22  42  64  89 120 160 202 253 317 368
#     4  11  23  41  64  89 121 163 207 251 312 378
#     4  11  23  39  59  87 121 158 202 254 307 357
#     4  10  20  37  58  85 121 160 202 249 299 352
#
# _framework density 23.800442
#
# number of rings (size 3 to 8) (size 9 to 14) (size 15 to 20)
#    0.000    1.333    0.000    8.000    0.000    2.000 
#    0.000   20.000    0.000    3.000    0.000    0.000 
#    0.000    0.000    0.000    0.000    0.000    0.000 
#
# Total GULP energy -594675.387519 kJ/mol
# GULP energy per Si atom -12389.070573 kJ/mol
# Density = 2.374627 g / cm^3
# Si number density = 23.800442 Si / 1000 Ang^3
#
#
#
# Elastic Constant Matrix: (Units=GPa)
#
#
# Indices 1 2 3 4 5 6 
#
# 1 42.9227 5.9938 9.0475 0.0000 0.0000 0.0000
# 2 5.9938 67.7155 24.9626 0.0000 0.0000 0.0000
# 3 9.0475 24.9626 178.0731 0.0000 0.0000 0.0000
# 4 0.0000 0.0000 0.0000 38.7127 0.0000 0.0000
# 5 0.0000 0.0000 0.0000 0.0000 15.2395 0.0000
# 6 0.0000 0.0000 0.0000 0.0000 0.0000 10.4400
#
#
#
# Elastic Compliance Matrix: (Units=1/GPa)
#
#
# Indices 1 2 3 4 5 6 
#
# 1 0.023744 -0.001747 -0.000961 0.000000 0.000000 0.000000
# 2 -0.001747 0.015701 -0.002112 0.000000 0.000000 0.000000
# 3 -0.000961 -0.002112 0.005961 0.000000 0.000000 0.000000
# 4 0.000000 0.000000 0.000000 0.025831 0.000000 0.000000
# 5 0.000000 0.000000 0.000000 0.000000 0.065619 0.000000
# 6 0.000000 0.000000 0.000000 0.000000 0.000000 0.095785
#
#
# Mechanical properties :
#
#
# Convention : Reuss Voigt Hill
#
# Bulk Modulus (GPa) = 27.96105 40.96880 34.46492
# Shear Modulus (GPa) = 19.66919 29.45894 24.56407
#
# Velocity S-wave (km/s) = 2.87787 3.52198 3.21609
# Velocity P-wave (km/s) = 4.77666 5.81291 5.32008
#
# Compressibility (1/GPa) = 0.03576404
#
# Stress axis : x y z
#
# Youngs Moduli (GPa) = 42.11526 63.69037 167.76790
#
# Poissons Ratio (x) = 0.11128 0.16130
# Poissons Ratio (y) = 0.07359 0.35436
# Poissons Ratio (z) = 0.04049 0.13453
#
# Static dielectric constant tensor:
#      x y z
#    x 3.855830 0.000000 0.000000 
#    y 0.000000 4.205080 0.000000 
#    z 0.000000 0.000000 5.845400 
# 
# 
# High freq. dielectric constant tensor:
#      x y z
#    x 1.896030 0.000000 0.000000 
#    y 0.000000 1.933540 0.000000 
#    z 0.000000 0.000000 1.983840 
# 
# From -- ./inp_files/1210.got.cif
#   From: 2010.03.12/outbox.cif.g09.slc.cpg/sg56_1_cif.got.tgz:1210.got - 2010.04.16 15:33:40.
