data_PCOD8228719
_publ_section_title
;
Structure prediction by ZEFSAII (Michael W. Deem and Ramdas Pophale) SiO2 
 PCOD8228719
Probable space group: P C C N
;
_chemical_formula_sum "Si O2"
_cell_formula_units_Z 56
_cell_length_a 19.025647
_cell_length_b 10.605214
_cell_length_c 13.151756
_cell_angle_alpha 90.000000
_cell_angle_beta 90.000000
_cell_angle_gamma 90.000000
_cell_volume 2653.643722
_symmetry_space_group_name_H-M "P C C N"
_symmetry_group_IT_number 56
_symmetry_cell_setting 'orthorhombic'
loop_
_space_group_symop_operation_xyz
x,y,z
1/2-x,1/2-y,z
1/2+x,-y,1/2-z
-x,1/2+y,1/2-z
-x,-y,-z
1/2+x,1/2+y,-z
1/2-x,y,1/2+z
x,1/2-y,1/2+z
loop_
_atom_site_type_symbol
_atom_site_label
_atom_site_fract_x
_atom_site_fract_y
_atom_site_fract_z
Si Si1 0.211000 0.566416 0.427334
Si Si2 0.967030 0.086069 0.356521
Si Si3 0.336946 0.831319 0.842925
Si Si4 0.300386 0.512566 0.157023
Si Si5 0.580449 0.686998 0.798220
Si Si6 0.484209 0.828070 0.932912
Si Si7 0.652691 0.549214 0.257336
O O1 0.186220 0.691832 0.370227
O O2 0.296146 0.567366 0.416027
O O3 0.188175 0.559904 0.542845
O O4 0.175934 0.455515 0.361170
O O5 0.960547 0.188559 0.448872
O O6 0.034477 0.123988 0.290666
O O7 0.897210 0.071277 0.287060
O O8 0.971167 0.953782 0.415646
O O9 0.419354 0.842915 0.856635
O O10 0.316501 0.866391 0.726963
O O11 0.355386 0.402323 0.176412
O O12 0.222193 0.456721 0.172163
O O13 0.531130 0.708336 0.897577
O O14 0.611012 0.820852 0.763874
#
# Coordination Sequence:
#
# PCOD8228719 Si02
#       7
#     8   8   8   8   8   8   8
#     4  10  23  38  67  95 123 173 222 262 332 387
#     4  10  21  40  62  87 132 169 218 261 325 401
#     4  10  21  41  62  93 128 166 214 275 321 388
#     4  11  23  43  65  97 137 168 222 282 333 395
#     4  11  23  40  65  97 133 172 218 279 336 394
#     4  10  21  38  62  89 122 177 212 257 334 392
#     4  10  23  43  64  98 134 173 222 275 333 400
#
# _framework density 21.103058999999998
#
# number of rings (size 3 to 8) (size 9 to 14) (size 15 to 20)
#    0.000    1.714    1.429    2.143    2.000    6.857 
#    0.000    4.286    0.000    0.000    0.000    0.000 
#    0.000    0.000    0.000    0.000    0.000    0.000 
#
# Total GULP energy -694082.186555 kJ/mol
# GULP energy per Si atom -12394.324760 kJ/mol
# Density = 2.105503 g / cm^3
# Si number density = 21.103059 Si / 1000 Ang^3
#
#
#
# Elastic Constant Matrix: (Units=GPa)
#
#
# Indices 1 2 3 4 5 6 
#
# 1 134.2538 32.4896 43.0035 0.0000 0.0000 0.0000
# 2 32.4896 70.2721 43.4740 0.0000 0.0000 0.0000
# 3 43.0035 43.4740 141.5950 0.0000 0.0000 0.0000
# 4 0.0000 0.0000 0.0000 20.9104 0.0000 0.0000
# 5 0.0000 0.0000 0.0000 0.0000 22.5689 0.0000
# 6 0.0000 0.0000 0.0000 0.0000 0.0000 31.4736
#
#
#
# Elastic Compliance Matrix: (Units=1/GPa)
#
#
# Indices 1 2 3 4 5 6 
#
# 1 0.008722 -0.002955 -0.001742 0.000000 0.000000 0.000000
# 2 -0.002955 0.018568 -0.004804 0.000000 0.000000 0.000000
# 3 -0.001742 -0.004804 0.009066 0.000000 0.000000 0.000000
# 4 0.000000 0.000000 0.000000 0.047823 0.000000 0.000000
# 5 0.000000 0.000000 0.000000 0.000000 0.044309 0.000000
# 6 0.000000 0.000000 0.000000 0.000000 0.000000 0.031773
#
#
# Mechanical properties :
#
#
# Convention : Reuss Voigt Hill
#
# Bulk Modulus (GPa) = 57.61732 64.89503 61.25618
# Shear Modulus (GPa) = 27.02029 30.13414 28.57722
#
# Velocity S-wave (km/s) = 3.58215 3.78292 3.68390
# Velocity P-wave (km/s) = 6.66867 7.06392 6.86914
#
# Compressibility (1/GPa) = 0.01735589
#
# Stress axis : x y z
#
# Youngs Moduli (GPa) = 114.65899 53.85516 110.30011
#
# Poissons Ratio (x) = 0.15914 0.19209
# Poissons Ratio (y) = 0.33881 0.52984
# Poissons Ratio (z) = 0.19968 0.25870
#
# Static dielectric constant tensor:
#      x y z
#    x 4.350280 0.000000 0.000000 
#    y 0.000000 3.632770 0.000000 
#    z 0.000000 0.000000 3.964850 
# 
# 
# High freq. dielectric constant tensor:
#      x y z
#    x 1.845570 0.000000 0.000000 
#    y 0.000000 1.808930 0.000000 
#    z 0.000000 0.000000 1.827160 
# 
# From -- ./inp_files/8649.got.cif
#   From: 2010.03.12/outbox.cif.g09.slc.cpg/sg56_5_cif.got.tgz:8649.got - 2010.04.16 15:33:40.
