data_PCOD8228333
_publ_section_title
;
Structure prediction by ZEFSAII (Michael W. Deem and Ramdas Pophale) SiO2 
 PCOD8228333
Probable space group: P C C N
;
_chemical_formula_sum "Si O2"
_cell_formula_units_Z 60
_cell_length_a 5.208276
_cell_length_b 20.471460
_cell_length_c 28.018545
_cell_angle_alpha 90.000000
_cell_angle_beta 90.000000
_cell_angle_gamma 90.000000
_cell_volume 2987.365673
_symmetry_space_group_name_H-M "P C C N"
_symmetry_group_IT_number 56
_symmetry_cell_setting 'orthorhombic'
loop_
_space_group_symop_operation_xyz
x,y,z
1/2-x,1/2-y,z
1/2+x,-y,1/2-z
-x,1/2+y,1/2-z
-x,-y,-z
1/2+x,1/2+y,-z
1/2-x,y,1/2+z
x,1/2-y,1/2+z
loop_
_atom_site_type_symbol
_atom_site_label
_atom_site_fract_x
_atom_site_fract_y
_atom_site_fract_z
Si Si1 0.250000 0.750000 0.142337
Si Si2 0.782576 0.115926 0.171169
Si Si3 0.141895 0.322690 0.906747
Si Si4 0.599911 0.855207 0.684107
Si Si5 0.249728 0.173114 0.510866
Si Si6 0.445101 0.008272 0.279230
Si Si7 0.227258 0.175192 0.715585
Si Si8 0.253469 0.827623 0.931581
O O1 0.346083 0.807921 0.106261
O O2 0.429327 0.709918 0.178462
O O3 0.554638 0.146976 0.202542
O O4 0.741296 0.129482 0.115661
O O5 0.057460 0.144155 0.183325
O O6 0.809829 0.038893 0.181905
O O7 0.250000 0.250000 0.901355
O O8 0.247441 0.368868 0.864839
O O9 0.203633 0.356122 0.957616
O O10 0.461752 0.923749 0.696700
O O11 0.785477 0.837466 0.728527
O O12 0.250000 0.250000 0.504360
O O13 0.516083 0.150761 0.534706
O O14 0.013537 0.150559 0.542791
O O15 0.209769 0.022615 0.241797
O O16 0.250000 0.250000 0.701936
O O17 0.250000 0.750000 0.920321
#
# Coordination Sequence:
#
# PCOD8228333 Si02
#       8
#     4   8   8   8   8   8   8   8
#     4  10  22  36  62  94 124 154 206 256 334 370
#     4  12  24  42  60  88 125 167 214 254 299 375
#     4   9  20  35  57  93 124 155 197 254 322 381
#     4  11  24  38  61  90 128 159 209 258 317 376
#     4   9  19  33  59  86 121 156 192 250 315 374
#     4  12  25  45  63  86 122 177 223 252 304 378
#     4  12  24  37  62  90 125 160 197 260 320 366
#     4  10  20  35  57  87 118 156 202 252 308 365
#
# _framework density 20.084586999999999
#
# number of rings (size 3 to 8) (size 9 to 14) (size 15 to 20)
#    0.000    1.333    2.667    3.200   12.133    1.067 
#    0.000    0.000    0.000    1.600    0.000    0.000 
#    0.000    0.000    0.000    0.000    0.000    0.000 
#
# Total GULP energy -743353.917605 kJ/mol
# GULP energy per Si atom -12389.231960 kJ/mol
# Density = 2.003887 g / cm^3
# Si number density = 20.084587 Si / 1000 Ang^3
#
#
#
# Elastic Constant Matrix: (Units=GPa)
#
#
# Indices 1 2 3 4 5 6 
#
# 1 82.8828 17.3712 28.4709 0.0000 0.0000 0.0000
# 2 17.3712 72.4875 29.1667 0.0000 0.0000 0.0000
# 3 28.4709 29.1667 145.8219 0.0000 0.0000 0.0000
# 4 0.0000 0.0000 0.0000 39.3499 0.0000 0.0000
# 5 0.0000 0.0000 0.0000 0.0000 27.3150 0.0000
# 6 0.0000 0.0000 0.0000 0.0000 0.0000 22.5105
#
#
#
# Elastic Compliance Matrix: (Units=1/GPa)
#
#
# Indices 1 2 3 4 5 6 
#
# 1 0.013284 -0.002327 -0.002128 0.000000 0.000000 0.000000
# 2 -0.002327 0.015411 -0.002628 0.000000 0.000000 0.000000
# 3 -0.002128 -0.002628 0.007799 0.000000 0.000000 0.000000
# 4 0.000000 0.000000 0.000000 0.025413 0.000000 0.000000
# 5 0.000000 0.000000 0.000000 0.000000 0.036610 0.000000
# 6 0.000000 0.000000 0.000000 0.000000 0.000000 0.044424
#
#
# Mechanical properties :
#
#
# Convention : Reuss Voigt Hill
#
# Bulk Modulus (GPa) = 44.78913 50.13443 47.46178
# Shear Modulus (GPa) = 30.38609 32.91397 31.65003
#
# Velocity S-wave (km/s) = 3.89383 4.05256 3.97399
# Velocity P-wave (km/s) = 6.52415 6.84934 6.68872
#
# Compressibility (1/GPa) = 0.02232684
#
# Stress axis : x y z
#
# Youngs Moduli (GPa) = 75.27846 64.89046 128.22424
#
# Poissons Ratio (x) = 0.15101 0.27288
# Poissons Ratio (y) = 0.17518 0.33697
# Poissons Ratio (z) = 0.16021 0.17053
#
# Static dielectric constant tensor:
#      x y z
#    x 6.293940 0.000000 0.000000 
#    y 0.000000 4.700950 0.000000 
#    z 0.000000 0.000000 3.814930 
# 
# 
# High freq. dielectric constant tensor:
#      x y z
#    x 1.793720 0.000000 0.000000 
#    y 0.000000 1.746720 0.000000 
#    z 0.000000 0.000000 1.788090 
# 
# From -- ./inp_files/20157.got.cif
#   From: 2010.03.12/outbox.cif.g09.slc.cpg/sg56_11_cif.got.tgz:20157.got - 2010.04.16 15:33:40.
