data_PCOD8228720
_publ_section_title
;
Structure prediction by ZEFSAII (Michael W. Deem and Ramdas Pophale) SiO2 
 PCOD8228720
Probable space group: P C C N
;
_chemical_formula_sum "Si O2"
_cell_formula_units_Z 48
_cell_length_a 17.928169
_cell_length_b 8.946315
_cell_length_c 14.033342
_cell_angle_alpha 90.000000
_cell_angle_beta 90.000000
_cell_angle_gamma 90.000000
_cell_volume 2250.822420
_symmetry_space_group_name_H-M "P C C N"
_symmetry_group_IT_number 56
_symmetry_cell_setting 'orthorhombic'
loop_
_space_group_symop_operation_xyz
x,y,z
1/2-x,1/2-y,z
1/2+x,-y,1/2-z
-x,1/2+y,1/2-z
-x,-y,-z
1/2+x,1/2+y,-z
1/2-x,y,1/2+z
x,1/2-y,1/2+z
loop_
_atom_site_type_symbol
_atom_site_label
_atom_site_fract_x
_atom_site_fract_y
_atom_site_fract_z
Si Si1 0.319201 0.169593 0.160140
Si Si2 0.164648 0.262066 0.952354
Si Si3 0.066723 0.762848 0.769033
Si Si4 0.576825 0.059225 0.045761
Si Si5 0.177945 0.662273 0.115470
Si Si6 0.436111 0.397489 0.813666
O O1 0.250000 0.250000 0.213570
O O2 0.391955 0.166127 0.223232
O O3 0.293545 0.004805 0.131755
O O4 0.338895 0.264193 0.065573
O O5 0.250000 0.250000 0.915363
O O6 0.130386 0.422661 0.924703
O O7 0.113629 0.131254 0.907269
O O8 0.064198 0.652676 0.858608
O O9 0.146296 0.770215 0.714981
O O10 0.010770 0.701439 0.687700
O O11 0.044376 0.928172 0.804388
O O12 0.615983 0.165172 0.967638
O O13 0.500000 0.000000 0.000000
O O14 0.250000 0.750000 0.079844
#
# Coordination Sequence:
#
# PCOD8228720 Si02
#       6
#     8   8   8   8   8   8
#     4   9  20  38  59  83 120 161 199 250 310 371
#     4  10  21  38  62  90 121 161 207 255 315 380
#     4  11  24  40  64  90 122 164 209 259 314 379
#     4  11  23  45  66  88 129 172 207 260 319 376
#     4  10  23  40  61  91 123 158 206 260 317 373
#     4  11  22  39  60  90 122 162 210 258 314 375
#
# _framework density 21.32554
#
# number of rings (size 3 to 8) (size 9 to 14) (size 15 to 20)
#    0.000    1.667    0.000    5.500    0.000   10.000 
#    0.000    7.500    0.000    0.000    0.000    0.000 
#    0.000    0.000    0.000    0.000    0.000    0.000 
#
# Total GULP energy -595175.364252 kJ/mol
# GULP energy per Si atom -12399.486755 kJ/mol
# Density = 2.127700 g / cm^3
# Si number density = 21.325540 Si / 1000 Ang^3
#
#
#
# Elastic Constant Matrix: (Units=GPa)
#
#
# Indices 1 2 3 4 5 6 
#
# 1 126.0882 62.6697 39.4211 0.0000 0.0000 0.0000
# 2 62.6697 79.5413 33.5818 0.0000 0.0000 0.0000
# 3 39.4211 33.5818 86.4381 0.0000 0.0000 0.0000
# 4 0.0000 0.0000 0.0000 41.5243 0.0000 0.0000
# 5 0.0000 0.0000 0.0000 0.0000 5.1013 0.0000
# 6 0.0000 0.0000 0.0000 0.0000 0.0000 45.2819
#
#
#
# Elastic Compliance Matrix: (Units=1/GPa)
#
#
# Indices 1 2 3 4 5 6 
#
# 1 0.013443 -0.009574 -0.002412 0.000000 0.000000 0.000000
# 2 -0.009574 0.021857 -0.004125 0.000000 0.000000 0.000000
# 3 -0.002412 -0.004125 0.014271 0.000000 0.000000 0.000000
# 4 0.000000 0.000000 0.000000 0.024082 0.000000 0.000000
# 5 0.000000 0.000000 0.000000 0.000000 0.196028 0.000000
# 6 0.000000 0.000000 0.000000 0.000000 0.000000 0.022084
#
#
# Mechanical properties :
#
#
# Convention : Reuss Voigt Hill
#
# Bulk Modulus (GPa) = 57.63528 62.60144 60.11836
# Shear Modulus (GPa) = 15.16205 28.80784 21.98495
#
# Velocity S-wave (km/s) = 2.66932 3.67939 3.21428
# Velocity P-wave (km/s) = 6.04859 6.88981 6.48286
#
# Compressibility (1/GPa) = 0.01735048
#
# Stress axis : x y z
#
# Youngs Moduli (GPa) = 74.38621 45.75238 70.06976
#
# Poissons Ratio (x) = 0.43802 0.16898
# Poissons Ratio (y) = 0.71215 0.28906
# Poissons Ratio (z) = 0.17938 0.18874
#
# Static dielectric constant tensor:
#      x y z
#    x 4.115000 0.000000 0.000000 
#    y 0.000000 3.940850 0.000000 
#    z 0.000000 0.000000 3.887590 
# 
# 
# High freq. dielectric constant tensor:
#      x y z
#    x 1.843780 0.000000 0.000000 
#    y 0.000000 1.832100 0.000000 
#    z 0.000000 0.000000 1.837330 
# 
# From -- ./inp_files/12671.got.cif
#   From: 2010.03.12/outbox.cif.g09.slc.cpg/sg56_7_cif.got.tgz:12671.got - 2010.04.16 15:33:40.
