data_PCOD8228725
_publ_section_title
;
Structure prediction by ZEFSAII (Michael W. Deem and Ramdas Pophale) SiO2 
 PCOD8228725
Probable space group: P C C N
;
_chemical_formula_sum "Si O2"
_cell_formula_units_Z 36
_cell_length_a 10.662719
_cell_length_b 9.595793
_cell_length_c 17.853832
_cell_angle_alpha 90.000000
_cell_angle_beta 90.000000
_cell_angle_gamma 90.000000
_cell_volume 1826.754891
_symmetry_space_group_name_H-M "P C C N"
_symmetry_group_IT_number 56
_symmetry_cell_setting 'orthorhombic'
loop_
_space_group_symop_operation_xyz
x,y,z
1/2-x,1/2-y,z
1/2+x,-y,1/2-z
-x,1/2+y,1/2-z
-x,-y,-z
1/2+x,1/2+y,-z
1/2-x,y,1/2+z
x,1/2-y,1/2+z
loop_
_atom_site_type_symbol
_atom_site_label
_atom_site_fract_x
_atom_site_fract_y
_atom_site_fract_z
Si Si1 0.071615 0.951910 0.728440
Si Si2 0.619369 0.682117 0.528546
Si Si3 0.750000 0.250000 0.201414
Si Si4 0.551469 0.403117 0.597684
Si Si5 0.895641 0.777276 0.187013
O O1 0.202914 0.872704 0.743266
O O2 0.961852 0.838567 0.738593
O O3 0.058518 0.021450 0.646316
O O4 0.057788 0.070540 0.790612
O O5 0.750000 0.750000 0.501650
O O6 0.634704 0.519815 0.554317
O O7 0.518793 0.695465 0.461880
O O8 0.566981 0.766469 0.599936
O O9 0.639838 0.191018 0.149172
O O10 0.750000 0.750000 0.199313
#
# Coordination Sequence:
#
# PCOD8228725 Si02
#       5
#     8   8   4   8   8
#     4  11  21  39  62  93 122 167 209 256 316 367
#     4   9  19  41  62  87 125 169 205 256 310 370
#     4  12  22  40  64  90 128 164 206 262 314 368
#     4  10  22  40  62  91 129 164 207 260 310 375
#     4  10  21  38  64  90 127 165 206 260 310 370
#
# _framework density 19.707077000000002
#
# number of rings (size 3 to 8) (size 9 to 14) (size 15 to 20)
#    0.000    1.778    2.222    4.000    0.000    0.889 
#    4.000   14.444    0.000    0.000    0.000    0.000 
#    0.000    0.000    0.000    0.000    0.000    0.000 
#
# Total GULP energy -446215.940441 kJ/mol
# GULP energy per Si atom -12394.887234 kJ/mol
# Density = 1.966222 g / cm^3
# Si number density = 19.707077 Si / 1000 Ang^3
#
#
#
# Elastic Constant Matrix: (Units=GPa)
#
#
# Indices 1 2 3 4 5 6 
#
# 1 108.1229 64.1051 78.7383 0.0000 0.0000 0.0000
# 2 64.1051 123.4669 63.9771 0.0000 0.0000 0.0000
# 3 78.7383 63.9771 102.8099 0.0000 0.0000 0.0000
# 4 0.0000 0.0000 0.0000 25.4049 0.0000 0.0000
# 5 0.0000 0.0000 0.0000 0.0000 35.9545 0.0000
# 6 0.0000 0.0000 0.0000 0.0000 0.0000 45.0167
#
#
#
# Elastic Compliance Matrix: (Units=1/GPa)
#
#
# Indices 1 2 3 4 5 6 
#
# 1 0.022177 -0.004005 -0.014492 0.000000 0.000000 0.000000
# 2 -0.004005 0.012677 -0.004822 0.000000 0.000000 0.000000
# 3 -0.014492 -0.004822 0.023826 0.000000 0.000000 0.000000
# 4 0.000000 0.000000 0.000000 0.039362 0.000000 0.000000
# 5 0.000000 0.000000 0.000000 0.000000 0.027813 0.000000
# 6 0.000000 0.000000 0.000000 0.000000 0.000000 0.022214
#
#
# Mechanical properties :
#
#
# Convention : Reuss Voigt Hill
#
# Bulk Modulus (GPa) = 83.03797 83.11563 83.07680
# Shear Modulus (GPa) = 25.16087 29.78050 27.47069
#
# Velocity S-wave (km/s) = 3.57703 3.89158 3.73761
# Velocity P-wave (km/s) = 7.69986 7.90314 7.80216
#
# Compressibility (1/GPa) = 0.01204268
#
# Stress axis : x y z
#
# Youngs Moduli (GPa) = 45.09193 78.88218 41.97078
#
# Poissons Ratio (x) = 0.31592 0.60825
# Poissons Ratio (y) = 0.18059 0.20236
# Poissons Ratio (z) = 0.65348 0.38033
#
# Static dielectric constant tensor:
#      x y z
#    x 3.519770 0.000000 0.000000 
#    y 0.000000 3.775660 0.000000 
#    z 0.000000 0.000000 3.691640 
# 
# 
# High freq. dielectric constant tensor:
#      x y z
#    x 1.753080 0.000000 0.000000 
#    y 0.000000 1.776690 0.000000 
#    z 0.000000 0.000000 1.764810 
# 
# From -- ./inp_files/17854.got.cif
#   From: 2010.03.12/outbox.cif.g09.slc.cpg/sg56_9_cif.got.tgz:17854.got - 2010.04.16 15:33:40.
