data_PCOD8228105
_publ_section_title
;
Structure prediction by ZEFSAII (Michael W. Deem and Ramdas Pophale) SiO2 
 PCOD8228105
Probable space group: P C C N
;
_chemical_formula_sum "Si O2"
_cell_formula_units_Z 60
_cell_length_a 20.098665
_cell_length_b 5.567124
_cell_length_c 26.053786
_cell_angle_alpha 90.000000
_cell_angle_beta 90.000000
_cell_angle_gamma 90.000000
_cell_volume 2915.203978
_symmetry_space_group_name_H-M "P C C N"
_symmetry_group_IT_number 56
_symmetry_cell_setting 'orthorhombic'
loop_
_space_group_symop_operation_xyz
x,y,z
1/2-x,1/2-y,z
1/2+x,-y,1/2-z
-x,1/2+y,1/2-z
-x,-y,-z
1/2+x,1/2+y,-z
1/2-x,y,1/2+z
x,1/2-y,1/2+z
loop_
_atom_site_type_symbol
_atom_site_label
_atom_site_fract_x
_atom_site_fract_y
_atom_site_fract_z
Si Si1 0.958660 0.790047 0.194945
Si Si2 0.715316 0.503340 0.350162
Si Si3 0.906310 0.090757 0.284925
Si Si4 0.186806 0.495145 0.031657
Si Si5 0.169046 0.993321 0.994396
Si Si6 0.250000 0.250000 0.326754
Si Si7 0.363182 0.522016 0.878831
Si Si8 0.149085 0.597566 0.800912
O O1 0.920056 0.540388 0.192757
O O2 0.037807 0.757407 0.188365
O O3 0.944769 0.891204 0.251914
O O4 0.934085 0.960742 0.148309
O O5 0.750000 0.250000 0.333393
O O6 0.639725 0.517680 0.329374
O O7 0.714591 0.514296 0.411315
O O8 0.750000 0.750000 0.330051
O O9 0.856178 0.224118 0.246561
O O10 0.146022 0.746426 0.023871
O O11 0.250411 0.501661 0.993010
O O12 0.144990 0.248595 0.019871
O O13 0.132864 0.970153 0.939688
O O14 0.189824 0.321950 0.363312
O O15 0.283473 0.447038 0.289465
O O16 0.338249 0.772928 0.855503
#
# Coordination Sequence:
#
# PCOD8228105 Si02
#       8
#     8   8   8   8   8   4   8   8
#     4  10  22  43  61  90 118 174 229 266 311 409
#     4  12  25  44  65 103 130 168 223 279 335 396
#     4  11  24  42  70  81 130 178 225 272 333 387
#     4  10  19  37  60  90 127 166 212 252 328 411
#     4  10  19  33  62  85 124 169 193 268 316 393
#     4  10  20  34  54  88 130 152 198 266 322 382
#     4  10  22  34  60  93 127 161 214 262 330 397
#     4  10  22  38  56  87 128 160 213 267 315 409
#
# _framework density 20.581751000000001
#
# number of rings (size 3 to 8) (size 9 to 14) (size 15 to 20)
#    0.000    1.600    4.000    1.200    9.333    3.200 
#    4.800    0.000    0.000    1.600    0.000    0.000 
#    0.000    0.000    0.000    0.000    0.000    0.000 
#
# Total GULP energy -743473.899927 kJ/mol
# GULP energy per Si atom -12391.231665 kJ/mol
# Density = 2.053491 g / cm^3
# Si number density = 20.581751 Si / 1000 Ang^3
#
#
#
# Elastic Constant Matrix: (Units=GPa)
#
#
# Indices 1 2 3 4 5 6 
#
# 1 97.5266 34.7853 37.8557 0.0000 0.0000 0.0000
# 2 34.7853 153.8455 25.5564 0.0000 0.0000 0.0000
# 3 37.8557 25.5564 60.9594 0.0000 0.0000 0.0000
# 4 0.0000 0.0000 0.0000 16.1259 0.0000 0.0000
# 5 0.0000 0.0000 0.0000 0.0000 18.0063 0.0000
# 6 0.0000 0.0000 0.0000 0.0000 0.0000 27.9073
#
#
#
# Elastic Compliance Matrix: (Units=1/GPa)
#
#
# Indices 1 2 3 4 5 6 
#
# 1 0.013982 -0.001848 -0.007908 0.000000 0.000000 0.000000
# 2 -0.001848 0.007231 -0.001884 0.000000 0.000000 0.000000
# 3 -0.007908 -0.001884 0.022105 0.000000 0.000000 0.000000
# 4 0.000000 0.000000 0.000000 0.062012 0.000000 0.000000
# 5 0.000000 0.000000 0.000000 0.000000 0.055536 0.000000
# 6 0.000000 0.000000 0.000000 0.000000 0.000000 0.035833
#
#
# Mechanical properties :
#
#
# Convention : Reuss Voigt Hill
#
# Bulk Modulus (GPa) = 49.90460 56.52514 53.21487
# Shear Modulus (GPa) = 22.05956 26.68350 24.37153
#
# Velocity S-wave (km/s) = 3.27739 3.60455 3.44486
# Velocity P-wave (km/s) = 6.21461 6.69679 6.46020
#
# Compressibility (1/GPa) = 0.02003823
#
# Stress axis : x y z
#
# Youngs Moduli (GPa) = 71.51869 138.29779 45.23809
#
# Poissons Ratio (x) = 0.25554 0.35776
# Poissons Ratio (y) = 0.13215 0.08523
# Poissons Ratio (z) = 0.56560 0.26055
#
# Static dielectric constant tensor:
#      x y z
#    x 3.574280 0.000000 0.000000 
#    y 0.000000 4.426670 0.000000 
#    z 0.000000 0.000000 3.496860 
# 
# 
# High freq. dielectric constant tensor:
#      x y z
#    x 1.761540 0.000000 0.000000 
#    y 0.000000 1.831690 0.000000 
#    z 0.000000 0.000000 1.786220 
# 
# From -- ./inp_files/22518.got.cif
#   From: 2010.03.12/outbox.cif.g09.slc.cpg/sg56_12_cif.got.tgz:22518.got - 2010.04.16 15:33:40.
