data_PCOD8228868
_publ_section_title
;
Structure prediction by ZEFSAII (Michael W. Deem and Ramdas Pophale) SiO2 
 PCOD8228868
Probable space group: P C C N
;
_chemical_formula_sum "Si O2"
_cell_formula_units_Z 44
_cell_length_a 9.079668
_cell_length_b 8.104549
_cell_length_c 27.618566
_cell_angle_alpha 90.000000
_cell_angle_beta 90.000000
_cell_angle_gamma 90.000000
_cell_volume 2032.356761
_symmetry_space_group_name_H-M "P C C N"
_symmetry_group_IT_number 56
_symmetry_cell_setting 'orthorhombic'
loop_
_space_group_symop_operation_xyz
x,y,z
1/2-x,1/2-y,z
1/2+x,-y,1/2-z
-x,1/2+y,1/2-z
-x,-y,-z
1/2+x,1/2+y,-z
1/2-x,y,1/2+z
x,1/2-y,1/2+z
loop_
_atom_site_type_symbol
_atom_site_label
_atom_site_fract_x
_atom_site_fract_y
_atom_site_fract_z
Si Si1 0.658965 0.094994 0.836310
Si Si2 0.750000 0.250000 0.021600
Si Si3 0.927964 0.891986 0.814185
Si Si4 0.580072 0.766868 0.715104
Si Si5 0.807268 0.492748 0.940879
Si Si6 0.027497 0.179747 0.078399
O O1 0.750000 0.250000 0.816578
O O2 0.499794 0.111939 0.811440
O O3 0.752344 0.932453 0.820747
O O4 0.637210 0.106920 0.894004
O O5 0.633016 0.344717 0.055392
O O6 0.833538 0.384006 0.988469
O O7 0.946964 0.756586 0.772415
O O8 0.987262 0.807584 0.863393
O O9 0.021243 0.056336 0.802507
O O10 0.750000 0.750000 0.701110
O O11 0.900842 0.658184 0.944772
O O12 0.631797 0.525950 0.935144
#
# Coordination Sequence:
#
# PCOD8228868 Si02
#       6
#     8   4   8   8   8   8
#     4   9  19  39  61  89 123 166 213 249 304 379
#     4  12  22  42  68  94 122 156 222 276 316 374
#     4  10  23  41  62  91 131 174 204 256 316 389
#     4  11  23  38  64  95 126 168 216 258 308 370
#     4  10  21  41  69  86 123 174 209 251 330 394
#     4  10  24  40  63  96 128 164 211 265 323 383
#
# _framework density 21.649742
#
# number of rings (size 3 to 8) (size 9 to 14) (size 15 to 20)
#    0.000    1.818    0.909    2.182    7.636    1.455 
#    4.909    0.000    0.000    0.000    0.000    0.000 
#    0.000    0.000    0.000    0.000    0.000    0.000 
#
# Total GULP energy -545626.093701 kJ/mol
# GULP energy per Si atom -12400.593039 kJ/mol
# Density = 2.160047 g / cm^3
# Si number density = 21.649742 Si / 1000 Ang^3
#
#
#
# Elastic Constant Matrix: (Units=GPa)
#
#
# Indices 1 2 3 4 5 6 
#
# 1 107.4281 17.6542 64.2960 0.0000 0.0000 0.0000
# 2 17.6542 61.0607 33.4868 0.0000 0.0000 0.0000
# 3 64.2960 33.4868 145.7106 0.0000 0.0000 0.0000
# 4 0.0000 0.0000 0.0000 37.1809 0.0000 0.0000
# 5 0.0000 0.0000 0.0000 0.0000 24.8082 0.0000
# 6 0.0000 0.0000 0.0000 0.0000 0.0000 25.5131
#
#
#
# Elastic Compliance Matrix: (Units=1/GPa)
#
#
# Indices 1 2 3 4 5 6 
#
# 1 0.012674 -0.000683 -0.005435 0.000000 0.000000 0.000000
# 2 -0.000683 0.018776 -0.004013 0.000000 0.000000 0.000000
# 3 -0.005435 -0.004013 0.010184 0.000000 0.000000 0.000000
# 4 0.000000 0.000000 0.000000 0.026896 0.000000 0.000000
# 5 0.000000 0.000000 0.000000 0.000000 0.040309 0.000000
# 6 0.000000 0.000000 0.000000 0.000000 0.000000 0.039195
#
#
# Mechanical properties :
#
#
# Convention : Reuss Voigt Hill
#
# Bulk Modulus (GPa) = 46.79712 60.56370 53.68041
# Shear Modulus (GPa) = 28.50280 30.75126 29.62703
#
# Velocity S-wave (km/s) = 3.63235 3.77291 3.70330
# Velocity P-wave (km/s) = 6.26534 6.85674 6.56770
#
# Compressibility (1/GPa) = 0.02136883
#
# Stress axis : x y z
#
# Youngs Moduli (GPa) = 78.90176 53.26014 98.19623
#
# Poissons Ratio (x) = 0.03640 0.53374
# Poissons Ratio (y) = 0.05393 0.39410
# Poissons Ratio (z) = 0.42886 0.21375
#
# Static dielectric constant tensor:
#      x y z
#    x 3.911530 0.000000 0.000000 
#    y 0.000000 3.822590 0.000000 
#    z 0.000000 0.000000 3.898740 
# 
# 
# High freq. dielectric constant tensor:
#      x y z
#    x 1.838230 0.000000 0.000000 
#    y 0.000000 1.850240 0.000000 
#    z 0.000000 0.000000 1.852650 
# 
# From -- ./inp_files/23146.got.cif
#   From: 2010.03.12/outbox.cif.g09.slc.cpg/sg56_12_cif.got.tgz:23146.got - 2010.04.16 15:33:40.
