data_PCOD8228134
_publ_section_title
;
Structure prediction by ZEFSAII (Michael W. Deem and Ramdas Pophale) SiO2 
 PCOD8228134
Probable space group: P C C N
;
_chemical_formula_sum "Si O2"
_cell_formula_units_Z 44
_cell_length_a 12.142441
_cell_length_b 10.369282
_cell_length_c 18.321334
_cell_angle_alpha 90.000000
_cell_angle_beta 90.000000
_cell_angle_gamma 90.000000
_cell_volume 2306.809756
_symmetry_space_group_name_H-M "P C C N"
_symmetry_group_IT_number 56
_symmetry_cell_setting 'orthorhombic'
loop_
_space_group_symop_operation_xyz
x,y,z
1/2-x,1/2-y,z
1/2+x,-y,1/2-z
-x,1/2+y,1/2-z
-x,-y,-z
1/2+x,1/2+y,-z
1/2-x,y,1/2+z
x,1/2-y,1/2+z
loop_
_atom_site_type_symbol
_atom_site_label
_atom_site_fract_x
_atom_site_fract_y
_atom_site_fract_z
Si Si1 0.604729 0.458961 0.152367
Si Si2 0.250000 0.750000 0.079377
Si Si3 0.710942 0.384475 0.560123
Si Si4 0.542792 0.164301 0.171128
Si Si5 0.118770 0.929155 0.173142
Si Si6 0.697044 0.884661 0.786694
O O1 0.688566 0.478357 0.083720
O O2 0.572746 0.314188 0.174789
O O3 0.491099 0.527605 0.131034
O O4 0.665036 0.527436 0.218990
O O5 0.153207 0.799443 0.131220
O O6 0.202142 0.633558 0.027733
O O7 0.750000 0.250000 0.596500
O O8 0.594381 0.410958 0.600372
O O9 0.592999 0.096844 0.242521
O O10 0.411534 0.145015 0.165331
O O11 0.214313 0.036537 0.165263
O O12 0.750000 0.750000 0.759969
#
# Coordination Sequence:
#
# PCOD8228134 Si02
#       6
#     8   4   8   8   8   8
#     4  10  19  35  59  79 110 153 183 240 277 339
#     4  10  22  34  56  84 112 152 198 228 274 354
#     4   8  18  36  56  79 105 149 191 219 284 336
#     4  10  19  37  60  80 110 148 191 234 290 331
#     4  11  21  34  57  89 113 144 195 242 279 328
#     4  11  21  33  55  90 117 138 186 242 286 328
#
# _framework density 19.073961000000001
#
# number of rings (size 3 to 8) (size 9 to 14) (size 15 to 20)
#    0.545    1.455    3.636    1.091    1.273    0.727 
#    0.000    0.909    0.000    1.091    0.000    0.000 
#    0.000    0.000    0.000    0.000    0.000    0.000 
#
# Total GULP energy -545079.632804 kJ/mol
# GULP energy per Si atom -12388.173473 kJ/mol
# Density = 1.903055 g / cm^3
# Si number density = 19.073961 Si / 1000 Ang^3
#
#
#
# Elastic Constant Matrix: (Units=GPa)
#
#
# Indices 1 2 3 4 5 6 
#
# 1 136.7534 35.0705 28.0489 0.0000 0.0000 0.0000
# 2 35.0705 54.0372 5.5292 0.0000 0.0000 0.0000
# 3 28.0489 5.5292 54.7903 0.0000 0.0000 0.0000
# 4 0.0000 0.0000 0.0000 17.3217 0.0000 0.0000
# 5 0.0000 0.0000 0.0000 0.0000 1.3025 0.0000
# 6 0.0000 0.0000 0.0000 0.0000 0.0000 36.8613
#
#
#
# Elastic Compliance Matrix: (Units=1/GPa)
#
#
# Indices 1 2 3 4 5 6 
#
# 1 0.009713 -0.005855 -0.004381 0.000000 0.000000 0.000000
# 2 -0.005855 0.022229 0.000754 0.000000 0.000000 0.000000
# 3 -0.004381 0.000754 0.020418 0.000000 0.000000 0.000000
# 4 0.000000 0.000000 0.000000 0.057731 0.000000 0.000000
# 5 0.000000 0.000000 0.000000 0.000000 0.767767 0.000000
# 6 0.000000 0.000000 0.000000 0.000000 0.000000 0.027129
#
#
# Mechanical properties :
#
#
# Convention : Reuss Voigt Hill
#
# Bulk Modulus (GPa) = 29.94469 42.54203 36.24336
# Shear Modulus (GPa) = 5.34712 22.89259 14.11985
#
# Velocity S-wave (km/s) = 1.67614 3.46815 2.72374
# Velocity P-wave (km/s) = 4.41353 6.19593 5.37907
#
# Compressibility (1/GPa) = 0.03339490
#
# Stress axis : x y z
#
# Youngs Moduli (GPa) = 102.95846 44.98691 48.97587
#
# Poissons Ratio (x) = 0.26341 0.21458
# Poissons Ratio (y) = 0.60285 -0.03694
# Poissons Ratio (z) = 0.45109 -0.03393
#
# Static dielectric constant tensor:
#      x y z
#    x 3.875170 0.000000 0.000000 
#    y 0.000000 3.370420 0.000000 
#    z 0.000000 0.000000 3.099050 
# 
# 
# High freq. dielectric constant tensor:
#      x y z
#    x 1.759790 0.000000 0.000000 
#    y 0.000000 1.722050 0.000000 
#    z 0.000000 0.000000 1.711510 
# 
# From -- ./inp_files/18649.got.cif
#   From: 2010.03.12/outbox.cif.g09.slc.cpg/sg56_10_cif.got.tgz:18649.got - 2010.04.16 15:33:40.
