data_PCOD8228736
_publ_section_title
;
Structure prediction by ZEFSAII (Michael W. Deem and Ramdas Pophale) SiO2 
 PCOD8228736
Probable space group: P C C N
;
_chemical_formula_sum "Si O2"
_cell_formula_units_Z 40
_cell_length_a 13.444980
_cell_length_b 13.331894
_cell_length_c 8.926326
_cell_angle_alpha 90.000000
_cell_angle_beta 90.000000
_cell_angle_gamma 90.000000
_cell_volume 1600.017587
_symmetry_space_group_name_H-M "P C C N"
_symmetry_group_IT_number 56
_symmetry_cell_setting 'orthorhombic'
loop_
_space_group_symop_operation_xyz
x,y,z
1/2-x,1/2-y,z
1/2+x,-y,1/2-z
-x,1/2+y,1/2-z
-x,-y,-z
1/2+x,1/2+y,-z
1/2-x,y,1/2+z
x,1/2-y,1/2+z
loop_
_atom_site_type_symbol
_atom_site_label
_atom_site_fract_x
_atom_site_fract_y
_atom_site_fract_z
Si Si1 0.865637 0.722541 0.930770
Si Si2 0.618500 0.521445 0.292324
Si Si3 0.660032 0.185764 0.303963
Si Si4 0.519792 0.836583 0.214731
Si Si5 0.243227 0.564258 0.944720
O O1 0.750000 0.750000 0.925667
O O2 0.902613 0.639800 0.806135
O O3 0.930151 0.819488 0.878186
O O4 0.893707 0.680717 0.093289
O O5 0.520887 0.450536 0.293160
O O6 0.687076 0.500822 0.434496
O O7 0.678789 0.505846 0.140316
O O8 0.750000 0.250000 0.239642
O O9 0.566136 0.256831 0.320210
O O10 0.688574 0.146159 0.469274
O O11 0.656956 0.103073 0.170751
#
# Coordination Sequence:
#
# PCOD8228736 Si02
#       5
#     8   8   8   8   8
#     4  12  30  51  70  99 152 200 247 298 367 437
#     4  11  25  45  75 104 142 191 242 296 362 446
#     4  11  20  37  70 109 152 176 233 308 377 424
#     4  12  25  46  74 107 141 193 248 302 358 438
#     4  10  21  38  72 106 146 180 229 291 382 425
#
# _framework density 24.999724000000001
#
# number of rings (size 3 to 8) (size 9 to 14) (size 15 to 20)
#    0.000    0.800    4.000    4.200    5.600    0.000 
#    3.600    2.000    0.000    0.000    0.000    0.000 
#    0.000    0.000    0.000    0.000    0.000    0.000 
#
# Total GULP energy -495836.100891 kJ/mol
# GULP energy per Si atom -12395.902522 kJ/mol
# Density = 2.494282 g / cm^3
# Si number density = 24.999724 Si / 1000 Ang^3
#
#
#
# Elastic Constant Matrix: (Units=GPa)
#
#
# Indices 1 2 3 4 5 6 
#
# 1 117.3734 40.4683 13.8838 0.0000 0.0000 0.0000
# 2 40.4683 61.0179 3.4224 0.0000 0.0000 0.0000
# 3 13.8838 3.4224 88.6689 0.0000 0.0000 0.0000
# 4 0.0000 0.0000 0.0000 74.1117 0.0000 0.0000
# 5 0.0000 0.0000 0.0000 0.0000 23.5633 0.0000
# 6 0.0000 0.0000 0.0000 0.0000 0.0000 34.0248
#
#
#
# Elastic Compliance Matrix: (Units=1/GPa)
#
#
# Indices 1 2 3 4 5 6 
#
# 1 0.011235 -0.007368 -0.001475 0.000000 0.000000 0.000000
# 2 -0.007368 0.021257 0.000333 0.000000 0.000000 0.000000
# 3 -0.001475 0.000333 0.011496 0.000000 0.000000 0.000000
# 4 0.000000 0.000000 0.000000 0.013493 0.000000 0.000000
# 5 0.000000 0.000000 0.000000 0.000000 0.042439 0.000000
# 6 0.000000 0.000000 0.000000 0.000000 0.000000 0.029390
#
#
# Mechanical properties :
#
#
# Convention : Reuss Voigt Hill
#
# Bulk Modulus (GPa) = 37.08125 42.51215 39.79670
# Shear Modulus (GPa) = 32.19183 40.29233 36.24208
#
# Velocity S-wave (km/s) = 3.59233 4.01897 3.81162
# Velocity P-wave (km/s) = 5.66315 6.21113 5.94346
#
# Compressibility (1/GPa) = 0.02696781
#
# Stress axis : x y z
#
# Youngs Moduli (GPa) = 89.00947 47.04378 86.98703
#
# Poissons Ratio (x) = 0.34664 0.12828
# Poissons Ratio (y) = 0.65586 -0.02899
# Poissons Ratio (z) = 0.13127 -0.01568
#
# Static dielectric constant tensor:
#      x y z
#    x 4.246310 0.000000 0.000000 
#    y 0.000000 4.583340 0.000000 
#    z 0.000000 0.000000 4.541850 
# 
# 
# High freq. dielectric constant tensor:
#      x y z
#    x 1.992940 0.000000 0.000000 
#    y 0.000000 1.994860 0.000000 
#    z 0.000000 0.000000 2.007990 
# 
# From -- ./inp_files/3223.got.cif
#   From: 2010.03.12/outbox.cif.g09.slc.cpg/sg56_2_cif.got.tgz:3223.got - 2010.04.16 15:33:40.
