data_PCOD8228156
_publ_section_title
;
Structure prediction by ZEFSAII (Michael W. Deem and Ramdas Pophale) SiO2 
 PCOD8228156
Probable space group: P C C N
;
_chemical_formula_sum "Si O2"
_cell_formula_units_Z 52
_cell_length_a 12.864877
_cell_length_b 20.934274
_cell_length_c 8.705380
_cell_angle_alpha 90.000000
_cell_angle_beta 90.000000
_cell_angle_gamma 90.000000
_cell_volume 2344.505608
_symmetry_space_group_name_H-M "P C C N"
_symmetry_group_IT_number 56
_symmetry_cell_setting 'orthorhombic'
loop_
_space_group_symop_operation_xyz
x,y,z
1/2-x,1/2-y,z
1/2+x,-y,1/2-z
-x,1/2+y,1/2-z
-x,-y,-z
1/2+x,1/2+y,-z
1/2-x,y,1/2+z
x,1/2-y,1/2+z
loop_
_atom_site_type_symbol
_atom_site_label
_atom_site_fract_x
_atom_site_fract_y
_atom_site_fract_z
Si Si1 0.436139 0.214809 0.290388
Si Si2 0.770730 0.982743 0.823642
Si Si3 0.627107 0.184655 0.096080
Si Si4 0.331085 0.198126 0.989141
Si Si5 0.171340 0.399409 0.414872
Si Si6 0.606266 0.461786 0.543417
Si Si7 0.750000 0.250000 0.835798
O O1 0.536254 0.220757 0.185767
O O2 0.341436 0.204942 0.171180
O O3 0.433069 0.280785 0.389942
O O4 0.422858 0.152187 0.401939
O O5 0.848023 0.943678 0.936786
O O6 0.683498 0.939809 0.739635
O O7 0.850172 0.016530 0.708270
O O8 0.698795 0.031253 0.919998
O O9 0.586227 0.113904 0.056929
O O10 0.718789 0.190140 0.224522
O O11 0.656535 0.223871 0.942791
O O12 0.250000 0.250000 0.927892
O O13 0.287722 0.129234 0.944007
O O14 0.500000 0.500000 0.500000
#
# Coordination Sequence:
#
# PCOD8228156 Si02
#       7
#     8   8   8   8   8   8   4
#     4  11  21  34  56  92 122 166 215 260 329 400
#     4  10  22  40  62  94 129 178 220 275 346 389
#     4  11  23  44  67  92 127 166 230 283 339 401
#     4  10  20  32  53  85 129 168 195 249 321 399
#     4  10  19  36  58  86 132 166 207 257 329 416
#     4  11  24  44  70 100 135 182 235 290 347 419
#     4  10  24  46  68  94 122 180 222 294 354 386
#
# _framework density 22.179516
#
# number of rings (size 3 to 8) (size 9 to 14) (size 15 to 20)
#    0.000    1.538    1.538    4.154    4.308    0.000 
#    0.000   10.000    0.000    0.000    0.000    0.000 
#    0.000    0.000    0.000    0.000    0.000    0.000 
#
# Total GULP energy -644246.801805 kJ/mol
# GULP energy per Si atom -12389.361573 kJ/mol
# Density = 2.212903 g / cm^3
# Si number density = 22.179516 Si / 1000 Ang^3
#
#
#
# Elastic Constant Matrix: (Units=GPa)
#
#
# Indices 1 2 3 4 5 6 
#
# 1 63.1538 10.8637 19.6965 0.0000 0.0000 0.0000
# 2 10.8637 78.9475 29.6397 0.0000 0.0000 0.0000
# 3 19.6965 29.6397 124.0366 0.0000 0.0000 0.0000
# 4 0.0000 0.0000 0.0000 26.5785 0.0000 0.0000
# 5 0.0000 0.0000 0.0000 0.0000 34.0553 0.0000
# 6 0.0000 0.0000 0.0000 0.0000 0.0000 29.9127
#
#
#
# Elastic Compliance Matrix: (Units=1/GPa)
#
#
# Indices 1 2 3 4 5 6 
#
# 1 0.016807 -0.001440 -0.002325 0.000000 0.000000 0.000000
# 2 -0.001440 0.014038 -0.003126 0.000000 0.000000 0.000000
# 3 -0.002325 -0.003126 0.009178 0.000000 0.000000 0.000000
# 4 0.000000 0.000000 0.000000 0.037624 0.000000 0.000000
# 5 0.000000 0.000000 0.000000 0.000000 0.029364 0.000000
# 6 0.000000 0.000000 0.000000 0.000000 0.000000 0.033431
#
#
# Mechanical properties :
#
#
# Convention : Reuss Voigt Hill
#
# Bulk Modulus (GPa) = 38.10631 42.94862 40.52747
# Shear Modulus (GPa) = 30.68017 31.83849 31.25933
#
# Velocity S-wave (km/s) = 3.72326 3.79290 3.75824
# Velocity P-wave (km/s) = 5.97509 6.21189 6.09464
#
# Compressibility (1/GPa) = 0.02624237
#
# Stress axis : x y z
#
# Youngs Moduli (GPa) = 59.49861 71.23324 108.95285
#
# Poissons Ratio (x) = 0.10257 0.25329
# Poissons Ratio (y) = 0.08568 0.34058
# Poissons Ratio (z) = 0.13832 0.22267
#
# Static dielectric constant tensor:
#      x y z
#    x 3.913000 0.000000 0.000000 
#    y 0.000000 3.947430 0.000000 
#    z 0.000000 0.000000 4.340560 
# 
# 
# High freq. dielectric constant tensor:
#      x y z
#    x 1.850990 0.000000 0.000000 
#    y 0.000000 1.857540 0.000000 
#    z 0.000000 0.000000 1.900930 
# 
# From -- ./inp_files/3530.got.cif
#   From: 2010.03.12/outbox.cif.g09.slc.cpg/sg56_2_cif.got.tgz:3530.got - 2010.04.16 15:33:40.
