data_PCOD8228485
_publ_section_title
;
Structure prediction by ZEFSAII (Michael W. Deem and Ramdas Pophale) SiO2 
 PCOD8228485
Probable space group: P C C N
;
_chemical_formula_sum "Si O2"
_cell_formula_units_Z 48
_cell_length_a 13.612527
_cell_length_b 9.559348
_cell_length_c 17.828242
_cell_angle_alpha 90.000000
_cell_angle_beta 90.000000
_cell_angle_gamma 90.000000
_cell_volume 2319.933556
_symmetry_space_group_name_H-M "P C C N"
_symmetry_group_IT_number 56
_symmetry_cell_setting 'orthorhombic'
loop_
_space_group_symop_operation_xyz
x,y,z
1/2-x,1/2-y,z
1/2+x,-y,1/2-z
-x,1/2+y,1/2-z
-x,-y,-z
1/2+x,1/2+y,-z
1/2-x,y,1/2+z
x,1/2-y,1/2+z
loop_
_atom_site_type_symbol
_atom_site_label
_atom_site_fract_x
_atom_site_fract_y
_atom_site_fract_z
Si Si1 0.250000 0.750000 0.044916
Si Si2 0.588357 0.212945 0.339894
Si Si3 0.750000 0.250000 0.727387
Si Si4 0.541450 0.915812 0.398907
Si Si5 0.655150 0.493179 0.034350
Si Si6 0.278616 0.447477 0.814320
Si Si7 0.405115 0.288514 0.255620
O O1 0.151790 0.716580 0.093701
O O2 0.262074 0.612567 0.995018
O O3 0.664292 0.177099 0.274419
O O4 0.501815 0.310535 0.307057
O O5 0.538667 0.071490 0.366495
O O6 0.793669 0.383641 0.683388
O O7 0.433623 0.894896 0.434000
O O8 0.568643 0.808290 0.332370
O O9 0.620618 0.905342 0.466414
O O10 0.702241 0.592695 0.098555
O O11 0.171765 0.402131 0.786198
O O12 0.359705 0.368173 0.763060
#
# Coordination Sequence:
#
# PCOD8228485 Si02
#       7
#     4   8   4   8   8   8   8
#     4   9  21  38  64  92 126 164 224 262 320 394
#     4  10  20  38  63  91 124 166 217 270 315 376
#     4  11  21  36  66  94 124 170 218 270 318 372
#     4  10  20  40  66  89 129 177 212 258 335 381
#     4  10  20  39  64  92 127 178 209 268 325 389
#     4  11  23  39  64  97 135 166 217 266 320 386
#     4  11  23  40  62  97 133 168 214 273 319 385
#
# _framework density 20.690248
#
# number of rings (size 3 to 8) (size 9 to 14) (size 15 to 20)
#    0.000    1.667    3.333    1.500    0.000    0.000 
#    0.000    4.167    0.000    0.000    0.000    0.000 
#    0.000    0.000    0.000    0.000    0.000    0.000 
#
# Total GULP energy -594839.969686 kJ/mol
# GULP energy per Si atom -12392.499368 kJ/mol
# Density = 2.064316 g / cm^3
# Si number density = 20.690248 Si / 1000 Ang^3
#
#
#
# Elastic Constant Matrix: (Units=GPa)
#
#
# Indices 1 2 3 4 5 6 
#
# 1 96.2828 25.9391 44.6794 0.0000 0.0000 0.0000
# 2 25.9391 90.9285 42.4206 0.0000 0.0000 0.0000
# 3 44.6794 42.4206 139.7440 0.0000 0.0000 0.0000
# 4 0.0000 0.0000 0.0000 29.6985 0.0000 0.0000
# 5 0.0000 0.0000 0.0000 0.0000 27.4788 0.0000
# 6 0.0000 0.0000 0.0000 0.0000 0.0000 20.1113
#
#
#
# Elastic Compliance Matrix: (Units=1/GPa)
#
#
# Indices 1 2 3 4 5 6 
#
# 1 0.012494 -0.001981 -0.003393 0.000000 0.000000 0.000000
# 2 -0.001981 0.013126 -0.003351 0.000000 0.000000 0.000000
# 3 -0.003393 -0.003351 0.009258 0.000000 0.000000 0.000000
# 4 0.000000 0.000000 0.000000 0.033672 0.000000 0.000000
# 5 0.000000 0.000000 0.000000 0.000000 0.036392 0.000000
# 6 0.000000 0.000000 0.000000 0.000000 0.000000 0.049723
#
#
# Mechanical properties :
#
#
# Convention : Reuss Voigt Hill
#
# Bulk Modulus (GPa) = 57.38078 61.44816 59.41447
# Shear Modulus (GPa) = 28.10155 29.71880 28.91018
#
# Velocity S-wave (km/s) = 3.68938 3.79406 3.74208
# Velocity P-wave (km/s) = 6.77806 6.99691 6.88835
#
# Compressibility (1/GPa) = 0.01742744
#
# Stress axis : x y z
#
# Youngs Moduli (GPa) = 80.03531 76.18337 108.01287
#
# Poissons Ratio (x) = 0.15093 0.36653
# Poissons Ratio (y) = 0.15856 0.36197
# Poissons Ratio (z) = 0.27159 0.25530
#
# Static dielectric constant tensor:
#      x y z
#    x 3.871000 0.000000 0.000000 
#    y 0.000000 3.352880 0.000000 
#    z 0.000000 0.000000 4.066320 
# 
# 
# High freq. dielectric constant tensor:
#      x y z
#    x 1.820470 0.000000 0.000000 
#    y 0.000000 1.769610 0.000000 
#    z 0.000000 0.000000 1.821760 
# 
# From -- ./inp_files/15652.got.cif
#   From: 2010.03.12/outbox.cif.g09.slc.cpg/sg56_8_cif.got.tgz:15652.got - 2010.04.16 15:33:40.
