data_PCOD8228352
_publ_section_title
;
Structure prediction by ZEFSAII (Michael W. Deem and Ramdas Pophale) SiO2 
 PCOD8228352
Probable space group: P C C N
;
_chemical_formula_sum "Si O2"
_cell_formula_units_Z 64
_cell_length_a 18.338084
_cell_length_b 9.469021
_cell_length_c 19.260120
_cell_angle_alpha 90.000000
_cell_angle_beta 90.000000
_cell_angle_gamma 90.000000
_cell_volume 3344.398547
_symmetry_space_group_name_H-M "P C C N"
_symmetry_group_IT_number 56
_symmetry_cell_setting 'orthorhombic'
loop_
_space_group_symop_operation_xyz
x,y,z
1/2-x,1/2-y,z
1/2+x,-y,1/2-z
-x,1/2+y,1/2-z
-x,-y,-z
1/2+x,1/2+y,-z
1/2-x,y,1/2+z
x,1/2-y,1/2+z
loop_
_atom_site_type_symbol
_atom_site_label
_atom_site_fract_x
_atom_site_fract_y
_atom_site_fract_z
Si Si1 0.168644 0.794605 0.761166
Si Si2 0.588665 0.958167 0.798985
Si Si3 0.086854 0.365840 0.046619
Si Si4 0.080484 0.881415 0.456642
Si Si5 0.676413 0.827456 0.543601
Si Si6 0.163668 0.252513 0.802371
Si Si7 0.418844 0.530779 0.301017
Si Si8 0.181785 0.648630 0.419501
O O1 0.250000 0.750000 0.738809
O O2 0.113890 0.663171 0.760474
O O3 0.169962 0.869919 0.836828
O O4 0.134980 0.897341 0.702770
O O5 0.599279 0.876334 0.871234
O O6 0.621372 0.866318 0.738207
O O7 0.503854 0.989996 0.783070
O O8 0.002972 0.355318 0.025450
O O9 0.117485 0.509948 0.011294
O O10 0.121668 0.221287 0.017328
O O11 0.093076 0.951774 0.382417
O O12 0.115388 0.726002 0.458095
O O13 0.750000 0.750000 0.523702
O O14 0.646610 0.772357 0.616932
O O15 0.689878 0.995724 0.545223
O O16 0.250000 0.250000 0.786870
O O17 0.129344 0.398925 0.776858
O O18 0.250000 0.750000 0.432950
#
# Coordination Sequence:
#
# PCOD8228352 Si02
#       8
#     8   8   8   8   8   8   8   8
#     4  10  20  36  59  87 116 155 196 249 299 351
#     4  11  22  38  57  89 123 159 194 246 308 359
#     4  10  21  38  59  83 124 160 194 234 308 367
#     4   9  19  37  58  85 114 162 193 242 294 359
#     4  11  22  37  62  89 114 157 206 249 295 356
#     4  11  22  37  61  90 118 156 204 257 297 354
#     4  10  20  36  61  85 121 153 205 246 294 355
#     4  10  20  35  62  89 114 144 204 258 289 347
#
# _framework density 19.136475999999998
#
# number of rings (size 3 to 8) (size 9 to 14) (size 15 to 20)
#    0.000    1.750    2.500    2.250    7.000    1.000 
#    0.000    3.125    0.000    0.000    0.000    0.000 
#    0.000    0.000    0.000    0.000    0.000    0.000 
#
# Total GULP energy -793543.055744 kJ/mol
# GULP energy per Si atom -12399.110246 kJ/mol
# Density = 1.909292 g / cm^3
# Si number density = 19.136476 Si / 1000 Ang^3
#
#
#
# Elastic Constant Matrix: (Units=GPa)
#
#
# Indices 1 2 3 4 5 6 
#
# 1 115.7680 67.9150 42.6692 0.0000 0.0000 0.0000
# 2 67.9150 136.4835 22.6812 0.0000 0.0000 0.0000
# 3 42.6692 22.6812 39.0698 0.0000 0.0000 0.0000
# 4 0.0000 0.0000 0.0000 18.9293 0.0000 0.0000
# 5 0.0000 0.0000 0.0000 0.0000 33.7825 0.0000
# 6 0.0000 0.0000 0.0000 0.0000 0.0000 34.0068
#
#
#
# Elastic Compliance Matrix: (Units=1/GPa)
#
#
# Indices 1 2 3 4 5 6 
#
# 1 0.018494 -0.006470 -0.016441 0.000000 0.000000 0.000000
# 2 -0.006470 0.010373 0.001045 0.000000 0.000000 0.000000
# 3 -0.016441 0.001045 0.042945 0.000000 0.000000 0.000000
# 4 0.000000 0.000000 0.000000 0.052828 0.000000 0.000000
# 5 0.000000 0.000000 0.000000 0.000000 0.029601 0.000000
# 6 0.000000 0.000000 0.000000 0.000000 0.000000 0.029406
#
#
# Mechanical properties :
#
#
# Convention : Reuss Voigt Hill
#
# Bulk Modulus (GPa) = 35.61575 61.98355 48.79965
# Shear Modulus (GPa) = 21.12029 27.88078 24.50053
#
# Velocity S-wave (km/s) = 3.32575 3.82113 3.58202
# Velocity P-wave (km/s) = 5.77922 7.20616 6.53177
#
# Compressibility (1/GPa) = 0.02807747
#
# Stress axis : x y z
#
# Youngs Moduli (GPa) = 54.07298 96.40463 23.28577
#
# Poissons Ratio (x) = 0.62376 0.38284
# Poissons Ratio (y) = 0.34987 -0.02432
# Poissons Ratio (z) = 0.88902 -0.10070
#
# Static dielectric constant tensor:
#      x y z
#    x 3.893640 0.000000 0.000000 
#    y 0.000000 2.934040 0.000000 
#    z 0.000000 0.000000 3.273380 
# 
# 
# High freq. dielectric constant tensor:
#      x y z
#    x 1.752680 0.000000 0.000000 
#    y 0.000000 1.752980 0.000000 
#    z 0.000000 0.000000 1.717710 
# 
# From -- ./inp_files/18392.got.cif
#   From: 2010.03.12/outbox.cif.g09.slc.cpg/sg56_10_cif.got.tgz:18392.got - 2010.04.16 15:33:40.
