data_PCOD8228220
_publ_section_title
;
Structure prediction by ZEFSAII (Michael W. Deem and Ramdas Pophale) SiO2 
 PCOD8228220
Probable space group: P C C N
;
_chemical_formula_sum "Si O2"
_cell_formula_units_Z 56
_cell_length_a 6.078604
_cell_length_b 20.489558
_cell_length_c 22.544929
_cell_angle_alpha 90.000000
_cell_angle_beta 90.000000
_cell_angle_gamma 90.000000
_cell_volume 2807.923770
_symmetry_space_group_name_H-M "P C C N"
_symmetry_group_IT_number 56
_symmetry_cell_setting 'orthorhombic'
loop_
_space_group_symop_operation_xyz
x,y,z
1/2-x,1/2-y,z
1/2+x,-y,1/2-z
-x,1/2+y,1/2-z
-x,-y,-z
1/2+x,1/2+y,-z
1/2-x,y,1/2+z
x,1/2-y,1/2+z
loop_
_atom_site_type_symbol
_atom_site_label
_atom_site_fract_x
_atom_site_fract_y
_atom_site_fract_z
Si Si1 0.804605 0.925901 0.544920
Si Si2 0.515058 0.659143 0.968021
Si Si3 0.862972 0.429411 0.056198
Si Si4 0.750000 0.250000 0.946310
Si Si5 0.608523 0.685542 0.763523
Si Si6 0.750000 0.250000 0.168497
Si Si7 0.367672 0.341270 0.627358
Si Si8 0.399284 0.314583 0.369580
O O1 0.610025 0.903725 0.502100
O O2 0.790691 0.876204 0.599131
O O3 0.038620 0.924457 0.510461
O O4 0.763104 0.999205 0.568551
O O5 0.310045 0.628625 0.933452
O O6 0.689486 0.686880 0.920209
O O7 0.436193 0.716404 0.012436
O O8 0.047508 0.411661 0.105034
O O9 0.630344 0.198839 0.902674
O O10 0.750000 0.750000 0.757181
O O11 0.365836 0.696586 0.789756
O O12 0.751885 0.642157 0.809500
O O13 0.570814 0.658631 0.697418
O O14 0.559954 0.214063 0.130165
O O15 0.250000 0.250000 0.373762
#
# Coordination Sequence:
#
# PCOD8228220 Si02
#       8
#     8   8   8   4   8   4   8   8
#     4  10  21  39  59  85 119 162 196 241 295 357
#     4  11  22  37  59  90 126 152 194 249 300 366
#     4  10  21  38  59  83 120 160 202 238 294 358
#     4  12  23  35  58  94 128 154 188 248 312 354
#     4   9  20  36  60  83 115 153 196 244 296 354
#     4  10  19  39  58  86 118 152 194 240 314 346
#     4  10  22  38  58  88 117 156 199 249 294 356
#     4  11  21  40  60  89 121 153 198 245 298 361
#
# _framework density 19.943560000000002
#
# number of rings (size 3 to 8) (size 9 to 14) (size 15 to 20)
#    0.000    1.714    2.857    1.714    0.000    4.571 
#    2.571    0.000    6.286    0.000    0.000    0.000 
#    0.000    0.000    0.000    0.000    0.000    0.000 
#
# Total GULP energy -693964.257343 kJ/mol
# GULP energy per Si atom -12392.218881 kJ/mol
# Density = 1.989817 g / cm^3
# Si number density = 19.943560 Si / 1000 Ang^3
#
#
#
# Elastic Constant Matrix: (Units=GPa)
#
#
# Indices 1 2 3 4 5 6 
#
# 1 86.2752 20.8892 45.7436 0.0000 0.0000 0.0000
# 2 20.8892 77.2752 48.8635 0.0000 0.0000 0.0000
# 3 45.7436 48.8635 143.1367 0.0000 0.0000 0.0000
# 4 0.0000 0.0000 0.0000 10.8228 0.0000 0.0000
# 5 0.0000 0.0000 0.0000 0.0000 25.0284 0.0000
# 6 0.0000 0.0000 0.0000 0.0000 0.0000 29.6227
#
#
#
# Elastic Compliance Matrix: (Units=1/GPa)
#
#
# Indices 1 2 3 4 5 6 
#
# 1 0.014045 -0.001222 -0.004071 0.000000 0.000000 0.000000
# 2 -0.001222 0.016610 -0.005279 0.000000 0.000000 0.000000
# 3 -0.004071 -0.005279 0.010090 0.000000 0.000000 0.000000
# 4 0.000000 0.000000 0.000000 0.092398 0.000000 0.000000
# 5 0.000000 0.000000 0.000000 0.000000 0.039955 0.000000
# 6 0.000000 0.000000 0.000000 0.000000 0.000000 0.033758
#
#
# Mechanical properties :
#
#
# Convention : Reuss Voigt Hill
#
# Bulk Modulus (GPa) = 51.02464 59.74220 55.38342
# Shear Modulus (GPa) = 21.31888 25.84083 23.57986
#
# Velocity S-wave (km/s) = 3.27304 3.60349 3.44223
# Velocity P-wave (km/s) = 6.31853 6.87998 6.60522
#
# Compressibility (1/GPa) = 0.01959837
#
# Stress axis : x y z
#
# Youngs Moduli (GPa) = 71.19751 60.20623 99.11056
#
# Poissons Ratio (x) = 0.07359 0.40351
# Poissons Ratio (y) = 0.08703 0.52325
# Poissons Ratio (z) = 0.28987 0.31786
#
# Static dielectric constant tensor:
#      x y z
#    x 3.833050 0.000000 0.000000 
#    y 0.000000 3.381200 0.000000 
#    z 0.000000 0.000000 3.932650 
# 
# 
# High freq. dielectric constant tensor:
#      x y z
#    x 1.790410 0.000000 0.000000 
#    y 0.000000 1.745750 0.000000 
#    z 0.000000 0.000000 1.774240 
# 
# From -- ./inp_files/20141.got.cif
#   From: 2010.03.12/outbox.cif.g09.slc.cpg/sg56_11_cif.got.tgz:20141.got - 2010.04.16 15:33:40.
