data_PCOD8228956
_publ_section_title
;
Structure prediction by ZEFSAII (Michael W. Deem and Ramdas Pophale) SiO2 
 PCOD8228956
Probable space group: P C C N
;
_chemical_formula_sum "Si O2"
_cell_formula_units_Z 32
_cell_length_a 12.248145
_cell_length_b 8.722500
_cell_length_c 14.673036
_cell_angle_alpha 90.000000
_cell_angle_beta 90.000000
_cell_angle_gamma 90.000000
_cell_volume 1567.585654
_symmetry_space_group_name_H-M "P C C N"
_symmetry_group_IT_number 56
_symmetry_cell_setting 'orthorhombic'
loop_
_space_group_symop_operation_xyz
x,y,z
1/2-x,1/2-y,z
1/2+x,-y,1/2-z
-x,1/2+y,1/2-z
-x,-y,-z
1/2+x,1/2+y,-z
1/2-x,y,1/2+z
x,1/2-y,1/2+z
loop_
_atom_site_type_symbol
_atom_site_label
_atom_site_fract_x
_atom_site_fract_y
_atom_site_fract_z
Si Si1 0.045847 0.414481 0.679555
Si Si2 0.265423 0.928350 0.575424
Si Si3 0.687467 0.098549 0.627474
Si Si4 0.619381 0.584288 0.287096
O O1 0.120433 0.523928 0.619339
O O2 0.114355 0.267594 0.712152
O O3 0.941964 0.361833 0.618068
O O4 0.000267 0.510141 0.767039
O O5 0.250000 0.750000 0.595240
O O6 0.266024 0.963509 0.467817
O O7 0.164272 0.023683 0.616505
O O8 0.750000 0.250000 0.660140
O O9 0.703183 0.969582 0.706448
#
# Coordination Sequence:
#
# PCOD8228956 Si02
#       4
#     8   8   8   8
#     4  10  22  40  64  98 122 175 213 269 321 393
#     4  11  21  41  64  89 132 168 211 274 327 381
#     4   9  22  39  66  93 124 173 214 265 327 386
#     4  10  22  37  68  90 130 164 223 261 330 385
#
# _framework density 20.413557999999998
#
# number of rings (size 3 to 8) (size 9 to 14) (size 15 to 20)
#    1.500    0.500    0.000    3.750    3.500    0.000 
#    0.000   10.000    0.000    0.000    0.000    0.000 
#    0.000    0.000    0.000    0.000    0.000    0.000 
#
# Total GULP energy -396678.100652 kJ/mol
# GULP energy per Si atom -12396.190645 kJ/mol
# Density = 2.036710 g / cm^3
# Si number density = 20.413558 Si / 1000 Ang^3
#
#
#
# Elastic Constant Matrix: (Units=GPa)
#
#
# Indices 1 2 3 4 5 6 
#
# 1 49.6047 40.7836 22.9516 0.0000 0.0000 0.0000
# 2 40.7836 125.4773 58.8646 0.0000 0.0000 0.0000
# 3 22.9516 58.8646 118.4789 0.0000 0.0000 0.0000
# 4 0.0000 0.0000 0.0000 25.2600 0.0000 0.0000
# 5 0.0000 0.0000 0.0000 0.0000 33.5695 0.0000
# 6 0.0000 0.0000 0.0000 0.0000 0.0000 47.3337
#
#
#
# Elastic Compliance Matrix: (Units=1/GPa)
#
#
# Indices 1 2 3 4 5 6 
#
# 1 0.027633 -0.008437 -0.001161 0.000000 0.000000 0.000000
# 2 -0.008437 0.012967 -0.004808 0.000000 0.000000 0.000000
# 3 -0.001161 -0.004808 0.011054 0.000000 0.000000 0.000000
# 4 0.000000 0.000000 0.000000 0.039588 0.000000 0.000000
# 5 0.000000 0.000000 0.000000 0.000000 0.029789 0.000000
# 6 0.000000 0.000000 0.000000 0.000000 0.000000 0.021127
#
#
# Mechanical properties :
#
#
# Convention : Reuss Voigt Hill
#
# Bulk Modulus (GPa) = 43.77902 59.86228 51.82065
# Shear Modulus (GPa) = 27.99774 32.63003 30.31388
#
# Velocity S-wave (km/s) = 3.70743 4.00240 3.85773
# Velocity P-wave (km/s) = 6.31026 7.12372 6.72929
#
# Compressibility (1/GPa) = 0.02284199
#
# Stress axis : x y z
#
# Youngs Moduli (GPa) = 36.18832 77.11608 90.46273
#
# Poissons Ratio (x) = 0.65061 0.10506
# Poissons Ratio (y) = 0.30531 0.43498
# Poissons Ratio (z) = 0.04203 0.37080
#
# Static dielectric constant tensor:
#      x y z
#    x 3.668790 0.000000 0.000000 
#    y 0.000000 3.508600 0.000000 
#    z 0.000000 0.000000 3.530380 
# 
# 
# High freq. dielectric constant tensor:
#      x y z
#    x 1.800690 0.000000 0.000000 
#    y 0.000000 1.795060 0.000000 
#    z 0.000000 0.000000 1.785550 
# 
# From -- ./inp_files/10232.got.cif
#   From: 2010.03.12/outbox.cif.g09.slc.cpg/sg56_6_cif.got.tgz:10232.got - 2010.04.16 15:33:40.
