data_PCOD8228067
_publ_section_title
;
Structure prediction by ZEFSAII (Michael W. Deem and Ramdas Pophale) SiO2 
 PCOD8228067
Probable space group: P C C N
;
_chemical_formula_sum "Si O2"
_cell_formula_units_Z 40
_cell_length_a 20.428975
_cell_length_b 21.806424
_cell_length_c 4.965499
_cell_angle_alpha 90.000000
_cell_angle_beta 90.000000
_cell_angle_gamma 90.000000
_cell_volume 2212.044848
_symmetry_space_group_name_H-M "P C C N"
_symmetry_group_IT_number 56
_symmetry_cell_setting 'orthorhombic'
loop_
_space_group_symop_operation_xyz
x,y,z
1/2-x,1/2-y,z
1/2+x,-y,1/2-z
-x,1/2+y,1/2-z
-x,-y,-z
1/2+x,1/2+y,-z
1/2-x,y,1/2+z
x,1/2-y,1/2+z
loop_
_atom_site_type_symbol
_atom_site_label
_atom_site_fract_x
_atom_site_fract_y
_atom_site_fract_z
Si Si1 0.425043 0.465096 0.279121
Si Si2 0.337920 0.212657 0.450054
Si Si3 0.497366 0.419800 0.769066
Si Si4 0.007353 0.286928 0.406431
Si Si5 0.709023 0.920668 0.436150
O O1 0.436689 0.427372 0.557549
O O2 0.442500 0.536911 0.326434
O O3 0.351865 0.460364 0.167535
O O4 0.475278 0.437469 0.066458
O O5 0.315434 0.267423 0.651733
O O6 0.415251 0.203042 0.430254
O O7 0.307115 0.151150 0.568233
O O8 0.523163 0.350150 0.793801
O O9 0.984303 0.266848 0.702728
O O10 0.730364 0.937113 0.739096
#
# Coordination Sequence:
#
# PCOD8228067 Si02
#       5
#     8   8   8   8   8
#     4  10  21  35  53  74  96 132 173 208 262 299
#     4  10  21  33  47  65  96 135 173 209 238 279
#     4  10  19  35  56  73  99 128 167 214 254 320
#     4  10  19  30  51  76 100 127 160 208 255 297
#     4  12  24  35  50  68  99 133 175 216 240 288
#
# _framework density 18.082816999999999
#
# number of rings (size 3 to 8) (size 9 to 14) (size 15 to 20)
#    0.000    1.600    2.000    3.600    5.600    2.400 
#    0.000    0.000    0.000    0.000    0.000    0.000 
#    0.000    4.800    0.000    0.000    0.000    0.000 
#
# Total GULP energy -495833.951007 kJ/mol
# GULP energy per Si atom -12395.848775 kJ/mol
# Density = 1.804166 g / cm^3
# Si number density = 18.082817 Si / 1000 Ang^3
#
#
#
# Elastic Constant Matrix: (Units=GPa)
#
#
# Indices 1 2 3 4 5 6 
#
# 1 41.4991 28.9801 5.3570 0.0000 0.0000 0.0000
# 2 28.9801 88.6643 23.0864 0.0000 0.0000 0.0000
# 3 5.3570 23.0864 91.9416 0.0000 0.0000 0.0000
# 4 0.0000 0.0000 0.0000 26.9458 0.0000 0.0000
# 5 0.0000 0.0000 0.0000 0.0000 21.2719 0.0000
# 6 0.0000 0.0000 0.0000 0.0000 0.0000 21.8920
#
#
#
# Elastic Compliance Matrix: (Units=1/GPa)
#
#
# Indices 1 2 3 4 5 6 
#
# 1 0.031278 -0.010431 0.000797 0.000000 0.000000 0.000000
# 2 -0.010431 0.015546 -0.003296 0.000000 0.000000 0.000000
# 3 0.000797 -0.003296 0.011658 0.000000 0.000000 0.000000
# 4 0.000000 0.000000 0.000000 0.037111 0.000000 0.000000
# 5 0.000000 0.000000 0.000000 0.000000 0.047010 0.000000
# 6 0.000000 0.000000 0.000000 0.000000 0.000000 0.045679
#
#
# Mechanical properties :
#
#
# Convention : Reuss Voigt Hill
#
# Bulk Modulus (GPa) = 30.65410 37.43912 34.04661
# Shear Modulus (GPa) = 22.22060 25.00071 23.61065
#
# Velocity S-wave (km/s) = 3.50926 3.72232 3.61736
# Velocity P-wave (km/s) = 5.78003 6.26286 6.02628
#
# Compressibility (1/GPa) = 0.03262206
#
# Stress axis : x y z
#
# Youngs Moduli (GPa) = 31.97108 64.32520 85.78077
#
# Poissons Ratio (x) = 0.67097 -0.06835
# Poissons Ratio (y) = 0.33348 0.28272
# Poissons Ratio (z) = -0.02547 0.21201
#
# Static dielectric constant tensor:
#      x y z
#    x 3.048580 0.000000 0.000000 
#    y 0.000000 3.410720 0.000000 
#    z 0.000000 0.000000 3.627950 
# 
# 
# High freq. dielectric constant tensor:
#      x y z
#    x 1.643900 0.000000 0.000000 
#    y 0.000000 1.684760 0.000000 
#    z 0.000000 0.000000 1.730050 
# 
# From -- ./inp_files/662.got.cif
#   From: 2010.03.12/outbox.cif.g09.slc.cpg/sg56_1_cif.got.tgz:662.got - 2010.04.16 15:33:40.
