data_PCOD8228835
_publ_section_title
;
Structure prediction by ZEFSAII (Michael W. Deem and Ramdas Pophale) SiO2 
 PCOD8228835
Probable space group: P C C N
;
_chemical_formula_sum "Si O2"
_cell_formula_units_Z 60
_cell_length_a 8.525306
_cell_length_b 11.359513
_cell_length_c 31.254785
_cell_angle_alpha 90.000000
_cell_angle_beta 90.000000
_cell_angle_gamma 90.000000
_cell_volume 3026.817281
_symmetry_space_group_name_H-M "P C C N"
_symmetry_group_IT_number 56
_symmetry_cell_setting 'orthorhombic'
loop_
_space_group_symop_operation_xyz
x,y,z
1/2-x,1/2-y,z
1/2+x,-y,1/2-z
-x,1/2+y,1/2-z
-x,-y,-z
1/2+x,1/2+y,-z
1/2-x,y,1/2+z
x,1/2-y,1/2+z
loop_
_atom_site_type_symbol
_atom_site_label
_atom_site_fract_x
_atom_site_fract_y
_atom_site_fract_z
Si Si1 0.814681 0.632714 0.399652
Si Si2 0.079342 0.552546 0.131619
Si Si3 0.770276 0.888847 0.114838
Si Si4 0.422109 0.774416 0.335898
Si Si5 0.976353 0.443383 0.454001
Si Si6 0.750000 0.250000 0.422230
Si Si7 0.147785 0.490777 0.297822
Si Si8 0.510640 0.039328 0.213166
O O1 0.750000 0.750000 0.422585
O O2 0.666322 0.569229 0.378330
O O3 0.877283 0.546374 0.434394
O O4 0.952564 0.670980 0.367985
O O5 0.157348 0.665007 0.109871
O O6 0.897420 0.544808 0.115781
O O7 0.086018 0.555852 0.183844
O O8 0.750000 0.750000 0.117214
O O9 0.860451 0.922959 0.071095
O O10 0.875605 0.928618 0.155755
O O11 0.250000 0.750000 0.357758
O O12 0.397953 0.872297 0.299373
O O13 0.487742 0.658802 0.313880
O O14 0.871662 0.322837 0.452316
O O15 0.000000 0.500000 0.500000
O O16 0.323105 0.478128 0.281392
O O17 0.049066 0.430026 0.260370
#
# Coordination Sequence:
#
# PCOD8228835 Si02
#       8
#     8   8   8   8   8   4   8   8
#     4  11  22  40  68  93 128 168 213 270 333 387
#     4  10  22  40  65  95 128 178 215 270 328 394
#     4  11  22  44  69  93 133 181 220 275 346 408
#     4  10  21  41  60  87 128 172 221 271 323 394
#     4  11  25  46  70  99 131 170 218 278 343 412
#     4  10  22  46  66  98 136 164 228 270 346 412
#     4  10  23  38  58  92 127 175 223 272 329 387
#     4  10  22  37  59  92 129 169 232 267 321 388
#
# _framework density 19.822800999999998
#
# number of rings (size 3 to 8) (size 9 to 14) (size 15 to 20)
#    0.000    1.600    4.000    0.000    1.867    2.667 
#    7.200    1.333    0.000    0.000    0.000    0.000 
#    0.000    0.000    0.000    0.000    0.000    0.000 
#
# Total GULP energy -743335.676091 kJ/mol
# GULP energy per Si atom -12388.927935 kJ/mol
# Density = 1.977768 g / cm^3
# Si number density = 19.822801 Si / 1000 Ang^3
#
#
#
# Elastic Constant Matrix: (Units=GPa)
#
#
# Indices 1 2 3 4 5 6 
#
# 1 99.1781 43.8518 51.6319 0.0000 0.0000 0.0000
# 2 43.8518 95.9087 38.9629 0.0000 0.0000 0.0000
# 3 51.6319 38.9629 119.8896 0.0000 0.0000 0.0000
# 4 0.0000 0.0000 0.0000 9.6055 0.0000 0.0000
# 5 0.0000 0.0000 0.0000 0.0000 24.1893 0.0000
# 6 0.0000 0.0000 0.0000 0.0000 0.0000 32.4455
#
#
#
# Elastic Compliance Matrix: (Units=1/GPa)
#
#
# Indices 1 2 3 4 5 6 
#
# 1 0.014676 -0.004773 -0.004769 0.000000 0.000000 0.000000
# 2 -0.004773 0.013565 -0.002353 0.000000 0.000000 0.000000
# 3 -0.004769 -0.002353 0.011160 0.000000 0.000000 0.000000
# 4 0.000000 0.000000 0.000000 0.104107 0.000000 0.000000
# 5 0.000000 0.000000 0.000000 0.000000 0.041341 0.000000
# 6 0.000000 0.000000 0.000000 0.000000 0.000000 0.030821
#
#
# Mechanical properties :
#
#
# Convention : Reuss Voigt Hill
#
# Bulk Modulus (GPa) = 64.05992 64.87440 64.46716
# Shear Modulus (GPa) = 20.43632 25.28337 22.85985
#
# Velocity S-wave (km/s) = 3.21432 3.57525 3.39958
# Velocity P-wave (km/s) = 6.79428 7.05984 6.92834
#
# Compressibility (1/GPa) = 0.01561038
#
# Stress axis : x y z
#
# Youngs Moduli (GPa) = 68.13830 73.72090 89.60841
#
# Poissons Ratio (x) = 0.35185 0.42737
# Poissons Ratio (y) = 0.32520 0.21085
# Poissons Ratio (z) = 0.32497 0.17346
#
# Static dielectric constant tensor:
#      x y z
#    x 2.439750 0.000000 0.000000 
#    y 0.000000 3.778220 0.000000 
#    z 0.000000 0.000000 3.831090 
# 
# 
# High freq. dielectric constant tensor:
#      x y z
#    x 1.787750 0.000000 0.000000 
#    y 0.000000 1.787720 0.000000 
#    z 0.000000 0.000000 1.746040 
# 
# From -- ./inp_files/23359.got.cif
#   From: 2010.03.12/outbox.cif.g09.slc.cpg/sg56_12_cif.got.tgz:23359.got - 2010.04.16 15:33:40.
