data_PCOD8228311
_publ_section_title
;
Structure prediction by ZEFSAII (Michael W. Deem and Ramdas Pophale) SiO2 
 PCOD8228311
Probable space group: P C C N
;
_chemical_formula_sum "Si O2"
_cell_formula_units_Z 48
_cell_length_a 10.614320
_cell_length_b 8.335454
_cell_length_c 24.014580
_cell_angle_alpha 90.000000
_cell_angle_beta 90.000000
_cell_angle_gamma 90.000000
_cell_volume 2124.694194
_symmetry_space_group_name_H-M "P C C N"
_symmetry_group_IT_number 56
_symmetry_cell_setting 'orthorhombic'
loop_
_space_group_symop_operation_xyz
x,y,z
1/2-x,1/2-y,z
1/2+x,-y,1/2-z
-x,1/2+y,1/2-z
-x,-y,-z
1/2+x,1/2+y,-z
1/2-x,y,1/2+z
x,1/2-y,1/2+z
loop_
_atom_site_type_symbol
_atom_site_label
_atom_site_fract_x
_atom_site_fract_y
_atom_site_fract_z
Si Si1 0.438917 0.694268 0.464264
Si Si2 0.123711 0.848738 0.750558
Si Si3 0.199377 0.413916 0.004456
Si Si4 0.516497 0.098130 0.636852
Si Si5 0.883254 0.808465 0.282193
Si Si6 0.859684 0.364996 0.426200
O O1 0.575349 0.615059 0.458366
O O2 0.330777 0.555315 0.459607
O O3 0.414847 0.826247 0.416960
O O4 0.433021 0.770118 0.525827
O O5 0.250000 0.750000 0.739998
O O6 0.120197 0.921227 0.813982
O O7 0.999968 0.737561 0.740703
O O8 0.120005 0.999721 0.708727
O O9 0.250000 0.250000 0.975435
O O10 0.305807 0.471437 0.047347
O O11 0.407209 0.220357 0.658633
O O12 0.455540 0.924424 0.621836
O O13 0.750000 0.750000 0.256840
O O14 0.750000 0.250000 0.400850
#
# Coordination Sequence:
#
# PCOD8228311 Si02
#       6
#     8   8   8   8   8   8
#     4  10  21  38  60  91 132 171 215 263 326 382
#     4  10  23  44  69  97 132 168 216 283 351 406
#     4  10  20  34  61  83 133 172 210 264 311 378
#     4  10  23  39  69  95 128 173 222 277 332 403
#     4  10  23  44  73  92 125 176 218 284 342 395
#     4  10  21  39  63  94 135 170 222 266 316 394
#
# _framework density 22.591484999999999
#
# number of rings (size 3 to 8) (size 9 to 14) (size 15 to 20)
#    1.000    1.000    1.667    1.500    2.333    2.000 
#    3.000    0.000    3.667    0.000    0.000    0.000 
#    0.000    0.000    0.000    0.000    0.000    0.000 
#
# Total GULP energy -594848.355552 kJ/mol
# GULP energy per Si atom -12392.674074 kJ/mol
# Density = 2.254007 g / cm^3
# Si number density = 22.591485 Si / 1000 Ang^3
#
#
#
# Elastic Constant Matrix: (Units=GPa)
#
#
# Indices 1 2 3 4 5 6 
#
# 1 106.0046 37.9245 1.8862 0.0000 0.0000 0.0000
# 2 37.9245 149.8003 23.0592 0.0000 0.0000 0.0000
# 3 1.8862 23.0592 46.0257 0.0000 0.0000 0.0000
# 4 0.0000 0.0000 0.0000 27.8464 0.0000 0.0000
# 5 0.0000 0.0000 0.0000 0.0000 14.9591 0.0000
# 6 0.0000 0.0000 0.0000 0.0000 0.0000 48.9836
#
#
#
# Elastic Compliance Matrix: (Units=1/GPa)
#
#
# Indices 1 2 3 4 5 6 
#
# 1 0.010413 -0.002785 0.000969 0.000000 0.000000 0.000000
# 2 -0.002785 0.007978 -0.003883 0.000000 0.000000 0.000000
# 3 0.000969 -0.003883 0.023633 0.000000 0.000000 0.000000
# 4 0.000000 0.000000 0.000000 0.035911 0.000000 0.000000
# 5 0.000000 0.000000 0.000000 0.000000 0.066849 0.000000
# 6 0.000000 0.000000 0.000000 0.000000 0.000000 0.020415
#
#
# Mechanical properties :
#
#
# Convention : Reuss Voigt Hill
#
# Bulk Modulus (GPa) = 32.65347 47.50783 40.08065
# Shear Modulus (GPa) = 26.76563 34.28853 30.52708
#
# Velocity S-wave (km/s) = 3.44578 3.90007 3.67994
# Velocity P-wave (km/s) = 5.50604 6.43083 5.98632
#
# Compressibility (1/GPa) = 0.03062461
#
# Stress axis : x y z
#
# Youngs Moduli (GPa) = 96.03578 125.33786 42.31416
#
# Poissons Ratio (x) = 0.34910 -0.04099
# Poissons Ratio (y) = 0.26749 0.16431
# Poissons Ratio (z) = -0.09303 0.48670
#
# Static dielectric constant tensor:
#      x y z
#    x 4.017130 0.000000 0.000000 
#    y 0.000000 4.141170 0.000000 
#    z 0.000000 0.000000 3.486920 
# 
# 
# High freq. dielectric constant tensor:
#      x y z
#    x 1.893160 0.000000 0.000000 
#    y 0.000000 1.903230 0.000000 
#    z 0.000000 0.000000 1.839620 
# 
# From -- ./inp_files/22240.got.cif
#   From: 2010.03.12/outbox.cif.g09.slc.cpg/sg56_12_cif.got.tgz:22240.got - 2010.04.16 15:33:40.
