data_PCOD8228623
_publ_section_title
;
Structure prediction by ZEFSAII (Michael W. Deem and Ramdas Pophale) SiO2 
 PCOD8228623
Probable space group: P C C N
;
_chemical_formula_sum "Si O2"
_cell_formula_units_Z 64
_cell_length_a 8.132511
_cell_length_b 24.272922
_cell_length_c 14.095980
_cell_angle_alpha 90.000000
_cell_angle_beta 90.000000
_cell_angle_gamma 90.000000
_cell_volume 2782.543706
_symmetry_space_group_name_H-M "P C C N"
_symmetry_group_IT_number 56
_symmetry_cell_setting 'orthorhombic'
loop_
_space_group_symop_operation_xyz
x,y,z
1/2-x,1/2-y,z
1/2+x,-y,1/2-z
-x,1/2+y,1/2-z
-x,-y,-z
1/2+x,1/2+y,-z
1/2-x,y,1/2+z
x,1/2-y,1/2+z
loop_
_atom_site_type_symbol
_atom_site_label
_atom_site_fract_x
_atom_site_fract_y
_atom_site_fract_z
Si Si1 0.923615 0.054556 0.458006
Si Si2 0.164336 0.603202 0.401333
Si Si3 0.489451 0.034198 0.754627
Si Si4 0.945554 0.747774 0.679352
Si Si5 0.446220 0.825724 0.832170
Si Si6 0.429533 0.168033 0.970286
Si Si7 0.379675 0.079984 0.278385
Si Si8 0.070392 0.152511 0.952427
O O1 0.761224 0.070681 0.515892
O O2 0.894907 0.047501 0.345618
O O3 0.055531 0.102634 0.469237
O O4 0.000000 0.000000 0.500000
O O5 0.272297 0.642188 0.332117
O O6 0.072810 0.558413 0.338557
O O7 0.032442 0.640953 0.453950
O O8 0.305106 0.057248 0.764330
O O9 0.487636 0.967827 0.744064
O O10 0.750000 0.750000 0.700199
O O11 0.996362 0.805424 0.629034
O O12 0.012607 0.699788 0.610233
O O13 0.046188 0.732531 0.775186
O O14 0.585681 0.867957 0.791269
O O15 0.475818 0.807185 0.940164
O O16 0.239255 0.180818 0.985414
O O17 0.401035 0.098352 0.387554
#
# Coordination Sequence:
#
# PCOD8228623 Si02
#       8
#     8   8   8   8   8   8   8   8
#     4  11  24  44  68  97 145 186 238 297 363 427
#     4  11  26  41  69 104 143 190 232 302 360 443
#     4  12  24  42  68 102 140 189 246 287 366 421
#     4   9  21  40  72  99 128 176 230 294 345 429
#     4  10  22  43  69  98 138 178 230 288 367 417
#     4  10  20  44  69  98 132 181 235 293 353 432
#     4  11  23  41  68  98 139 188 238 298 347 439
#     4  10  22  43  66 100 140 179 240 292 364 419
#
# _framework density 23.000534999999999
#
# number of rings (size 3 to 8) (size 9 to 14) (size 15 to 20)
#    0.000    1.500    1.250    3.750    5.250    2.000 
#    2.250    2.500    0.000    0.000    0.000    0.000 
#    0.000    0.000    0.000    0.000    0.000    0.000 
#
# Total GULP energy -793247.446609 kJ/mol
# GULP energy per Si atom -12394.491353 kJ/mol
# Density = 2.294818 g / cm^3
# Si number density = 23.000535 Si / 1000 Ang^3
#
#
#
# Elastic Constant Matrix: (Units=GPa)
#
#
# Indices 1 2 3 4 5 6 
#
# 1 70.1907 34.3168 24.3831 0.0000 0.0000 0.0000
# 2 34.3168 102.7959 47.2090 0.0000 0.0000 0.0000
# 3 24.3831 47.2090 96.7755 0.0000 0.0000 0.0000
# 4 0.0000 0.0000 0.0000 43.3492 0.0000 0.0000
# 5 0.0000 0.0000 0.0000 0.0000 40.2259 0.0000
# 6 0.0000 0.0000 0.0000 0.0000 0.0000 22.7426
#
#
#
# Elastic Compliance Matrix: (Units=1/GPa)
#
#
# Indices 1 2 3 4 5 6 
#
# 1 0.017318 -0.004868 -0.001989 0.000000 0.000000 0.000000
# 2 -0.004868 0.013905 -0.005557 0.000000 0.000000 0.000000
# 3 -0.001989 -0.005557 0.013545 0.000000 0.000000 0.000000
# 4 0.000000 0.000000 0.000000 0.023068 0.000000 0.000000
# 5 0.000000 0.000000 0.000000 0.000000 0.024860 0.000000
# 6 0.000000 0.000000 0.000000 0.000000 0.000000 0.043970
#
#
# Mechanical properties :
#
#
# Convention : Reuss Voigt Hill
#
# Bulk Modulus (GPa) = 50.14750 53.50887 51.82819
# Shear Modulus (GPa) = 29.73723 32.18709 30.96216
#
# Velocity S-wave (km/s) = 3.59958 3.74492 3.67297
# Velocity P-wave (km/s) = 6.25508 6.48182 6.36946
#
# Compressibility (1/GPa) = 0.01994117
#
# Stress axis : x y z
#
# Youngs Moduli (GPa) = 57.74436 71.91666 73.82880
#
# Poissons Ratio (x) = 0.35009 0.14682
# Poissons Ratio (y) = 0.28110 0.41024
# Poissons Ratio (z) = 0.11483 0.39961
#
# Static dielectric constant tensor:
#      x y z
#    x 3.409000 0.000000 0.000000 
#    y 0.000000 4.336740 0.000000 
#    z 0.000000 0.000000 4.513770 
# 
# 
# High freq. dielectric constant tensor:
#      x y z
#    x 1.889880 0.000000 0.000000 
#    y 0.000000 1.911710 0.000000 
#    z 0.000000 0.000000 1.917380 
# 
# From -- ./inp_files/11072.got.cif
#   From: 2010.03.12/outbox.cif.g09.slc.cpg/sg56_6_cif.got.tgz:11072.got - 2010.04.16 15:33:40.
