data_PCOD8228256
_publ_section_title
;
Structure prediction by ZEFSAII (Michael W. Deem and Ramdas Pophale) SiO2 
 PCOD8228256
Probable space group: P C C N
;
_chemical_formula_sum "Si O2"
_cell_formula_units_Z 52
_cell_length_a 8.526294
_cell_length_b 14.872573
_cell_length_c 18.348295
_cell_angle_alpha 90.000000
_cell_angle_beta 90.000000
_cell_angle_gamma 90.000000
_cell_volume 2326.709307
_symmetry_space_group_name_H-M "P C C N"
_symmetry_group_IT_number 56
_symmetry_cell_setting 'orthorhombic'
loop_
_space_group_symop_operation_xyz
x,y,z
1/2-x,1/2-y,z
1/2+x,-y,1/2-z
-x,1/2+y,1/2-z
-x,-y,-z
1/2+x,1/2+y,-z
1/2-x,y,1/2+z
x,1/2-y,1/2+z
loop_
_atom_site_type_symbol
_atom_site_label
_atom_site_fract_x
_atom_site_fract_y
_atom_site_fract_z
Si Si1 0.675646 0.155670 0.068212
Si Si2 0.002848 0.571107 0.411783
Si Si3 0.341500 0.403816 0.236271
Si Si4 0.133750 0.112087 0.939560
Si Si5 0.519959 0.958629 0.824642
Si Si6 0.250000 0.250000 0.340343
Si Si7 0.502257 0.918337 0.054087
O O1 0.750000 0.250000 0.090399
O O2 0.817901 0.086559 0.065996
O O3 0.554592 0.122863 0.129303
O O4 0.591168 0.161510 0.988067
O O5 0.008251 0.461946 0.409823
O O6 0.946830 0.613754 0.335796
O O7 0.892278 0.617510 0.473243
O O8 0.159682 0.413983 0.218761
O O9 0.393205 0.498698 0.270296
O O10 0.351180 0.318917 0.290438
O O11 0.113663 0.203545 0.891881
O O12 0.319104 0.099799 0.923890
O O13 0.584820 0.042314 0.874075
O O14 0.500000 0.000000 0.000000
#
# Coordination Sequence:
#
# PCOD8228256 Si02
#       7
#     8   8   8   8   8   4   8
#     4  11  24  39  65 104 138 171 230 287 335 404
#     4  11  24  43  72 102 133 180 234 278 349 417
#     4  12  26  44  72  98 138 185 228 284 349 417
#     4  11  23  44  70 100 133 181 233 288 334 423
#     4  11  23  45  66  91 136 187 225 273 352 417
#     4  12  26  44  64 100 142 174 228 288 346 404
#     4  10  19  42  65  91 129 182 223 276 338 400
#
# _framework density 22.349160999999999
#
# number of rings (size 3 to 8) (size 9 to 14) (size 15 to 20)
#    0.000    0.923    4.615    3.692    6.462    0.615 
#    0.000    0.000    0.000    1.846    0.000    0.000 
#    0.000    0.000    0.000    0.000    0.000    0.000 
#
# Total GULP energy -644242.703062 kJ/mol
# GULP energy per Si atom -12389.282751 kJ/mol
# Density = 2.229829 g / cm^3
# Si number density = 22.349161 Si / 1000 Ang^3
#
#
#
# Elastic Constant Matrix: (Units=GPa)
#
#
# Indices 1 2 3 4 5 6 
#
# 1 81.1801 45.0674 34.2925 0.0000 0.0000 0.0000
# 2 45.0674 96.2204 65.2815 0.0000 0.0000 0.0000
# 3 34.2925 65.2815 140.9515 0.0000 0.0000 0.0000
# 4 0.0000 0.0000 0.0000 35.2187 0.0000 0.0000
# 5 0.0000 0.0000 0.0000 0.0000 40.3176 0.0000
# 6 0.0000 0.0000 0.0000 0.0000 0.0000 27.1417
#
#
#
# Elastic Compliance Matrix: (Units=1/GPa)
#
#
# Indices 1 2 3 4 5 6 
#
# 1 0.016687 -0.007380 -0.000642 0.000000 0.000000 0.000000
# 2 -0.007380 0.018419 -0.006735 0.000000 0.000000 0.000000
# 3 -0.000642 -0.006735 0.010370 0.000000 0.000000 0.000000
# 4 0.000000 0.000000 0.000000 0.028394 0.000000 0.000000
# 5 0.000000 0.000000 0.000000 0.000000 0.024803 0.000000
# 6 0.000000 0.000000 0.000000 0.000000 0.000000 0.036844
#
#
# Mechanical properties :
#
#
# Convention : Reuss Voigt Hill
#
# Bulk Modulus (GPa) = 62.65021 67.51497 65.08259
# Shear Modulus (GPa) = 29.35112 32.11630 30.73371
#
# Velocity S-wave (km/s) = 3.62788 3.79492 3.71234
# Velocity P-wave (km/s) = 6.75588 7.03397 6.89633
#
# Compressibility (1/GPa) = 0.01596164
#
# Stress axis : x y z
#
# Youngs Moduli (GPa) = 59.92865 54.29128 96.43085
#
# Poissons Ratio (x) = 0.40069 0.06186
# Poissons Ratio (y) = 0.44229 0.64948
# Poissons Ratio (z) = 0.03844 0.36566
#
# Static dielectric constant tensor:
#      x y z
#    x 4.069710 0.000000 0.000000 
#    y 0.000000 4.070390 0.000000 
#    z 0.000000 0.000000 4.578980 
# 
# 
# High freq. dielectric constant tensor:
#      x y z
#    x 1.864190 0.000000 0.000000 
#    y 0.000000 1.871220 0.000000 
#    z 0.000000 0.000000 1.895980 
# 
# From -- ./inp_files/15068.got.cif
#   From: 2010.03.12/outbox.cif.g09.slc.cpg/sg56_8_cif.got.tgz:15068.got - 2010.04.16 15:33:40.
