data_PCOD8228867
_publ_section_title
;
Structure prediction by ZEFSAII (Michael W. Deem and Ramdas Pophale) SiO2 
 PCOD8228867
Probable space group: P C C N
;
_chemical_formula_sum "Si O2"
_cell_formula_units_Z 40
_cell_length_a 8.736520
_cell_length_b 15.858163
_cell_length_c 12.752774
_cell_angle_alpha 90.000000
_cell_angle_beta 90.000000
_cell_angle_gamma 90.000000
_cell_volume 1766.835091
_symmetry_space_group_name_H-M "P C C N"
_symmetry_group_IT_number 56
_symmetry_cell_setting 'orthorhombic'
loop_
_space_group_symop_operation_xyz
x,y,z
1/2-x,1/2-y,z
1/2+x,-y,1/2-z
-x,1/2+y,1/2-z
-x,-y,-z
1/2+x,1/2+y,-z
1/2-x,y,1/2+z
x,1/2-y,1/2+z
loop_
_atom_site_type_symbol
_atom_site_label
_atom_site_fract_x
_atom_site_fract_y
_atom_site_fract_z
Si Si1 0.454267 0.440705 0.406305
Si Si2 0.162453 0.168718 0.898490
Si Si3 0.453007 0.600538 0.285982
Si Si4 0.152973 0.669482 0.219545
Si Si5 0.576185 0.743586 0.883803
O O1 0.500000 0.500000 0.500000
O O2 0.283919 0.404925 0.424504
O O3 0.475382 0.501448 0.304674
O O4 0.574077 0.365435 0.386081
O O5 0.250000 0.250000 0.850572
O O6 0.039511 0.133614 0.817281
O O7 0.072159 0.199547 0.002395
O O8 0.270637 0.605132 0.272006
O O9 0.506935 0.660398 0.384281
O O10 0.250000 0.750000 0.184137
O O11 0.019947 0.688017 0.303025
O O12 0.750000 0.750000 0.844066
#
# Coordination Sequence:
#
# PCOD8228867 Si02
#       5
#     8   8   8   8   8
#     4  12  25  41  64  99 134 171 219 278 334 387
#     4  11  23  42  69  95 129 177 220 263 327 404
#     4  11  23  41  65  96 133 170 218 277 330 385
#     4  10  23  43  67  94 130 174 221 271 326 398
#     4  10  21  41  68  96 128 176 222 263 326 402
#
# _framework density 22.639351999999999
#
# number of rings (size 3 to 8) (size 9 to 14) (size 15 to 20)
#    0.000    1.200    0.000    7.800    0.000    3.200 
#    0.000   13.000    0.000    0.000    0.000    0.000 
#    0.000    0.000    0.000    0.000    0.000    0.000 
#
# Total GULP energy -495818.673499 kJ/mol
# GULP energy per Si atom -12395.466837 kJ/mol
# Density = 2.258782 g / cm^3
# Si number density = 22.639352 Si / 1000 Ang^3
#
#
#
# Elastic Constant Matrix: (Units=GPa)
#
#
# Indices 1 2 3 4 5 6 
#
# 1 139.1359 40.9950 56.0770 0.0000 0.0000 0.0000
# 2 40.9950 106.6825 60.0787 0.0000 0.0000 0.0000
# 3 56.0770 60.0787 115.2018 0.0000 0.0000 0.0000
# 4 0.0000 0.0000 0.0000 42.6835 0.0000 0.0000
# 5 0.0000 0.0000 0.0000 0.0000 25.5826 0.0000
# 6 0.0000 0.0000 0.0000 0.0000 0.0000 37.0747
#
#
#
# Elastic Compliance Matrix: (Units=1/GPa)
#
#
# Indices 1 2 3 4 5 6 
#
# 1 0.009090 -0.001418 -0.003686 0.000000 0.000000 0.000000
# 2 -0.001418 0.013492 -0.006346 0.000000 0.000000 0.000000
# 3 -0.003686 -0.006346 0.013784 0.000000 0.000000 0.000000
# 4 0.000000 0.000000 0.000000 0.023428 0.000000 0.000000
# 5 0.000000 0.000000 0.000000 0.000000 0.039089 0.000000
# 6 0.000000 0.000000 0.000000 0.000000 0.000000 0.026973
#
#
# Mechanical properties :
#
#
# Convention : Reuss Voigt Hill
#
# Bulk Modulus (GPa) = 74.25161 75.03575 74.64368
# Shear Modulus (GPa) = 32.62749 34.65945 33.64347
#
# Velocity S-wave (km/s) = 3.80041 3.91697 3.85913
# Velocity P-wave (km/s) = 7.21985 7.32617 7.27320
#
# Compressibility (1/GPa) = 0.01346772
#
# Stress axis : x y z
#
# Youngs Moduli (GPa) = 110.00677 74.11637 72.54714
#
# Poissons Ratio (x) = 0.10507 0.26738
# Poissons Ratio (y) = 0.15594 0.46041
# Poissons Ratio (z) = 0.40545 0.47037
#
# Static dielectric constant tensor:
#      x y z
#    x 4.897370 0.000000 0.000000 
#    y 0.000000 4.643050 0.000000 
#    z 0.000000 0.000000 3.909090 
# 
# 
# High freq. dielectric constant tensor:
#      x y z
#    x 1.902870 0.000000 0.000000 
#    y 0.000000 1.902760 0.000000 
#    z 0.000000 0.000000 1.888480 
# 
# From -- ./inp_files/10344.got.cif
#   From: 2010.03.12/outbox.cif.g09.slc.cpg/sg56_6_cif.got.tgz:10344.got - 2010.04.16 15:33:40.
