data_PCOD8228222
_publ_section_title
;
Structure prediction by ZEFSAII (Michael W. Deem and Ramdas Pophale) SiO2 
 PCOD8228222
Probable space group: P C C N
;
_chemical_formula_sum "Si O2"
_cell_formula_units_Z 48
_cell_length_a 14.309606
_cell_length_b 13.597987
_cell_length_c 11.331417
_cell_angle_alpha 90.000000
_cell_angle_beta 90.000000
_cell_angle_gamma 90.000000
_cell_volume 2204.887928
_symmetry_space_group_name_H-M "P C C N"
_symmetry_group_IT_number 56
_symmetry_cell_setting 'orthorhombic'
loop_
_space_group_symop_operation_xyz
x,y,z
1/2-x,1/2-y,z
1/2+x,-y,1/2-z
-x,1/2+y,1/2-z
-x,-y,-z
1/2+x,1/2+y,-z
1/2-x,y,1/2+z
x,1/2-y,1/2+z
loop_
_atom_site_type_symbol
_atom_site_label
_atom_site_fract_x
_atom_site_fract_y
_atom_site_fract_z
Si Si1 0.107046 0.608482 0.469289
Si Si2 0.984149 0.831972 0.175583
Si Si3 0.424659 0.522415 0.721212
Si Si4 0.933533 0.866153 0.571006
Si Si5 0.203147 0.980941 0.509407
Si Si6 0.095254 0.817232 0.396058
O O1 0.071765 0.584848 0.339301
O O2 0.184938 0.529570 0.511881
O O3 0.140812 0.721830 0.459098
O O4 0.021887 0.607209 0.562238
O O5 0.922378 0.736535 0.141458
O O6 0.072259 0.799223 0.257500
O O7 0.919281 0.906908 0.247853
O O8 0.518920 0.548827 0.650282
O O9 0.335662 0.547547 0.639001
O O10 0.997544 0.846477 0.457809
O O11 0.833133 0.909962 0.528916
O O12 0.169863 0.903726 0.410291
#
# Coordination Sequence:
#
# PCOD8228222 Si02
#       6
#     8   8   8   8   8   8
#     4  11  25  36  59  99 128 157 212 273 322 356
#     4  11  21  39  66  91 122 167 218 264 299 395
#     4  11  21  40  63  87 123 169 218 252 316 388
#     4  10  20  38  66  85 120 175 212 243 316 395
#     4  11  22  39  61  91 131 168 201 267 329 374
#     4  10  19  39  60  92 125 165 205 251 316 390
#
# _framework density 21.769814
#
# number of rings (size 3 to 8) (size 9 to 14) (size 15 to 20)
#    0.000    1.333    5.000    2.000    2.333    0.000 
#    0.000    0.833    0.000    2.000    0.000    0.000 
#    0.000    0.000    0.000    0.000    0.000    0.000 
#
# Total GULP energy -594990.861500 kJ/mol
# GULP energy per Si atom -12395.642948 kJ/mol
# Density = 2.172027 g / cm^3
# Si number density = 21.769814 Si / 1000 Ang^3
#
#
#
# Elastic Constant Matrix: (Units=GPa)
#
#
# Indices 1 2 3 4 5 6 
#
# 1 55.3666 25.6611 15.5049 0.0000 0.0000 0.0000
# 2 25.6611 113.9372 26.6976 0.0000 0.0000 0.0000
# 3 15.5049 26.6976 117.3993 0.0000 0.0000 0.0000
# 4 0.0000 0.0000 0.0000 42.2133 0.0000 0.0000
# 5 0.0000 0.0000 0.0000 0.0000 15.5297 0.0000
# 6 0.0000 0.0000 0.0000 0.0000 0.0000 37.3001
#
#
#
# Elastic Compliance Matrix: (Units=1/GPa)
#
#
# Indices 1 2 3 4 5 6 
#
# 1 0.020502 -0.004207 -0.001751 0.000000 0.000000 0.000000
# 2 -0.004207 0.010134 -0.001749 0.000000 0.000000 0.000000
# 3 -0.001751 -0.001749 0.009147 0.000000 0.000000 0.000000
# 4 0.000000 0.000000 0.000000 0.023689 0.000000 0.000000
# 5 0.000000 0.000000 0.000000 0.000000 0.064393 0.000000
# 6 0.000000 0.000000 0.000000 0.000000 0.000000 0.026810
#
#
# Mechanical properties :
#
#
# Convention : Reuss Voigt Hill
#
# Bulk Modulus (GPa) = 41.03626 46.93670 43.98648
# Shear Modulus (GPa) = 28.05661 33.59791 30.82726
#
# Velocity S-wave (km/s) = 3.59386 3.93278 3.76713
# Velocity P-wave (km/s) = 6.00933 6.49843 6.25866
#
# Compressibility (1/GPa) = 0.02436869
#
# Stress axis : x y z
#
# Youngs Moduli (GPa) = 48.77648 98.67660 109.32659
#
# Poissons Ratio (x) = 0.41515 0.19142
# Poissons Ratio (y) = 0.20521 0.19121
# Poissons Ratio (z) = 0.08540 0.17258
#
# Static dielectric constant tensor:
#      x y z
#    x 3.321490 0.000000 0.000000 
#    y 0.000000 4.141200 0.000000 
#    z 0.000000 0.000000 4.123020 
# 
# 
# High freq. dielectric constant tensor:
#      x y z
#    x 1.796410 0.000000 0.000000 
#    y 0.000000 1.866510 0.000000 
#    z 0.000000 0.000000 1.872110 
# 
# From -- ./inp_files/7807.got.cif
#   From: 2010.03.12/outbox.cif.g09.slc.cpg/sg56_4_cif.got.tgz:7807.got - 2010.04.16 15:33:40.
