data_PCOD8228812
_publ_section_title
;
Structure prediction by ZEFSAII (Michael W. Deem and Ramdas Pophale) SiO2 
 PCOD8228812
Probable space group: P C C N
;
_chemical_formula_sum "Si O2"
_cell_formula_units_Z 40
_cell_length_a 23.699756
_cell_length_b 5.722147
_cell_length_c 13.176139
_cell_angle_alpha 90.000000
_cell_angle_beta 90.000000
_cell_angle_gamma 90.000000
_cell_volume 1786.862164
_symmetry_space_group_name_H-M "P C C N"
_symmetry_group_IT_number 56
_symmetry_cell_setting 'orthorhombic'
loop_
_space_group_symop_operation_xyz
x,y,z
1/2-x,1/2-y,z
1/2+x,-y,1/2-z
-x,1/2+y,1/2-z
-x,-y,-z
1/2+x,1/2+y,-z
1/2-x,y,1/2+z
x,1/2-y,1/2+z
loop_
_atom_site_type_symbol
_atom_site_label
_atom_site_fract_x
_atom_site_fract_y
_atom_site_fract_z
Si Si1 0.359984 0.976614 0.795111
Si Si2 0.218097 0.496529 0.612984
Si Si3 0.939665 0.325402 0.839280
Si Si4 0.625582 0.315786 0.021647
Si Si5 0.060064 0.361647 0.344943
O O1 0.384155 0.204473 0.849418
O O2 0.305175 0.025373 0.727406
O O3 0.411519 0.876596 0.728436
O O4 0.340614 0.810376 0.887605
O O5 0.250000 0.750000 0.603508
O O6 0.167655 0.502060 0.531802
O O7 0.250000 0.250000 0.590770
O O8 0.944014 0.557366 0.772358
O O9 0.002126 0.260334 0.876167
O O10 0.900101 0.365091 0.938163
O O11 0.571136 0.440290 0.071413
#
# Coordination Sequence:
#
# PCOD8228812 Si02
#       5
#     8   8   8   8   8
#     4  10  24  43  68  99 135 179 232 288 347 430
#     4  11  28  51  75  99 139 186 237 306 369 412
#     4  10  21  40  64  99 143 181 221 273 355 416
#     4  10  25  42  68 103 134 177 241 291 347 427
#     4  11  21  40  67  99 141 186 225 282 347 432
#
# _framework density 22.385611000000001
#
# number of rings (size 3 to 8) (size 9 to 14) (size 15 to 20)
#    0.000    1.600    2.000    0.600   11.200    3.200 
#    0.000    0.000    0.000    0.000    0.000    0.000 
#    0.000    0.000    0.000    0.000    0.000    0.000 
#
# Total GULP energy -495731.864989 kJ/mol
# GULP energy per Si atom -12393.296625 kJ/mol
# Density = 2.233466 g / cm^3
# Si number density = 22.385611 Si / 1000 Ang^3
#
#
#
# Elastic Constant Matrix: (Units=GPa)
#
#
# Indices 1 2 3 4 5 6 
#
# 1 90.4461 31.6712 47.7566 0.0000 0.0000 0.0000
# 2 31.6712 85.1576 26.8686 0.0000 0.0000 0.0000
# 3 47.7566 26.8686 135.7559 0.0000 0.0000 0.0000
# 4 0.0000 0.0000 0.0000 27.0857 0.0000 0.0000
# 5 0.0000 0.0000 0.0000 0.0000 32.2757 0.0000
# 6 0.0000 0.0000 0.0000 0.0000 0.0000 35.8201
#
#
#
# Elastic Compliance Matrix: (Units=1/GPa)
#
#
# Indices 1 2 3 4 5 6 
#
# 1 0.014823 -0.004125 -0.004398 0.000000 0.000000 0.000000
# 2 -0.004125 0.013673 -0.001255 0.000000 0.000000 0.000000
# 3 -0.004398 -0.001255 0.009162 0.000000 0.000000 0.000000
# 4 0.000000 0.000000 0.000000 0.036920 0.000000 0.000000
# 5 0.000000 0.000000 0.000000 0.000000 0.030983 0.000000
# 6 0.000000 0.000000 0.000000 0.000000 0.000000 0.027917
#
#
# Mechanical properties :
#
#
# Convention : Reuss Voigt Hill
#
# Bulk Modulus (GPa) = 55.24441 58.21695 56.73068
# Shear Modulus (GPa) = 31.43301 32.70715 32.07008
#
# Velocity S-wave (km/s) = 3.75128 3.82655 3.78910
# Velocity P-wave (km/s) = 6.59507 6.75176 6.67387
#
# Compressibility (1/GPa) = 0.01810138
#
# Stress axis : x y z
#
# Youngs Moduli (GPa) = 67.46258 73.13610 109.15006
#
# Poissons Ratio (x) = 0.30170 0.48005
# Poissons Ratio (y) = 0.27830 0.13698
# Poissons Ratio (z) = 0.29670 0.09178
#
# Static dielectric constant tensor:
#      x y z
#    x 3.867100 0.000000 0.000000 
#    y 0.000000 3.882070 0.000000 
#    z 0.000000 0.000000 4.195230 
# 
# 
# High freq. dielectric constant tensor:
#      x y z
#    x 1.872940 0.000000 0.000000 
#    y 0.000000 1.867880 0.000000 
#    z 0.000000 0.000000 1.896820 
# 
# From -- ./inp_files/8998.got.cif
#   From: 2010.03.12/outbox.cif.g09.slc.cpg/sg56_5_cif.got.tgz:8998.got - 2010.04.16 15:33:40.
