data_PCOD8228669
_publ_section_title
;
Structure prediction by ZEFSAII (Michael W. Deem and Ramdas Pophale) SiO2 
 PCOD8228669
Probable space group: P C C N
;
_chemical_formula_sum "Si O2"
_cell_formula_units_Z 60
_cell_length_a 10.878271
_cell_length_b 17.359654
_cell_length_c 14.762467
_cell_angle_alpha 90.000000
_cell_angle_beta 90.000000
_cell_angle_gamma 90.000000
_cell_volume 2787.788861
_symmetry_space_group_name_H-M "P C C N"
_symmetry_group_IT_number 56
_symmetry_cell_setting 'orthorhombic'
loop_
_space_group_symop_operation_xyz
x,y,z
1/2-x,1/2-y,z
1/2+x,-y,1/2-z
-x,1/2+y,1/2-z
-x,-y,-z
1/2+x,1/2+y,-z
1/2-x,y,1/2+z
x,1/2-y,1/2+z
loop_
_atom_site_type_symbol
_atom_site_label
_atom_site_fract_x
_atom_site_fract_y
_atom_site_fract_z
Si Si1 0.750000 0.750000 0.648969
Si Si2 0.142202 0.914075 0.074365
Si Si3 0.082498 0.641487 0.045236
Si Si4 0.885748 0.356811 0.158188
Si Si5 0.835609 0.048004 0.116680
Si Si6 0.943828 0.996307 0.767822
Si Si7 0.480581 0.778555 0.677965
Si Si8 0.656130 0.588749 0.612186
O O1 0.626087 0.772981 0.703770
O O2 0.714665 0.673184 0.591815
O O3 0.283875 0.891904 0.063820
O O4 0.049395 0.851787 0.115824
O O5 0.138050 0.985561 0.143524
O O6 0.088347 0.931552 0.974213
O O7 0.064383 0.706765 0.120230
O O8 0.972692 0.579768 0.058006
O O9 0.070353 0.670100 0.941346
O O10 0.741938 0.378975 0.152403
O O11 0.956376 0.432081 0.197624
O O12 0.906988 0.285533 0.226970
O O13 0.919491 0.024592 0.200518
O O14 0.747855 0.978472 0.082703
O O15 0.878061 0.923860 0.718878
#
# Coordination Sequence:
#
# PCOD8228669 Si02
#       8
#     4   8   8   8   8   8   8   8
#     4  10  22  44  62  84 126 164 212 256 318 384
#     4  10  21  39  63  94 126 164 213 266 318 378
#     4  10  22  41  62  93 130 172 208 261 323 379
#     4   9  21  40  63  96 122 166 213 258 312 382
#     4  10  21  40  63  94 129 161 213 270 312 377
#     4  10  21  36  62  90 123 166 208 261 321 365
#     4  10  21  43  65  88 130 167 210 264 321 383
#     4  10  22  38  62  89 123 168 207 262 312 384
#
# _framework density 21.522432999999999
#
# number of rings (size 3 to 8) (size 9 to 14) (size 15 to 20)
#    0.000    2.133    0.000    2.400    5.600    4.800 
#    7.200    6.667    0.000    0.000    0.000    0.000 
#    0.000    0.000    0.000    0.000    0.000    0.000 
#
# Total GULP energy -743336.446853 kJ/mol
# GULP energy per Si atom -12388.940781 kJ/mol
# Density = 2.147345 g / cm^3
# Si number density = 21.522433 Si / 1000 Ang^3
#
#
#
# Elastic Constant Matrix: (Units=GPa)
#
#
# Indices 1 2 3 4 5 6 
#
# 1 97.0183 30.7564 50.6191 0.0000 0.0000 0.0000
# 2 30.7564 51.9899 34.9781 0.0000 0.0000 0.0000
# 3 50.6191 34.9781 142.1844 0.0000 0.0000 0.0000
# 4 0.0000 0.0000 0.0000 31.0587 0.0000 0.0000
# 5 0.0000 0.0000 0.0000 0.0000 35.3270 0.0000
# 6 0.0000 0.0000 0.0000 0.0000 0.0000 29.0802
#
#
#
# Elastic Compliance Matrix: (Units=1/GPa)
#
#
# Indices 1 2 3 4 5 6 
#
# 1 0.014030 -0.005919 -0.003539 0.000000 0.000000 0.000000
# 2 -0.005919 0.025547 -0.004177 0.000000 0.000000 0.000000
# 3 -0.003539 -0.004177 0.009321 0.000000 0.000000 0.000000
# 4 0.000000 0.000000 0.000000 0.032197 0.000000 0.000000
# 5 0.000000 0.000000 0.000000 0.000000 0.028307 0.000000
# 6 0.000000 0.000000 0.000000 0.000000 0.000000 0.034388
#
#
# Mechanical properties :
#
#
# Convention : Reuss Voigt Hill
#
# Bulk Modulus (GPa) = 46.23872 58.21109 52.22490
# Shear Modulus (GPa) = 28.04759 30.74912 29.39836
#
# Velocity S-wave (km/s) = 3.61387 3.78392 3.69987
# Velocity P-wave (km/s) = 6.24052 6.79677 6.52458
#
# Compressibility (1/GPa) = 0.02162690
#
# Stress axis : x y z
#
# Youngs Moduli (GPa) = 71.27517 39.14412 107.28948
#
# Poissons Ratio (x) = 0.23170 0.37967
# Poissons Ratio (y) = 0.42189 0.44818
# Poissons Ratio (z) = 0.25222 0.16352
#
# Static dielectric constant tensor:
#      x y z
#    x 4.050710 0.000000 0.000000 
#    y 0.000000 3.963340 0.000000 
#    z 0.000000 0.000000 4.170610 
# 
# 
# High freq. dielectric constant tensor:
#      x y z
#    x 1.847950 0.000000 0.000000 
#    y 0.000000 1.834500 0.000000 
#    z 0.000000 0.000000 1.840380 
# 
# From -- ./inp_files/11816.got.cif
#   From: 2010.03.12/outbox.cif.g09.slc.cpg/sg56_6_cif.got.tgz:11816.got - 2010.04.16 15:33:40.
