data_PCOD8228047
_publ_section_title
;
Structure prediction by ZEFSAII (Michael W. Deem and Ramdas Pophale) SiO2 
 PCOD8228047
Probable space group: P C C N
;
_chemical_formula_sum "Si O2"
_cell_formula_units_Z 60
_cell_length_a 30.154544
_cell_length_b 5.109113
_cell_length_c 18.147256
_cell_angle_alpha 90.000000
_cell_angle_beta 90.000000
_cell_angle_gamma 90.000000
_cell_volume 2795.820207
_symmetry_space_group_name_H-M "P C C N"
_symmetry_group_IT_number 56
_symmetry_cell_setting 'orthorhombic'
loop_
_space_group_symop_operation_xyz
x,y,z
1/2-x,1/2-y,z
1/2+x,-y,1/2-z
-x,1/2+y,1/2-z
-x,-y,-z
1/2+x,1/2+y,-z
1/2-x,y,1/2+z
x,1/2-y,1/2+z
loop_
_atom_site_type_symbol
_atom_site_label
_atom_site_fract_x
_atom_site_fract_y
_atom_site_fract_z
Si Si1 0.662974 0.025409 0.305884
Si Si2 0.465178 0.953978 0.064429
Si Si3 0.094958 0.050450 0.061698
Si Si4 0.987216 0.923435 0.712927
Si Si5 0.896310 0.329565 0.181569
Si Si6 0.203362 0.125796 0.802605
Si Si7 0.126957 0.153763 0.901871
Si Si8 0.250000 0.750000 0.201840
O O1 0.638382 0.225593 0.248755
O O2 0.712556 0.088176 0.342911
O O3 0.630735 0.967000 0.373327
O O4 0.671408 0.780786 0.253114
O O5 0.439915 0.223664 0.081606
O O6 0.495582 0.866038 0.131681
O O7 0.430167 0.723263 0.047734
O O8 0.500000 0.000000 0.000000
O O9 0.121809 0.131908 0.989007
O O10 0.940927 0.073427 0.718992
O O11 0.019534 0.138361 0.750499
O O12 0.881691 0.547805 0.121731
O O13 0.905094 0.055640 0.139143
O O14 0.250000 0.250000 0.825061
O O15 0.177030 0.069814 0.878314
O O16 0.214497 0.872020 0.756956
#
# Coordination Sequence:
#
# PCOD8228047 Si02
#       8
#     8   8   8   8   8   8   8   4
#     4  10  22  38  65  94 129 167 211 267 327 389
#     4  12  26  46  65  92 135 180 215 267 331 396
#     4  12  26  42  66  96 135 172 218 267 331 386
#     4  12  24  40  63  96 125 162 218 273 316 365
#     4  11  22  40  64  89 123 166 215 261 310 376
#     4   9  20  38  64  93 123 166 216 263 317 386
#     4  11  22  41  62  92 119 167 212 256 307 379
#     4  10  18  40  64  94 124 166 212 254 334 386
#
# _framework density 21.460607
#
# number of rings (size 3 to 8) (size 9 to 14) (size 15 to 20)
#    0.000    1.067    1.333    6.000    1.867    1.067 
#    0.000    2.667    0.000    0.000    0.000    0.000 
#    0.000    0.000    0.000    0.000    0.000    0.000 
#
# Total GULP energy -743292.378317 kJ/mol
# GULP energy per Si atom -12388.206305 kJ/mol
# Density = 2.141176 g / cm^3
# Si number density = 21.460607 Si / 1000 Ang^3
#
#
#
# Elastic Constant Matrix: (Units=GPa)
#
#
# Indices 1 2 3 4 5 6 
#
# 1 116.2337 5.0118 42.4469 0.0000 0.0000 0.0000
# 2 5.0118 64.1146 5.3663 0.0000 0.0000 0.0000
# 3 42.4469 5.3663 111.9344 0.0000 0.0000 0.0000
# 4 0.0000 0.0000 0.0000 21.3082 0.0000 0.0000
# 5 0.0000 0.0000 0.0000 0.0000 36.4121 0.0000
# 6 0.0000 0.0000 0.0000 0.0000 0.0000 33.9594
#
#
#
# Elastic Compliance Matrix: (Units=1/GPa)
#
#
# Indices 1 2 3 4 5 6 
#
# 1 0.010000 -0.000466 -0.003770 0.000000 0.000000 0.000000
# 2 -0.000466 0.015682 -0.000575 0.000000 0.000000 0.000000
# 3 -0.003770 -0.000575 0.010391 0.000000 0.000000 0.000000
# 4 0.000000 0.000000 0.000000 0.046930 0.000000 0.000000
# 5 0.000000 0.000000 0.000000 0.000000 0.027463 0.000000
# 6 0.000000 0.000000 0.000000 0.000000 0.000000 0.029447
#
#
# Mechanical properties :
#
#
# Convention : Reuss Voigt Hill
#
# Bulk Modulus (GPa) = 37.80623 44.21475 41.01049
# Shear Modulus (GPa) = 31.57517 34.29978 32.93748
#
# Velocity S-wave (km/s) = 3.83993 4.00217 3.92189
# Velocity P-wave (km/s) = 6.10859 6.48105 6.29757
#
# Compressibility (1/GPa) = 0.02645066
#
# Stress axis : x y z
#
# Youngs Moduli (GPa) = 99.99852 63.76883 96.23768
#
# Poissons Ratio (x) = 0.02973 0.36280
# Poissons Ratio (y) = 0.04662 0.05534
# Poissons Ratio (z) = 0.37698 0.03667
#
# Static dielectric constant tensor:
#      x y z
#    x 3.718650 0.000000 0.000000 
#    y 0.000000 4.126130 0.000000 
#    z 0.000000 0.000000 3.650200 
# 
# 
# High freq. dielectric constant tensor:
#      x y z
#    x 1.861450 0.000000 0.000000 
#    y 0.000000 1.853470 0.000000 
#    z 0.000000 0.000000 1.821870 
# 
# From -- ./inp_files/17096.got.cif
#   From: 2010.03.12/outbox.cif.g09.slc.cpg/sg56_9_cif.got.tgz:17096.got - 2010.04.16 15:33:40.
