data_PCOD8228943
_publ_section_title
;
Structure prediction by ZEFSAII (Michael W. Deem and Ramdas Pophale) SiO2 
 PCOD8228943
Probable space group: P C C N
;
_chemical_formula_sum "Si O2"
_cell_formula_units_Z 36
_cell_length_a 13.901035
_cell_length_b 9.309252
_cell_length_c 13.197350
_cell_angle_alpha 90.000000
_cell_angle_beta 90.000000
_cell_angle_gamma 90.000000
_cell_volume 1707.845808
_symmetry_space_group_name_H-M "P C C N"
_symmetry_group_IT_number 56
_symmetry_cell_setting 'orthorhombic'
loop_
_space_group_symop_operation_xyz
x,y,z
1/2-x,1/2-y,z
1/2+x,-y,1/2-z
-x,1/2+y,1/2-z
-x,-y,-z
1/2+x,1/2+y,-z
1/2-x,y,1/2+z
x,1/2-y,1/2+z
loop_
_atom_site_type_symbol
_atom_site_label
_atom_site_fract_x
_atom_site_fract_y
_atom_site_fract_z
Si Si1 0.550153 0.308591 0.871067
Si Si2 0.250000 0.750000 0.028892
Si Si3 0.064514 0.399175 0.737456
Si Si4 0.451663 0.299978 0.559044
Si Si5 0.140196 0.517316 0.922680
O O1 0.662049 0.290816 0.898539
O O2 0.522087 0.170782 0.802697
O O3 0.526620 0.455553 0.813960
O O4 0.485943 0.310646 0.972414
O O5 0.228920 0.617757 0.952677
O O6 0.097183 0.287685 0.650764
O O7 0.153724 0.434770 0.814673
O O8 0.543683 0.390057 0.595896
O O9 0.370998 0.406473 0.515345
#
# Coordination Sequence:
#
# PCOD8228943 Si02
#       5
#     8   4   8   8   8
#     4  10  22  36  64  94 124 168 217 267 317 372
#     4  10  22  40  58  90 138 162 206 272 330 366
#     4  11  19  37  64  96 117 170 224 252 306 396
#     4   9  18  36  61  89 123 156 216 260 301 373
#     4   9  19  36  62  90 123 167 199 259 317 374
#
# _framework density 21.079187000000001
#
# number of rings (size 3 to 8) (size 9 to 14) (size 15 to 20)
#    0.000    2.222    2.222    2.000    0.000    0.889 
#    0.000    1.111    0.000    2.667    0.000    0.000 
#    0.000    0.000    0.000    0.000    0.000    0.000 
#
# Total GULP energy -446231.353754 kJ/mol
# GULP energy per Si atom -12395.315382 kJ/mol
# Density = 2.103121 g / cm^3
# Si number density = 21.079187 Si / 1000 Ang^3
#
#
#
# Elastic Constant Matrix: (Units=GPa)
#
#
# Indices 1 2 3 4 5 6 
#
# 1 64.7911 48.0046 47.0213 0.0000 0.0000 0.0000
# 2 48.0046 138.0358 87.5096 0.0000 0.0000 0.0000
# 3 47.0213 87.5096 163.5564 0.0000 0.0000 0.0000
# 4 0.0000 0.0000 0.0000 62.3802 0.0000 0.0000
# 5 0.0000 0.0000 0.0000 0.0000 18.2931 0.0000
# 6 0.0000 0.0000 0.0000 0.0000 0.0000 28.2836
#
#
#
# Elastic Compliance Matrix: (Units=1/GPa)
#
#
# Indices 1 2 3 4 5 6 
#
# 1 0.021954 -0.005499 -0.003370 0.000000 0.000000 0.000000
# 2 -0.005499 0.012340 -0.005022 0.000000 0.000000 0.000000
# 3 -0.003370 -0.005022 0.009770 0.000000 0.000000 0.000000
# 4 0.000000 0.000000 0.000000 0.016031 0.000000 0.000000
# 5 0.000000 0.000000 0.000000 0.000000 0.054665 0.000000
# 6 0.000000 0.000000 0.000000 0.000000 0.000000 0.035356
#
#
# Mechanical properties :
#
#
# Convention : Reuss Voigt Hill
#
# Bulk Modulus (GPa) = 61.41083 81.27270 71.34177
# Shear Modulus (GPa) = 27.27414 34.04791 30.66102
#
# Velocity S-wave (km/s) = 3.60097 4.02336 3.81801
# Velocity P-wave (km/s) = 6.81806 7.76034 7.30441
#
# Compressibility (1/GPa) = 0.01628377
#
# Stress axis : x y z
#
# Youngs Moduli (GPa) = 45.55061 81.03466 102.35740
#
# Poissons Ratio (x) = 0.44558 0.34489
# Poissons Ratio (y) = 0.25047 0.51402
# Poissons Ratio (z) = 0.15348 0.40694
#
# Static dielectric constant tensor:
#      x y z
#    x 3.168570 0.000000 0.000000 
#    y 0.000000 4.047740 0.000000 
#    z 0.000000 0.000000 4.256520 
# 
# 
# High freq. dielectric constant tensor:
#      x y z
#    x 1.761200 0.000000 0.000000 
#    y 0.000000 1.841270 0.000000 
#    z 0.000000 0.000000 1.850060 
# 
# From -- ./inp_files/10279.got.cif
#   From: 2010.03.12/outbox.cif.g09.slc.cpg/sg56_6_cif.got.tgz:10279.got - 2010.04.16 15:33:40.
