data_PCOD8228228
_publ_section_title
;
Structure prediction by ZEFSAII (Michael W. Deem and Ramdas Pophale) SiO2 
 PCOD8228228
Probable space group: P C C N
;
_chemical_formula_sum "Si O2"
_cell_formula_units_Z 48
_cell_length_a 8.525661
_cell_length_b 17.391870
_cell_length_c 15.282657
_cell_angle_alpha 90.000000
_cell_angle_beta 90.000000
_cell_angle_gamma 90.000000
_cell_volume 2266.069402
_symmetry_space_group_name_H-M "P C C N"
_symmetry_group_IT_number 56
_symmetry_cell_setting 'orthorhombic'
loop_
_space_group_symop_operation_xyz
x,y,z
1/2-x,1/2-y,z
1/2+x,-y,1/2-z
-x,1/2+y,1/2-z
-x,-y,-z
1/2+x,1/2+y,-z
1/2-x,y,1/2+z
x,1/2-y,1/2+z
loop_
_atom_site_type_symbol
_atom_site_label
_atom_site_fract_x
_atom_site_fract_y
_atom_site_fract_z
Si Si1 0.341700 0.377861 0.193798
Si Si2 0.076820 0.973701 0.091826
Si Si3 0.400339 0.339372 0.545272
Si Si4 0.228544 0.095130 0.884510
Si Si5 0.898627 0.205469 0.110595
Si Si6 0.202582 0.932870 0.462591
O O1 0.403574 0.461291 0.164829
O O2 0.201230 0.347027 0.133043
O O3 0.295143 0.375182 0.293954
O O4 0.487966 0.319623 0.188745
O O5 0.962053 0.905750 0.125774
O O6 0.253609 0.948709 0.064873
O O7 0.000000 0.000000 0.000000
O O8 0.285707 0.347199 0.461447
O O9 0.498120 0.259434 0.544561
O O10 0.522868 0.409084 0.542820
O O11 0.281568 0.007368 0.901197
O O12 0.750000 0.250000 0.151419
O O13 0.831600 0.131144 0.062232
#
# Coordination Sequence:
#
# PCOD8228228 Si02
#       6
#     8   8   8   8   8   8
#     4  12  23  39  67  98 130 171 226 277 336 394
#     4  10  19  39  63  93 128 169 206 278 332 385
#     4  11  23  40  64  95 129 172 215 272 323 406
#     4  11  23  38  66  97 127 168 222 279 324 395
#     4  10  22  43  64  86 134 181 215 267 342 407
#     4  10  20  41  67  94 126 171 217 265 339 389
#
# _framework density 21.182051000000001
#
# number of rings (size 3 to 8) (size 9 to 14) (size 15 to 20)
#    0.000    1.333    6.667    1.000    2.333    0.000 
#    0.000    9.167    0.000    0.000    0.000    0.000 
#    0.000    0.000    0.000    0.000    0.000    0.000 
#
# Total GULP energy -594757.727239 kJ/mol
# GULP energy per Si atom -12390.785984 kJ/mol
# Density = 2.113384 g / cm^3
# Si number density = 21.182051 Si / 1000 Ang^3
#
#
#
# Elastic Constant Matrix: (Units=GPa)
#
#
# Indices 1 2 3 4 5 6 
#
# 1 129.4814 39.0430 42.6336 0.0000 0.0000 0.0000
# 2 39.0430 74.2091 36.3916 0.0000 0.0000 0.0000
# 3 42.6336 36.3916 120.1068 0.0000 0.0000 0.0000
# 4 0.0000 0.0000 0.0000 14.2546 0.0000 0.0000
# 5 0.0000 0.0000 0.0000 0.0000 26.0468 0.0000
# 6 0.0000 0.0000 0.0000 0.0000 0.0000 48.3459
#
#
#
# Elastic Compliance Matrix: (Units=1/GPa)
#
#
# Indices 1 2 3 4 5 6 
#
# 1 0.009658 -0.003993 -0.002218 0.000000 0.000000 0.000000
# 2 -0.003993 0.017478 -0.003878 0.000000 0.000000 0.000000
# 3 -0.002218 -0.003878 0.010288 0.000000 0.000000 0.000000
# 4 0.000000 0.000000 0.000000 0.070153 0.000000 0.000000
# 5 0.000000 0.000000 0.000000 0.000000 0.038392 0.000000
# 6 0.000000 0.000000 0.000000 0.000000 0.000000 0.020684
#
#
# Mechanical properties :
#
#
# Convention : Reuss Voigt Hill
#
# Bulk Modulus (GPa) = 57.98879 62.21487 60.10183
# Shear Modulus (GPa) = 25.96302 31.44474 28.70388
#
# Velocity S-wave (km/s) = 3.50481 3.85710 3.68517
# Velocity P-wave (km/s) = 6.61922 7.01937 6.82223
#
# Compressibility (1/GPa) = 0.01724471
#
# Stress axis : x y z
#
# Youngs Moduli (GPa) = 103.54552 57.21379 97.19691
#
# Poissons Ratio (x) = 0.22847 0.21560
# Poissons Ratio (y) = 0.41349 0.37696
# Poissons Ratio (z) = 0.22968 0.22189
#
# Static dielectric constant tensor:
#      x y z
#    x 4.584560 0.000000 0.000000 
#    y 0.000000 4.024200 0.000000 
#    z 0.000000 0.000000 3.463290 
# 
# 
# High freq. dielectric constant tensor:
#      x y z
#    x 1.858390 0.000000 0.000000 
#    y 0.000000 1.831630 0.000000 
#    z 0.000000 0.000000 1.789290 
# 
# From -- ./inp_files/10782.got.cif
#   From: 2010.03.12/outbox.cif.g09.slc.cpg/sg56_6_cif.got.tgz:10782.got - 2010.04.16 15:33:40.
