data_PCOD8228099
_publ_section_title
;
Structure prediction by ZEFSAII (Michael W. Deem and Ramdas Pophale) SiO2 
 PCOD8228099
Probable space group: P C C N
;
_chemical_formula_sum "Si O2"
_cell_formula_units_Z 40
_cell_length_a 8.793629
_cell_length_b 9.974995
_cell_length_c 23.394384
_cell_angle_alpha 90.000000
_cell_angle_beta 90.000000
_cell_angle_gamma 90.000000
_cell_volume 2052.071269
_symmetry_space_group_name_H-M "P C C N"
_symmetry_group_IT_number 56
_symmetry_cell_setting 'orthorhombic'
loop_
_space_group_symop_operation_xyz
x,y,z
1/2-x,1/2-y,z
1/2+x,-y,1/2-z
-x,1/2+y,1/2-z
-x,-y,-z
1/2+x,1/2+y,-z
1/2-x,y,1/2+z
x,1/2-y,1/2+z
loop_
_atom_site_type_symbol
_atom_site_label
_atom_site_fract_x
_atom_site_fract_y
_atom_site_fract_z
Si Si1 0.580542 0.206109 0.526886
Si Si2 0.643322 0.624685 0.412414
Si Si3 0.853171 0.119609 0.793770
Si Si4 0.357522 0.122051 0.214379
Si Si5 0.580510 0.459766 0.920354
O O1 0.750000 0.250000 0.538827
O O2 0.484255 0.339255 0.541386
O O3 0.544954 0.166573 0.461157
O O4 0.537710 0.080962 0.568035
O O5 0.750000 0.750000 0.402082
O O6 0.577575 0.592683 0.349458
O O7 0.746275 0.503278 0.436337
O O8 0.750000 0.250000 0.800699
O O9 0.927782 0.079702 0.854408
O O10 0.995862 0.144863 0.753168
O O11 0.746335 0.004169 0.767314
O O12 0.250000 0.250000 0.219197
#
# Coordination Sequence:
#
# PCOD8228099 Si02
#       5
#     8   8   8   8   8
#     4  10  19  33  56  79 103 142 191 229 268 336
#     4   8  17  34  53  73 106 145 177 220 277 330
#     4  11  22  38  60  84 116 151 188 238 289 336
#     4  10  21  38  58  83 114 151 190 229 283 346
#     4   9  20  37  52  77 114 146 179 231 292 331
#
# _framework density 19.4925
#
# number of rings (size 3 to 8) (size 9 to 14) (size 15 to 20)
#    0.000    2.400    0.000    3.000    0.000    3.200 
#    0.000    5.000    0.000    0.000    0.000    0.000 
#    0.000    0.000    0.000    0.000    0.000    0.000 
#
# Total GULP energy -495815.890545 kJ/mol
# GULP energy per Si atom -12395.397264 kJ/mol
# Density = 1.944813 g / cm^3
# Si number density = 19.492500 Si / 1000 Ang^3
#
#
#
# Elastic Constant Matrix: (Units=GPa)
#
#
# Indices 1 2 3 4 5 6 
#
# 1 98.0492 25.4589 47.0022 0.0000 0.0000 0.0000
# 2 25.4589 69.5750 15.5616 0.0000 0.0000 0.0000
# 3 47.0022 15.5616 88.3295 0.0000 0.0000 0.0000
# 4 0.0000 0.0000 0.0000 8.1796 0.0000 0.0000
# 5 0.0000 0.0000 0.0000 0.0000 22.3439 0.0000
# 6 0.0000 0.0000 0.0000 0.0000 0.0000 36.7140
#
#
#
# Elastic Compliance Matrix: (Units=1/GPa)
#
#
# Indices 1 2 3 4 5 6 
#
# 1 0.014572 -0.003746 -0.007094 0.000000 0.000000 0.000000
# 2 -0.003746 0.015925 -0.000813 0.000000 0.000000 0.000000
# 3 -0.007094 -0.000813 0.015240 0.000000 0.000000 0.000000
# 4 0.000000 0.000000 0.000000 0.122255 0.000000 0.000000
# 5 0.000000 0.000000 0.000000 0.000000 0.044755 0.000000
# 6 0.000000 0.000000 0.000000 0.000000 0.000000 0.027238
#
#
# Mechanical properties :
#
#
# Convention : Reuss Voigt Hill
#
# Bulk Modulus (GPa) = 44.57896 47.99989 46.28942
# Shear Modulus (GPa) = 18.46608 24.64292 21.55450
#
# Velocity S-wave (km/s) = 3.08123 3.55945 3.32894
# Velocity P-wave (km/s) = 5.96474 6.44757 6.21085
#
# Compressibility (1/GPa) = 0.02243211
#
# Stress axis : x y z
#
# Youngs Moduli (GPa) = 68.62293 62.79316 65.61892
#
# Poissons Ratio (x) = 0.23519 0.46553
# Poissons Ratio (y) = 0.25703 0.05332
# Poissons Ratio (z) = 0.48684 0.05102
#
# Static dielectric constant tensor:
#      x y z
#    x 3.604070 0.000000 0.000000 
#    y 0.000000 3.909000 0.000000 
#    z 0.000000 0.000000 3.534240 
# 
# 
# High freq. dielectric constant tensor:
#      x y z
#    x 1.751270 0.000000 0.000000 
#    y 0.000000 1.762470 0.000000 
#    z 0.000000 0.000000 1.755280 
# 
# From -- ./inp_files/17981.got.cif
#   From: 2010.03.12/outbox.cif.g09.slc.cpg/sg56_9_cif.got.tgz:17981.got - 2010.04.16 15:33:40.
