data_PCOD8228722
_publ_section_title
;
Structure prediction by ZEFSAII (Michael W. Deem and Ramdas Pophale) SiO2 
 PCOD8228722
Probable space group: P C C N
;
_chemical_formula_sum "Si O2"
_cell_formula_units_Z 48
_cell_length_a 8.485198
_cell_length_b 15.320599
_cell_length_c 18.121676
_cell_angle_alpha 90.000000
_cell_angle_beta 90.000000
_cell_angle_gamma 90.000000
_cell_volume 2355.787363
_symmetry_space_group_name_H-M "P C C N"
_symmetry_group_IT_number 56
_symmetry_cell_setting 'orthorhombic'
loop_
_space_group_symop_operation_xyz
x,y,z
1/2-x,1/2-y,z
1/2+x,-y,1/2-z
-x,1/2+y,1/2-z
-x,-y,-z
1/2+x,1/2+y,-z
1/2-x,y,1/2+z
x,1/2-y,1/2+z
loop_
_atom_site_type_symbol
_atom_site_label
_atom_site_fract_x
_atom_site_fract_y
_atom_site_fract_z
Si Si1 0.092303 0.083395 0.968875
Si Si2 0.287970 0.996678 0.847145
Si Si3 0.358512 0.992205 0.192808
Si Si4 0.348490 0.837989 0.944016
Si Si5 0.299341 0.341594 0.596665
Si Si6 0.711933 0.151247 0.404756
O O1 0.972194 0.146676 0.925718
O O2 0.229843 0.059039 0.912146
O O3 0.169003 0.135010 0.036091
O O4 0.000000 0.000000 0.000000
O O5 0.459466 0.029247 0.821967
O O6 0.293200 0.898380 0.877073
O O7 0.165546 0.998793 0.780065
O O8 0.306061 0.083709 0.157813
O O9 0.251274 0.913963 0.161766
O O10 0.250000 0.750000 0.936169
O O11 0.534377 0.825084 0.942441
O O12 0.311641 0.880234 0.023819
O O13 0.250000 0.250000 0.634807
O O14 0.750000 0.250000 0.380400
#
# Coordination Sequence:
#
# PCOD8228722 Si02
#       6
#     8   8   8   8   8   8
#     4  12  22  40  68  92 126 165 212 259 310 373
#     4  11  24  40  64  89 125 173 207 261 320 377
#     4  11  24  42  61  91 132 167 212 258 322 381
#     4  10  21  38  62  93 125 164 216 263 314 368
#     4  11  23  39  65  96 125 165 213 264 314 378
#     4  11  22  39  65  93 128 167 209 261 314 373
#
# _framework density 20.375353
#
# number of rings (size 3 to 8) (size 9 to 14) (size 15 to 20)
#    0.000    1.000    3.333    4.000    0.000    3.333 
#    0.000    4.167    0.000    0.000    0.000    0.000 
#    0.000    0.000    0.000    0.000    0.000    0.000 
#
# Total GULP energy -595392.409204 kJ/mol
# GULP energy per Si atom -12404.008525 kJ/mol
# Density = 2.032898 g / cm^3
# Si number density = 20.375353 Si / 1000 Ang^3
#
#
#
# Elastic Constant Matrix: (Units=GPa)
#
#
# Indices 1 2 3 4 5 6 
#
# 1 83.6001 31.8883 5.3457 0.0000 0.0000 0.0000
# 2 31.8883 104.8312 22.7753 0.0000 0.0000 0.0000
# 3 5.3457 22.7753 73.8300 0.0000 0.0000 0.0000
# 4 0.0000 0.0000 0.0000 11.4434 0.0000 0.0000
# 5 0.0000 0.0000 0.0000 0.0000 39.5668 0.0000
# 6 0.0000 0.0000 0.0000 0.0000 0.0000 35.3022
#
#
#
# Elastic Compliance Matrix: (Units=1/GPa)
#
#
# Indices 1 2 3 4 5 6 
#
# 1 0.013538 -0.004186 0.000311 0.000000 0.000000 0.000000
# 2 -0.004186 0.011519 -0.003250 0.000000 0.000000 0.000000
# 3 0.000311 -0.003250 0.014525 0.000000 0.000000 0.000000
# 4 0.000000 0.000000 0.000000 0.087387 0.000000 0.000000
# 5 0.000000 0.000000 0.000000 0.000000 0.025274 0.000000
# 6 0.000000 0.000000 0.000000 0.000000 0.000000 0.028327
#
#
# Mechanical properties :
#
#
# Convention : Reuss Voigt Hill
#
# Bulk Modulus (GPa) = 39.47620 42.47555 40.97588
# Shear Modulus (GPa) = 24.59866 30.74595 27.67231
#
# Velocity S-wave (km/s) = 3.47836 3.88877 3.68927
# Velocity P-wave (km/s) = 5.96226 6.40743 6.18885
#
# Compressibility (1/GPa) = 0.02533172
#
# Stress axis : x y z
#
# Youngs Moduli (GPa) = 73.86372 86.81663 68.84809
#
# Poissons Ratio (x) = 0.36340 -0.02141
# Poissons Ratio (y) = 0.30918 0.22377
# Poissons Ratio (z) = -0.02297 0.28217
#
# Static dielectric constant tensor:
#      x y z
#    x 4.122590 0.000000 0.000000 
#    y 0.000000 3.781100 0.000000 
#    z 0.000000 0.000000 3.637360 
# 
# 
# High freq. dielectric constant tensor:
#      x y z
#    x 1.814740 0.000000 0.000000 
#    y 0.000000 1.797650 0.000000 
#    z 0.000000 0.000000 1.785390 
# 
# From -- ./inp_files/14777.got.cif
#   From: 2010.03.12/outbox.cif.g09.slc.cpg/sg56_8_cif.got.tgz:14777.got - 2010.04.16 15:33:40.
