data_PCOD8228582
_publ_section_title
;
Structure prediction by ZEFSAII (Michael W. Deem and Ramdas Pophale) SiO2 
 PCOD8228582
Probable space group: P C C N
;
_chemical_formula_sum "Si O2"
_cell_formula_units_Z 64
_cell_length_a 17.299663
_cell_length_b 13.636965
_cell_length_c 12.990307
_cell_angle_alpha 90.000000
_cell_angle_beta 90.000000
_cell_angle_gamma 90.000000
_cell_volume 3064.606962
_symmetry_space_group_name_H-M "P C C N"
_symmetry_group_IT_number 56
_symmetry_cell_setting 'orthorhombic'
loop_
_space_group_symop_operation_xyz
x,y,z
1/2-x,1/2-y,z
1/2+x,-y,1/2-z
-x,1/2+y,1/2-z
-x,-y,-z
1/2+x,1/2+y,-z
1/2-x,y,1/2+z
x,1/2-y,1/2+z
loop_
_atom_site_type_symbol
_atom_site_label
_atom_site_fract_x
_atom_site_fract_y
_atom_site_fract_z
Si Si1 0.404269 0.864628 0.548524
Si Si2 0.811978 0.824198 0.093034
Si Si3 0.795480 0.539916 0.198375
Si Si4 0.477506 0.245799 0.588546
Si Si5 0.071779 0.161402 0.395822
Si Si6 0.127475 0.071345 0.096629
Si Si7 0.704981 0.149366 0.639393
Si Si8 0.073213 0.721477 0.224397
O O1 0.478766 0.820089 0.495243
O O2 0.329770 0.863206 0.474663
O O3 0.386040 0.800543 0.650622
O O4 0.426497 0.975972 0.579574
O O5 0.750000 0.750000 0.042218
O O6 0.772443 0.879939 0.187827
O O7 0.886972 0.765269 0.133034
O O8 0.830526 0.906940 0.010154
O O9 0.873052 0.570344 0.134036
O O10 0.810448 0.537882 0.319296
O O11 0.767528 0.434619 0.160046
O O12 0.441653 0.335886 0.521549
O O13 0.415341 0.169637 0.636824
O O14 0.531936 0.281793 0.681390
O O15 0.990100 0.155016 0.335871
O O16 0.750000 0.250000 0.644984
O O17 0.637098 0.148971 0.726062
#
# Coordination Sequence:
#
# PCOD8228582 Si02
#       8
#     8   8   8   8   8   8   8   8
#     4  10  21  37  63  84 123 163 213 262 313 376
#     4   9  20  36  56  92 129 165 203 259 320 374
#     4  11  21  38  60  93 130 164 212 260 314 386
#     4   9  19  36  64  90 124 158 204 266 318 378
#     4   9  19  38  63  91 129 160 203 267 318 379
#     4  11  19  35  62  90 120 166 210 250 315 385
#     4  11  24  41  61  87 129 169 218 267 311 370
#     4  10  20  41  62  93 120 168 215 252 320 369
#
# _framework density 20.883590999999999
#
# number of rings (size 3 to 8) (size 9 to 14) (size 15 to 20)
#    0.000    2.000    2.500    1.125    0.000    3.000 
#    2.250    0.000    2.750    3.000    0.000    0.000 
#    0.000    0.000    0.000    0.000    0.000    0.000 
#
# Total GULP energy -793311.405640 kJ/mol
# GULP energy per Si atom -12395.490713 kJ/mol
# Density = 2.083606 g / cm^3
# Si number density = 20.883591 Si / 1000 Ang^3
#
#
#
# Elastic Constant Matrix: (Units=GPa)
#
#
# Indices 1 2 3 4 5 6 
#
# 1 88.8060 44.1649 40.4512 0.0000 0.0000 0.0000
# 2 44.1649 96.4677 42.2123 0.0000 0.0000 0.0000
# 3 40.4512 42.2123 103.3758 0.0000 0.0000 0.0000
# 4 0.0000 0.0000 0.0000 27.3521 0.0000 0.0000
# 5 0.0000 0.0000 0.0000 0.0000 35.0716 0.0000
# 6 0.0000 0.0000 0.0000 0.0000 0.0000 31.3311
#
#
#
# Elastic Compliance Matrix: (Units=1/GPa)
#
#
# Indices 1 2 3 4 5 6 
#
# 1 0.015790 -0.005510 -0.003929 0.000000 0.000000 0.000000
# 2 -0.005510 0.014544 -0.003783 0.000000 0.000000 0.000000
# 3 -0.003929 -0.003783 0.012755 0.000000 0.000000 0.000000
# 4 0.000000 0.000000 0.000000 0.036560 0.000000 0.000000
# 5 0.000000 0.000000 0.000000 0.000000 0.028513 0.000000
# 6 0.000000 0.000000 0.000000 0.000000 0.000000 0.031917
#
#
# Mechanical properties :
#
#
# Convention : Reuss Voigt Hill
#
# Bulk Modulus (GPa) = 60.07250 60.25625 60.16437
# Shear Modulus (GPa) = 29.05753 29.53903 29.29828
#
# Velocity S-wave (km/s) = 3.73420 3.76501 3.74964
# Velocity P-wave (km/s) = 6.88623 6.91494 6.90060
#
# Compressibility (1/GPa) = 0.01664655
#
# Stress axis : x y z
#
# Youngs Moduli (GPa) = 63.33011 68.75682 78.39756
#
# Poissons Ratio (x) = 0.37884 0.30801
# Poissons Ratio (y) = 0.34894 0.29657
# Poissons Ratio (z) = 0.24882 0.26010
#
# Static dielectric constant tensor:
#      x y z
#    x 3.846850 0.000000 0.000000 
#    y 0.000000 3.596860 0.000000 
#    z 0.000000 0.000000 3.885500 
# 
# 
# High freq. dielectric constant tensor:
#      x y z
#    x 1.817770 0.000000 0.000000 
#    y 0.000000 1.795880 0.000000 
#    z 0.000000 0.000000 1.820660 
# 
# From -- ./inp_files/8427.got.cif
#   From: 2010.03.12/outbox.cif.g09.slc.cpg/sg56_5_cif.got.tgz:8427.got - 2010.04.16 15:33:40.
