data_PCOD8228471
_publ_section_title
;
Structure prediction by ZEFSAII (Michael W. Deem and Ramdas Pophale) SiO2 
 PCOD8228471
Probable space group: P C C N
;
_chemical_formula_sum "Si O2"
_cell_formula_units_Z 48
_cell_length_a 15.147687
_cell_length_b 13.630413
_cell_length_c 11.854180
_cell_angle_alpha 90.000000
_cell_angle_beta 90.000000
_cell_angle_gamma 90.000000
_cell_volume 2447.523415
_symmetry_space_group_name_H-M "P C C N"
_symmetry_group_IT_number 56
_symmetry_cell_setting 'orthorhombic'
loop_
_space_group_symop_operation_xyz
x,y,z
1/2-x,1/2-y,z
1/2+x,-y,1/2-z
-x,1/2+y,1/2-z
-x,-y,-z
1/2+x,1/2+y,-z
1/2-x,y,1/2+z
x,1/2-y,1/2+z
loop_
_atom_site_type_symbol
_atom_site_label
_atom_site_fract_x
_atom_site_fract_y
_atom_site_fract_z
Si Si1 0.363012 0.590123 0.584137
Si Si2 0.750000 0.750000 0.651080
Si Si3 0.409936 0.250587 0.687707
Si Si4 0.591298 0.354373 0.667272
Si Si5 0.250000 0.750000 0.208093
Si Si6 0.460670 0.065107 0.798045
Si Si7 0.655983 0.617224 0.502342
O O1 0.403625 0.633803 0.468163
O O2 0.290180 0.665616 0.628808
O O3 0.433885 0.569866 0.683871
O O4 0.318898 0.482891 0.562898
O O5 0.837695 0.722320 0.718843
O O6 0.738466 0.651301 0.577251
O O7 0.504667 0.298351 0.709154
O O8 0.427557 0.133407 0.694608
O O9 0.368909 0.288150 0.572203
O O10 0.677034 0.298565 0.711772
O O11 0.580645 0.459375 0.727878
O O12 0.428601 0.100399 0.920276
#
# Coordination Sequence:
#
# PCOD8228471 Si02
#       7
#     8   4   8   8   4   8   8
#     4  11  21  40  63  86 119 167 198 245 304 378
#     4  10  24  34  58  96 116 150 204 262 294 358
#     4  11  20  38  63  86 118 158 206 253 297 356
#     4  11  22  41  62  89 121 165 203 249 305 366
#     4  12  26  38  62  96 126 152 212 262 298 354
#     4  10  20  39  64  86 114 162 206 240 302 371
#     4  10  20  38  62  82 119 158 200 242 305 363
#
# _framework density 19.611660000000001
#
# number of rings (size 3 to 8) (size 9 to 14) (size 15 to 20)
#    0.000    1.333    5.000    2.000    0.000    5.333 
#    0.000    0.000    0.000    4.000    0.000    0.000 
#    0.000    0.000    0.000    0.000    0.000    0.000 
#
# Total GULP energy -594787.649420 kJ/mol
# GULP energy per Si atom -12391.409363 kJ/mol
# Density = 1.956702 g / cm^3
# Si number density = 19.611660 Si / 1000 Ang^3
#
#
#
# Elastic Constant Matrix: (Units=GPa)
#
#
# Indices 1 2 3 4 5 6 
#
# 1 127.1635 50.3810 32.6321 0.0000 0.0000 0.0000
# 2 50.3810 98.3933 42.7150 0.0000 0.0000 0.0000
# 3 32.6321 42.7150 43.1556 0.0000 0.0000 0.0000
# 4 0.0000 0.0000 0.0000 37.9639 0.0000 0.0000
# 5 0.0000 0.0000 0.0000 0.0000 20.0950 0.0000
# 6 0.0000 0.0000 0.0000 0.0000 0.0000 34.5438
#
#
#
# Elastic Compliance Matrix: (Units=1/GPa)
#
#
# Indices 1 2 3 4 5 6 
#
# 1 0.010345 -0.003334 -0.004523 0.000000 0.000000 0.000000
# 2 -0.003334 0.018895 -0.016181 0.000000 0.000000 0.000000
# 3 -0.004523 -0.016181 0.042608 0.000000 0.000000 0.000000
# 4 0.000000 0.000000 0.000000 0.026341 0.000000 0.000000
# 5 0.000000 0.000000 0.000000 0.000000 0.049764 0.000000
# 6 0.000000 0.000000 0.000000 0.000000 0.000000 0.028949
#
#
# Mechanical properties :
#
#
# Convention : Reuss Voigt Hill
#
# Bulk Modulus (GPa) = 42.06541 57.79649 49.93095
# Shear Modulus (GPa) = 21.46828 28.05281 24.76055
#
# Velocity S-wave (km/s) = 3.31217 3.78619 3.55708
# Velocity P-wave (km/s) = 6.01024 6.97482 6.51042
#
# Compressibility (1/GPa) = 0.02377250
#
# Stress axis : x y z
#
# Youngs Moduli (GPa) = 96.66206 52.92420 23.46969
#
# Poissons Ratio (x) = 0.17643 0.10615
# Poissons Ratio (y) = 0.32224 0.37977
# Poissons Ratio (z) = 0.43720 0.85638
#
# Static dielectric constant tensor:
#      x y z
#    x 3.633780 0.000000 0.000000 
#    y 0.000000 4.022620 0.000000 
#    z 0.000000 0.000000 3.461140 
# 
# 
# High freq. dielectric constant tensor:
#      x y z
#    x 1.768830 0.000000 0.000000 
#    y 0.000000 1.774220 0.000000 
#    z 0.000000 0.000000 1.745190 
# 
# From -- ./inp_files/7826.got.cif
#   From: 2010.03.12/outbox.cif.g09.slc.cpg/sg56_4_cif.got.tgz:7826.got - 2010.04.16 15:33:40.
