data_PCOD8228386
_publ_section_title
;
Structure prediction by ZEFSAII (Michael W. Deem and Ramdas Pophale) SiO2 
 PCOD8228386
Probable space group: P C C N
;
_chemical_formula_sum "Si O2"
_cell_formula_units_Z 60
_cell_length_a 8.703368
_cell_length_b 17.939622
_cell_length_c 17.213154
_cell_angle_alpha 90.000000
_cell_angle_beta 90.000000
_cell_angle_gamma 90.000000
_cell_volume 2687.578073
_symmetry_space_group_name_H-M "P C C N"
_symmetry_group_IT_number 56
_symmetry_cell_setting 'orthorhombic'
loop_
_space_group_symop_operation_xyz
x,y,z
1/2-x,1/2-y,z
1/2+x,-y,1/2-z
-x,1/2+y,1/2-z
-x,-y,-z
1/2+x,1/2+y,-z
1/2-x,y,1/2+z
x,1/2-y,1/2+z
loop_
_atom_site_type_symbol
_atom_site_label
_atom_site_fract_x
_atom_site_fract_y
_atom_site_fract_z
Si Si1 0.288656 0.630185 0.845084
Si Si2 0.482316 0.480883 0.146446
Si Si3 0.750000 0.250000 0.779023
Si Si4 0.827391 0.148322 0.494859
Si Si5 0.961222 0.283643 0.415750
Si Si6 0.211966 0.098532 0.917665
Si Si7 0.672906 0.984689 0.937401
Si Si8 0.084555 0.495450 0.820691
O O1 0.454023 0.601464 0.878098
O O2 0.313060 0.684587 0.774105
O O3 0.219889 0.554304 0.809723
O O4 0.185198 0.666202 0.913230
O O5 0.571847 0.542809 0.097498
O O6 0.307340 0.491718 0.124525
O O7 0.501969 0.486118 0.239627
O O8 0.601880 0.275640 0.828145
O O9 0.959401 0.201512 0.457028
O O10 0.660568 0.164226 0.459049
O O11 0.864633 0.061626 0.482536
O O12 0.134054 0.318586 0.415924
O O13 0.342293 0.083794 0.851327
O O14 0.289426 0.080881 0.001303
O O15 0.525224 0.967127 0.885485
#
# Coordination Sequence:
#
# PCOD8228386 Si02
#       8
#     8   8   4   8   8   8   8   8
#     4  11  22  40  61  93 121 168 212 267 326 395
#     4  11  22  36  64  92 125 162 220 275 323 385
#     4  10  22  38  64  90 132 168 214 272 330 406
#     4  10  20  36  63  91 124 167 220 266 321 395
#     4  10  22  36  63  92 124 167 216 271 319 403
#     4  11  21  40  61  94 126 171 219 270 332 388
#     4  12  21  39  64  92 130 165 218 279 326 389
#     4  11  25  36  63  93 134 164 216 276 340 388
#
# _framework density 22.324933999999999
#
# number of rings (size 3 to 8) (size 9 to 14) (size 15 to 20)
#    0.000    1.333    4.000    4.800    5.600    0.000 
#    0.000    0.667    0.000    4.000    0.000    0.000 
#    0.000    0.000    0.000    0.000    0.000    0.000 
#
# Total GULP energy -743655.791143 kJ/mol
# GULP energy per Si atom -12394.263186 kJ/mol
# Density = 2.227412 g / cm^3
# Si number density = 22.324934 Si / 1000 Ang^3
#
#
#
# Elastic Constant Matrix: (Units=GPa)
#
#
# Indices 1 2 3 4 5 6 
#
# 1 72.0976 18.2210 20.3209 0.0000 0.0000 0.0000
# 2 18.2210 85.2592 28.4238 0.0000 0.0000 0.0000
# 3 20.3209 28.4238 119.1807 0.0000 0.0000 0.0000
# 4 0.0000 0.0000 0.0000 32.4328 0.0000 0.0000
# 5 0.0000 0.0000 0.0000 0.0000 21.3622 0.0000
# 6 0.0000 0.0000 0.0000 0.0000 0.0000 38.8250
#
#
#
# Elastic Compliance Matrix: (Units=1/GPa)
#
#
# Indices 1 2 3 4 5 6 
#
# 1 0.015071 -0.002568 -0.001957 0.000000 0.000000 0.000000
# 2 -0.002568 0.013180 -0.002705 0.000000 0.000000 0.000000
# 3 -0.001957 -0.002705 0.009370 0.000000 0.000000 0.000000
# 4 0.000000 0.000000 0.000000 0.030833 0.000000 0.000000
# 5 0.000000 0.000000 0.000000 0.000000 0.046812 0.000000
# 6 0.000000 0.000000 0.000000 0.000000 0.000000 0.025757
#
#
# Mechanical properties :
#
#
# Convention : Reuss Voigt Hill
#
# Bulk Modulus (GPa) = 43.18086 45.60766 44.39426
# Shear Modulus (GPa) = 30.63681 32.49545 31.56613
#
# Velocity S-wave (km/s) = 3.70849 3.81933 3.76432
# Velocity P-wave (km/s) = 6.14176 6.31847 6.23074
#
# Compressibility (1/GPa) = 0.02315841
#
# Stress axis : x y z
#
# Youngs Moduli (GPa) = 66.35348 75.87400 106.72896
#
# Poissons Ratio (x) = 0.19487 0.20888
# Poissons Ratio (y) = 0.17042 0.28874
# Poissons Ratio (z) = 0.12986 0.20527
#
# Static dielectric constant tensor:
#      x y z
#    x 4.125630 0.000000 0.000000 
#    y 0.000000 4.012510 0.000000 
#    z 0.000000 0.000000 4.040630 
# 
# 
# High freq. dielectric constant tensor:
#      x y z
#    x 1.876700 0.000000 0.000000 
#    y 0.000000 1.860080 0.000000 
#    z 0.000000 0.000000 1.889360 
# 
# From -- ./inp_files/15108.got.cif
#   From: 2010.03.12/outbox.cif.g09.slc.cpg/sg56_8_cif.got.tgz:15108.got - 2010.04.16 15:33:40.
