data_PCOD8228410
_publ_section_title
;
Structure prediction by ZEFSAII (Michael W. Deem and Ramdas Pophale) SiO2 
 PCOD8228410
Probable space group: P C C N
;
_chemical_formula_sum "Si O2"
_cell_formula_units_Z 40
_cell_length_a 16.361982
_cell_length_b 14.049418
_cell_length_c 8.796505
_cell_angle_alpha 90.000000
_cell_angle_beta 90.000000
_cell_angle_gamma 90.000000
_cell_volume 2022.108237
_symmetry_space_group_name_H-M "P C C N"
_symmetry_group_IT_number 56
_symmetry_cell_setting 'orthorhombic'
loop_
_space_group_symop_operation_xyz
x,y,z
1/2-x,1/2-y,z
1/2+x,-y,1/2-z
-x,1/2+y,1/2-z
-x,-y,-z
1/2+x,1/2+y,-z
1/2-x,y,1/2+z
x,1/2-y,1/2+z
loop_
_atom_site_type_symbol
_atom_site_label
_atom_site_fract_x
_atom_site_fract_y
_atom_site_fract_z
Si Si1 0.640921 0.984445 0.292348
Si Si2 0.648576 0.159404 0.794291
Si Si3 0.248778 0.936920 0.450036
Si Si4 0.486512 0.333539 0.150232
Si Si5 0.047299 0.666783 0.684772
O O1 0.706958 0.983099 0.157083
O O2 0.682286 0.009970 0.453135
O O3 0.571422 0.063138 0.255147
O O4 0.598915 0.881493 0.303091
O O5 0.712466 0.145002 0.656854
O O6 0.561183 0.115044 0.741426
O O7 0.632709 0.271941 0.830668
O O8 0.678929 0.110384 0.947524
O O9 0.486975 0.221090 0.196448
O O10 0.499129 0.343102 0.971759
#
# Coordination Sequence:
#
# PCOD8228410 Si02
#       5
#     8   8   8   8   8
#     4  11  21  38  61  86 116 151 190 237 293 338
#     4   9  21  35  53  88 117 152 184 229 294 331
#     4  10  21  35  57  89 121 148 182 241 292 351
#     4  10  22  39  57  86 114 155 194 232 281 345
#     4  10  20  37  58  87 114 150 193 235 284 331
#
# _framework density 19.781334000000001
#
# number of rings (size 3 to 8) (size 9 to 14) (size 15 to 20)
#    1.200    0.800    2.000    1.800    0.000    5.600 
#    0.000    0.000    0.000    3.600    0.000    0.000 
#    0.000    0.000    0.000    0.000    0.000    0.000 
#
# Total GULP energy -495720.324153 kJ/mol
# GULP energy per Si atom -12393.008104 kJ/mol
# Density = 1.973631 g / cm^3
# Si number density = 19.781334 Si / 1000 Ang^3
#
#
#
# Elastic Constant Matrix: (Units=GPa)
#
#
# Indices 1 2 3 4 5 6 
#
# 1 41.9465 25.5159 10.6567 0.0000 0.0000 0.0000
# 2 25.5159 57.0084 9.1289 0.0000 0.0000 0.0000
# 3 10.6567 9.1289 70.4300 0.0000 0.0000 0.0000
# 4 0.0000 0.0000 0.0000 14.8671 0.0000 0.0000
# 5 0.0000 0.0000 0.0000 0.0000 18.1206 0.0000
# 6 0.0000 0.0000 0.0000 0.0000 0.0000 38.3857
#
#
#
# Elastic Compliance Matrix: (Units=1/GPa)
#
#
# Indices 1 2 3 4 5 6 
#
# 1 0.033445 -0.014459 -0.003186 0.000000 0.000000 0.000000
# 2 -0.014459 0.024164 -0.000944 0.000000 0.000000 0.000000
# 3 -0.003186 -0.000944 0.014803 0.000000 0.000000 0.000000
# 4 0.000000 0.000000 0.000000 0.067263 0.000000 0.000000
# 5 0.000000 0.000000 0.000000 0.000000 0.055186 0.000000
# 6 0.000000 0.000000 0.000000 0.000000 0.000000 0.026051
#
#
# Mechanical properties :
#
#
# Convention : Reuss Voigt Hill
#
# Bulk Modulus (GPa) = 28.38286 28.88754 28.63520
# Shear Modulus (GPa) = 18.52983 22.54690 20.53837
#
# Velocity S-wave (km/s) = 3.06393 3.37977 3.22572
# Velocity P-wave (km/s) = 5.18617 5.46494 5.32738
#
# Compressibility (1/GPa) = 0.03523253
#
# Stress axis : x y z
#
# Youngs Moduli (GPa) = 29.90001 41.38372 67.55376
#
# Poissons Ratio (x) = 0.59837 0.21525
# Poissons Ratio (y) = 0.43233 0.06379
# Poissons Ratio (z) = 0.09527 0.03908
#
# Static dielectric constant tensor:
#      x y z
#    x 3.466510 0.000000 0.000000 
#    y 0.000000 3.202000 0.000000 
#    z 0.000000 0.000000 3.675500 
# 
# 
# High freq. dielectric constant tensor:
#      x y z
#    x 1.752890 0.000000 0.000000 
#    y 0.000000 1.727900 0.000000 
#    z 0.000000 0.000000 1.784850 
# 
# From -- ./inp_files/3950.got.cif
#   From: 2010.03.12/outbox.cif.g09.slc.cpg/sg56_2_cif.got.tgz:3950.got - 2010.04.16 15:33:40.
