data_PCOD8228387
_publ_section_title
;
Structure prediction by ZEFSAII (Michael W. Deem and Ramdas Pophale) SiO2 
 PCOD8228387
Probable space group: P C C N
;
_chemical_formula_sum "Si O2"
_cell_formula_units_Z 40
_cell_length_a 8.656750
_cell_length_b 9.617258
_cell_length_c 19.554115
_cell_angle_alpha 90.000000
_cell_angle_beta 90.000000
_cell_angle_gamma 90.000000
_cell_volume 1627.962166
_symmetry_space_group_name_H-M "P C C N"
_symmetry_group_IT_number 56
_symmetry_cell_setting 'orthorhombic'
loop_
_space_group_symop_operation_xyz
x,y,z
1/2-x,1/2-y,z
1/2+x,-y,1/2-z
-x,1/2+y,1/2-z
-x,-y,-z
1/2+x,1/2+y,-z
1/2-x,y,1/2+z
x,1/2-y,1/2+z
loop_
_atom_site_type_symbol
_atom_site_label
_atom_site_fract_x
_atom_site_fract_y
_atom_site_fract_z
Si Si1 0.664458 0.396637 0.320132
Si Si2 0.421968 0.281975 0.022744
Si Si3 0.335759 0.603922 0.524313
Si Si4 0.123316 0.488737 0.417969
Si Si5 0.692843 0.904828 0.214644
O O1 0.750000 0.250000 0.309584
O O2 0.656366 0.445081 0.398014
O O3 0.769999 0.509263 0.282283
O O4 0.490701 0.398986 0.292331
O O5 0.250000 0.250000 0.046944
O O6 0.504615 0.380967 0.080290
O O7 0.500008 0.129065 0.014819
O O8 0.454487 0.344326 0.944277
O O9 0.250000 0.750000 0.515826
O O10 0.243103 0.491062 0.481255
O O11 0.213641 0.479432 0.347077
O O12 0.750000 0.750000 0.223403
#
# Coordination Sequence:
#
# PCOD8228387 Si02
#       5
#     8   8   8   8   8
#     4  11  25  46  72 100 136 183 233 286 350 422
#     4  10  20  36  63  98 136 175 226 290 349 404
#     4   9  20  41  65  94 132 174 222 277 337 405
#     4  10  22  40  66  97 136 182 226 281 350 415
#     4  12  26  47  70  98 139 184 233 291 352 418
#
# _framework density 24.570596999999999
#
# number of rings (size 3 to 8) (size 9 to 14) (size 15 to 20)
#    0.000    1.600    0.000    4.200    0.000   12.000 
#    0.000    7.000    0.000    0.000    0.000    0.000 
#    0.000    0.000    0.000    0.000    0.000    0.000 
#
# Total GULP energy -495882.630210 kJ/mol
# GULP energy per Si atom -12397.065755 kJ/mol
# Density = 2.451467 g / cm^3
# Si number density = 24.570597 Si / 1000 Ang^3
#
#
#
# Elastic Constant Matrix: (Units=GPa)
#
#
# Indices 1 2 3 4 5 6 
#
# 1 170.5972 53.9953 52.1958 0.0000 0.0000 0.0000
# 2 53.9953 98.8302 54.8170 0.0000 0.0000 0.0000
# 3 52.1958 54.8170 116.2328 0.0000 0.0000 0.0000
# 4 0.0000 0.0000 0.0000 9.1718 0.0000 0.0000
# 5 0.0000 0.0000 0.0000 0.0000 48.4592 0.0000
# 6 0.0000 0.0000 0.0000 0.0000 0.0000 43.9194
#
#
#
# Elastic Compliance Matrix: (Units=1/GPa)
#
#
# Indices 1 2 3 4 5 6 
#
# 1 0.007389 -0.002975 -0.001915 0.000000 0.000000 0.000000
# 2 -0.002975 0.014900 -0.005691 0.000000 0.000000 0.000000
# 3 -0.001915 -0.005691 0.012148 0.000000 0.000000 0.000000
# 4 0.000000 0.000000 0.000000 0.109029 0.000000 0.000000
# 5 0.000000 0.000000 0.000000 0.000000 0.020636 0.000000
# 6 0.000000 0.000000 0.000000 0.000000 0.000000 0.022769
#
#
# Mechanical properties :
#
#
# Convention : Reuss Voigt Hill
#
# Bulk Modulus (GPa) = 75.33279 78.63069 76.98174
# Shear Modulus (GPa) = 23.53393 35.28690 29.41041
#
# Velocity S-wave (km/s) = 3.09821 3.79376 3.46349
# Velocity P-wave (km/s) = 6.59733 7.15972 6.88427
#
# Compressibility (1/GPa) = 0.01327443
#
# Stress axis : x y z
#
# Youngs Moduli (GPa) = 135.33078 67.11245 82.32042
#
# Poissons Ratio (x) = 0.19964 0.15767
# Poissons Ratio (y) = 0.40257 0.46852
# Poissons Ratio (z) = 0.25920 0.38196
#
# Static dielectric constant tensor:
#      x y z
#    x 5.218480 0.000000 0.000000 
#    y 0.000000 4.701710 0.000000 
#    z 0.000000 0.000000 4.162890 
# 
# 
# High freq. dielectric constant tensor:
#      x y z
#    x 2.014290 0.000000 0.000000 
#    y 0.000000 2.002630 0.000000 
#    z 0.000000 0.000000 1.948560 
# 
# From -- ./inp_files/14412.got.cif
#   From: 2010.03.12/outbox.cif.g09.slc.cpg/sg56_8_cif.got.tgz:14412.got - 2010.04.16 15:33:40.
