data_PCOD8228520
_publ_section_title
;
Structure prediction by ZEFSAII (Michael W. Deem and Ramdas Pophale) SiO2 
 PCOD8228520
Probable space group: P C C N
;
_chemical_formula_sum "Si O2"
_cell_formula_units_Z 32
_cell_length_a 7.936977
_cell_length_b 4.990098
_cell_length_c 36.273212
_cell_angle_alpha 90.000000
_cell_angle_beta 90.000000
_cell_angle_gamma 90.000000
_cell_volume 1436.647464
_symmetry_space_group_name_H-M "P C C N"
_symmetry_group_IT_number 56
_symmetry_cell_setting 'orthorhombic'
loop_
_space_group_symop_operation_xyz
x,y,z
1/2-x,1/2-y,z
1/2+x,-y,1/2-z
-x,1/2+y,1/2-z
-x,-y,-z
1/2+x,1/2+y,-z
1/2-x,y,1/2+z
x,1/2-y,1/2+z
loop_
_atom_site_type_symbol
_atom_site_label
_atom_site_fract_x
_atom_site_fract_y
_atom_site_fract_z
Si Si1 0.051148 0.242166 0.647771
Si Si2 0.449559 0.762951 0.602831
Si Si3 0.136942 0.483251 0.468739
Si Si4 0.057416 0.166545 0.729341
O O1 0.250000 0.250000 0.649872
O O2 0.997579 0.538558 0.635863
O O3 0.978221 0.173965 0.688145
O O4 0.989305 0.028796 0.616771
O O5 0.250000 0.750000 0.593939
O O6 0.550121 0.869669 0.567939
O O7 0.250000 0.250000 0.485017
O O8 0.000000 0.500000 0.500000
O O9 0.250000 0.750000 0.462180
O O10 0.250000 0.250000 0.728751
O O11 0.953184 0.365426 0.755520
#
# Coordination Sequence:
#
# PCOD8228520 Si02
#       4
#     8   8   8   8
#     4   9  19  36  61  87 118 161 206 248 303 373
#     4  10  20  39  64  89 117 159 208 253 302 362
#     4  12  26  44  66  95 129 165 203 251 305 366
#     4  11  22  39  61  89 123 163 209 256 307 367
#
# _framework density 22.274080999999999
#
# number of rings (size 3 to 8) (size 9 to 14) (size 15 to 20)
#    0.000    1.500    0.000    5.250    0.000    7.000 
#    0.000   12.500    0.000    0.000    0.000    0.000 
#    0.000    0.000    0.000    0.000    0.000    0.000 
#
# Total GULP energy -396619.896058 kJ/mol
# GULP energy per Si atom -12394.371752 kJ/mol
# Density = 2.222338 g / cm^3
# Si number density = 22.274081 Si / 1000 Ang^3
#
#
#
# Elastic Constant Matrix: (Units=GPa)
#
#
# Indices 1 2 3 4 5 6 
#
# 1 75.3559 38.6112 47.3636 0.0000 0.0000 0.0000
# 2 38.6112 135.5184 38.3935 0.0000 0.0000 0.0000
# 3 47.3636 38.3935 147.7055 0.0000 0.0000 0.0000
# 4 0.0000 0.0000 0.0000 47.0131 0.0000 0.0000
# 5 0.0000 0.0000 0.0000 0.0000 -11.1656 0.0000
# 6 0.0000 0.0000 0.0000 0.0000 0.0000 39.2972
#
#
#
# Elastic Compliance Matrix: (Units=1/GPa)
#
#
# Indices 1 2 3 4 5 6 
#
# 1 0.018295 -0.003833 -0.004870 0.000000 0.000000 0.000000
# 2 -0.003833 0.008769 -0.001050 0.000000 0.000000 0.000000
# 3 -0.004870 -0.001050 0.008605 0.000000 0.000000 0.000000
# 4 0.000000 0.000000 0.000000 0.021271 0.000000 0.000000
# 5 0.000000 0.000000 0.000000 0.000000 -0.089561 0.000000
# 6 0.000000 0.000000 0.000000 0.000000 0.000000 0.025447
#
#
# Mechanical properties :
#
#
# Convention : Reuss Voigt Hill
#
# Bulk Modulus (GPa) = 61.87281 67.47963 64.67622
# Shear Modulus (GPa) = 282.15913 30.64302 156.40107
#
# Velocity S-wave (km/s) = 11.26725 3.71310 8.38863
# Velocity P-wave (km/s) = 14.03945 6.98167 11.08715
#
# Compressibility (1/GPa) = 0.01616219
#
# Stress axis : x y z
#
# Youngs Moduli (GPa) = 54.65842 114.04281 116.21195
#
# Poissons Ratio (x) = 0.43711 0.56600
# Poissons Ratio (y) = 0.20950 0.12205
# Poissons Ratio (z) = 0.26621 0.11977
#
# Static dielectric constant tensor:
#      x y z
#    x 3.946270 0.000000 0.000000 
#    y 0.000000 3.860830 0.000000 
#    z 0.000000 0.000000 4.354040 
# 
# 
# High freq. dielectric constant tensor:
#      x y z
#    x 1.863410 0.000000 0.000000 
#    y 0.000000 1.895710 0.000000 
#    z 0.000000 0.000000 1.886860 
# 
# From -- ./inp_files/23045.got.cif
#   From: 2010.03.12/outbox.cif.g09.slc.cpg/sg56_12_cif.got.tgz:23045.got - 2010.04.16 15:33:40.
