data_PCOD8228195
_publ_section_title
;
Structure prediction by ZEFSAII (Michael W. Deem and Ramdas Pophale) SiO2 
 PCOD8228195
Probable space group: P C C N
;
_chemical_formula_sum "Si O2"
_cell_formula_units_Z 60
_cell_length_a 30.575758
_cell_length_b 8.792673
_cell_length_c 10.094302
_cell_angle_alpha 90.000000
_cell_angle_beta 90.000000
_cell_angle_gamma 90.000000
_cell_volume 2713.778817
_symmetry_space_group_name_H-M "P C C N"
_symmetry_group_IT_number 56
_symmetry_cell_setting 'orthorhombic'
loop_
_space_group_symop_operation_xyz
x,y,z
1/2-x,1/2-y,z
1/2+x,-y,1/2-z
-x,1/2+y,1/2-z
-x,-y,-z
1/2+x,1/2+y,-z
1/2-x,y,1/2+z
x,1/2-y,1/2+z
loop_
_atom_site_type_symbol
_atom_site_label
_atom_site_fract_x
_atom_site_fract_y
_atom_site_fract_z
Si Si1 0.327033 0.935718 0.911626
Si Si2 0.279558 0.043458 0.155592
Si Si3 0.948397 0.957166 0.236297
Si Si4 0.812577 0.644831 0.335309
Si Si5 0.464941 0.110294 0.726735
Si Si6 0.750000 0.250000 0.184626
Si Si7 0.582406 0.512286 0.527484
Si Si8 0.103456 0.140273 0.998588
O O1 0.291994 0.798621 0.902331
O O2 0.326674 0.036795 0.782188
O O3 0.378060 0.892732 0.938980
O O4 0.312733 0.031252 0.036370
O O5 0.304006 0.186097 0.228796
O O6 0.232544 0.091203 0.098347
O O7 0.271709 0.888953 0.235763
O O8 0.966947 0.787228 0.239239
O O9 0.935686 0.022660 0.380937
O O10 0.906870 0.957541 0.135058
O O11 0.986884 0.062277 0.177851
O O12 0.847506 0.619311 0.451153
O O13 0.454011 0.005282 0.856380
O O14 0.430092 0.083551 0.610830
O O15 0.600333 0.682863 0.534543
#
# Coordination Sequence:
#
# PCOD8228195 Si02
#       8
#     8   8   8   8   8   4   8   8
#     4  11  21  42  67  87 133 167 215 265 322 375
#     4  10  22  38  63  92 127 167 213 267 318 376
#     4  10  22  37  65  94 126 165 209 259 318 382
#     4  10  21  38  65  98 120 163 223 268 311 372
#     4  10  20  39  64  88 126 165 208 260 317 372
#     4  10  24  42  60  88 130 178 210 258 324 386
#     4  10  20  36  63  92 125 166 204 260 317 376
#     4  10  19  37  64  96 124 160 211 266 309 368
#
# _framework density 22.109390999999999
#
# number of rings (size 3 to 8) (size 9 to 14) (size 15 to 20)
#    0.000    1.867    2.667    1.200    0.000    4.267 
#    4.800    1.333    8.800    0.000    0.000    0.000 
#    0.000    0.000    0.000    0.000    0.000    0.000 
#
# Total GULP energy -743290.573334 kJ/mol
# GULP energy per Si atom -12388.176222 kJ/mol
# Density = 2.205907 g / cm^3
# Si number density = 22.109391 Si / 1000 Ang^3
#
#
#
# Elastic Constant Matrix: (Units=GPa)
#
#
# Indices 1 2 3 4 5 6 
#
# 1 120.4762 37.0398 14.9263 0.0000 0.0000 0.0000
# 2 37.0398 60.4695 12.0924 0.0000 0.0000 0.0000
# 3 14.9263 12.0924 60.3689 0.0000 0.0000 0.0000
# 4 0.0000 0.0000 0.0000 10.5848 0.0000 0.0000
# 5 0.0000 0.0000 0.0000 0.0000 32.6315 0.0000
# 6 0.0000 0.0000 0.0000 0.0000 0.0000 84.5821
#
#
#
# Elastic Compliance Matrix: (Units=1/GPa)
#
#
# Indices 1 2 3 4 5 6 
#
# 1 0.010329 -0.006059 -0.001340 0.000000 0.000000 0.000000
# 2 -0.006059 0.020781 -0.002665 0.000000 0.000000 0.000000
# 3 -0.001340 -0.002665 0.017430 0.000000 0.000000 0.000000
# 4 0.000000 0.000000 0.000000 0.094475 0.000000 0.000000
# 5 0.000000 0.000000 0.000000 0.000000 0.030645 0.000000
# 6 0.000000 0.000000 0.000000 0.000000 0.000000 0.011823
#
#
# Mechanical properties :
#
#
# Convention : Reuss Voigt Hill
#
# Bulk Modulus (GPa) = 35.19528 41.04797 38.12162
# Shear Modulus (GPa) = 23.24692 37.37676 30.31184
#
# Velocity S-wave (km/s) = 3.24612 4.11608 3.70671
# Velocity P-wave (km/s) = 5.47750 6.41838 5.96652
#
# Compressibility (1/GPa) = 0.02841290
#
# Stress axis : x y z
#
# Youngs Moduli (GPa) = 96.81238 48.11975 57.37257
#
# Poissons Ratio (x) = 0.29156 0.07689
# Poissons Ratio (y) = 0.58659 0.15288
# Poissons Ratio (z) = 0.12975 0.12822
#
# Static dielectric constant tensor:
#      x y z
#    x 4.465050 0.000000 0.000000 
#    y 0.000000 3.800980 0.000000 
#    z 0.000000 0.000000 4.020670 
# 
# 
# High freq. dielectric constant tensor:
#      x y z
#    x 1.884290 0.000000 0.000000 
#    y 0.000000 1.841620 0.000000 
#    z 0.000000 0.000000 1.866760 
# 
# From -- ./inp_files/9163.got.cif
#   From: 2010.03.12/outbox.cif.g09.slc.cpg/sg56_5_cif.got.tgz:9163.got - 2010.04.16 15:33:40.
