data_PCOD8228015
_publ_section_title
;
Structure prediction by ZEFSAII (Michael W. Deem and Ramdas Pophale) SiO2 
 PCOD8228015
Probable space group: P C C N
;
_chemical_formula_sum "Si O2"
_cell_formula_units_Z 64
_cell_length_a 8.496227
_cell_length_b 19.176321
_cell_length_c 18.848480
_cell_angle_alpha 90.000000
_cell_angle_beta 90.000000
_cell_angle_gamma 90.000000
_cell_volume 3070.914544
_symmetry_space_group_name_H-M "P C C N"
_symmetry_group_IT_number 56
_symmetry_cell_setting 'orthorhombic'
loop_
_space_group_symop_operation_xyz
x,y,z
1/2-x,1/2-y,z
1/2+x,-y,1/2-z
-x,1/2+y,1/2-z
-x,-y,-z
1/2+x,1/2+y,-z
1/2-x,y,1/2+z
x,1/2-y,1/2+z
loop_
_atom_site_type_symbol
_atom_site_label
_atom_site_fract_x
_atom_site_fract_y
_atom_site_fract_z
Si Si1 0.109225 0.194004 0.869354
Si Si2 0.219996 0.923929 0.927674
Si Si3 0.291417 0.551612 0.770120
Si Si4 0.819713 0.318774 0.456685
Si Si5 0.259245 0.080339 0.951018
Si Si6 0.932471 0.592571 0.753143
Si Si7 0.083228 0.075383 0.590684
Si Si8 0.082172 0.917570 0.624015
O O1 0.250000 0.250000 0.872286
O O2 0.125215 0.130635 0.924381
O O3 0.090440 0.163979 0.790124
O O4 0.944452 0.218708 0.902433
O O5 0.167902 0.912801 0.845738
O O6 0.406492 0.911909 0.936335
O O7 0.187370 0.003061 0.951006
O O8 0.125871 0.870118 0.978698
O O9 0.319195 0.468231 0.776946
O O10 0.401884 0.585239 0.709716
O O11 0.109750 0.563433 0.749981
O O12 0.750000 0.250000 0.494502
O O13 0.696143 0.360976 0.409287
O O14 0.401385 0.094031 0.895730
O O15 0.304966 0.105698 0.029962
O O16 0.886493 0.612161 0.833976
O O17 0.127322 0.994008 0.596288
#
# Coordination Sequence:
#
# PCOD8228015 Si02
#       8
#     8   8   8   8   8   8   8   8
#     4  12  27  43  61  93 134 177 214 261 324 391
#     4  10  19  37  65  96 123 161 212 271 319 369
#     4  10  20  37  64  99 131 156 207 267 325 373
#     4  12  24  42  63  87 124 173 218 264 316 395
#     4  11  19  39  65  96 126 163 211 266 324 381
#     4  10  21  39  63  95 130 162 208 268 324 392
#     4   9  18  34  67  94 121 157 203 265 327 376
#     4  10  18  36  64  93 123 163 210 250 318 393
#
# _framework density 20.840696999999999
#
# number of rings (size 3 to 8) (size 9 to 14) (size 15 to 20)
#    0.000    1.500    5.000    2.250    0.000    0.500 
#    4.500    1.250    2.750    0.000    0.000    0.000 
#    0.000    0.000    0.000    0.000    0.000    0.000 
#
# Total GULP energy -793141.830033 kJ/mol
# GULP energy per Si atom -12392.841094 kJ/mol
# Density = 2.079326 g / cm^3
# Si number density = 20.840697 Si / 1000 Ang^3
#
#
#
# Elastic Constant Matrix: (Units=GPa)
#
#
# Indices 1 2 3 4 5 6 
#
# 1 44.6666 28.7128 19.9337 0.0000 0.0000 0.0000
# 2 28.7128 72.8844 47.2155 0.0000 0.0000 0.0000
# 3 19.9337 47.2155 130.6710 0.0000 0.0000 0.0000
# 4 0.0000 0.0000 0.0000 26.5551 0.0000 0.0000
# 5 0.0000 0.0000 0.0000 0.0000 30.8550 0.0000
# 6 0.0000 0.0000 0.0000 0.0000 0.0000 30.6604
#
#
#
# Elastic Compliance Matrix: (Units=1/GPa)
#
#
# Indices 1 2 3 4 5 6 
#
# 1 0.029996 -0.011558 -0.000400 0.000000 0.000000 0.000000
# 2 -0.011558 0.022367 -0.006319 0.000000 0.000000 0.000000
# 3 -0.000400 -0.006319 0.009997 0.000000 0.000000 0.000000
# 4 0.000000 0.000000 0.000000 0.037658 0.000000 0.000000
# 5 0.000000 0.000000 0.000000 0.000000 0.032410 0.000000
# 6 0.000000 0.000000 0.000000 0.000000 0.000000 0.032615
#
#
# Mechanical properties :
#
#
# Convention : Reuss Voigt Hill
#
# Bulk Modulus (GPa) = 38.74875 48.88290 43.81582
# Shear Modulus (GPa) = 23.78707 27.77142 25.77924
#
# Velocity S-wave (km/s) = 3.38209 3.65438 3.52087
# Velocity P-wave (km/s) = 5.82105 6.42747 6.13176
#
# Compressibility (1/GPa) = 0.02580729
#
# Stress axis : x y z
#
# Youngs Moduli (GPa) = 33.33748 44.70864 100.03090
#
# Poissons Ratio (x) = 0.51675 0.03997
# Poissons Ratio (y) = 0.38532 0.63207
# Poissons Ratio (z) = 0.01332 0.28250
#
# Static dielectric constant tensor:
#      x y z
#    x 3.643270 0.000000 0.000000 
#    y 0.000000 3.492560 0.000000 
#    z 0.000000 0.000000 4.103440 
# 
# 
# High freq. dielectric constant tensor:
#      x y z
#    x 1.805150 0.000000 0.000000 
#    y 0.000000 1.783980 0.000000 
#    z 0.000000 0.000000 1.832340 
# 
# From -- ./inp_files/18372.got.cif
#   From: 2010.03.12/outbox.cif.g09.slc.cpg/sg56_10_cif.got.tgz:18372.got - 2010.04.16 15:33:40.
