data_PCOD8228605
_publ_section_title
;
Structure prediction by ZEFSAII (Michael W. Deem and Ramdas Pophale) SiO2 
 PCOD8228605
Probable space group: P C C N
;
_chemical_formula_sum "Si O2"
_cell_formula_units_Z 64
_cell_length_a 9.254389
_cell_length_b 14.133743
_cell_length_c 22.922940
_cell_angle_alpha 90.000000
_cell_angle_beta 90.000000
_cell_angle_gamma 90.000000
_cell_volume 2998.301199
_symmetry_space_group_name_H-M "P C C N"
_symmetry_group_IT_number 56
_symmetry_cell_setting 'orthorhombic'
loop_
_space_group_symop_operation_xyz
x,y,z
1/2-x,1/2-y,z
1/2+x,-y,1/2-z
-x,1/2+y,1/2-z
-x,-y,-z
1/2+x,1/2+y,-z
1/2-x,y,1/2+z
x,1/2-y,1/2+z
loop_
_atom_site_type_symbol
_atom_site_label
_atom_site_fract_x
_atom_site_fract_y
_atom_site_fract_z
Si Si1 0.639334 0.825166 0.783077
Si Si2 0.474223 0.939049 0.056589
Si Si3 0.712743 0.539134 0.876753
Si Si4 0.264291 0.983848 0.888304
Si Si5 0.083095 0.729314 0.567805
Si Si6 0.607468 0.210460 0.140123
Si Si7 0.023538 0.399799 0.333370
Si Si8 0.464136 0.864289 0.449424
O O1 0.750000 0.750000 0.754845
O O2 0.718409 0.897239 0.826392
O O3 0.530428 0.763452 0.821858
O O4 0.539439 0.871053 0.733719
O O5 0.466924 0.828903 0.041853
O O6 0.335681 0.979793 0.090350
O O7 0.623598 0.938533 0.091289
O O8 0.500000 0.000000 0.000000
O O9 0.615565 0.464627 0.842228
O O10 0.619171 0.600128 0.924117
O O11 0.370320 0.901363 0.865259
O O12 0.157704 0.943415 0.937911
O O13 0.167171 0.037432 0.841423
O O14 0.250000 0.750000 0.582775
O O15 0.042655 0.650120 0.519081
O O16 0.996502 0.692663 0.625102
O O17 0.750000 0.250000 0.171983
O O18 0.585021 0.264878 0.078898
#
# Coordination Sequence:
#
# PCOD8228605 Si02
#       8
#     8   8   8   8   8   8   8   8
#     4  12  26  46  73 101 141 182 248 299 340 418
#     4  12  25  41  71 106 142 179 230 289 358 428
#     4  11  25  48  72 105 138 188 243 296 356 426
#     4  10  23  42  67  99 140 176 227 281 351 424
#     4  12  25  46  71 103 146 185 229 291 361 438
#     4  10  20  42  69 103 130 179 230 291 347 409
#     4  11  29  47  67 102 142 195 230 292 367 423
#     4  10  22  44  74 101 141 177 231 287 360 426
#
# _framework density 21.345421000000002
#
# number of rings (size 3 to 8) (size 9 to 14) (size 15 to 20)
#    0.000    1.000    3.750    2.625    5.250    1.500 
#    0.000    0.000    0.000    0.000    0.000    0.000 
#    0.000    0.000    0.000    0.000    0.000    0.000 
#
# Total GULP energy -793104.760593 kJ/mol
# GULP energy per Si atom -12392.261884 kJ/mol
# Density = 2.129684 g / cm^3
# Si number density = 21.345421 Si / 1000 Ang^3
#
#
#
# Elastic Constant Matrix: (Units=GPa)
#
#
# Indices 1 2 3 4 5 6 
#
# 1 118.7861 21.0719 40.9822 0.0000 0.0000 0.0000
# 2 21.0719 75.3939 9.5336 0.0000 0.0000 0.0000
# 3 40.9822 9.5336 73.0840 0.0000 0.0000 0.0000
# 4 0.0000 0.0000 0.0000 18.0121 0.0000 0.0000
# 5 0.0000 0.0000 0.0000 0.0000 18.5560 0.0000
# 6 0.0000 0.0000 0.0000 0.0000 0.0000 31.7949
#
#
#
# Elastic Compliance Matrix: (Units=1/GPa)
#
#
# Indices 1 2 3 4 5 6 
#
# 1 0.010814 -0.002294 -0.005765 0.000000 0.000000 0.000000
# 2 -0.002294 0.013973 -0.000537 0.000000 0.000000 0.000000
# 3 -0.005765 -0.000537 0.016986 0.000000 0.000000 0.000000
# 4 0.000000 0.000000 0.000000 0.055518 0.000000 0.000000
# 5 0.000000 0.000000 0.000000 0.000000 0.053891 0.000000
# 6 0.000000 0.000000 0.000000 0.000000 0.000000 0.031452
#
#
# Mechanical properties :
#
#
# Convention : Reuss Voigt Hill
#
# Bulk Modulus (GPa) = 40.67965 45.60437 43.14201
# Shear Modulus (GPa) = 24.03643 26.71769 25.37706
#
# Velocity S-wave (km/s) = 3.35934 3.54175 3.45175
# Velocity P-wave (km/s) = 5.84346 6.17549 6.01177
#
# Compressibility (1/GPa) = 0.02458231
#
# Stress axis : x y z
#
# Youngs Moduli (GPa) = 92.46989 71.56899 58.87323
#
# Poissons Ratio (x) = 0.16414 0.33940
# Poissons Ratio (y) = 0.21208 0.03159
# Poissons Ratio (z) = 0.53309 0.03840
#
# Static dielectric constant tensor:
#      x y z
#    x 4.122870 0.000000 0.000000 
#    y 0.000000 3.887720 0.000000 
#    z 0.000000 0.000000 3.556340 
# 
# 
# High freq. dielectric constant tensor:
#      x y z
#    x 1.860020 0.000000 0.000000 
#    y 0.000000 1.847930 0.000000 
#    z 0.000000 0.000000 1.815730 
# 
# From -- ./inp_files/20666.got.cif
#   From: 2010.03.12/outbox.cif.g09.slc.cpg/sg56_11_cif.got.tgz:20666.got - 2010.04.16 15:33:40.
