data_PCOD8228097
_publ_section_title
;
Structure prediction by ZEFSAII (Michael W. Deem and Ramdas Pophale) SiO2 
 PCOD8228097
Probable space group: P C C N
;
_chemical_formula_sum "Si O2"
_cell_formula_units_Z 60
_cell_length_a 12.250881
_cell_length_b 11.771097
_cell_length_c 21.113254
_cell_angle_alpha 90.000000
_cell_angle_beta 90.000000
_cell_angle_gamma 90.000000
_cell_volume 3044.664422
_symmetry_space_group_name_H-M "P C C N"
_symmetry_group_IT_number 56
_symmetry_cell_setting 'orthorhombic'
loop_
_space_group_symop_operation_xyz
x,y,z
1/2-x,1/2-y,z
1/2+x,-y,1/2-z
-x,1/2+y,1/2-z
-x,-y,-z
1/2+x,1/2+y,-z
1/2-x,y,1/2+z
x,1/2-y,1/2+z
loop_
_atom_site_type_symbol
_atom_site_label
_atom_site_fract_x
_atom_site_fract_y
_atom_site_fract_z
Si Si1 0.150440 0.319992 0.082428
Si Si2 0.464566 0.847880 0.444919
Si Si3 0.661767 0.660681 0.271031
Si Si4 0.543290 0.081370 0.417249
Si Si5 0.570745 0.197445 0.286377
Si Si6 0.707850 0.441365 0.429792
Si Si7 0.794619 0.414125 0.784684
Si Si8 0.750000 0.250000 0.020430
O O1 0.250000 0.250000 0.050669
O O2 0.182815 0.343882 0.154626
O O3 0.144302 0.443726 0.048387
O O4 0.037024 0.254084 0.081896
O O5 0.500334 0.860557 0.518510
O O6 0.337631 0.814165 0.436136
O O7 0.476912 0.964412 0.404531
O O8 0.750000 0.750000 0.240820
O O9 0.537505 0.690006 0.255295
O O10 0.682313 0.531514 0.247819
O O11 0.536747 0.172516 0.359903
O O12 0.663481 0.035908 0.432584
O O13 0.620764 0.317399 0.263786
O O14 0.666610 0.107962 0.270385
O O15 0.676966 0.409290 0.358913
O O16 0.679983 0.336582 0.476209
#
# Coordination Sequence:
#
# PCOD8228097 Si02
#       8
#     8   8   8   8   8   8   8   4
#     4  10  19  34  54  80 102 140 187 234 265 324
#     4  10  19  33  54  82 110 143 179 226 282 337
#     4  10  23  36  57  82 115 148 186 233 289 330
#     4   9  18  33  58  81 105 143 190 228 274 331
#     4  10  20  37  61  83 108 148 189 238 276 336
#     4   9  16  33  56  78 103 138 185 234 260 319
#     4   9  19  35  58  86 105 139 195 232 276 325
#     4  10  20  32  52  80 116 146 176 220 284 344
#
# _framework density 19.706606000000001
#
# number of rings (size 3 to 8) (size 9 to 14) (size 15 to 20)
#    0.000    2.400    1.333    2.400    3.733    0.533 
#    0.000    3.333    0.000    0.000    0.000    0.000 
#    0.000    0.000    0.000    0.000    0.000    0.000 
#
# Total GULP energy -743390.539121 kJ/mol
# GULP energy per Si atom -12389.842319 kJ/mol
# Density = 1.966175 g / cm^3
# Si number density = 19.706606 Si / 1000 Ang^3
#
#
#
# Elastic Constant Matrix: (Units=GPa)
#
#
# Indices 1 2 3 4 5 6 
#
# 1 91.3701 40.6119 3.2282 0.0000 0.0000 0.0000
# 2 40.6119 124.1142 9.2279 0.0000 0.0000 0.0000
# 3 3.2282 9.2279 13.0485 0.0000 0.0000 0.0000
# 4 0.0000 0.0000 0.0000 17.2671 0.0000 0.0000
# 5 0.0000 0.0000 0.0000 0.0000 26.3799 0.0000
# 6 0.0000 0.0000 0.0000 0.0000 0.0000 31.0218
#
#
#
# Elastic Compliance Matrix: (Units=1/GPa)
#
#
# Indices 1 2 3 4 5 6 
#
# 1 0.012808 -0.004175 -0.000216 0.000000 0.000000 0.000000
# 2 -0.004175 0.009865 -0.005944 0.000000 0.000000 0.000000
# 3 -0.000216 -0.005944 0.080894 0.000000 0.000000 0.000000
# 4 0.000000 0.000000 0.000000 0.057914 0.000000 0.000000
# 5 0.000000 0.000000 0.000000 0.000000 0.037908 0.000000
# 6 0.000000 0.000000 0.000000 0.000000 0.000000 0.032235
#
#
# Mechanical properties :
#
#
# Convention : Reuss Voigt Hill
#
# Bulk Modulus (GPa) = 12.06314 37.18544 24.62429
# Shear Modulus (GPa) = 17.86192 26.63141 22.24667
#
# Velocity S-wave (km/s) = 3.01390 3.68012 3.36355
# Velocity P-wave (km/s) = 4.27155 6.08015 5.25425
#
# Compressibility (1/GPa) = 0.08289715
#
# Stress axis : x y z
#
# Youngs Moduli (GPa) = 78.07781 101.36788 12.36189
#
# Poissons Ratio (x) = 0.42319 0.00267
# Poissons Ratio (y) = 0.32596 0.07348
# Poissons Ratio (z) = 0.01688 0.60250
#
# Static dielectric constant tensor:
#      x y z
#    x 3.401200 0.000000 0.000000 
#    y 0.000000 4.024530 0.000000 
#    z 0.000000 0.000000 3.234260 
# 
# 
# High freq. dielectric constant tensor:
#      x y z
#    x 1.757720 0.000000 0.000000 
#    y 0.000000 1.786440 0.000000 
#    z 0.000000 0.000000 1.721490 
# 
# From -- ./inp_files/18790.got.cif
#   From: 2010.03.12/outbox.cif.g09.slc.cpg/sg56_10_cif.got.tgz:18790.got - 2010.04.16 15:33:40.
