data_PCOD8228260
_publ_section_title
;
Structure prediction by ZEFSAII (Michael W. Deem and Ramdas Pophale) SiO2 
 PCOD8228260
Probable space group: P C C N
;
_chemical_formula_sum "Si O2"
_cell_formula_units_Z 48
_cell_length_a 7.673360
_cell_length_b 14.093461
_cell_length_c 19.221849
_cell_angle_alpha 90.000000
_cell_angle_beta 90.000000
_cell_angle_gamma 90.000000
_cell_volume 2078.731481
_symmetry_space_group_name_H-M "P C C N"
_symmetry_group_IT_number 56
_symmetry_cell_setting 'orthorhombic'
loop_
_space_group_symop_operation_xyz
x,y,z
1/2-x,1/2-y,z
1/2+x,-y,1/2-z
-x,1/2+y,1/2-z
-x,-y,-z
1/2+x,1/2+y,-z
1/2-x,y,1/2+z
x,1/2-y,1/2+z
loop_
_atom_site_type_symbol
_atom_site_label
_atom_site_fract_x
_atom_site_fract_y
_atom_site_fract_z
Si Si1 0.801713 0.017948 0.479660
Si Si2 0.791191 0.979586 0.128804
Si Si3 0.119975 0.166645 0.056823
Si Si4 0.923772 0.687881 0.172824
Si Si5 0.618228 0.165122 0.687704
Si Si6 0.068428 0.842922 0.087809
O O1 0.698342 0.026748 0.552269
O O2 0.726212 0.931199 0.434828
O O3 0.757707 0.114509 0.435711
O O4 0.000000 0.000000 0.500000
O O5 0.619651 0.912906 0.135971
O O6 0.968952 0.919044 0.136968
O O7 0.783527 0.062883 0.186663
O O8 0.250000 0.250000 0.073572
O O9 0.969752 0.175712 0.113236
O O10 0.047465 0.179396 0.979519
O O11 0.750000 0.750000 0.172821
O O12 0.978187 0.665621 0.251072
O O13 0.078222 0.744087 0.131296
O O14 0.750000 0.250000 0.700843
#
# Coordination Sequence:
#
# PCOD8228260 Si02
#       6
#     8   8   8   8   8   8
#     4  11  22  39  70 111 137 179 239 299 372 436
#     4  10  21  45  66  98 139 186 239 297 358 436
#     4  11  22  41  70 102 143 184 229 302 366 428
#     4  10  24  45  71  99 139 196 246 301 370 443
#     4  12  26  43  65 100 146 192 245 299 365 442
#     4  10  19  44  73  99 141 179 239 303 365 433
#
# _framework density 23.091004999999999
#
# number of rings (size 3 to 8) (size 9 to 14) (size 15 to 20)
#    0.000    1.333    3.333    4.000    2.333    4.000 
#    3.000    2.500    0.000    0.000    0.000    0.000 
#    0.000    0.000    0.000    0.000    0.000    0.000 
#
# Total GULP energy -595072.912582 kJ/mol
# GULP energy per Si atom -12397.352345 kJ/mol
# Density = 2.303845 g / cm^3
# Si number density = 23.091005 Si / 1000 Ang^3
#
#
#
# Elastic Constant Matrix: (Units=GPa)
#
#
# Indices 1 2 3 4 5 6 
#
# 1 80.5535 41.4194 9.7358 0.0000 0.0000 0.0000
# 2 41.4194 143.8751 50.9398 0.0000 0.0000 0.0000
# 3 9.7358 50.9398 87.2384 0.0000 0.0000 0.0000
# 4 0.0000 0.0000 0.0000 27.9023 0.0000 0.0000
# 5 0.0000 0.0000 0.0000 0.0000 27.0635 0.0000
# 6 0.0000 0.0000 0.0000 0.0000 0.0000 41.1514
#
#
#
# Elastic Compliance Matrix: (Units=1/GPa)
#
#
# Indices 1 2 3 4 5 6 
#
# 1 0.014646 -0.004586 0.001043 0.000000 0.000000 0.000000
# 2 -0.004586 0.010198 -0.005443 0.000000 0.000000 0.000000
# 3 0.001043 -0.005443 0.014525 0.000000 0.000000 0.000000
# 4 0.000000 0.000000 0.000000 0.035839 0.000000 0.000000
# 5 0.000000 0.000000 0.000000 0.000000 0.036950 0.000000
# 6 0.000000 0.000000 0.000000 0.000000 0.000000 0.024301
#
#
# Mechanical properties :
#
#
# Convention : Reuss Voigt Hill
#
# Bulk Modulus (GPa) = 46.73440 57.31744 52.02592
# Shear Modulus (GPa) = 30.94801 33.19491 32.07146
#
# Velocity S-wave (km/s) = 3.66493 3.79564 3.73086
# Velocity P-wave (km/s) = 6.17998 6.63969 6.41395
#
# Compressibility (1/GPa) = 0.02139751
#
# Stress axis : x y z
#
# Youngs Moduli (GPa) = 68.27841 98.06159 68.84882
#
# Poissons Ratio (x) = 0.44968 -0.07182
# Poissons Ratio (y) = 0.31310 0.37473
# Poissons Ratio (z) = -0.07122 0.53373
#
# Static dielectric constant tensor:
#      x y z
#    x 3.968460 0.000000 0.000000 
#    y 0.000000 4.510350 0.000000 
#    z 0.000000 0.000000 4.215210 
# 
# 
# High freq. dielectric constant tensor:
#      x y z
#    x 1.907640 0.000000 0.000000 
#    y 0.000000 1.929200 0.000000 
#    z 0.000000 0.000000 1.897880 
# 
# From -- ./inp_files/14776.got.cif
#   From: 2010.03.12/outbox.cif.g09.slc.cpg/sg56_8_cif.got.tgz:14776.got - 2010.04.16 15:33:40.
