data_PCOD8228029
_publ_section_title
;
Structure prediction by ZEFSAII (Michael W. Deem and Ramdas Pophale) SiO2 
 PCOD8228029
Probable space group: P C C N
;
_chemical_formula_sum "Si O2"
_cell_formula_units_Z 48
_cell_length_a 11.974886
_cell_length_b 14.034710
_cell_length_c 14.583349
_cell_angle_alpha 90.000000
_cell_angle_beta 90.000000
_cell_angle_gamma 90.000000
_cell_volume 2450.936729
_symmetry_space_group_name_H-M "P C C N"
_symmetry_group_IT_number 56
_symmetry_cell_setting 'orthorhombic'
loop_
_space_group_symop_operation_xyz
x,y,z
1/2-x,1/2-y,z
1/2+x,-y,1/2-z
-x,1/2+y,1/2-z
-x,-y,-z
1/2+x,1/2+y,-z
1/2-x,y,1/2+z
x,1/2-y,1/2+z
loop_
_atom_site_type_symbol
_atom_site_label
_atom_site_fract_x
_atom_site_fract_y
_atom_site_fract_z
Si Si1 0.555011 0.869961 0.441802
Si Si2 0.820443 0.057710 0.892511
Si Si3 0.139647 0.192514 0.243203
Si Si4 0.233819 0.483683 0.284517
Si Si5 0.793362 0.144225 0.075892
Si Si6 0.960184 0.651705 0.648992
O O1 0.617789 0.807045 0.365673
O O2 0.425889 0.865976 0.414310
O O3 0.575061 0.828993 0.543348
O O4 0.604661 0.976140 0.440853
O O5 0.911027 0.122919 0.840693
O O6 0.727230 0.022879 0.820349
O O7 0.756627 0.115468 0.972621
O O8 0.250000 0.250000 0.263858
O O9 0.158170 0.086789 0.284831
O O10 0.043148 0.247631 0.297814
O O11 0.261016 0.569820 0.353109
O O12 0.118782 0.429409 0.306415
O O13 0.750000 0.250000 0.098527
#
# Coordination Sequence:
#
# PCOD8228029 Si02
#       6
#     8   8   8   8   8   8
#     4  10  19  39  61  78 116 158 190 228 284 354
#     4  10  20  38  62  79 115 155 192 229 286 348
#     4   9  21  34  56  90 112 144 196 238 282 329
#     4  10  20  37  58  86 110 149 187 242 275 332
#     4  11  22  37  58  87 112 151 194 231 290 339
#     4  10  18  38  61  84 113 151 193 226 285 347
#
# _framework density 19.584349
#
# number of rings (size 3 to 8) (size 9 to 14) (size 15 to 20)
#    0.000    2.000    3.333    1.000    2.333    2.667 
#    6.000    0.000    0.000    5.000    0.000    0.000 
#    0.000    0.000    0.000    0.000    0.000    0.000 
#
# Total GULP energy -595008.236081 kJ/mol
# GULP energy per Si atom -12396.004918 kJ/mol
# Density = 1.953977 g / cm^3
# Si number density = 19.584349 Si / 1000 Ang^3
#
#
#
# Elastic Constant Matrix: (Units=GPa)
#
#
# Indices 1 2 3 4 5 6 
#
# 1 28.8062 12.1424 31.0446 0.0000 0.0000 0.0000
# 2 12.1424 109.6575 52.5313 0.0000 0.0000 0.0000
# 3 31.0446 52.5313 112.2234 0.0000 0.0000 0.0000
# 4 0.0000 0.0000 0.0000 37.2656 0.0000 0.0000
# 5 0.0000 0.0000 0.0000 0.0000 27.3515 0.0000
# 6 0.0000 0.0000 0.0000 0.0000 0.0000 20.6141
#
#
#
# Elastic Compliance Matrix: (Units=1/GPa)
#
#
# Indices 1 2 3 4 5 6 
#
# 1 0.049625 0.001394 -0.014380 0.000000 0.000000 0.000000
# 2 0.001394 0.011794 -0.005907 0.000000 0.000000 0.000000
# 3 -0.014380 -0.005907 0.015654 0.000000 0.000000 0.000000
# 4 0.000000 0.000000 0.000000 0.026834 0.000000 0.000000
# 5 0.000000 0.000000 0.000000 0.000000 0.036561 0.000000
# 6 0.000000 0.000000 0.000000 0.000000 0.000000 0.048510
#
#
# Mechanical properties :
#
#
# Convention : Reuss Voigt Hill
#
# Bulk Modulus (GPa) = 25.45364 49.12485 37.28925
# Shear Modulus (GPa) = 20.84545 27.37750 24.11147
#
# Velocity S-wave (km/s) = 3.26604 3.74294 3.51260
# Velocity P-wave (km/s) = 5.21995 6.61949 5.96094
#
# Compressibility (1/GPa) = 0.03928711
#
# Stress axis : x y z
#
# Youngs Moduli (GPa) = 20.15120 84.78546 63.88277
#
# Poissons Ratio (x) = -0.11818 0.91865
# Poissons Ratio (y) = -0.02809 0.37733
# Poissons Ratio (z) = 0.28978 0.50079
#
# Static dielectric constant tensor:
#      x y z
#    x 3.269820 0.000000 0.000000 
#    y 0.000000 3.826550 0.000000 
#    z 0.000000 0.000000 3.710130 
# 
# 
# High freq. dielectric constant tensor:
#      x y z
#    x 1.733330 0.000000 0.000000 
#    y 0.000000 1.764800 0.000000 
#    z 0.000000 0.000000 1.772480 
# 
# From -- ./inp_files/7802.got.cif
#   From: 2010.03.12/outbox.cif.g09.slc.cpg/sg56_4_cif.got.tgz:7802.got - 2010.04.16 15:33:40.
