data_PCOD8228996
_publ_section_title
;
Structure prediction by ZEFSAII (Michael W. Deem and Ramdas Pophale) SiO2 
 PCOD8228996
Probable space group: P C C N
;
_chemical_formula_sum "Si O2"
_cell_formula_units_Z 48
_cell_length_a 8.165204
_cell_length_b 16.883154
_cell_length_c 15.933982
_cell_angle_alpha 90.000000
_cell_angle_beta 90.000000
_cell_angle_gamma 90.000000
_cell_volume 2196.569474
_symmetry_space_group_name_H-M "P C C N"
_symmetry_group_IT_number 56
_symmetry_cell_setting 'orthorhombic'
loop_
_space_group_symop_operation_xyz
x,y,z
1/2-x,1/2-y,z
1/2+x,-y,1/2-z
-x,1/2+y,1/2-z
-x,-y,-z
1/2+x,1/2+y,-z
1/2-x,y,1/2+z
x,1/2-y,1/2+z
loop_
_atom_site_type_symbol
_atom_site_label
_atom_site_fract_x
_atom_site_fract_y
_atom_site_fract_z
Si Si1 0.334766 0.905965 0.686964
Si Si2 0.112692 0.094582 0.444508
Si Si3 0.021495 0.454512 0.764803
Si Si4 0.245995 0.939348 0.006020
Si Si5 0.485865 0.654080 0.879914
Si Si6 0.750000 0.750000 0.986573
Si Si7 0.250000 0.750000 0.265353
O O1 0.361328 0.923130 0.588835
O O2 0.339206 0.812696 0.704223
O O3 0.166354 0.942405 0.717744
O O4 0.466037 0.951971 0.744159
O O5 0.121766 0.071409 0.346876
O O6 0.169529 0.184703 0.453436
O O7 0.931231 0.092582 0.484704
O O8 0.238124 0.034124 0.490923
O O9 0.081671 0.405600 0.682707
O O10 0.149003 0.894580 0.932948
O O11 0.390459 0.715374 0.822510
O O12 0.614502 0.705105 0.931883
#
# Coordination Sequence:
#
# PCOD8228996 Si02
#       7
#     8   8   8   8   8   4   4
#     4  10  22  39  63  91 118 157 203 246 299 361
#     4  10  22  41  64  90 120 158 204 252 301 360
#     4  10  22  40  61  87 119 159 201 241 302 367
#     4  10  22  43  65  85 121 169 206 239 300 378
#     4  11  24  40  60  89 123 161 201 247 305 362
#     4  12  26  38  60  96 122 152 204 260 304 344
#     4  10  22  40  62  88 120 158 198 246 302 356
#
# _framework density 21.852255
#
# number of rings (size 3 to 8) (size 9 to 14) (size 15 to 20)
#    0.000    1.667    0.000    4.000    0.000   13.333 
#    0.000    0.000    0.000    0.000    0.000    0.000 
#    0.000    0.000    0.000    0.000    0.000    0.000 
#
# Total GULP energy -595121.269398 kJ/mol
# GULP energy per Si atom -12398.359779 kJ/mol
# Density = 2.180252 g / cm^3
# Si number density = 21.852255 Si / 1000 Ang^3
#
#
#
# Elastic Constant Matrix: (Units=GPa)
#
#
# Indices 1 2 3 4 5 6 
#
# 1 37.2120 34.0306 24.6256 0.0000 0.0000 0.0000
# 2 34.0306 164.1217 62.8928 0.0000 0.0000 0.0000
# 3 24.6256 62.8928 137.1333 0.0000 0.0000 0.0000
# 4 0.0000 0.0000 0.0000 28.5441 0.0000 0.0000
# 5 0.0000 0.0000 0.0000 0.0000 14.2650 0.0000
# 6 0.0000 0.0000 0.0000 0.0000 0.0000 37.8987
#
#
#
# Elastic Compliance Matrix: (Units=1/GPa)
#
#
# Indices 1 2 3 4 5 6 
#
# 1 0.034520 -0.005802 -0.003538 0.000000 0.000000 0.000000
# 2 -0.005802 0.008367 -0.002796 0.000000 0.000000 0.000000
# 3 -0.003538 -0.002796 0.009210 0.000000 0.000000 0.000000
# 4 0.000000 0.000000 0.000000 0.035034 0.000000 0.000000
# 5 0.000000 0.000000 0.000000 0.000000 0.070102 0.000000
# 6 0.000000 0.000000 0.000000 0.000000 0.000000 0.026386
#
#
# Mechanical properties :
#
#
# Convention : Reuss Voigt Hill
#
# Bulk Modulus (GPa) = 35.93745 64.61833 50.27789
# Shear Modulus (GPa) = 23.02394 30.60275 26.81334
#
# Velocity S-wave (km/s) = 3.24947 3.74630 3.50670
# Velocity P-wave (km/s) = 5.52812 6.95326 6.28124
#
# Compressibility (1/GPa) = 0.02782613
#
# Stress axis : x y z
#
# Youngs Moduli (GPa) = 28.96846 119.51174 108.58178
#
# Poissons Ratio (x) = 0.69340 0.38416
# Poissons Ratio (y) = 0.16807 0.30355
# Poissons Ratio (z) = 0.10249 0.33411
#
# Static dielectric constant tensor:
#      x y z
#    x 3.812600 0.000000 0.000000 
#    y 0.000000 4.331460 0.000000 
#    z 0.000000 0.000000 4.310980 
# 
# 
# High freq. dielectric constant tensor:
#      x y z
#    x 1.848850 0.000000 0.000000 
#    y 0.000000 1.870210 0.000000 
#    z 0.000000 0.000000 1.872950 
# 
# From -- ./inp_files/10725.got.cif
#   From: 2010.03.12/outbox.cif.g09.slc.cpg/sg56_6_cif.got.tgz:10725.got - 2010.04.16 15:33:40.
