data_PCOD8228415
_publ_section_title
;
Structure prediction by ZEFSAII (Michael W. Deem and Ramdas Pophale) SiO2 
 PCOD8228415
Probable space group: P C C N
;
_chemical_formula_sum "Si O2"
_cell_formula_units_Z 48
_cell_length_a 15.043167
_cell_length_b 8.209940
_cell_length_c 18.652980
_cell_angle_alpha 90.000000
_cell_angle_beta 90.000000
_cell_angle_gamma 90.000000
_cell_volume 2303.708287
_symmetry_space_group_name_H-M "P C C N"
_symmetry_group_IT_number 56
_symmetry_cell_setting 'orthorhombic'
loop_
_space_group_symop_operation_xyz
x,y,z
1/2-x,1/2-y,z
1/2+x,-y,1/2-z
-x,1/2+y,1/2-z
-x,-y,-z
1/2+x,1/2+y,-z
1/2-x,y,1/2+z
x,1/2-y,1/2+z
loop_
_atom_site_type_symbol
_atom_site_label
_atom_site_fract_x
_atom_site_fract_y
_atom_site_fract_z
Si Si1 0.046968 0.867470 0.786645
Si Si2 0.172899 0.137516 0.575418
Si Si3 0.000593 0.867027 0.937384
Si Si4 0.273471 0.935614 0.214356
Si Si5 0.898936 0.496496 0.195385
Si Si6 0.909624 0.442829 0.036394
O O1 0.140787 0.941268 0.764443
O O2 0.055269 0.677356 0.799605
O O3 0.016905 0.955805 0.860957
O O4 0.970750 0.879149 0.726932
O O5 0.250000 0.250000 0.546115
O O6 0.085272 0.251274 0.574490
O O7 0.202683 0.057566 0.650265
O O8 0.167038 0.988470 0.519593
O O9 0.085755 0.751951 0.953729
O O10 0.000000 0.000000 0.000000
O O11 0.250000 0.750000 0.189166
O O12 0.192722 0.009304 0.260700
O O13 0.887328 0.535417 0.111111
O O14 0.000000 0.500000 0.000000
#
# Coordination Sequence:
#
# PCOD8228415 Si02
#       6
#     8   8   8   8   8   8
#     4  10  20  37  60  85 120 159 198 253 311 365
#     4  11  23  40  59  88 123 159 205 258 310 373
#     4  10  22  39  61  91 123 163 208 251 309 382
#     4  10  22  39  61  88 117 158 209 257 317 378
#     4  10  21  38  61  89 119 157 205 256 309 374
#     4   9  20  39  60  85 121 160 202 251 304 364
#
# _framework density 20.835971000000001
#
# number of rings (size 3 to 8) (size 9 to 14) (size 15 to 20)
#    0.000    2.000    0.000    4.000    0.000    8.000 
#    0.000    6.667    0.000    0.000    0.000    0.000 
#    0.000    0.000    0.000    0.000    0.000    0.000 
#
# Total GULP energy -594792.554492 kJ/mol
# GULP energy per Si atom -12391.511552 kJ/mol
# Density = 2.078855 g / cm^3
# Si number density = 20.835971 Si / 1000 Ang^3
#
#
#
# Elastic Constant Matrix: (Units=GPa)
#
#
# Indices 1 2 3 4 5 6 
#
# 1 121.6047 41.9545 62.1847 0.0000 0.0000 0.0000
# 2 41.9545 58.1432 54.4801 0.0000 0.0000 0.0000
# 3 62.1847 54.4801 171.5675 0.0000 0.0000 0.0000
# 4 0.0000 0.0000 0.0000 36.0774 0.0000 0.0000
# 5 0.0000 0.0000 0.0000 0.0000 39.5419 0.0000
# 6 0.0000 0.0000 0.0000 0.0000 0.0000 35.5797
#
#
#
# Elastic Compliance Matrix: (Units=1/GPa)
#
#
# Indices 1 2 3 4 5 6 
#
# 1 0.011496 -0.006251 -0.002182 0.000000 0.000000 0.000000
# 2 -0.006251 0.027882 -0.006588 0.000000 0.000000 0.000000
# 3 -0.002182 -0.006588 0.008711 0.000000 0.000000 0.000000
# 4 0.000000 0.000000 0.000000 0.027718 0.000000 0.000000
# 5 0.000000 0.000000 0.000000 0.000000 0.025290 0.000000
# 6 0.000000 0.000000 0.000000 0.000000 0.000000 0.028106
#
#
# Mechanical properties :
#
#
# Convention : Reuss Voigt Hill
#
# Bulk Modulus (GPa) = 55.40746 74.28378 64.84562
# Shear Modulus (GPa) = 30.25526 35.08622 32.67074
#
# Velocity S-wave (km/s) = 3.81474 4.10802 3.96409
# Velocity P-wave (km/s) = 6.78623 7.63087 7.22091
#
# Compressibility (1/GPa) = 0.01804811
#
# Stress axis : x y z
#
# Youngs Moduli (GPa) = 86.99038 35.86482 114.79116
#
# Poissons Ratio (x) = 0.22418 0.25044
# Poissons Ratio (y) = 0.54374 0.75629
# Poissons Ratio (z) = 0.18979 0.23629
#
# Static dielectric constant tensor:
#      x y z
#    x 3.639760 0.000000 0.000000 
#    y 0.000000 3.959470 0.000000 
#    z 0.000000 0.000000 4.242300 
# 
# 
# High freq. dielectric constant tensor:
#      x y z
#    x 1.816380 0.000000 0.000000 
#    y 0.000000 1.804570 0.000000 
#    z 0.000000 0.000000 1.829700 
# 
# From -- ./inp_files/16154.got.cif
#   From: 2010.03.12/outbox.cif.g09.slc.cpg/sg56_9_cif.got.tgz:16154.got - 2010.04.16 15:33:40.
