data_PCOD8228253
_publ_section_title
;
Structure prediction by ZEFSAII (Michael W. Deem and Ramdas Pophale) SiO2 
 PCOD8228253
Probable space group: P C C N
;
_chemical_formula_sum "Si O2"
_cell_formula_units_Z 56
_cell_length_a 14.102187
_cell_length_b 14.543809
_cell_length_c 13.205068
_cell_angle_alpha 90.000000
_cell_angle_beta 90.000000
_cell_angle_gamma 90.000000
_cell_volume 2708.353032
_symmetry_space_group_name_H-M "P C C N"
_symmetry_group_IT_number 56
_symmetry_cell_setting 'orthorhombic'
loop_
_space_group_symop_operation_xyz
x,y,z
1/2-x,1/2-y,z
1/2+x,-y,1/2-z
-x,1/2+y,1/2-z
-x,-y,-z
1/2+x,1/2+y,-z
1/2-x,y,1/2+z
x,1/2-y,1/2+z
loop_
_atom_site_type_symbol
_atom_site_label
_atom_site_fract_x
_atom_site_fract_y
_atom_site_fract_z
Si Si1 0.023104 0.974774 0.271351
Si Si2 0.812377 0.528302 0.733225
Si Si3 0.251198 0.358709 0.450460
Si Si4 0.892192 0.176763 0.584205
Si Si5 0.841882 0.507235 0.402910
Si Si6 0.961934 0.908065 0.548510
Si Si7 0.180361 0.628677 0.424671
O O1 0.080621 0.888875 0.320733
O O2 0.915652 0.938648 0.268954
O O3 0.061458 0.004935 0.161500
O O4 0.033260 0.071574 0.331938
O O5 0.766446 0.608599 0.664704
O O6 0.747694 0.503608 0.828489
O O7 0.825632 0.435760 0.671550
O O8 0.250000 0.250000 0.455448
O O9 0.172274 0.402634 0.525667
O O10 0.354823 0.390449 0.486785
O O11 0.883824 0.284737 0.609638
O O12 0.788955 0.148153 0.546579
O O13 0.967869 0.171287 0.491605
O O14 0.856340 0.418385 0.473130
O O15 0.000000 0.000000 0.500000
#
# Coordination Sequence:
#
# PCOD8228253 Si02
#       7
#     8   8   8   8   8   8   8
#     4  11  21  38  66  90 126 175 214 261 323 403
#     4  11  22  43  63  92 132 171 219 264 332 385
#     4  11  25  42  66  94 135 171 219 281 319 388
#     4  10  20  41  63  95 128 162 224 262 327 387
#     4  11  21  42  65  90 129 175 213 259 340 380
#     4  10  19  41  67  89 123 176 218 257 321 403
#     4  10  22  40  64  94 135 163 205 295 317 377
#
# _framework density 20.676773000000001
#
# number of rings (size 3 to 8) (size 9 to 14) (size 15 to 20)
#    0.000    1.429    2.857    5.143    0.000    5.143 
#   10.286    0.000    0.000    0.000    0.000    0.000 
#    0.000    0.000    0.000    0.000    0.000    0.000 
#
# Total GULP energy -694041.615916 kJ/mol
# GULP energy per Si atom -12393.600284 kJ/mol
# Density = 2.062971 g / cm^3
# Si number density = 20.676773 Si / 1000 Ang^3
#
#
#
# Elastic Constant Matrix: (Units=GPa)
#
#
# Indices 1 2 3 4 5 6 
#
# 1 76.0419 18.4822 -8.4931 0.0000 0.0000 0.0000
# 2 18.4822 123.0792 31.2257 0.0000 0.0000 0.0000
# 3 -8.4931 31.2257 66.6828 0.0000 0.0000 0.0000
# 4 0.0000 0.0000 0.0000 13.8448 0.0000 0.0000
# 5 0.0000 0.0000 0.0000 0.0000 43.5447 0.0000
# 6 0.0000 0.0000 0.0000 0.0000 0.0000 16.8454
#
#
#
# Elastic Compliance Matrix: (Units=1/GPa)
#
#
# Indices 1 2 3 4 5 6 
#
# 1 0.014223 -0.002945 0.003191 0.000000 0.000000 0.000000
# 2 -0.002945 0.009830 -0.004978 0.000000 0.000000 0.000000
# 3 0.003191 -0.004978 0.017734 0.000000 0.000000 0.000000
# 4 0.000000 0.000000 0.000000 0.072229 0.000000 0.000000
# 5 0.000000 0.000000 0.000000 0.000000 0.022965 0.000000
# 6 0.000000 0.000000 0.000000 0.000000 0.000000 0.059363
#
#
# Mechanical properties :
#
#
# Convention : Reuss Voigt Hill
#
# Bulk Modulus (GPa) = 30.93947 38.69263 34.81605
# Shear Modulus (GPa) = 23.08572 29.81957 26.45265
#
# Velocity S-wave (km/s) = 3.34504 3.80172 3.58067
# Velocity P-wave (km/s) = 5.46945 6.16640 5.82835
#
# Compressibility (1/GPa) = 0.03232118
#
# Stress axis : x y z
#
# Youngs Moduli (GPa) = 70.30930 101.72793 56.38900
#
# Poissons Ratio (x) = 0.29962 -0.17992
# Poissons Ratio (y) = 0.20708 0.28072
# Poissons Ratio (z) = -0.22433 0.50643
#
# Static dielectric constant tensor:
#      x y z
#    x 3.787490 0.000000 0.000000 
#    y 0.000000 3.966030 0.000000 
#    z 0.000000 0.000000 4.359440 
# 
# 
# High freq. dielectric constant tensor:
#      x y z
#    x 1.820430 0.000000 0.000000 
#    y 0.000000 1.793500 0.000000 
#    z 0.000000 0.000000 1.811490 
# 
# From -- ./inp_files/7879.got.cif
#   From: 2010.03.12/outbox.cif.g09.slc.cpg/sg56_4_cif.got.tgz:7879.got - 2010.04.16 15:33:40.
