data_PCOD8228556
_publ_section_title
;
Structure prediction by ZEFSAII (Michael W. Deem and Ramdas Pophale) SiO2 
 PCOD8228556
Probable space group: P C C N
;
_chemical_formula_sum "Si O2"
_cell_formula_units_Z 48
_cell_length_a 12.518442
_cell_length_b 14.106873
_cell_length_c 13.915273
_cell_angle_alpha 90.000000
_cell_angle_beta 90.000000
_cell_angle_gamma 90.000000
_cell_volume 2457.382545
_symmetry_space_group_name_H-M "P C C N"
_symmetry_group_IT_number 56
_symmetry_cell_setting 'orthorhombic'
loop_
_space_group_symop_operation_xyz
x,y,z
1/2-x,1/2-y,z
1/2+x,-y,1/2-z
-x,1/2+y,1/2-z
-x,-y,-z
1/2+x,1/2+y,-z
1/2-x,y,1/2+z
x,1/2-y,1/2+z
loop_
_atom_site_type_symbol
_atom_site_label
_atom_site_fract_x
_atom_site_fract_y
_atom_site_fract_z
Si Si1 0.350725 0.440513 0.364588
Si Si2 0.269363 0.521609 0.545839
Si Si3 0.146416 0.687907 0.631711
Si Si4 0.975254 0.116860 0.689879
Si Si5 0.965268 0.152428 0.471005
Si Si6 0.780838 0.643781 0.805933
O O1 0.266017 0.497937 0.431652
O O2 0.435440 0.508338 0.310988
O O3 0.415915 0.372972 0.437097
O O4 0.289249 0.378967 0.287202
O O5 0.173239 0.591644 0.574164
O O6 0.383915 0.571258 0.567304
O O7 0.403484 0.370749 0.724686
O O8 0.250000 0.750000 0.648026
O O9 0.099972 0.672002 0.736856
O O10 0.061408 0.744018 0.568064
O O11 0.961679 0.162381 0.585273
O O12 0.745398 0.926490 0.893049
O O13 0.750000 0.750000 0.838946
#
# Coordination Sequence:
#
# PCOD8228556 Si02
#       6
#     8   8   8   8   8   8
#     4  11  21  40  68  82 125 172 202 247 318 370
#     4  10  20  41  62  93 121 161 204 257 304 371
#     4  10  22  38  64  97 125 152 211 261 299 356
#     4  11  21  41  66  89 123 167 208 249 309 376
#     4  10  20  40  65  89 122 166 205 243 314 380
#     4  12  24  39  62  93 122 165 210 253 310 370
#
# _framework density 19.532979000000001
#
# number of rings (size 3 to 8) (size 9 to 14) (size 15 to 20)
#    0.000    1.333    5.000    2.000    0.000    4.000 
#    3.000    0.833    0.000    0.000    0.000    0.000 
#    0.000    0.000    0.000    0.000    0.000    0.000 
#
# Total GULP energy -595237.109529 kJ/mol
# GULP energy per Si atom -12400.773115 kJ/mol
# Density = 1.948852 g / cm^3
# Si number density = 19.532979 Si / 1000 Ang^3
#
#
#
# Elastic Constant Matrix: (Units=GPa)
#
#
# Indices 1 2 3 4 5 6 
#
# 1 66.7423 46.5391 47.4021 0.0000 0.0000 0.0000
# 2 46.5391 130.2465 54.1015 0.0000 0.0000 0.0000
# 3 47.4021 54.1015 98.4078 0.0000 0.0000 0.0000
# 4 0.0000 0.0000 0.0000 30.0917 0.0000 0.0000
# 5 0.0000 0.0000 0.0000 0.0000 36.7923 0.0000
# 6 0.0000 0.0000 0.0000 0.0000 0.0000 20.4447
#
#
#
# Elastic Compliance Matrix: (Units=1/GPa)
#
#
# Indices 1 2 3 4 5 6 
#
# 1 0.025166 -0.005128 -0.009303 0.000000 0.000000 0.000000
# 2 -0.005128 0.010995 -0.003575 0.000000 0.000000 0.000000
# 3 -0.009303 -0.003575 0.016608 0.000000 0.000000 0.000000
# 4 0.000000 0.000000 0.000000 0.033232 0.000000 0.000000
# 5 0.000000 0.000000 0.000000 0.000000 0.027180 0.000000
# 6 0.000000 0.000000 0.000000 0.000000 0.000000 0.048912
#
#
# Mechanical properties :
#
#
# Convention : Reuss Voigt Hill
#
# Bulk Modulus (GPa) = 59.67320 65.72022 62.69671
# Shear Modulus (GPa) = 24.54716 27.28934 25.91825
#
# Velocity S-wave (km/s) = 3.54885 3.74182 3.64661
# Velocity P-wave (km/s) = 6.88540 7.23790 7.06385
#
# Compressibility (1/GPa) = 0.01675794
#
# Stress axis : x y z
#
# Youngs Moduli (GPa) = 39.73629 90.95204 60.21142
#
# Poissons Ratio (x) = 0.46639 0.56015
# Poissons Ratio (y) = 0.20376 0.21523
# Poissons Ratio (z) = 0.36967 0.32511
#
# Static dielectric constant tensor:
#      x y z
#    x 3.618740 0.000000 0.000000 
#    y 0.000000 3.671200 0.000000 
#    z 0.000000 0.000000 3.491960 
# 
# 
# High freq. dielectric constant tensor:
#      x y z
#    x 1.753120 0.000000 0.000000 
#    y 0.000000 1.761880 0.000000 
#    z 0.000000 0.000000 1.762550 
# 
# From -- ./inp_files/11591.got.cif
#   From: 2010.03.12/outbox.cif.g09.slc.cpg/sg56_6_cif.got.tgz:11591.got - 2010.04.16 15:33:40.
