data_PCOD8228216
_publ_section_title
;
Structure prediction by ZEFSAII (Michael W. Deem and Ramdas Pophale) SiO2 
 PCOD8228216
Probable space group: P C C N
;
_chemical_formula_sum "Si O2"
_cell_formula_units_Z 40
_cell_length_a 18.185361
_cell_length_b 8.467889
_cell_length_c 11.758578
_cell_angle_alpha 90.000000
_cell_angle_beta 90.000000
_cell_angle_gamma 90.000000
_cell_volume 1810.722456
_symmetry_space_group_name_H-M "P C C N"
_symmetry_group_IT_number 56
_symmetry_cell_setting 'orthorhombic'
loop_
_space_group_symop_operation_xyz
x,y,z
1/2-x,1/2-y,z
1/2+x,-y,1/2-z
-x,1/2+y,1/2-z
-x,-y,-z
1/2+x,1/2+y,-z
1/2-x,y,1/2+z
x,1/2-y,1/2+z
loop_
_atom_site_type_symbol
_atom_site_label
_atom_site_fract_x
_atom_site_fract_y
_atom_site_fract_z
Si Si1 0.171959 0.335880 0.601385
Si Si2 0.169661 0.680746 0.005812
Si Si3 0.628737 0.538143 0.287111
Si Si4 0.775794 0.071793 0.720790
Si Si5 0.077601 0.979360 0.941626
O O1 0.250000 0.250000 0.577491
O O2 0.177275 0.497705 0.675507
O O3 0.133232 0.384116 0.484495
O O4 0.117786 0.213862 0.665140
O O5 0.250000 0.750000 0.037713
O O6 0.134747 0.586656 0.110535
O O7 0.180036 0.563178 0.897916
O O8 0.110703 0.809276 0.969220
O O9 0.702854 0.534018 0.210376
O O10 0.565451 0.496533 0.195406
O O11 0.750000 0.250000 0.748343
O O12 0.000000 0.000000 0.000000
#
# Coordination Sequence:
#
# PCOD8228216 Si02
#       5
#     8   8   8   8   8
#     4  10  24  41  69  98 140 174 236 287 339 403
#     4  11  22  41  72  98 132 175 243 280 335 414
#     4  11  23  40  67  97 133 179 224 285 347 393
#     4  10  19  38  69 101 126 172 229 287 335 401
#     4  12  27  44  66 101 144 180 227 284 352 422
#
# _framework density 22.090631999999999
#
# number of rings (size 3 to 8) (size 9 to 14) (size 15 to 20)
#    0.000    1.200    4.000    4.200    2.800    2.400 
#    0.000    1.000    0.000    0.000    0.000    0.000 
#    0.000    0.000    0.000    0.000    0.000    0.000 
#
# Total GULP energy -495776.675529 kJ/mol
# GULP energy per Si atom -12394.416888 kJ/mol
# Density = 2.204035 g / cm^3
# Si number density = 22.090632 Si / 1000 Ang^3
#
#
#
# Elastic Constant Matrix: (Units=GPa)
#
#
# Indices 1 2 3 4 5 6 
#
# 1 35.6907 9.1941 19.7220 0.0000 0.0000 0.0000
# 2 9.1941 108.1177 54.8588 0.0000 0.0000 0.0000
# 3 19.7220 54.8588 133.4293 0.0000 0.0000 0.0000
# 4 0.0000 0.0000 0.0000 23.8957 0.0000 0.0000
# 5 0.0000 0.0000 0.0000 0.0000 20.8642 0.0000
# 6 0.0000 0.0000 0.0000 0.0000 0.0000 16.9927
#
#
#
# Elastic Compliance Matrix: (Units=1/GPa)
#
#
# Indices 1 2 3 4 5 6 
#
# 1 0.030523 -0.000387 -0.004352 0.000000 0.000000 0.000000
# 2 -0.000387 0.011692 -0.004750 0.000000 0.000000 0.000000
# 3 -0.004352 -0.004750 0.010091 0.000000 0.000000 0.000000
# 4 0.000000 0.000000 0.000000 0.041848 0.000000 0.000000
# 5 0.000000 0.000000 0.000000 0.000000 0.047929 0.000000
# 6 0.000000 0.000000 0.000000 0.000000 0.000000 0.058849
#
#
# Mechanical properties :
#
#
# Convention : Reuss Voigt Hill
#
# Bulk Modulus (GPa) = 30.00554 49.42083 39.71319
# Shear Modulus (GPa) = 21.64304 25.24803 23.44554
#
# Velocity S-wave (km/s) = 3.13347 3.38439 3.26135
# Velocity P-wave (km/s) = 5.16759 6.13943 5.67435
#
# Compressibility (1/GPa) = 0.03332718
#
# Stress axis : x y z
#
# Youngs Moduli (GPa) = 32.76187 85.52680 99.09962
#
# Poissons Ratio (x) = 0.03312 0.43132
# Poissons Ratio (y) = 0.01269 0.47072
# Poissons Ratio (z) = 0.14259 0.40625
#
# Static dielectric constant tensor:
#      x y z
#    x 3.578620 0.000000 0.000000 
#    y 0.000000 4.144840 0.000000 
#    z 0.000000 0.000000 4.406160 
# 
# 
# High freq. dielectric constant tensor:
#      x y z
#    x 1.814760 0.000000 0.000000 
#    y 0.000000 1.874800 0.000000 
#    z 0.000000 0.000000 1.895170 
# 
# From -- ./inp_files/6329.got.cif
#   From: 2010.03.12/outbox.cif.g09.slc.cpg/sg56_4_cif.got.tgz:6329.got - 2010.04.16 15:33:40.
