data_PCOD8228310
_publ_section_title
;
Structure prediction by ZEFSAII (Michael W. Deem and Ramdas Pophale) SiO2 
 PCOD8228310
Probable space group: P C C N
;
_chemical_formula_sum "Si O2"
_cell_formula_units_Z 48
_cell_length_a 9.284132
_cell_length_b 13.472960
_cell_length_c 17.641631
_cell_angle_alpha 90.000000
_cell_angle_beta 90.000000
_cell_angle_gamma 90.000000
_cell_volume 2206.698810
_symmetry_space_group_name_H-M "P C C N"
_symmetry_group_IT_number 56
_symmetry_cell_setting 'orthorhombic'
loop_
_space_group_symop_operation_xyz
x,y,z
1/2-x,1/2-y,z
1/2+x,-y,1/2-z
-x,1/2+y,1/2-z
-x,-y,-z
1/2+x,1/2+y,-z
1/2-x,y,1/2+z
x,1/2-y,1/2+z
loop_
_atom_site_type_symbol
_atom_site_label
_atom_site_fract_x
_atom_site_fract_y
_atom_site_fract_z
Si Si1 0.091865 0.420460 0.412836
Si Si2 0.250000 0.250000 0.684481
Si Si3 0.250000 0.750000 0.287175
Si Si4 0.676755 0.559427 0.915959
Si Si5 0.085508 0.969459 0.669670
Si Si6 0.011804 0.247438 0.807323
Si Si7 0.219156 0.542999 0.811988
O O1 0.137997 0.408747 0.499253
O O2 0.055442 0.310546 0.383125
O O3 0.233589 0.462545 0.373045
O O4 0.958486 0.491853 0.391025
O O5 0.196556 0.341604 0.633507
O O6 0.121577 0.224264 0.740308
O O7 0.366846 0.705978 0.229154
O O8 0.216583 0.652294 0.337332
O O9 0.827826 0.496848 0.908219
O O10 0.211173 0.985420 0.731642
O O11 0.012924 0.861449 0.669223
O O12 0.954941 0.044738 0.688008
#
# Coordination Sequence:
#
# PCOD8228310 Si02
#       7
#     8   4   4   8   8   8   8
#     4  11  24  43  63  90 129 173 209 258 322 386
#     4  12  24  40  66  96 122 162 212 266 318 374
#     4  10  20  34  60  94 120 156 212 268 312 368
#     4  11  25  43  63  91 132 170 209 261 327 387
#     4  11  22  39  65  96 127 166 216 270 321 381
#     4  11  22  38  66  93 120 162 214 262 315 374
#     4  11  21  37  62  90 125 162 214 266 316 376
#
# _framework density 21.751947000000001
#
# number of rings (size 3 to 8) (size 9 to 14) (size 15 to 20)
#    0.000    1.000    0.000   10.000    0.000    2.667 
#    0.000    5.000    0.000    1.000    0.000    0.000 
#    0.000    0.000    0.000    0.000    0.000    0.000 
#
# Total GULP energy -594773.886683 kJ/mol
# GULP energy per Si atom -12391.122639 kJ/mol
# Density = 2.170244 g / cm^3
# Si number density = 21.751947 Si / 1000 Ang^3
#
#
#
# Elastic Constant Matrix: (Units=GPa)
#
#
# Indices 1 2 3 4 5 6 
#
# 1 157.2840 37.9954 63.3931 0.0000 0.0000 0.0000
# 2 37.9954 114.3246 59.5511 0.0000 0.0000 0.0000
# 3 63.3931 59.5511 107.7776 0.0000 0.0000 0.0000
# 4 0.0000 0.0000 0.0000 35.4148 0.0000 0.0000
# 5 0.0000 0.0000 0.0000 0.0000 37.5251 0.0000
# 6 0.0000 0.0000 0.0000 0.0000 0.0000 35.8055
#
#
#
# Elastic Compliance Matrix: (Units=1/GPa)
#
#
# Indices 1 2 3 4 5 6 
#
# 1 0.008341 -0.000304 -0.004738 0.000000 0.000000 0.000000
# 2 -0.000304 0.012293 -0.006613 0.000000 0.000000 0.000000
# 3 -0.004738 -0.006613 0.015719 0.000000 0.000000 0.000000
# 4 0.000000 0.000000 0.000000 0.028237 0.000000 0.000000
# 5 0.000000 0.000000 0.000000 0.000000 0.026649 0.000000
# 6 0.000000 0.000000 0.000000 0.000000 0.000000 0.027929
#
#
# Mechanical properties :
#
#
# Convention : Reuss Voigt Hill
#
# Bulk Modulus (GPa) = 76.67408 77.91838 77.29623
# Shear Modulus (GPa) = 34.05382 36.31219 35.18300
#
# Velocity S-wave (km/s) = 3.96100 4.09023 4.02613
# Velocity P-wave (km/s) = 7.49968 7.62927 7.56475
#
# Compressibility (1/GPa) = 0.01304222
#
# Stress axis : x y z
#
# Youngs Moduli (GPa) = 119.88896 81.34701 63.61565
#
# Poissons Ratio (x) = 0.02474 0.30141
# Poissons Ratio (y) = 0.03646 0.42072
# Poissons Ratio (z) = 0.56804 0.53799
#
# Static dielectric constant tensor:
#      x y z
#    x 4.224480 0.000000 0.000000 
#    y 0.000000 3.984470 0.000000 
#    z 0.000000 0.000000 3.710960 
# 
# 
# High freq. dielectric constant tensor:
#      x y z
#    x 1.876570 0.000000 0.000000 
#    y 0.000000 1.875380 0.000000 
#    z 0.000000 0.000000 1.823240 
# 
# From -- ./inp_files/14873.got.cif
#   From: 2010.03.12/outbox.cif.g09.slc.cpg/sg56_8_cif.got.tgz:14873.got - 2010.04.16 15:33:40.
