data_PCOD8228525
_publ_section_title
;
Structure prediction by ZEFSAII (Michael W. Deem and Ramdas Pophale) SiO2 
 PCOD8228525
Probable space group: P C C N
;
_chemical_formula_sum "Si O2"
_cell_formula_units_Z 60
_cell_length_a 8.785062
_cell_length_b 25.331342
_cell_length_c 12.106916
_cell_angle_alpha 90.000000
_cell_angle_beta 90.000000
_cell_angle_gamma 90.000000
_cell_volume 2694.241730
_symmetry_space_group_name_H-M "P C C N"
_symmetry_group_IT_number 56
_symmetry_cell_setting 'orthorhombic'
loop_
_space_group_symop_operation_xyz
x,y,z
1/2-x,1/2-y,z
1/2+x,-y,1/2-z
-x,1/2+y,1/2-z
-x,-y,-z
1/2+x,1/2+y,-z
1/2-x,y,1/2+z
x,1/2-y,1/2+z
loop_
_atom_site_type_symbol
_atom_site_label
_atom_site_fract_x
_atom_site_fract_y
_atom_site_fract_z
Si Si1 0.678659 0.042820 0.184047
Si Si2 0.275059 0.615577 0.515157
Si Si3 0.250000 0.250000 0.085153
Si Si4 0.983837 0.893047 0.141982
Si Si5 0.940713 0.829268 0.535920
Si Si6 0.228793 0.080533 0.050749
Si Si7 0.204030 0.153174 0.238719
Si Si8 0.106193 0.517038 0.136611
O O1 0.561191 0.067370 0.272635
O O2 0.572355 0.998166 0.126684
O O3 0.824248 0.014828 0.239356
O O4 0.746282 0.087232 0.102811
O O5 0.117611 0.634905 0.570659
O O6 0.380377 0.667479 0.505790
O O7 0.370598 0.575866 0.593063
O O8 0.186758 0.203541 0.160492
O O9 0.381843 0.227698 0.004686
O O10 0.874049 0.852058 0.206523
O O11 0.887542 0.924686 0.050296
O O12 0.858934 0.876098 0.469104
O O13 0.918329 0.837464 0.666069
O O14 0.157654 0.100676 0.168425
O O15 0.296248 0.022571 0.061529
#
# Coordination Sequence:
#
# PCOD8228525 Si02
#       8
#     8   8   4   8   8   8   8   8
#     4  11  23  37  53  85 129 181 227 277 316 381
#     4  11  24  38  57  90 135 177 216 274 339 395
#     4  10  20  40  68  94 114 152 212 282 340 406
#     4  10  23  39  61  92 127 172 224 276 336 391
#     4  10  21  38  64  91 120 162 214 271 339 404
#     4  10  21  37  61  87 125 173 231 276 313 380
#     4  10  20  39  66  90 118 157 214 277 331 402
#     4  11  24  34  58  85 131 182 233 270 325 381
#
# _framework density 22.269717
#
# number of rings (size 3 to 8) (size 9 to 14) (size 15 to 20)
#    0.000    1.600    2.667    1.600    5.600    2.133 
#    0.000    0.000    0.000   17.600    0.000    0.000 
#    0.000    0.000    0.000    0.000    0.000    0.000 
#
# Total GULP energy -743811.138709 kJ/mol
# GULP energy per Si atom -12396.852312 kJ/mol
# Density = 2.221903 g / cm^3
# Si number density = 22.269717 Si / 1000 Ang^3
#
#
#
# Elastic Constant Matrix: (Units=GPa)
#
#
# Indices 1 2 3 4 5 6 
#
# 1 62.0185 12.5237 15.0453 0.0000 0.0000 0.0000
# 2 12.5237 57.3916 11.7605 0.0000 0.0000 0.0000
# 3 15.0453 11.7605 110.4156 0.0000 0.0000 0.0000
# 4 0.0000 0.0000 0.0000 28.2833 0.0000 0.0000
# 5 0.0000 0.0000 0.0000 0.0000 38.2328 0.0000
# 6 0.0000 0.0000 0.0000 0.0000 0.0000 19.9355
#
#
#
# Elastic Compliance Matrix: (Units=1/GPa)
#
#
# Indices 1 2 3 4 5 6 
#
# 1 0.017288 -0.003363 -0.001997 0.000000 0.000000 0.000000
# 2 -0.003363 0.018467 -0.001509 0.000000 0.000000 0.000000
# 3 -0.001997 -0.001509 0.009490 0.000000 0.000000 0.000000
# 4 0.000000 0.000000 0.000000 0.035357 0.000000 0.000000
# 5 0.000000 0.000000 0.000000 0.000000 0.026156 0.000000
# 6 0.000000 0.000000 0.000000 0.000000 0.000000 0.050162
#
#
# Mechanical properties :
#
#
# Convention : Reuss Voigt Hill
#
# Bulk Modulus (GPa) = 31.73993 34.27608 33.00801
# Shear Modulus (GPa) = 27.60001 29.99005 28.79503
#
# Velocity S-wave (km/s) = 3.52426 3.67369 3.59975
# Velocity P-wave (km/s) = 5.55374 5.78095 5.66848
#
# Compressibility (1/GPa) = 0.03150605
#
# Stress axis : x y z
#
# Youngs Moduli (GPa) = 57.84382 54.15009 105.37896
#
# Poissons Ratio (x) = 0.18212 0.21049
# Poissons Ratio (y) = 0.19454 0.15898
# Poissons Ratio (z) = 0.11554 0.08170
#
# Static dielectric constant tensor:
#      x y z
#    x 4.031300 0.000000 0.000000 
#    y 0.000000 3.708360 0.000000 
#    z 0.000000 0.000000 4.482850 
# 
# 
# High freq. dielectric constant tensor:
#      x y z
#    x 1.862460 0.000000 0.000000 
#    y 0.000000 1.839570 0.000000 
#    z 0.000000 0.000000 1.905910 
# 
# From -- ./inp_files/6555.got.cif
#   From: 2010.03.12/outbox.cif.g09.slc.cpg/sg56_4_cif.got.tgz:6555.got - 2010.04.16 15:33:40.
