data_PCOD8228609
_publ_section_title
;
Structure prediction by ZEFSAII (Michael W. Deem and Ramdas Pophale) SiO2 
 PCOD8228609
Probable space group: P C C N
;
_chemical_formula_sum "Si O2"
_cell_formula_units_Z 60
_cell_length_a 24.840449
_cell_length_b 8.184854
_cell_length_c 14.153730
_cell_angle_alpha 90.000000
_cell_angle_beta 90.000000
_cell_angle_gamma 90.000000
_cell_volume 2877.671961
_symmetry_space_group_name_H-M "P C C N"
_symmetry_group_IT_number 56
_symmetry_cell_setting 'orthorhombic'
loop_
_space_group_symop_operation_xyz
x,y,z
1/2-x,1/2-y,z
1/2+x,-y,1/2-z
-x,1/2+y,1/2-z
-x,-y,-z
1/2+x,1/2+y,-z
1/2-x,y,1/2+z
x,1/2-y,1/2+z
loop_
_atom_site_type_symbol
_atom_site_label
_atom_site_fract_x
_atom_site_fract_y
_atom_site_fract_z
Si Si1 0.703450 0.423673 0.860215
Si Si2 0.250000 0.750000 0.967422
Si Si3 0.552984 0.324440 0.185233
Si Si4 0.522276 0.678712 0.975821
Si Si5 0.966483 0.788445 0.182658
Si Si6 0.615115 0.674626 0.829612
Si Si7 0.323709 0.712294 0.809408
Si Si8 0.211043 0.117253 0.744256
O O1 0.716640 0.375461 0.967883
O O2 0.644999 0.503812 0.846092
O O3 0.700634 0.266406 0.791684
O O4 0.750800 0.547202 0.836698
O O5 0.295754 0.817237 0.894036
O O6 0.523288 0.247911 0.093194
O O7 0.549375 0.521104 0.190676
O O8 0.525909 0.242558 0.276612
O O9 0.613317 0.261466 0.182628
O O10 0.579608 0.695375 0.923533
O O11 0.500000 0.500000 0.000000
O O12 0.530747 0.773097 0.074290
O O13 0.923933 0.673751 0.238091
O O14 0.659059 0.815312 0.811496
O O15 0.308311 0.519614 0.819203
O O16 0.250000 0.250000 0.797515
#
# Coordination Sequence:
#
# PCOD8228609 Si02
#       8
#     8   4   8   8   8   8   8   8
#     4  11  24  43  64  92 132 167 216 271 327 396
#     4  12  24  40  66  94 128 162 224 264 322 398
#     4  10  23  38  65  89 128 170 212 267 328 388
#     4   9  21  40  60  96 126 162 220 259 315 399
#     4  10  21  42  62  94 128 169 213 266 327 391
#     4  10  22  40  70  92 129 174 212 267 341 382
#     4  12  23  42  65  93 126 176 217 265 338 398
#     4  10  20  43  63  89 129 166 213 278 323 390
#
# _framework density 20.850186000000001
#
# number of rings (size 3 to 8) (size 9 to 14) (size 15 to 20)
#    0.000    1.600    4.000    0.000    9.333    0.000 
#    2.400    4.667    0.000    0.000    0.000    0.000 
#    0.000    0.000    0.000    0.000    0.000    0.000 
#
# Total GULP energy -743317.571526 kJ/mol
# GULP energy per Si atom -12388.626192 kJ/mol
# Density = 2.080273 g / cm^3
# Si number density = 20.850186 Si / 1000 Ang^3
#
#
#
# Elastic Constant Matrix: (Units=GPa)
#
#
# Indices 1 2 3 4 5 6 
#
# 1 184.1011 38.6756 73.6624 0.0000 0.0000 0.0000
# 2 38.6756 55.1434 33.1282 0.0000 0.0000 0.0000
# 3 73.6624 33.1282 164.1200 0.0000 0.0000 0.0000
# 4 0.0000 0.0000 0.0000 18.6508 0.0000 0.0000
# 5 0.0000 0.0000 0.0000 0.0000 27.5976 0.0000
# 6 0.0000 0.0000 0.0000 0.0000 0.0000 40.0881
#
#
#
# Elastic Compliance Matrix: (Units=1/GPa)
#
#
# Indices 1 2 3 4 5 6 
#
# 1 0.007177 -0.003526 -0.002509 0.000000 0.000000 0.000000
# 2 -0.003526 0.022369 -0.002933 0.000000 0.000000 0.000000
# 3 -0.002509 -0.002933 0.007811 0.000000 0.000000 0.000000
# 4 0.000000 0.000000 0.000000 0.053617 0.000000 0.000000
# 5 0.000000 0.000000 0.000000 0.000000 0.036235 0.000000
# 6 0.000000 0.000000 0.000000 0.000000 0.000000 0.024945
#
#
# Mechanical properties :
#
#
# Convention : Reuss Voigt Hill
#
# Bulk Modulus (GPa) = 51.48996 77.14410 64.31703
# Shear Modulus (GPa) = 28.31831 34.46052 31.38941
#
# Velocity S-wave (km/s) = 3.68935 4.06984 3.88425
# Velocity P-wave (km/s) = 6.54960 7.69183 7.14358
#
# Compressibility (1/GPa) = 0.01942126
#
# Stress axis : x y z
#
# Youngs Moduli (GPa) = 139.34279 44.70393 128.01825
#
# Poissons Ratio (x) = 0.15762 0.32124
# Poissons Ratio (y) = 0.49130 0.37546
# Poissons Ratio (z) = 0.34966 0.13111
#
# Static dielectric constant tensor:
#      x y z
#    x 4.107150 0.000000 0.000000 
#    y 0.000000 3.770550 0.000000 
#    z 0.000000 0.000000 3.945580 
# 
# 
# High freq. dielectric constant tensor:
#      x y z
#    x 1.843070 0.000000 0.000000 
#    y 0.000000 1.791900 0.000000 
#    z 0.000000 0.000000 1.807460 
# 
# From -- ./inp_files/13395.got.cif
#   From: 2010.03.12/outbox.cif.g09.slc.cpg/sg56_7_cif.got.tgz:13395.got - 2010.04.16 15:33:40.
