data_PCOD8228692
_publ_section_title
;
Structure prediction by ZEFSAII (Michael W. Deem and Ramdas Pophale) SiO2 
 PCOD8228692
Probable space group: P C C N
;
_chemical_formula_sum "Si O2"
_cell_formula_units_Z 48
_cell_length_a 4.998777
_cell_length_b 14.057994
_cell_length_c 29.427020
_cell_angle_alpha 90.000000
_cell_angle_beta 90.000000
_cell_angle_gamma 90.000000
_cell_volume 2067.918416
_symmetry_space_group_name_H-M "P C C N"
_symmetry_group_IT_number 56
_symmetry_cell_setting 'orthorhombic'
loop_
_space_group_symop_operation_xyz
x,y,z
1/2-x,1/2-y,z
1/2+x,-y,1/2-z
-x,1/2+y,1/2-z
-x,-y,-z
1/2+x,1/2+y,-z
1/2-x,y,1/2+z
x,1/2-y,1/2+z
loop_
_atom_site_type_symbol
_atom_site_label
_atom_site_fract_x
_atom_site_fract_y
_atom_site_fract_z
Si Si1 0.430987 0.951885 0.091329
Si Si2 0.563652 0.516931 0.690156
Si Si3 0.250000 0.750000 0.486806
Si Si4 0.750000 0.250000 0.668861
Si Si5 0.953942 0.588640 0.534401
Si Si6 0.455604 0.335223 0.591588
Si Si7 0.062171 0.402004 0.714936
O O1 0.657129 0.920301 0.055076
O O2 0.158754 0.902804 0.076514
O O3 0.515758 0.927346 0.142839
O O4 0.332534 0.061252 0.089440
O O5 0.863429 0.477223 0.691218
O O6 0.527873 0.593305 0.730595
O O7 0.359829 0.428146 0.698198
O O8 0.488340 0.807867 0.511992
O O9 0.387632 0.671057 0.455514
O O10 0.648878 0.333993 0.635455
O O11 0.985293 0.294902 0.699789
O O12 0.000000 0.500000 0.500000
O O13 0.250000 0.250000 0.597762
#
# Coordination Sequence:
#
# PCOD8228692 Si02
#       7
#     8   8   4   4   8   8   8
#     4  12  24  42  67  95 133 171 227 269 335 411
#     4  10  21  40  62  92 126 177 207 263 318 405
#     4  11  26  42  63  96 134 172 225 280 340 395
#     4  11  22  36  59 104 128 162 205 278 336 381
#     4  12  26  44  66  97 129 179 224 279 340 408
#     4  11  23  37  66  96 136 165 214 288 337 393
#     4  10  21  37  63  93 133 162 214 256 335 396
#
# _framework density 23.211749000000001
#
# number of rings (size 3 to 8) (size 9 to 14) (size 15 to 20)
#    0.000    1.000    3.333    3.500    4.667    0.000 
#    0.000    0.833    0.000    6.000    0.000    0.000 
#    0.000    0.000    0.000    0.000    0.000    0.000 
#
# Total GULP energy -594919.055190 kJ/mol
# GULP energy per Si atom -12394.146983 kJ/mol
# Density = 2.315892 g / cm^3
# Si number density = 23.211749 Si / 1000 Ang^3
#
#
#
# Elastic Constant Matrix: (Units=GPa)
#
#
# Indices 1 2 3 4 5 6 
#
# 1 68.7667 3.8778 4.5809 0.0000 0.0000 0.0000
# 2 3.8778 69.4547 24.4391 0.0000 0.0000 0.0000
# 3 4.5809 24.4391 131.2941 0.0000 0.0000 0.0000
# 4 0.0000 0.0000 0.0000 -27.3222 0.0000 0.0000
# 5 0.0000 0.0000 0.0000 0.0000 42.7024 0.0000
# 6 0.0000 0.0000 0.0000 0.0000 0.0000 32.3925
#
#
#
# Elastic Compliance Matrix: (Units=1/GPa)
#
#
# Indices 1 2 3 4 5 6 
#
# 1 0.014606 -0.000681 -0.000383 0.000000 0.000000 0.000000
# 2 -0.000681 0.015439 -0.002850 0.000000 0.000000 0.000000
# 3 -0.000383 -0.002850 0.008160 0.000000 0.000000 0.000000
# 4 0.000000 0.000000 0.000000 -0.036600 0.000000 0.000000
# 5 0.000000 0.000000 0.000000 0.000000 0.023418 0.000000
# 6 0.000000 0.000000 0.000000 0.000000 0.000000 0.030871
#
#
# Mechanical properties :
#
#
# Convention : Reuss Voigt Hill
#
# Bulk Modulus (GPa) = 32.91900 37.25679 35.08789
# Shear Modulus (GPa) = 67.70757 25.32906 46.51831
#
# Velocity S-wave (km/s) = 5.40674 3.30694 4.48156
# Velocity P-wave (km/s) = 7.29314 5.53776 6.47521
#
# Compressibility (1/GPa) = 0.03037760
#
# Stress axis : x y z
#
# Youngs Moduli (GPa) = 68.46585 64.77224 122.54379
#
# Poissons Ratio (x) = 0.04409 0.04692
# Poissons Ratio (y) = 0.04661 0.34925
# Poissons Ratio (z) = 0.02621 0.18460
#
# Static dielectric constant tensor:
#      x y z
#    x 4.274460 0.000000 0.000000 
#    y 0.000000 2.122090 0.000000 
#    z 0.000000 0.000000 4.563330 
# 
# 
# High freq. dielectric constant tensor:
#      x y z
#    x 1.925850 0.000000 0.000000 
#    y 0.000000 1.885020 0.000000 
#    z 0.000000 0.000000 1.933750 
# 
# From -- ./inp_files/22838.got.cif
#   From: 2010.03.12/outbox.cif.g09.slc.cpg/sg56_12_cif.got.tgz:22838.got - 2010.04.16 15:33:40.
