data_PCOD8228461
_publ_section_title
;
Structure prediction by ZEFSAII (Michael W. Deem and Ramdas Pophale) SiO2 
 PCOD8228461
Probable space group: P C C N
;
_chemical_formula_sum "Si O2"
_cell_formula_units_Z 52
_cell_length_a 21.610740
_cell_length_b 5.913439
_cell_length_c 19.334459
_cell_angle_alpha 90.000000
_cell_angle_beta 90.000000
_cell_angle_gamma 90.000000
_cell_volume 2470.823846
_symmetry_space_group_name_H-M "P C C N"
_symmetry_group_IT_number 56
_symmetry_cell_setting 'orthorhombic'
loop_
_space_group_symop_operation_xyz
x,y,z
1/2-x,1/2-y,z
1/2+x,-y,1/2-z
-x,1/2+y,1/2-z
-x,-y,-z
1/2+x,1/2+y,-z
1/2-x,y,1/2+z
x,1/2-y,1/2+z
loop_
_atom_site_type_symbol
_atom_site_label
_atom_site_fract_x
_atom_site_fract_y
_atom_site_fract_z
Si Si1 0.423902 0.037283 0.923733
Si Si2 0.694003 0.877044 0.255665
Si Si3 0.074716 0.521600 0.673099
Si Si4 0.539915 0.201342 0.468233
Si Si5 0.250000 0.750000 0.837152
Si Si6 0.548135 0.272124 0.193778
Si Si7 0.648735 0.920092 0.633855
O O1 0.492392 0.117233 0.939833
O O2 0.370824 0.235981 0.926399
O O3 0.427003 0.952730 0.844617
O O4 0.413270 0.822709 0.976098
O O5 0.750000 0.750000 0.296319
O O6 0.679598 0.695371 0.198000
O O7 0.640650 0.913082 0.311109
O O8 0.707615 0.108089 0.215147
O O9 0.080796 0.611089 0.595042
O O10 0.058915 0.729670 0.724899
O O11 0.023758 0.323612 0.679987
O O12 0.500000 0.000000 0.500000
O O13 0.298289 0.607511 0.886829
O O14 0.584314 0.482242 0.161396
#
# Coordination Sequence:
#
# PCOD8228461 Si02
#       7
#     8   8   8   8   4   8   8
#     4  11  21  39  57  90 136 175 215 268 334 408
#     4  10  22  37  58  94 128 165 215 274 327 393
#     4  12  21  37  61  93 135 173 214 276 340 397
#     4  11  23  39  57  89 139 178 217 259 342 417
#     4  10  20  38  60  88 130 164 220 268 348 382
#     4  12  22  37  62  98 135 159 212 279 339 395
#     4  11  19  38  60  92 133 167 211 278 339 397
#
# _framework density 21.045612999999999
#
# number of rings (size 3 to 8) (size 9 to 14) (size 15 to 20)
#    0.000    0.923    6.154    1.846    0.000    0.000 
#    0.000    0.000    0.000    0.000    0.000   48.462 
#    0.000    0.000    0.000    0.000    0.000    0.000 
#
# Total GULP energy -644352.779418 kJ/mol
# GULP energy per Si atom -12391.399604 kJ/mol
# Density = 2.099771 g / cm^3
# Si number density = 21.045613 Si / 1000 Ang^3
#
#
#
# Elastic Constant Matrix: (Units=GPa)
#
#
# Indices 1 2 3 4 5 6 
#
# 1 133.8264 51.3325 40.4997 0.0000 0.0000 0.0000
# 2 51.3325 109.5634 40.2035 0.0000 0.0000 0.0000
# 3 40.4997 40.2035 101.3866 0.0000 0.0000 0.0000
# 4 0.0000 0.0000 0.0000 62.0972 0.0000 0.0000
# 5 0.0000 0.0000 0.0000 0.0000 27.9710 0.0000
# 6 0.0000 0.0000 0.0000 0.0000 0.0000 44.6915
#
#
#
# Elastic Compliance Matrix: (Units=1/GPa)
#
#
# Indices 1 2 3 4 5 6 
#
# 1 0.009582 -0.003610 -0.002396 0.000000 0.000000 0.000000
# 2 -0.003610 0.012042 -0.003333 0.000000 0.000000 0.000000
# 3 -0.002396 -0.003333 0.012142 0.000000 0.000000 0.000000
# 4 0.000000 0.000000 0.000000 0.016104 0.000000 0.000000
# 5 0.000000 0.000000 0.000000 0.000000 0.035751 0.000000
# 6 0.000000 0.000000 0.000000 0.000000 0.000000 0.022376
#
#
# Mechanical properties :
#
#
# Convention : Reuss Voigt Hill
#
# Bulk Modulus (GPa) = 66.28005 67.64978 66.96491
# Shear Modulus (GPa) = 37.96393 41.13466 39.54930
#
# Velocity S-wave (km/s) = 4.25183 4.42582 4.33970
# Velocity P-wave (km/s) = 7.46096 7.63750 7.54975
#
# Compressibility (1/GPa) = 0.01508750
#
# Stress axis : x y z
#
# Youngs Moduli (GPa) = 104.35894 83.04587 82.35904
#
# Poissons Ratio (x) = 0.29982 0.19734
# Poissons Ratio (y) = 0.37676 0.27448
# Poissons Ratio (z) = 0.25006 0.27677
#
# Static dielectric constant tensor:
#      x y z
#    x 3.862290 0.000000 0.000000 
#    y 0.000000 4.384180 0.000000 
#    z 0.000000 0.000000 3.776100 
# 
# 
# High freq. dielectric constant tensor:
#      x y z
#    x 1.818240 0.000000 0.000000 
#    y 0.000000 1.847100 0.000000 
#    z 0.000000 0.000000 1.787540 
# 
# From -- ./inp_files/19458.got.cif
#   From: 2010.03.12/outbox.cif.g09.slc.cpg/sg56_10_cif.got.tgz:19458.got - 2010.04.16 15:33:40.
