data_PCOD8228020
_publ_section_title
;
Structure prediction by ZEFSAII (Michael W. Deem and Ramdas Pophale) SiO2 
 PCOD8228020
Probable space group: P C C N
;
_chemical_formula_sum "Si O2"
_cell_formula_units_Z 60
_cell_length_a 8.201567
_cell_length_b 14.802212
_cell_length_c 25.348613
_cell_angle_alpha 90.000000
_cell_angle_beta 90.000000
_cell_angle_gamma 90.000000
_cell_volume 3077.355420
_symmetry_space_group_name_H-M "P C C N"
_symmetry_group_IT_number 56
_symmetry_cell_setting 'orthorhombic'
loop_
_space_group_symop_operation_xyz
x,y,z
1/2-x,1/2-y,z
1/2+x,-y,1/2-z
-x,1/2+y,1/2-z
-x,-y,-z
1/2+x,1/2+y,-z
1/2-x,y,1/2+z
x,1/2-y,1/2+z
loop_
_atom_site_type_symbol
_atom_site_label
_atom_site_fract_x
_atom_site_fract_y
_atom_site_fract_z
Si Si1 0.368837 0.171597 0.841929
Si Si2 0.353705 0.427562 0.759885
Si Si3 0.558943 0.251661 0.750839
Si Si4 0.049905 0.089960 0.068920
Si Si5 0.760352 0.456726 0.501354
Si Si6 0.750000 0.750000 0.977592
Si Si7 0.551422 0.882335 0.045229
Si Si8 0.558514 0.915133 0.307917
O O1 0.250000 0.250000 0.862320
O O2 0.265304 0.101371 0.807369
O O3 0.516900 0.212553 0.808256
O O4 0.449802 0.124953 0.891922
O O5 0.490499 0.353074 0.746324
O O6 0.244127 0.441275 0.707410
O O7 0.436015 0.521768 0.774834
O O8 0.750000 0.250000 0.741296
O O9 0.473794 0.189480 0.706501
O O10 0.160021 0.178283 0.059905
O O11 0.029482 0.071069 0.130472
O O12 0.872633 0.100669 0.041632
O O13 0.131667 0.001101 0.044427
O O14 0.634248 0.390008 0.473516
O O15 0.662165 0.531531 0.533575
O O16 0.618221 0.794884 0.015653
#
# Coordination Sequence:
#
# PCOD8228020 Si02
#       8
#     8   8   8   8   8   4   8   8
#     4   9  18  35  60  84 114 155 192 247 306 347
#     4  10  22  37  61  90 119 154 207 252 300 379
#     4  10  22  40  55  90 124 151 205 257 298 376
#     4  10  22  40  59  86 120 163 200 255 303 362
#     4   9  21  38  57  85 122 152 206 248 293 365
#     4  10  22  36  58  86 122 156 210 244 298 370
#     4  10  18  37  60  84 117 159 193 253 300 356
#     4  11  22  40  65  85 121 163 199 256 317 359
#
# _framework density 19.497261000000002
#
# number of rings (size 3 to 8) (size 9 to 14) (size 15 to 20)
#    0.000    2.133    0.667    2.800    1.867    3.733 
#    4.800    2.667    0.000    0.000    0.000    0.000 
#    0.000    0.000    0.000    0.000    0.000    0.000 
#
# Total GULP energy -744141.431361 kJ/mol
# GULP energy per Si atom -12402.357189 kJ/mol
# Density = 1.945288 g / cm^3
# Si number density = 19.497261 Si / 1000 Ang^3
#
#
#
# Elastic Constant Matrix: (Units=GPa)
#
#
# Indices 1 2 3 4 5 6 
#
# 1 117.6242 21.9554 48.0852 0.0000 0.0000 0.0000
# 2 21.9554 64.0777 26.3043 0.0000 0.0000 0.0000
# 3 48.0852 26.3043 123.2450 0.0000 0.0000 0.0000
# 4 0.0000 0.0000 0.0000 16.2840 0.0000 0.0000
# 5 0.0000 0.0000 0.0000 0.0000 25.1421 0.0000
# 6 0.0000 0.0000 0.0000 0.0000 0.0000 34.2403
#
#
#
# Elastic Compliance Matrix: (Units=1/GPa)
#
#
# Indices 1 2 3 4 5 6 
#
# 1 0.010360 -0.002072 -0.003600 0.000000 0.000000 0.000000
# 2 -0.002072 0.017519 -0.002931 0.000000 0.000000 0.000000
# 3 -0.003600 -0.002931 0.010144 0.000000 0.000000 0.000000
# 4 0.000000 0.000000 0.000000 0.061410 0.000000 0.000000
# 5 0.000000 0.000000 0.000000 0.000000 0.039774 0.000000
# 6 0.000000 0.000000 0.000000 0.000000 0.000000 0.029205
#
#
# Mechanical properties :
#
#
# Convention : Reuss Voigt Hill
#
# Bulk Modulus (GPa) = 48.03541 55.29296 51.66418
# Shear Modulus (GPa) = 25.96638 29.04008 27.50323
#
# Velocity S-wave (km/s) = 3.65334 3.86352 3.75990
# Velocity P-wave (km/s) = 6.51815 6.95149 6.73831
#
# Compressibility (1/GPa) = 0.02081798
#
# Stress axis : x y z
#
# Youngs Moduli (GPa) = 96.52484 57.08071 98.58109
#
# Poissons Ratio (x) = 0.11827 0.35488
# Poissons Ratio (y) = 0.20000 0.28891
# Poissons Ratio (z) = 0.34747 0.16729
#
# Static dielectric constant tensor:
#      x y z
#    x 3.660000 0.000000 0.000000 
#    y 0.000000 3.515280 0.000000 
#    z 0.000000 0.000000 3.395180 
# 
# 
# High freq. dielectric constant tensor:
#      x y z
#    x 1.767120 0.000000 0.000000 
#    y 0.000000 1.757230 0.000000 
#    z 0.000000 0.000000 1.754550 
# 
# From -- ./inp_files/20608.got.cif
#   From: 2010.03.12/outbox.cif.g09.slc.cpg/sg56_11_cif.got.tgz:20608.got - 2010.04.16 15:33:40.
