data_PCOD8228379
_publ_section_title
;
Structure prediction by ZEFSAII (Michael W. Deem and Ramdas Pophale) SiO2 
 PCOD8228379
Probable space group: P C C N
;
_chemical_formula_sum "Si O2"
_cell_formula_units_Z 60
_cell_length_a 8.996308
_cell_length_b 12.263310
_cell_length_c 27.894878
_cell_angle_alpha 90.000000
_cell_angle_beta 90.000000
_cell_angle_gamma 90.000000
_cell_volume 3077.488855
_symmetry_space_group_name_H-M "P C C N"
_symmetry_group_IT_number 56
_symmetry_cell_setting 'orthorhombic'
loop_
_space_group_symop_operation_xyz
x,y,z
1/2-x,1/2-y,z
1/2+x,-y,1/2-z
-x,1/2+y,1/2-z
-x,-y,-z
1/2+x,1/2+y,-z
1/2-x,y,1/2+z
x,1/2-y,1/2+z
loop_
_atom_site_type_symbol
_atom_site_label
_atom_site_fract_x
_atom_site_fract_y
_atom_site_fract_z
Si Si1 0.970626 0.094489 0.781457
Si Si2 0.750000 0.750000 0.596653
Si Si3 0.599736 0.527126 0.432975
Si Si4 0.441763 0.189184 0.818163
Si Si5 0.235648 0.627034 0.140494
Si Si6 0.239584 0.518283 0.799838
Si Si7 0.816447 0.370102 0.098944
Si Si8 0.191207 0.056467 0.466041
O O1 0.881819 0.091252 0.831244
O O2 0.858813 0.087047 0.736988
O O3 0.047935 0.213812 0.779100
O O4 0.089761 0.995117 0.781800
O O5 0.895649 0.764365 0.629530
O O6 0.718195 0.851164 0.561618
O O7 0.714123 0.466975 0.398349
O O8 0.498839 0.621870 0.406584
O O9 0.485209 0.435483 0.453027
O O10 0.702667 0.571664 0.476552
O O11 0.597282 0.126071 0.822718
O O12 0.316528 0.105504 0.801943
O O13 0.250000 0.750000 0.118995
O O14 0.232707 0.577085 0.850881
O O15 0.750000 0.250000 0.095248
O O16 0.747604 0.440326 0.054604
#
# Coordination Sequence:
#
# PCOD8228379 Si02
#       8
#     8   4   8   8   8   8   8   8
#     4  11  25  36  62  90 123 158 215 262 317 378
#     4  12  16  36  68  90 118 156 220 262 324 354
#     4   9  18  39  56  89 123 165 206 254 315 378
#     4  11  19  39  63  88 117 161 209 264 311 374
#     4  10  20  36  62  89 119 164 212 263 308 378
#     4  12  22  39  60  90 127 164 207 267 316 378
#     4  10  20  36  62  86 123 166 207 248 323 383
#     4   9  19  33  62  91 119 160 208 256 319 372
#
# _framework density 19.496414999999999
#
# number of rings (size 3 to 8) (size 9 to 14) (size 15 to 20)
#    0.800    0.800    5.333    0.800    0.000    3.200 
#    0.000    1.333    0.000    4.800    0.000    0.000 
#    0.000    0.000    0.000    0.000    0.000    0.000 
#
# Total GULP energy -743401.087917 kJ/mol
# GULP energy per Si atom -12390.018132 kJ/mol
# Density = 1.945204 g / cm^3
# Si number density = 19.496415 Si / 1000 Ang^3
#
#
#
# Elastic Constant Matrix: (Units=GPa)
#
#
# Indices 1 2 3 4 5 6 
#
# 1 64.4044 40.9129 25.3298 0.0000 0.0000 0.0000
# 2 40.9129 109.3842 52.6850 0.0000 0.0000 0.0000
# 3 25.3298 52.6850 88.8595 0.0000 0.0000 0.0000
# 4 0.0000 0.0000 0.0000 26.3431 0.0000 0.0000
# 5 0.0000 0.0000 0.0000 0.0000 21.6317 0.0000
# 6 0.0000 0.0000 0.0000 0.0000 0.0000 31.8451
#
#
#
# Elastic Compliance Matrix: (Units=1/GPa)
#
#
# Indices 1 2 3 4 5 6 
#
# 1 0.020575 -0.006818 -0.001823 0.000000 0.000000 0.000000
# 2 -0.006818 0.015055 -0.006983 0.000000 0.000000 0.000000
# 3 -0.001823 -0.006983 0.015914 0.000000 0.000000 0.000000
# 4 0.000000 0.000000 0.000000 0.037961 0.000000 0.000000
# 5 0.000000 0.000000 0.000000 0.000000 0.046228 0.000000
# 6 0.000000 0.000000 0.000000 0.000000 0.000000 0.031402
#
#
# Mechanical properties :
#
#
# Convention : Reuss Voigt Hill
#
# Bulk Modulus (GPa) = 49.26848 55.61150 52.43999
# Shear Modulus (GPa) = 24.37276 25.54534 24.95905
#
# Velocity S-wave (km/s) = 3.53953 3.62368 3.58185
# Velocity P-wave (km/s) = 6.48304 6.78925 6.63791
#
# Compressibility (1/GPa) = 0.02029695
#
# Stress axis : x y z
#
# Youngs Moduli (GPa) = 48.60350 66.42108 62.83956
#
# Poissons Ratio (x) = 0.45283 0.11454
# Poissons Ratio (y) = 0.33136 0.43881
# Poissons Ratio (z) = 0.08859 0.46382
#
# Static dielectric constant tensor:
#      x y z
#    x 3.501040 0.000000 0.000000 
#    y 0.000000 3.448510 0.000000 
#    z 0.000000 0.000000 3.505770 
# 
# 
# High freq. dielectric constant tensor:
#      x y z
#    x 1.747570 0.000000 0.000000 
#    y 0.000000 1.742750 0.000000 
#    z 0.000000 0.000000 1.750120 
# 
# From -- ./inp_files/23345.got.cif
#   From: 2010.03.12/outbox.cif.g09.slc.cpg/sg56_12_cif.got.tgz:23345.got - 2010.04.16 15:33:40.
