data_PCOD8228800
_publ_section_title
;
Structure prediction by ZEFSAII (Michael W. Deem and Ramdas Pophale) SiO2 
 PCOD8228800
Probable space group: P C C N
;
_chemical_formula_sum "Si O2"
_cell_formula_units_Z 48
_cell_length_a 8.581114
_cell_length_b 15.355504
_cell_length_c 17.806745
_cell_angle_alpha 90.000000
_cell_angle_beta 90.000000
_cell_angle_gamma 90.000000
_cell_volume 2346.347251
_symmetry_space_group_name_H-M "P C C N"
_symmetry_group_IT_number 56
_symmetry_cell_setting 'orthorhombic'
loop_
_space_group_symop_operation_xyz
x,y,z
1/2-x,1/2-y,z
1/2+x,-y,1/2-z
-x,1/2+y,1/2-z
-x,-y,-z
1/2+x,1/2+y,-z
1/2-x,y,1/2+z
x,1/2-y,1/2+z
loop_
_atom_site_type_symbol
_atom_site_label
_atom_site_fract_x
_atom_site_fract_y
_atom_site_fract_z
Si Si1 0.565472 0.595276 0.288017
Si Si2 0.933149 0.918114 0.457982
Si Si3 0.566560 0.572000 0.787259
Si Si4 0.933630 0.581809 0.457276
Si Si5 0.065737 0.250302 0.450877
Si Si6 0.067926 0.761350 0.711988
O O1 0.504552 0.584968 0.373012
O O2 0.476311 0.525466 0.237173
O O3 0.749279 0.582862 0.280439
O O4 0.526692 0.692546 0.261750
O O5 0.749802 0.925499 0.456771
O O6 0.988159 0.833146 0.502293
O O7 0.000000 0.000000 0.500000
O O8 0.505238 0.585566 0.871965
O O9 0.481286 0.641157 0.734052
O O10 0.988087 0.667895 0.499991
O O11 0.000000 0.500000 0.500000
O O12 0.250000 0.250000 0.433882
O O13 0.970469 0.254063 0.374531
O O14 0.250000 0.750000 0.726001
#
# Coordination Sequence:
#
# PCOD8228800 Si02
#       6
#     8   8   8   8   8   8
#     4  11  23  41  63  90 122 158 199 246 296 354
#     4  10  22  39  61  87 117 153 196 242 294 351
#     4  11  23  41  63  90 122 158 199 246 296 354
#     4  10  22  39  61  87 117 153 196 242 294 351
#     4  10  21  40  62  84 114 156 197 242 298 352
#     4  12  25  40  60  90 122 158 201 246 296 354
#
# _framework density 20.457331
#
# number of rings (size 3 to 8) (size 9 to 14) (size 15 to 20)
#    0.000    1.333    0.000    5.500    0.000   12.000 
#    0.000    1.667    0.000    0.000    0.000    0.000 
#    0.000    0.000    0.000    0.000    0.000    0.000 
#
# Total GULP energy -595508.868354 kJ/mol
# GULP energy per Si atom -12406.434757 kJ/mol
# Density = 2.041077 g / cm^3
# Si number density = 20.457331 Si / 1000 Ang^3
#
#
#
# Elastic Constant Matrix: (Units=GPa)
#
#
# Indices 1 2 3 4 5 6 
#
# 1 53.3852 15.6559 25.5633 0.0000 0.0000 0.0000
# 2 15.6559 131.1567 46.4202 0.0000 0.0000 0.0000
# 3 25.5633 46.4202 154.1804 0.0000 0.0000 0.0000
# 4 0.0000 0.0000 0.0000 47.2590 0.0000 0.0000
# 5 0.0000 0.0000 0.0000 0.0000 23.4423 0.0000
# 6 0.0000 0.0000 0.0000 0.0000 0.0000 38.7060
#
#
#
# Elastic Compliance Matrix: (Units=1/GPa)
#
#
# Indices 1 2 3 4 5 6 
#
# 1 0.020574 -0.001397 -0.002990 0.000000 0.000000 0.000000
# 2 -0.001397 0.008629 -0.002366 0.000000 0.000000 0.000000
# 3 -0.002990 -0.002366 0.007694 0.000000 0.000000 0.000000
# 4 0.000000 0.000000 0.000000 0.021160 0.000000 0.000000
# 5 0.000000 0.000000 0.000000 0.000000 0.042658 0.000000
# 6 0.000000 0.000000 0.000000 0.000000 0.000000 0.025836
#
#
# Mechanical properties :
#
#
# Convention : Reuss Voigt Hill
#
# Bulk Modulus (GPa) = 42.75636 57.11123 49.93380
# Shear Modulus (GPa) = 33.81707 38.62032 36.21870
#
# Velocity S-wave (km/s) = 4.07019 4.34965 4.21224
# Velocity P-wave (km/s) = 6.56005 7.29409 6.93679
#
# Compressibility (1/GPa) = 0.02338833
#
# Stress axis : x y z
#
# Youngs Moduli (GPa) = 48.60617 115.89161 129.96913
#
# Poissons Ratio (x) = 0.16195 0.38866
# Poissons Ratio (y) = 0.06792 0.30754
# Poissons Ratio (z) = 0.14535 0.27423
#
# Static dielectric constant tensor:
#      x y z
#    x 3.617910 0.000000 0.000000 
#    y 0.000000 4.142640 0.000000 
#    z 0.000000 0.000000 4.040580 
# 
# 
# High freq. dielectric constant tensor:
#      x y z
#    x 1.793930 0.000000 0.000000 
#    y 0.000000 1.818390 0.000000 
#    z 0.000000 0.000000 1.819360 
# 
# From -- ./inp_files/14829.got.cif
#   From: 2010.03.12/outbox.cif.g09.slc.cpg/sg56_8_cif.got.tgz:14829.got - 2010.04.16 15:33:40.
