data_PCOD8228803
_publ_section_title
;
Structure prediction by ZEFSAII (Michael W. Deem and Ramdas Pophale) SiO2 
 PCOD8228803
Probable space group: P C C N
;
_chemical_formula_sum "Si O2"
_cell_formula_units_Z 36
_cell_length_a 9.086019
_cell_length_b 7.645351
_cell_length_c 21.946594
_cell_angle_alpha 90.000000
_cell_angle_beta 90.000000
_cell_angle_gamma 90.000000
_cell_volume 1524.537807
_symmetry_space_group_name_H-M "P C C N"
_symmetry_group_IT_number 56
_symmetry_cell_setting 'orthorhombic'
loop_
_space_group_symop_operation_xyz
x,y,z
1/2-x,1/2-y,z
1/2+x,-y,1/2-z
-x,1/2+y,1/2-z
-x,-y,-z
1/2+x,1/2+y,-z
1/2-x,y,1/2+z
x,1/2-y,1/2+z
loop_
_atom_site_type_symbol
_atom_site_label
_atom_site_fract_x
_atom_site_fract_y
_atom_site_fract_z
Si Si1 0.735050 0.544354 0.695433
Si Si2 0.526481 0.096844 0.880146
Si Si3 0.750000 0.250000 0.293578
Si Si4 0.408232 0.066584 0.419483
Si Si5 0.275984 0.544169 0.037994
O O1 0.750000 0.750000 0.712959
O O2 0.578925 0.487558 0.664581
O O3 0.748830 0.428134 0.755191
O O4 0.860696 0.495032 0.646599
O O5 0.611225 0.238919 0.838082
O O6 0.420203 0.221103 0.921174
O O7 0.636195 0.973505 0.921329
O O8 0.567515 0.982024 0.434411
O O9 0.279666 0.016716 0.468010
O O10 0.250000 0.750000 0.040685
#
# Coordination Sequence:
#
# PCOD8228803 Si02
#       5
#     8   8   4   8   8
#     4  10  25  41  65  94 130 171 222 265 321 387
#     4  10  21  40  62  97 126 174 218 265 327 386
#     4  12  24  42  68  90 136 174 216 278 316 380
#     4   9  18  37  59  95 126 165 213 266 320 389
#     4   9  17  34  66  91 129 169 207 266 334 381
#
# _framework density 23.613714000000002
#
# number of rings (size 3 to 8) (size 9 to 14) (size 15 to 20)
#    0.000    2.222    3.333    0.000    7.778    0.889 
#    0.000    0.000    0.000    0.000    0.000    0.000 
#    0.000    0.000    0.000    0.000    0.000    0.000 
#
# Total GULP energy -445985.915930 kJ/mol
# GULP energy per Si atom -12388.497665 kJ/mol
# Density = 2.355997 g / cm^3
# Si number density = 23.613714 Si / 1000 Ang^3
#
#
#
# Elastic Constant Matrix: (Units=GPa)
#
#
# Indices 1 2 3 4 5 6 
#
# 1 97.1461 21.7031 31.2576 0.0000 0.0000 0.0000
# 2 21.7031 57.7754 41.4123 0.0000 0.0000 0.0000
# 3 31.2576 41.4123 117.3073 0.0000 0.0000 0.0000
# 4 0.0000 0.0000 0.0000 17.8270 0.0000 0.0000
# 5 0.0000 0.0000 0.0000 0.0000 9.3176 0.0000
# 6 0.0000 0.0000 0.0000 0.0000 0.0000 14.8599
#
#
#
# Elastic Compliance Matrix: (Units=1/GPa)
#
#
# Indices 1 2 3 4 5 6 
#
# 1 0.011604 -0.002869 -0.002079 0.000000 0.000000 0.000000
# 2 -0.002869 0.023881 -0.007666 0.000000 0.000000 0.000000
# 3 -0.002079 -0.007666 0.011785 0.000000 0.000000 0.000000
# 4 0.000000 0.000000 0.000000 0.056095 0.000000 0.000000
# 5 0.000000 0.000000 0.000000 0.000000 0.107324 0.000000
# 6 0.000000 0.000000 0.000000 0.000000 0.000000 0.067295
#
#
# Mechanical properties :
#
#
# Convention : Reuss Voigt Hill
#
# Bulk Modulus (GPa) = 45.36862 51.21943 48.29403
# Shear Modulus (GPa) = 16.10002 20.25795 18.17898
#
# Velocity S-wave (km/s) = 2.61398 2.93215 2.77762
# Velocity P-wave (km/s) = 5.32588 5.76203 5.54824
#
# Compressibility (1/GPa) = 0.02204166
#
# Stress axis : x y z
#
# Youngs Moduli (GPa) = 86.17995 41.87444 84.85360
#
# Poissons Ratio (x) = 0.12012 0.17643
# Poissons Ratio (y) = 0.24721 0.65050
# Poissons Ratio (z) = 0.17919 0.32102
#
# Static dielectric constant tensor:
#      x y z
#    x 4.801240 0.000000 0.000000 
#    y 0.000000 3.650890 0.000000 
#    z 0.000000 0.000000 4.363480 
# 
# 
# High freq. dielectric constant tensor:
#      x y z
#    x 1.957370 0.000000 0.000000 
#    y 0.000000 1.877910 0.000000 
#    z 0.000000 0.000000 1.943280 
# 
# From -- ./inp_files/17897.got.cif
#   From: 2010.03.12/outbox.cif.g09.slc.cpg/sg56_9_cif.got.tgz:17897.got - 2010.04.16 15:33:40.
