data_PCOD8228227
_publ_section_title
;
Structure prediction by ZEFSAII (Michael W. Deem and Ramdas Pophale) SiO2 
 PCOD8228227
Probable space group: P C C N
;
_chemical_formula_sum "Si O2"
_cell_formula_units_Z 60
_cell_length_a 18.669571
_cell_length_b 15.646349
_cell_length_c 9.195311
_cell_angle_alpha 90.000000
_cell_angle_beta 90.000000
_cell_angle_gamma 90.000000
_cell_volume 2686.048030
_symmetry_space_group_name_H-M "P C C N"
_symmetry_group_IT_number 56
_symmetry_cell_setting 'orthorhombic'
loop_
_space_group_symop_operation_xyz
x,y,z
1/2-x,1/2-y,z
1/2+x,-y,1/2-z
-x,1/2+y,1/2-z
-x,-y,-z
1/2+x,1/2+y,-z
1/2-x,y,1/2+z
x,1/2-y,1/2+z
loop_
_atom_site_type_symbol
_atom_site_label
_atom_site_fract_x
_atom_site_fract_y
_atom_site_fract_z
Si Si1 0.924724 0.414577 0.373696
Si Si2 0.987385 0.814408 0.803343
Si Si3 0.671792 0.073405 0.881321
Si Si4 0.250000 0.250000 0.947802
Si Si5 0.324253 0.158412 0.698690
Si Si6 0.436970 0.509979 0.842287
Si Si7 0.699127 0.470199 0.695804
Si Si8 0.067279 0.774715 0.536969
O O1 0.898117 0.483709 0.499020
O O2 0.878165 0.430052 0.230114
O O3 0.906274 0.318797 0.419520
O O4 0.008804 0.429702 0.330928
O O5 0.905042 0.819619 0.844284
O O6 0.017339 0.903780 0.858513
O O7 0.999859 0.806010 0.632053
O O8 0.032252 0.734761 0.876130
O O9 0.615306 0.011555 0.796950
O O10 0.737115 0.087273 0.767455
O O11 0.634411 0.161275 0.937053
O O12 0.705121 0.026954 0.021353
O O13 0.311350 0.216470 0.840337
O O14 0.220543 0.176514 0.053321
O O15 0.299671 0.064612 0.741657
#
# Coordination Sequence:
#
# PCOD8228227 Si02
#       8
#     8   8   8   4   8   8   8   8
#     4  10  20  40  66  94 128 177 225 281 345 412
#     4  10  19  39  63  91 127 165 224 282 335 412
#     4  11  25  43  64 100 140 182 233 288 343 423
#     4  10  24  40  62  88 134 166 220 272 344 416
#     4  11  22  43  62  95 126 177 219 279 346 416
#     4   9  20  40  63  93 130 171 223 283 338 411
#     4  12  24  42  67  97 137 180 227 279 346 416
#     4  10  22  40  64  96 130 174 226 282 351 395
#
# _framework density 22.337651999999999
#
# number of rings (size 3 to 8) (size 9 to 14) (size 15 to 20)
#    0.000    1.600    1.333    3.200    0.000    1.067 
#    9.600    1.333    0.000    0.000    0.000    0.000 
#    0.000    0.000    0.000    0.000    0.000    0.000 
#
# Total GULP energy -743403.899995 kJ/mol
# GULP energy per Si atom -12390.065000 kJ/mol
# Density = 2.228681 g / cm^3
# Si number density = 22.337652 Si / 1000 Ang^3
#
#
#
# Elastic Constant Matrix: (Units=GPa)
#
#
# Indices 1 2 3 4 5 6 
#
# 1 108.2759 20.6611 48.9937 0.0000 0.0000 0.0000
# 2 20.6611 65.5149 13.0615 0.0000 0.0000 0.0000
# 3 48.9937 13.0615 128.0026 0.0000 0.0000 0.0000
# 4 0.0000 0.0000 0.0000 21.4688 0.0000 0.0000
# 5 0.0000 0.0000 0.0000 0.0000 35.8277 0.0000
# 6 0.0000 0.0000 0.0000 0.0000 0.0000 33.1221
#
#
#
# Elastic Compliance Matrix: (Units=1/GPa)
#
#
# Indices 1 2 3 4 5 6 
#
# 1 0.011668 -0.002847 -0.004176 0.000000 0.000000 0.000000
# 2 -0.002847 0.016275 -0.000571 0.000000 0.000000 0.000000
# 3 -0.004176 -0.000571 0.009469 0.000000 0.000000 0.000000
# 4 0.000000 0.000000 0.000000 0.046579 0.000000 0.000000
# 5 0.000000 0.000000 0.000000 0.000000 0.027911 0.000000
# 6 0.000000 0.000000 0.000000 0.000000 0.000000 0.030191
#
#
# Mechanical properties :
#
#
# Convention : Reuss Voigt Hill
#
# Bulk Modulus (GPa) = 44.99440 51.91399 48.45419
# Shear Modulus (GPa) = 30.35996 32.68887 31.52441
#
# Velocity S-wave (km/s) = 3.69065 3.82959 3.76076
# Velocity P-wave (km/s) = 6.19256 6.54564 6.37154
#
# Compressibility (1/GPa) = 0.02222499
#
# Stress axis : x y z
#
# Youngs Moduli (GPa) = 85.70148 61.44216 105.60963
#
# Poissons Ratio (x) = 0.17495 0.44098
# Poissons Ratio (y) = 0.24402 0.06030
# Poissons Ratio (z) = 0.35786 0.03508
#
# Static dielectric constant tensor:
#      x y z
#    x 3.882320 0.000000 0.000000 
#    y 0.000000 3.930740 0.000000 
#    z 0.000000 0.000000 4.338330 
# 
# 
# High freq. dielectric constant tensor:
#      x y z
#    x 1.870470 0.000000 0.000000 
#    y 0.000000 1.866130 0.000000 
#    z 0.000000 0.000000 1.900050 
# 
# From -- ./inp_files/4145.got.cif
#   From: 2010.03.12/outbox.cif.g09.slc.cpg/sg56_3_cif.got.tgz:4145.got - 2010.04.16 15:33:40.
