data_PCOD8228854
_publ_section_title
;
Structure prediction by ZEFSAII (Michael W. Deem and Ramdas Pophale) SiO2 
 PCOD8228854
Probable space group: P C C N
;
_chemical_formula_sum "Si O2"
_cell_formula_units_Z 56
_cell_length_a 21.022594
_cell_length_b 9.328616
_cell_length_c 13.321968
_cell_angle_alpha 90.000000
_cell_angle_beta 90.000000
_cell_angle_gamma 90.000000
_cell_volume 2612.593882
_symmetry_space_group_name_H-M "P C C N"
_symmetry_group_IT_number 56
_symmetry_cell_setting 'orthorhombic'
loop_
_space_group_symop_operation_xyz
x,y,z
1/2-x,1/2-y,z
1/2+x,-y,1/2-z
-x,1/2+y,1/2-z
-x,-y,-z
1/2+x,1/2+y,-z
1/2-x,y,1/2+z
x,1/2-y,1/2+z
loop_
_atom_site_type_symbol
_atom_site_label
_atom_site_fract_x
_atom_site_fract_y
_atom_site_fract_z
Si Si1 0.025546 0.281837 0.539703
Si Si2 0.250000 0.750000 0.335589
Si Si3 0.629965 0.116230 0.749475
Si Si4 0.817412 0.976612 0.610403
Si Si5 0.648942 0.884330 0.899256
Si Si6 0.059884 0.883536 0.322870
Si Si7 0.527289 0.953685 0.647162
Si Si8 0.750000 0.750000 0.751022
O O1 0.090655 0.218844 0.579615
O O2 0.018867 0.435793 0.591486
O O3 0.966440 0.180347 0.571559
O O4 0.028648 0.307044 0.418787
O O5 0.296229 0.849310 0.269443
O O6 0.290771 0.638846 0.401588
O O7 0.591780 0.265047 0.749510
O O8 0.625273 0.037954 0.857001
O O9 0.599357 0.013147 0.662598
O O10 0.812689 0.906454 0.501594
O O11 0.776590 0.879810 0.684767
O O12 0.890511 0.990478 0.649438
O O13 0.693291 0.809888 0.817724
O O14 0.999919 0.937418 0.259317
#
# Coordination Sequence:
#
# PCOD8228854 Si02
#       8
#     8   4   8   8   8   8   8   4
#     4  10  23  39  65  99 133 176 223 273 352 418
#     4  10  22  50  66  92 134 182 232 288 338 410
#     4  10  22  40  67  92 131 178 221 280 345 399
#     4  11  26  43  70  99 133 182 236 284 349 422
#     4  12  25  41  68 101 130 178 232 288 342 413
#     4  10  22  42  66  98 135 177 219 280 352 414
#     4  10  21  41  64  97 139 176 217 282 345 420
#     4  12  26  48  66  98 142 182 232 296 356 398
#
# _framework density 21.434636999999999
#
# number of rings (size 3 to 8) (size 9 to 14) (size 15 to 20)
#    0.000    1.429    2.857    1.286    4.000    4.571 
#    0.000    0.000    0.000    0.000    0.000    0.000 
#    0.000    0.000    0.000    0.000    0.000    0.000 
#
# Total GULP energy -694316.459850 kJ/mol
# GULP energy per Si atom -12398.508212 kJ/mol
# Density = 2.138585 g / cm^3
# Si number density = 21.434637 Si / 1000 Ang^3
#
#
#
# Elastic Constant Matrix: (Units=GPa)
#
#
# Indices 1 2 3 4 5 6 
#
# 1 119.9887 46.7061 47.3221 0.0000 0.0000 0.0000
# 2 46.7061 85.8671 43.5128 0.0000 0.0000 0.0000
# 3 47.3221 43.5128 107.4682 0.0000 0.0000 0.0000
# 4 0.0000 0.0000 0.0000 26.1256 0.0000 0.0000
# 5 0.0000 0.0000 0.0000 0.0000 8.5124 0.0000
# 6 0.0000 0.0000 0.0000 0.0000 0.0000 36.4625
#
#
#
# Elastic Compliance Matrix: (Units=1/GPa)
#
#
# Indices 1 2 3 4 5 6 
#
# 1 0.011359 -0.004585 -0.003146 0.000000 0.000000 0.000000
# 2 -0.004585 0.016503 -0.004663 0.000000 0.000000 0.000000
# 3 -0.003146 -0.004663 0.012578 0.000000 0.000000 0.000000
# 4 0.000000 0.000000 0.000000 0.038277 0.000000 0.000000
# 5 0.000000 0.000000 0.000000 0.000000 0.117476 0.000000
# 6 0.000000 0.000000 0.000000 0.000000 0.000000 0.027425
#
#
# Mechanical properties :
#
#
# Convention : Reuss Voigt Hill
#
# Bulk Modulus (GPa) = 63.88306 65.37846 64.63076
# Shear Modulus (GPa) = 19.71432 25.93895 22.82664
#
# Velocity S-wave (km/s) = 3.03601 3.48248 3.26688
# Velocity P-wave (km/s) = 6.49293 6.83650 6.66693
#
# Compressibility (1/GPa) = 0.01565360
#
# Stress axis : x y z
#
# Youngs Moduli (GPa) = 88.03341 60.59653 79.50268
#
# Poissons Ratio (x) = 0.27782 0.25009
# Poissons Ratio (y) = 0.40361 0.37072
# Poissons Ratio (z) = 0.27692 0.28256
#
# Static dielectric constant tensor:
#      x y z
#    x 3.949660 0.000000 0.000000 
#    y 0.000000 3.998010 0.000000 
#    z 0.000000 0.000000 3.799390 
# 
# 
# High freq. dielectric constant tensor:
#      x y z
#    x 1.849930 0.000000 0.000000 
#    y 0.000000 1.848870 0.000000 
#    z 0.000000 0.000000 1.827720 
# 
# From -- ./inp_files/13103.got.cif
#   From: 2010.03.12/outbox.cif.g09.slc.cpg/sg56_7_cif.got.tgz:13103.got - 2010.04.16 15:33:40.
