data_PCOD8228648
_publ_section_title
;
Structure prediction by ZEFSAII (Michael W. Deem and Ramdas Pophale) SiO2 
 PCOD8228648
Probable space group: P C C N
;
_chemical_formula_sum "Si O2"
_cell_formula_units_Z 64
_cell_length_a 5.054867
_cell_length_b 30.702839
_cell_length_c 20.223330
_cell_angle_alpha 90.000000
_cell_angle_beta 90.000000
_cell_angle_gamma 90.000000
_cell_volume 3138.635894
_symmetry_space_group_name_H-M "P C C N"
_symmetry_group_IT_number 56
_symmetry_cell_setting 'orthorhombic'
loop_
_space_group_symop_operation_xyz
x,y,z
1/2-x,1/2-y,z
1/2+x,-y,1/2-z
-x,1/2+y,1/2-z
-x,-y,-z
1/2+x,1/2+y,-z
1/2-x,y,1/2+z
x,1/2-y,1/2+z
loop_
_atom_site_type_symbol
_atom_site_label
_atom_site_fract_x
_atom_site_fract_y
_atom_site_fract_z
Si Si1 0.156139 0.397683 0.397489
Si Si2 0.259669 0.586241 0.907204
Si Si3 0.720520 0.699482 0.863786
Si Si4 0.932911 0.505471 0.578151
Si Si5 0.290956 0.841113 0.805668
Si Si6 0.708168 0.484333 0.787157
Si Si7 0.346131 0.609596 0.683706
Si Si8 0.227003 0.126859 0.535555
O O1 0.214147 0.448247 0.415670
O O2 0.352898 0.384144 0.339186
O O3 0.202995 0.366346 0.459426
O O4 0.853797 0.390026 0.377736
O O5 0.237291 0.533909 0.900233
O O6 0.188624 0.611375 0.839887
O O7 0.559574 0.596384 0.928186
O O8 0.055012 0.602574 0.962513
O O9 0.750000 0.750000 0.878575
O O10 0.424629 0.689424 0.840615
O O11 0.786594 0.674399 0.931722
O O12 0.928484 0.683494 0.808345
O O13 0.000000 0.500000 0.500000
O O14 0.169571 0.504671 0.633926
O O15 0.216762 0.849224 0.729996
O O16 0.427299 0.485502 0.748119
O O17 0.815822 0.435570 0.777378
#
# Coordination Sequence:
#
# PCOD8228648 Si02
#       8
#     8   8   8   8   8   8   8   8
#     4  11  23  38  56  83 123 166 204 244 297 343
#     4  10  21  35  55  83 116 154 202 250 298 334
#     4  10  21  39  66  94 115 141 183 245 307 363
#     4  11  23  38  58  88 121 166 221 274 290 343
#     4  10  21  38  62  89 118 152 190 244 300 362
#     4  11  24  41  56  80 119 169 210 258 305 348
#     4  11  23  39  58  83 116 160 202 238 292 361
#     4  10  21  37  57  84 117 152 188 237 302 359
#
# _framework density 20.391024000000002
#
# number of rings (size 3 to 8) (size 9 to 14) (size 15 to 20)
#    0.000    1.500    1.250    4.125    1.750    6.500 
#    0.000    0.000    0.000    4.500    0.000    0.000 
#    0.000    0.000    0.000    0.000    0.000    0.000 
#
# Total GULP energy -793508.038532 kJ/mol
# GULP energy per Si atom -12398.563102 kJ/mol
# Density = 2.034461 g / cm^3
# Si number density = 20.391024 Si / 1000 Ang^3
#
#
#
# Elastic Constant Matrix: (Units=GPa)
#
#
# Indices 1 2 3 4 5 6 
#
# 1 68.1421 3.8860 7.8783 0.0000 0.0000 0.0000
# 2 3.8860 88.5032 22.5498 0.0000 0.0000 0.0000
# 3 7.8783 22.5498 79.8421 0.0000 0.0000 0.0000
# 4 0.0000 0.0000 0.0000 14.8806 0.0000 0.0000
# 5 0.0000 0.0000 0.0000 0.0000 22.2055 0.0000
# 6 0.0000 0.0000 0.0000 0.0000 0.0000 21.7028
#
#
#
# Elastic Compliance Matrix: (Units=1/GPa)
#
#
# Indices 1 2 3 4 5 6 
#
# 1 0.014852 -0.000300 -0.001381 0.000000 0.000000 0.000000
# 2 -0.000300 0.012181 -0.003411 0.000000 0.000000 0.000000
# 3 -0.001381 -0.003411 0.013624 0.000000 0.000000 0.000000
# 4 0.000000 0.000000 0.000000 0.067202 0.000000 0.000000
# 5 0.000000 0.000000 0.000000 0.000000 0.045034 0.000000
# 6 0.000000 0.000000 0.000000 0.000000 0.000000 0.046077
#
#
# Mechanical properties :
#
#
# Convention : Reuss Voigt Hill
#
# Bulk Modulus (GPa) = 32.81485 33.90174 33.35830
# Shear Modulus (GPa) = 22.79862 25.23599 24.01730
#
# Velocity S-wave (km/s) = 3.34739 3.52177 3.43569
# Velocity P-wave (km/s) = 5.57384 5.76187 5.66863
#
# Compressibility (1/GPa) = 0.03047401
#
# Stress axis : x y z
#
# Youngs Moduli (GPa) = 67.33109 82.09347 73.39855
#
# Poissons Ratio (x) = 0.02466 0.10134
# Poissons Ratio (y) = 0.02022 0.25034
# Poissons Ratio (z) = 0.09296 0.28000
#
# Static dielectric constant tensor:
#      x y z
#    x 3.719230 0.000000 0.000000 
#    y 0.000000 3.474460 0.000000 
#    z 0.000000 0.000000 3.708280 
# 
# 
# High freq. dielectric constant tensor:
#      x y z
#    x 1.806290 0.000000 0.000000 
#    y 0.000000 1.763320 0.000000 
#    z 0.000000 0.000000 1.795540 
# 
# From -- ./inp_files/14197.got.cif
#   From: 2010.03.12/outbox.cif.g09.slc.cpg/sg56_8_cif.got.tgz:14197.got - 2010.04.16 15:33:40.
