data_PCOD8228118
_publ_section_title
;
Structure prediction by ZEFSAII (Michael W. Deem and Ramdas Pophale) SiO2 
 PCOD8228118
Probable space group: P C C N
;
_chemical_formula_sum "Si O2"
_cell_formula_units_Z 64
_cell_length_a 8.904091
_cell_length_b 14.479710
_cell_length_c 25.174308
_cell_angle_alpha 90.000000
_cell_angle_beta 90.000000
_cell_angle_gamma 90.000000
_cell_volume 3245.689683
_symmetry_space_group_name_H-M "P C C N"
_symmetry_group_IT_number 56
_symmetry_cell_setting 'orthorhombic'
loop_
_space_group_symop_operation_xyz
x,y,z
1/2-x,1/2-y,z
1/2+x,-y,1/2-z
-x,1/2+y,1/2-z
-x,-y,-z
1/2+x,1/2+y,-z
1/2-x,y,1/2+z
x,1/2-y,1/2+z
loop_
_atom_site_type_symbol
_atom_site_label
_atom_site_fract_x
_atom_site_fract_y
_atom_site_fract_z
Si Si1 0.061181 0.835659 0.378369
Si Si2 0.113912 0.646269 0.104139
Si Si3 0.440239 0.510684 0.211630
Si Si4 0.108725 0.919635 0.486793
Si Si5 0.099443 0.872116 0.857334
Si Si6 0.090156 0.006054 0.947153
Si Si7 0.036813 0.844671 0.125160
Si Si8 0.595902 0.515913 0.320126
O O1 0.054994 0.847020 0.442238
O O2 0.219881 0.873473 0.356017
O O3 0.036934 0.730170 0.363243
O O4 0.921475 0.888367 0.351885
O O5 0.010901 0.733973 0.122503
O O6 0.286186 0.647999 0.119377
O O7 0.044216 0.561009 0.136751
O O8 0.125059 0.639057 0.040389
O O9 0.534356 0.419520 0.195342
O O10 0.499511 0.603324 0.180970
O O11 0.472583 0.520329 0.273638
O O12 0.263244 0.495241 0.202187
O O13 0.243166 0.980049 0.463026
O O14 0.000000 0.000000 0.500000
O O15 0.028958 0.930776 0.905672
O O16 0.063777 0.107311 0.920970
O O17 0.000000 0.000000 0.000000
#
# Coordination Sequence:
#
# PCOD8228118 Si02
#       8
#     8   8   8   8   8   8   8   8
#     4  10  21  37  60  86 117 155 194 236 288 356
#     4  10  20  36  60  89 115 152 195 242 293 347
#     4  10  22  40  61  86 115 153 196 251 299 346
#     4  11  21  35  57  86 125 155 187 235 294 346
#     4   9  21  37  58  87 113 150 201 238 285 348
#     4  10  19  34  58  83 116 158 194 231 279 344
#     4   9  20  37  60  87 115 149 202 241 283 354
#     4  11  22  39  62  84 116 155 195 247 302 347
#
# _framework density 19.718458999999999
#
# number of rings (size 3 to 8) (size 9 to 14) (size 15 to 20)
#    0.000    2.000    2.500    0.750    1.750    2.500 
#    0.000    3.125    0.000    0.000    0.000    0.000 
#    0.000    0.000    0.000    0.000    0.000    0.000 
#
# Total GULP energy -792967.381579 kJ/mol
# GULP energy per Si atom -12390.115337 kJ/mol
# Density = 1.967358 g / cm^3
# Si number density = 19.718459 Si / 1000 Ang^3
#
#
#
# Elastic Constant Matrix: (Units=GPa)
#
#
# Indices 1 2 3 4 5 6 
#
# 1 37.6600 25.7060 22.3833 0.0000 0.0000 0.0000
# 2 25.7060 129.9692 39.5737 0.0000 0.0000 0.0000
# 3 22.3833 39.5737 115.7478 0.0000 0.0000 0.0000
# 4 0.0000 0.0000 0.0000 15.0657 0.0000 0.0000
# 5 0.0000 0.0000 0.0000 0.0000 32.0610 0.0000
# 6 0.0000 0.0000 0.0000 0.0000 0.0000 28.5243
#
#
#
# Elastic Compliance Matrix: (Units=1/GPa)
#
#
# Indices 1 2 3 4 5 6 
#
# 1 0.032752 -0.005078 -0.004597 0.000000 0.000000 0.000000
# 2 -0.005078 0.009375 -0.002223 0.000000 0.000000 0.000000
# 3 -0.004597 -0.002223 0.010289 0.000000 0.000000 0.000000
# 4 0.000000 0.000000 0.000000 0.066376 0.000000 0.000000
# 5 0.000000 0.000000 0.000000 0.000000 0.031191 0.000000
# 6 0.000000 0.000000 0.000000 0.000000 0.000000 0.035058
#
#
# Mechanical properties :
#
#
# Convention : Reuss Voigt Hill
#
# Bulk Modulus (GPa) = 34.94256 50.96701 42.95479
# Shear Modulus (GPa) = 22.89611 28.17781 25.53696
#
# Velocity S-wave (km/s) = 3.41126 3.78432 3.60262
# Velocity P-wave (km/s) = 5.76843 6.70807 6.25592
#
# Compressibility (1/GPa) = 0.02861839
#
# Stress axis : x y z
#
# Youngs Moduli (GPa) = 30.53252 106.66111 97.19387
#
# Poissons Ratio (x) = 0.54162 0.44684
# Poissons Ratio (y) = 0.15504 0.21611
# Poissons Ratio (z) = 0.14037 0.23716
#
# Static dielectric constant tensor:
#      x y z
#    x 3.102230 0.000000 0.000000 
#    y 0.000000 3.785450 0.000000 
#    z 0.000000 0.000000 3.894030 
# 
# 
# High freq. dielectric constant tensor:
#      x y z
#    x 1.751870 0.000000 0.000000 
#    y 0.000000 1.771030 0.000000 
#    z 0.000000 0.000000 1.778300 
# 
# From -- ./inp_files/20672.got.cif
#   From: 2010.03.12/outbox.cif.g09.slc.cpg/sg56_11_cif.got.tgz:20672.got - 2010.04.16 15:33:40.
