data_PCOD8228970
_publ_section_title
;
Structure prediction by ZEFSAII (Michael W. Deem and Ramdas Pophale) SiO2 
 PCOD8228970
Probable space group: P C C N
;
_chemical_formula_sum "Si O2"
_cell_formula_units_Z 52
_cell_length_a 27.411663
_cell_length_b 6.529811
_cell_length_c 14.283968
_cell_angle_alpha 90.000000
_cell_angle_beta 90.000000
_cell_angle_gamma 90.000000
_cell_volume 2556.729978
_symmetry_space_group_name_H-M "P C C N"
_symmetry_group_IT_number 56
_symmetry_cell_setting 'orthorhombic'
loop_
_space_group_symop_operation_xyz
x,y,z
1/2-x,1/2-y,z
1/2+x,-y,1/2-z
-x,1/2+y,1/2-z
-x,-y,-z
1/2+x,1/2+y,-z
1/2-x,y,1/2+z
x,1/2-y,1/2+z
loop_
_atom_site_type_symbol
_atom_site_label
_atom_site_fract_x
_atom_site_fract_y
_atom_site_fract_z
Si Si1 0.596299 0.283398 0.030315
Si Si2 0.041151 0.666759 0.649665
Si Si3 0.250000 0.750000 0.490218
Si Si4 0.176477 0.080440 0.042592
Si Si5 0.059682 0.507974 0.293658
Si Si6 0.376671 0.363690 0.228710
Si Si7 0.830224 0.530339 0.079360
O O1 0.551101 0.288040 0.959236
O O2 0.631010 0.468446 0.002724
O O3 0.580036 0.319503 0.136642
O O4 0.622886 0.062702 0.024151
O O5 0.080014 0.514531 0.697251
O O6 0.986181 0.590994 0.654866
O O7 0.042763 0.885830 0.698983
O O8 0.221983 0.578366 0.553384
O O9 0.287613 0.637463 0.421962
O O10 0.161307 0.170037 0.143676
O O11 0.188940 0.266367 0.972423
O O12 0.100906 0.347316 0.265340
O O13 0.343681 0.447009 0.312552
#
# Coordination Sequence:
#
# PCOD8228970 Si02
#       7
#     8   8   4   8   8   8   8
#     4  10  22  38  62  89 126 170 207 260 308 366
#     4  11  23  38  58  92 130 169 214 258 302 359
#     4  10  24  42  66  92 126 156 196 266 306 392
#     4  10  22  42  63  91 126 160 206 248 319 376
#     4  12  21  40  59  92 128 167 220 256 305 362
#     4  11  23  39  65  90 124 170 204 256 308 368
#     4  11  21  43  65  92 122 158 206 254 318 374
#
# _framework density 20.338479
#
# number of rings (size 3 to 8) (size 9 to 14) (size 15 to 20)
#    0.000    1.231    4.615    1.846    0.000    0.615 
#    0.000    4.615    0.000    0.000    0.000    0.000 
#    0.000    0.000    0.000    0.000    0.000    0.000 
#
# Total GULP energy -644770.141894 kJ/mol
# GULP energy per Si atom -12399.425806 kJ/mol
# Density = 2.029219 g / cm^3
# Si number density = 20.338479 Si / 1000 Ang^3
#
#
#
# Elastic Constant Matrix: (Units=GPa)
#
#
# Indices 1 2 3 4 5 6 
#
# 1 88.5382 28.1708 29.6892 0.0000 0.0000 0.0000
# 2 28.1708 77.4749 26.0809 0.0000 0.0000 0.0000
# 3 29.6892 26.0809 99.4508 0.0000 0.0000 0.0000
# 4 0.0000 0.0000 0.0000 17.2738 0.0000 0.0000
# 5 0.0000 0.0000 0.0000 0.0000 24.5417 0.0000
# 6 0.0000 0.0000 0.0000 0.0000 0.0000 31.2147
#
#
#
# Elastic Compliance Matrix: (Units=1/GPa)
#
#
# Indices 1 2 3 4 5 6 
#
# 1 0.013552 -0.003911 -0.003020 0.000000 0.000000 0.000000
# 2 -0.003911 0.015286 -0.002841 0.000000 0.000000 0.000000
# 3 -0.003020 -0.002841 0.011702 0.000000 0.000000 0.000000
# 4 0.000000 0.000000 0.000000 0.057891 0.000000 0.000000
# 5 0.000000 0.000000 0.000000 0.000000 0.040747 0.000000
# 6 0.000000 0.000000 0.000000 0.000000 0.000000 0.032036
#
#
# Mechanical properties :
#
#
# Convention : Reuss Voigt Hill
#
# Bulk Modulus (GPa) = 47.62972 48.14953 47.88963
# Shear Modulus (GPa) = 25.28367 26.70757 25.99562
#
# Velocity S-wave (km/s) = 3.52965 3.62768 3.57900
# Velocity P-wave (km/s) = 6.33092 6.42435 6.37781
#
# Compressibility (1/GPa) = 0.02099529
#
# Stress axis : x y z
#
# Youngs Moduli (GPa) = 73.79215 65.41973 85.45642
#
# Poissons Ratio (x) = 0.25585 0.25807
# Poissons Ratio (y) = 0.28859 0.24280
# Poissons Ratio (z) = 0.22285 0.18587
#
# Static dielectric constant tensor:
#      x y z
#    x 3.735770 0.000000 0.000000 
#    y 0.000000 3.732160 0.000000 
#    z 0.000000 0.000000 3.729350 
# 
# 
# High freq. dielectric constant tensor:
#      x y z
#    x 1.796140 0.000000 0.000000 
#    y 0.000000 1.801770 0.000000 
#    z 0.000000 0.000000 1.791430 
# 
# From -- ./inp_files/17020.got.cif
#   From: 2010.03.12/outbox.cif.g09.slc.cpg/sg56_9_cif.got.tgz:17020.got - 2010.04.16 15:33:40.
