data_PCOD8228955
_publ_section_title
;
Structure prediction by ZEFSAII (Michael W. Deem and Ramdas Pophale) SiO2 
 PCOD8228955
Probable space group: P C C N
;
_chemical_formula_sum "Si O2"
_cell_formula_units_Z 44
_cell_length_a 14.774576
_cell_length_b 5.227139
_cell_length_c 25.316636
_cell_angle_alpha 90.000000
_cell_angle_beta 90.000000
_cell_angle_gamma 90.000000
_cell_volume 1955.172467
_symmetry_space_group_name_H-M "P C C N"
_symmetry_group_IT_number 56
_symmetry_cell_setting 'orthorhombic'
loop_
_space_group_symop_operation_xyz
x,y,z
1/2-x,1/2-y,z
1/2+x,-y,1/2-z
-x,1/2+y,1/2-z
-x,-y,-z
1/2+x,1/2+y,-z
1/2-x,y,1/2+z
x,1/2-y,1/2+z
loop_
_atom_site_type_symbol
_atom_site_label
_atom_site_fract_x
_atom_site_fract_y
_atom_site_fract_z
Si Si1 0.909200 0.630108 0.864483
Si Si2 0.884941 0.438868 0.548206
Si Si3 0.250000 0.750000 0.280917
Si Si4 0.750000 0.750000 0.285962
Si Si5 0.250000 0.250000 0.392689
Si Si6 0.427100 0.862009 0.568295
Si Si7 0.392623 0.889573 0.855302
O O1 0.834244 0.655274 0.819993
O O2 0.890368 0.383805 0.900790
O O3 0.005034 0.580611 0.833869
O O4 0.903841 0.884437 0.899291
O O5 0.788063 0.534664 0.568282
O O6 0.875104 0.363119 0.487375
O O7 0.908296 0.193968 0.583946
O O8 0.964694 0.650622 0.557013
O O9 0.276655 0.499031 0.247913
O O10 0.162880 0.687143 0.318750
O O11 0.331268 0.353859 0.355472
#
# Coordination Sequence:
#
# PCOD8228955 Si02
#       7
#     8   8   4   4   4   8   8
#     4  11  25  48  69  96 138 189 227 286 341 426
#     4  10  22  37  65 105 141 177 219 279 336 433
#     4  12  26  46  72 102 130 170 232 312 356 416
#     4  12  29  49  68  96 134 178 251 293 354 424
#     4  12  19  39  62 106 142 180 221 287 340 426
#     4  10  23  41  69  98 142 183 224 266 344 415
#     4  11  24  41  71 102 141 173 228 289 363 411
#
# _framework density 22.504411000000001
#
# number of rings (size 3 to 8) (size 9 to 14) (size 15 to 20)
#    0.000    1.091    3.636    1.636    2.545    4.364 
#    3.273    0.000    0.000    0.000    0.000    0.000 
#    0.000    0.000    0.000    0.000    0.000    0.000 
#
# Total GULP energy -545490.116945 kJ/mol
# GULP energy per Si atom -12397.502658 kJ/mol
# Density = 2.245319 g / cm^3
# Si number density = 22.504411 Si / 1000 Ang^3
#
#
#
# Elastic Constant Matrix: (Units=GPa)
#
#
# Indices 1 2 3 4 5 6 
#
# 1 132.9780 27.0396 52.5502 0.0000 0.0000 0.0000
# 2 27.0396 121.4792 39.8304 0.0000 0.0000 0.0000
# 3 52.5502 39.8304 113.3761 0.0000 0.0000 0.0000
# 4 0.0000 0.0000 0.0000 30.1530 0.0000 0.0000
# 5 0.0000 0.0000 0.0000 0.0000 24.6339 0.0000
# 6 0.0000 0.0000 0.0000 0.0000 0.0000 18.9508
#
#
#
# Elastic Compliance Matrix: (Units=1/GPa)
#
#
# Indices 1 2 3 4 5 6 
#
# 1 0.009265 -0.000739 -0.004034 0.000000 0.000000 0.000000
# 2 -0.000739 0.009363 -0.002946 0.000000 0.000000 0.000000
# 3 -0.004034 -0.002946 0.011725 0.000000 0.000000 0.000000
# 4 0.000000 0.000000 0.000000 0.033164 0.000000 0.000000
# 5 0.000000 0.000000 0.000000 0.000000 0.040595 0.000000
# 6 0.000000 0.000000 0.000000 0.000000 0.000000 0.052768
#
#
# Mechanical properties :
#
#
# Convention : Reuss Voigt Hill
#
# Bulk Modulus (GPa) = 67.06041 67.40819 67.23430
# Shear Modulus (GPa) = 28.20227 31.30842 29.75535
#
# Velocity S-wave (km/s) = 3.54388 3.73394 3.64015
# Velocity P-wave (km/s) = 6.82707 6.97195 6.89989
#
# Compressibility (1/GPa) = 0.01491193
#
# Stress axis : x y z
#
# Youngs Moduli (GPa) = 107.93618 106.80889 85.28550
#
# Poissons Ratio (x) = 0.07897 0.34408
# Poissons Ratio (y) = 0.07981 0.25129
# Poissons Ratio (z) = 0.43547 0.31471
#
# Static dielectric constant tensor:
#      x y z
#    x 4.627850 0.000000 0.000000 
#    y 0.000000 3.966030 0.000000 
#    z 0.000000 0.000000 4.082420 
# 
# 
# High freq. dielectric constant tensor:
#      x y z
#    x 1.888550 0.000000 0.000000 
#    y 0.000000 1.888470 0.000000 
#    z 0.000000 0.000000 1.880000 
# 
# From -- ./inp_files/22405.got.cif
#   From: 2010.03.12/outbox.cif.g09.slc.cpg/sg56_12_cif.got.tgz:22405.got - 2010.04.16 15:33:40.
