data_PCOD8228501
_publ_section_title
;
Structure prediction by ZEFSAII (Michael W. Deem and Ramdas Pophale) SiO2 
 PCOD8228501
Probable space group: P C C N
;
_chemical_formula_sum "Si O2"
_cell_formula_units_Z 44
_cell_length_a 9.576309
_cell_length_b 26.343095
_cell_length_c 8.837016
_cell_angle_alpha 90.000000
_cell_angle_beta 90.000000
_cell_angle_gamma 90.000000
_cell_volume 2229.310648
_symmetry_space_group_name_H-M "P C C N"
_symmetry_group_IT_number 56
_symmetry_cell_setting 'orthorhombic'
loop_
_space_group_symop_operation_xyz
x,y,z
1/2-x,1/2-y,z
1/2+x,-y,1/2-z
-x,1/2+y,1/2-z
-x,-y,-z
1/2+x,1/2+y,-z
1/2-x,y,1/2+z
x,1/2-y,1/2+z
loop_
_atom_site_type_symbol
_atom_site_label
_atom_site_fract_x
_atom_site_fract_y
_atom_site_fract_z
Si Si1 0.365745 0.421814 0.757469
Si Si2 0.413061 0.402125 0.411703
Si Si3 0.357885 0.907518 0.586500
Si Si4 0.250000 0.750000 0.334469
Si Si5 0.367165 0.961282 0.269588
Si Si6 0.639734 0.181232 0.917037
O O1 0.370903 0.419557 0.577923
O O2 0.225534 0.394371 0.812955
O O3 0.496732 0.393366 0.833070
O O4 0.369791 0.479979 0.812802
O O5 0.506961 0.447055 0.342583
O O6 0.494488 0.348834 0.414022
O O7 0.384893 0.928450 0.419988
O O8 0.279731 0.949276 0.689030
O O9 0.270499 0.856383 0.574686
O O10 0.144390 0.782918 0.436506
O O11 0.349709 0.785497 0.234164
#
# Coordination Sequence:
#
# PCOD8228501 Si02
#       6
#     8   8   8   4   8   8
#     4  12  22  36  56  84 122 166 192 231 276 334
#     4  11  23  37  56  83 120 152 197 237 284 336
#     4  11  21  36  59  84 120 152 197 239 281 332
#     4  10  20  38  68  86 106 132 190 240 300 362
#     4  11  21  36  55  85 119 163 204 233 265 326
#     4  10  21  39  62  89 106 142 184 244 295 347
#
# _framework density 19.737044999999998
#
# number of rings (size 3 to 8) (size 9 to 14) (size 15 to 20)
#    0.000    1.091    0.000    9.818    0.000    0.000 
#    0.000    0.000    0.000   18.545    0.000    0.000 
#    0.000    0.000    0.000    0.000    0.000    0.000 
#
# Total GULP energy -545928.947955 kJ/mol
# GULP energy per Si atom -12407.476090 kJ/mol
# Density = 1.969212 g / cm^3
# Si number density = 19.737045 Si / 1000 Ang^3
#
#
#
# Elastic Constant Matrix: (Units=GPa)
#
#
# Indices 1 2 3 4 5 6 
#
# 1 139.7696 34.8115 48.8395 0.0000 0.0000 0.0000
# 2 34.8115 92.4034 36.6008 0.0000 0.0000 0.0000
# 3 48.8395 36.6008 135.9403 0.0000 0.0000 0.0000
# 4 0.0000 0.0000 0.0000 4.4503 0.0000 0.0000
# 5 0.0000 0.0000 0.0000 0.0000 33.7104 0.0000
# 6 0.0000 0.0000 0.0000 0.0000 0.0000 19.9344
#
#
#
# Elastic Compliance Matrix: (Units=1/GPa)
#
#
# Indices 1 2 3 4 5 6 
#
# 1 0.008581 -0.002252 -0.002477 0.000000 0.000000 0.000000
# 2 -0.002252 0.012705 -0.002612 0.000000 0.000000 0.000000
# 3 -0.002477 -0.002612 0.008949 0.000000 0.000000 0.000000
# 4 0.000000 0.000000 0.000000 0.224703 0.000000 0.000000
# 5 0.000000 0.000000 0.000000 0.000000 0.029664 0.000000
# 6 0.000000 0.000000 0.000000 0.000000 0.000000 0.050165
#
#
# Mechanical properties :
#
#
# Convention : Reuss Voigt Hill
#
# Bulk Modulus (GPa) = 64.28876 67.62408 65.95642
# Shear Modulus (GPa) = 14.09913 28.14313 21.12113
#
# Velocity S-wave (km/s) = 2.67563 3.78021 3.27483
# Velocity P-wave (km/s) = 6.49528 7.30686 6.91299
#
# Compressibility (1/GPa) = 0.01555482
#
# Stress axis : x y z
#
# Youngs Moduli (GPa) = 116.53864 78.70982 111.74278
#
# Poissons Ratio (x) = 0.17723 0.27674
# Poissons Ratio (y) = 0.26241 0.29184
# Poissons Ratio (z) = 0.28862 0.20557
#
# Static dielectric constant tensor:
#      x y z
#    x 3.642760 0.000000 0.000000 
#    y 0.000000 3.579290 0.000000 
#    z 0.000000 0.000000 3.811190 
# 
# 
# High freq. dielectric constant tensor:
#      x y z
#    x 1.764360 0.000000 0.000000 
#    y 0.000000 1.756520 0.000000 
#    z 0.000000 0.000000 1.794710 
# 
# From -- ./inp_files/2174.got.cif
#   From: 2010.03.12/outbox.cif.g09.slc.cpg/sg56_2_cif.got.tgz:2174.got - 2010.04.16 15:33:40.
