data_PCOD8228309
_publ_section_title
;
Structure prediction by ZEFSAII (Michael W. Deem and Ramdas Pophale) SiO2 
 PCOD8228309
Probable space group: P C C N
;
_chemical_formula_sum "Si O2"
_cell_formula_units_Z 40
_cell_length_a 9.413267
_cell_length_b 8.987763
_cell_length_c 22.205992
_cell_angle_alpha 90.000000
_cell_angle_beta 90.000000
_cell_angle_gamma 90.000000
_cell_volume 1878.720474
_symmetry_space_group_name_H-M "P C C N"
_symmetry_group_IT_number 56
_symmetry_cell_setting 'orthorhombic'
loop_
_space_group_symop_operation_xyz
x,y,z
1/2-x,1/2-y,z
1/2+x,-y,1/2-z
-x,1/2+y,1/2-z
-x,-y,-z
1/2+x,1/2+y,-z
1/2-x,y,1/2+z
x,1/2-y,1/2+z
loop_
_atom_site_type_symbol
_atom_site_label
_atom_site_fract_x
_atom_site_fract_y
_atom_site_fract_z
Si Si1 0.113799 0.938249 0.807242
Si Si2 0.505271 0.478230 0.583795
Si Si3 0.024019 0.247279 0.991033
Si Si4 0.566792 0.403230 0.712072
Si Si5 0.832328 0.474771 0.558540
O O1 0.074329 0.773182 0.787770
O O2 0.276713 0.975396 0.790544
O O3 0.084940 0.958818 0.878108
O O4 0.011922 0.051614 0.772811
O O5 0.467696 0.645308 0.562886
O O6 0.418176 0.354624 0.545110
O O7 0.475701 0.461276 0.654619
O O8 0.668767 0.438018 0.568909
O O9 0.894294 0.142585 0.011117
O O10 0.150896 0.142543 0.966704
#
# Coordination Sequence:
#
# PCOD8228309 Si02
#       5
#     8   8   8   8   8
#     4  10  22  41  64  87 119 158 200 245 296 353
#     4  10  20  38  60  84 116 155 192 237 297 353
#     4  10  20  34  60  86 110 148 196 234 282 356
#     4  10  22  41  64  87 119 158 200 245 296 353
#     4  10  20  38  60  84 116 155 192 237 297 353
#
# _framework density 21.291084999999999
#
# number of rings (size 3 to 8) (size 9 to 14) (size 15 to 20)
#    0.000    2.000    2.000    1.200    2.800    0.800 
#    0.000   12.000    0.000    0.000    0.000    0.000 
#    0.000    0.000    0.000    0.000    0.000    0.000 
#
# Total GULP energy -496037.453915 kJ/mol
# GULP energy per Si atom -12400.936348 kJ/mol
# Density = 2.124263 g / cm^3
# Si number density = 21.291085 Si / 1000 Ang^3
#
#
#
# Elastic Constant Matrix: (Units=GPa)
#
#
# Indices 1 2 3 4 5 6 
#
# 1 28.6660 9.5893 23.8111 0.0000 0.0000 0.0000
# 2 9.5893 104.9437 27.0053 0.0000 0.0000 0.0000
# 3 23.8111 27.0053 95.1850 0.0000 0.0000 0.0000
# 4 0.0000 0.0000 0.0000 35.2819 0.0000 0.0000
# 5 0.0000 0.0000 0.0000 0.0000 32.0182 0.0000
# 6 0.0000 0.0000 0.0000 0.0000 0.0000 31.0529
#
#
#
# Elastic Compliance Matrix: (Units=1/GPa)
#
#
# Indices 1 2 3 4 5 6 
#
# 1 0.044195 -0.001287 -0.010690 0.000000 0.000000 0.000000
# 2 -0.001287 0.010317 -0.002605 0.000000 0.000000 0.000000
# 3 -0.010690 -0.002605 0.013919 0.000000 0.000000 0.000000
# 4 0.000000 0.000000 0.000000 0.028343 0.000000 0.000000
# 5 0.000000 0.000000 0.000000 0.000000 0.031232 0.000000
# 6 0.000000 0.000000 0.000000 0.000000 0.000000 0.032203
#
#
# Mechanical properties :
#
#
# Convention : Reuss Voigt Hill
#
# Bulk Modulus (GPa) = 25.46760 38.84514 32.15637
# Shear Modulus (GPa) = 24.69575 30.89652 27.79613
#
# Velocity S-wave (km/s) = 3.40944 3.81353 3.61713
# Velocity P-wave (km/s) = 5.24277 6.13800 5.70796
#
# Compressibility (1/GPa) = 0.03926558
#
# Stress axis : x y z
#
# Youngs Moduli (GPa) = 22.62693 96.92834 71.84313
#
# Poissons Ratio (x) = 0.12478 0.76803
# Poissons Ratio (y) = 0.02913 0.18715
# Poissons Ratio (z) = 0.24189 0.25250
#
# Static dielectric constant tensor:
#      x y z
#    x 3.534890 0.000000 0.000000 
#    y 0.000000 3.967970 0.000000 
#    z 0.000000 0.000000 3.985670 
# 
# 
# High freq. dielectric constant tensor:
#      x y z
#    x 1.803950 0.000000 0.000000 
#    y 0.000000 1.851050 0.000000 
#    z 0.000000 0.000000 1.835040 
# 
# From -- ./inp_files/15420.got.cif
#   From: 2010.03.12/outbox.cif.g09.slc.cpg/sg56_8_cif.got.tgz:15420.got - 2010.04.16 15:33:40.
