data_PCOD8228786
_publ_section_title
;
Structure prediction by ZEFSAII (Michael W. Deem and Ramdas Pophale) SiO2 
 PCOD8228786
Probable space group: P C C N
;
_chemical_formula_sum "Si O2"
_cell_formula_units_Z 64
_cell_length_a 23.681844
_cell_length_b 13.410256
_cell_length_c 9.397921
_cell_angle_alpha 90.000000
_cell_angle_beta 90.000000
_cell_angle_gamma 90.000000
_cell_volume 2984.587904
_symmetry_space_group_name_H-M "P C C N"
_symmetry_group_IT_number 56
_symmetry_cell_setting 'orthorhombic'
loop_
_space_group_symop_operation_xyz
x,y,z
1/2-x,1/2-y,z
1/2+x,-y,1/2-z
-x,1/2+y,1/2-z
-x,-y,-z
1/2+x,1/2+y,-z
1/2-x,y,1/2+z
x,1/2-y,1/2+z
loop_
_atom_site_type_symbol
_atom_site_label
_atom_site_fract_x
_atom_site_fract_y
_atom_site_fract_z
Si Si1 0.620185 0.048456 0.328052
Si Si2 0.588186 0.844124 0.465846
Si Si3 0.031395 0.604373 0.481700
Si Si4 0.815258 0.277042 0.432311
Si Si5 0.684057 0.556523 0.617307
Si Si6 0.862577 0.139641 0.206216
Si Si7 0.850979 0.735092 0.719395
Si Si8 0.209199 0.041545 0.706475
O O1 0.566214 0.119984 0.368141
O O2 0.675482 0.112831 0.366736
O O3 0.610904 0.955330 0.434611
O O4 0.627088 0.005323 0.166716
O O5 0.520959 0.821821 0.453262
O O6 0.602093 0.821002 0.628193
O O7 0.620288 0.767991 0.364529
O O8 0.073409 0.617791 0.346182
O O9 0.000000 0.500000 0.500000
O O10 0.750000 0.250000 0.411463
O O11 0.856315 0.194564 0.358422
O O12 0.831521 0.283285 0.598495
O O13 0.674182 0.674389 0.626526
O O14 0.727931 0.522057 0.738611
O O15 0.704822 0.523759 0.462986
O O16 0.832997 0.032135 0.212866
O O17 0.802244 0.656803 0.756786
#
# Coordination Sequence:
#
# PCOD8228786 Si02
#       8
#     8   8   8   8   8   8   8   8
#     4   9  21  41  64  90 127 169 216 268 326 382
#     4  10  21  39  69  92 128 168 220 263 344 381
#     4   9  19  41  67  91 121 169 213 270 331 387
#     4  11  23  41  62  92 128 172 219 269 316 390
#     4  11  26  39  67  98 134 179 215 270 325 415
#     4  11  26  40  66  95 128 176 222 272 329 387
#     4  11  22  42  63 101 131 169 218 273 323 413
#     4  12  26  41  65  97 139 175 220 262 342 395
#
# _framework density 21.443497000000001
#
# number of rings (size 3 to 8) (size 9 to 14) (size 15 to 20)
#    0.000    1.500    1.250    3.750   10.500    3.000 
#    0.000    0.000    2.750    3.000    0.000    0.000 
#    0.000    0.000    0.000    0.000    0.000    0.000 
#
# Total GULP energy -792853.801672 kJ/mol
# GULP energy per Si atom -12388.340651 kJ/mol
# Density = 2.139469 g / cm^3
# Si number density = 21.443497 Si / 1000 Ang^3
#
#
#
# Elastic Constant Matrix: (Units=GPa)
#
#
# Indices 1 2 3 4 5 6 
#
# 1 115.6148 34.6663 37.7701 0.0000 0.0000 0.0000
# 2 34.6663 76.0498 20.7847 0.0000 0.0000 0.0000
# 3 37.7701 20.7847 94.1337 0.0000 0.0000 0.0000
# 4 0.0000 0.0000 0.0000 25.9525 0.0000 0.0000
# 5 0.0000 0.0000 0.0000 0.0000 25.4231 0.0000
# 6 0.0000 0.0000 0.0000 0.0000 0.0000 27.4591
#
#
#
# Elastic Compliance Matrix: (Units=1/GPa)
#
#
# Indices 1 2 3 4 5 6 
#
# 1 0.011018 -0.004059 -0.003525 0.000000 0.000000 0.000000
# 2 -0.004059 0.015489 -0.001791 0.000000 0.000000 0.000000
# 3 -0.003525 -0.001791 0.012433 0.000000 0.000000 0.000000
# 4 0.000000 0.000000 0.000000 0.038532 0.000000 0.000000
# 5 0.000000 0.000000 0.000000 0.000000 0.039334 0.000000
# 6 0.000000 0.000000 0.000000 0.000000 0.000000 0.036418
#
#
# Mechanical properties :
#
#
# Convention : Reuss Voigt Hill
#
# Bulk Modulus (GPa) = 49.52950 52.47115 51.00033
# Shear Modulus (GPa) = 27.97924 28.60544 28.29234
#
# Velocity S-wave (km/s) = 3.61610 3.65635 3.63628
# Velocity P-wave (km/s) = 6.37046 6.50752 6.43935
#
# Compressibility (1/GPa) = 0.02018999
#
# Stress axis : x y z
#
# Youngs Moduli (GPa) = 90.76097 64.56131 80.43174
#
# Poissons Ratio (x) = 0.26206 0.28349
# Poissons Ratio (y) = 0.36841 0.14408
# Poissons Ratio (z) = 0.31989 0.11565
#
# Static dielectric constant tensor:
#      x y z
#    x 4.325510 0.000000 0.000000 
#    y 0.000000 4.116100 0.000000 
#    z 0.000000 0.000000 3.774690 
# 
# 
# High freq. dielectric constant tensor:
#      x y z
#    x 1.835420 0.000000 0.000000 
#    y 0.000000 1.849120 0.000000 
#    z 0.000000 0.000000 1.833250 
# 
# From -- ./inp_files/4835.got.cif
#   From: 2010.03.12/outbox.cif.g09.slc.cpg/sg56_3_cif.got.tgz:4835.got - 2010.04.16 15:33:40.
