data_PCOD8228572
_publ_section_title
;
Structure prediction by ZEFSAII (Michael W. Deem and Ramdas Pophale) SiO2 
 PCOD8228572
Probable space group: P C C N
;
_chemical_formula_sum "Si O2"
_cell_formula_units_Z 56
_cell_length_a 12.569522
_cell_length_b 13.462310
_cell_length_c 15.557107
_cell_angle_alpha 90.000000
_cell_angle_beta 90.000000
_cell_angle_gamma 90.000000
_cell_volume 2632.492776
_symmetry_space_group_name_H-M "P C C N"
_symmetry_group_IT_number 56
_symmetry_cell_setting 'orthorhombic'
loop_
_space_group_symop_operation_xyz
x,y,z
1/2-x,1/2-y,z
1/2+x,-y,1/2-z
-x,1/2+y,1/2-z
-x,-y,-z
1/2+x,1/2+y,-z
1/2-x,y,1/2+z
x,1/2-y,1/2+z
loop_
_atom_site_type_symbol
_atom_site_label
_atom_site_fract_x
_atom_site_fract_y
_atom_site_fract_z
Si Si1 0.200202 0.559323 0.431639
Si Si2 0.310730 0.158480 0.668051
Si Si3 0.786364 0.859935 0.633281
Si Si4 0.763841 0.045380 0.383274
Si Si5 0.001826 0.958405 0.664138
Si Si6 0.348951 0.630104 0.285191
Si Si7 0.950980 0.164714 0.177300
O O1 0.211749 0.440324 0.415042
O O2 0.227624 0.595038 0.527590
O O3 0.274358 0.616905 0.365885
O O4 0.085441 0.606369 0.409123
O O5 0.250000 0.250000 0.626149
O O6 0.269296 0.132644 0.764221
O O7 0.429524 0.198794 0.663186
O O8 0.291587 0.061780 0.612179
O O9 0.750000 0.750000 0.601002
O O10 0.912237 0.887883 0.617768
O O11 0.892081 0.029836 0.393444
O O12 0.715509 0.106740 0.302991
O O13 0.054513 0.914463 0.748082
O O14 0.951284 0.060960 0.697828
O O15 0.382291 0.744021 0.286891
#
# Coordination Sequence:
#
# PCOD8228572 Si02
#       7
#     8   8   8   8   8   8   8
#     4  11  24  40  66  97 138 170 221 277 337 407
#     4  10  20  40  69  97 126 174 229 269 336 404
#     4   9  19  40  66  98 132 174 222 274 324 400
#     4  12  23  42  67  97 132 172 224 278 342 403
#     4  10  21  41  70  93 124 179 221 271 340 387
#     4  11  23  45  64  92 134 173 222 277 334 409
#     4  11  21  41  67  93 129 176 217 277 341 385
#
# _framework density 21.272614000000001
#
# number of rings (size 3 to 8) (size 9 to 14) (size 15 to 20)
#    0.000    1.429    5.714    1.286    0.000    5.714 
#    5.143    1.429    3.143    0.000    0.000    0.000 
#    0.000    0.000    0.000    0.000    0.000    0.000 
#
# Total GULP energy -693804.868911 kJ/mol
# GULP energy per Si atom -12389.372659 kJ/mol
# Density = 2.122420 g / cm^3
# Si number density = 21.272614 Si / 1000 Ang^3
#
#
#
# Elastic Constant Matrix: (Units=GPa)
#
#
# Indices 1 2 3 4 5 6 
#
# 1 81.5645 47.1099 40.7537 0.0000 0.0000 0.0000
# 2 47.1099 70.8783 36.8895 0.0000 0.0000 0.0000
# 3 40.7537 36.8895 107.8360 0.0000 0.0000 0.0000
# 4 0.0000 0.0000 0.0000 30.3144 0.0000 0.0000
# 5 0.0000 0.0000 0.0000 0.0000 14.8480 0.0000
# 6 0.0000 0.0000 0.0000 0.0000 0.0000 38.1173
#
#
#
# Elastic Compliance Matrix: (Units=1/GPa)
#
#
# Indices 1 2 3 4 5 6 
#
# 1 0.021151 -0.012042 -0.003874 0.000000 0.000000 0.000000
# 2 -0.012042 0.024021 -0.003666 0.000000 0.000000 0.000000
# 3 -0.003874 -0.003666 0.011992 0.000000 0.000000 0.000000
# 4 0.000000 0.000000 0.000000 0.032988 0.000000 0.000000
# 5 0.000000 0.000000 0.000000 0.000000 0.067349 0.000000
# 6 0.000000 0.000000 0.000000 0.000000 0.000000 0.026235
#
#
# Mechanical properties :
#
#
# Convention : Reuss Voigt Hill
#
# Bulk Modulus (GPa) = 55.55929 56.64278 56.10104
# Shear Modulus (GPa) = 21.84365 25.69096 23.76730
#
# Velocity S-wave (km/s) = 3.20792 3.47897 3.34619
# Velocity P-wave (km/s) = 6.31628 6.54389 6.43109
#
# Compressibility (1/GPa) = 0.01799879
#
# Stress axis : x y z
#
# Youngs Moduli (GPa) = 47.27881 41.63085 83.39150
#
# Poissons Ratio (x) = 0.50132 0.32307
# Poissons Ratio (y) = 0.56933 0.30573
# Poissons Ratio (z) = 0.18316 0.15263
#
# Static dielectric constant tensor:
#      x y z
#    x 5.006060 0.000000 0.000000 
#    y 0.000000 4.703880 0.000000 
#    z 0.000000 0.000000 3.835680 
# 
# 
# High freq. dielectric constant tensor:
#      x y z
#    x 1.844310 0.000000 0.000000 
#    y 0.000000 1.838860 0.000000 
#    z 0.000000 0.000000 1.810670 
# 
# From -- ./inp_files/11688.got.cif
#   From: 2010.03.12/outbox.cif.g09.slc.cpg/sg56_6_cif.got.tgz:11688.got - 2010.04.16 15:33:40.
