data_PCOD8228400
_publ_section_title
;
Structure prediction by ZEFSAII (Michael W. Deem and Ramdas Pophale) SiO2 
 PCOD8228400
Probable space group: P C C N
;
_chemical_formula_sum "Si O2"
_cell_formula_units_Z 60
_cell_length_a 8.750670
_cell_length_b 12.713918
_cell_length_c 26.587399
_cell_angle_alpha 90.000000
_cell_angle_beta 90.000000
_cell_angle_gamma 90.000000
_cell_volume 2957.989074
_symmetry_space_group_name_H-M "P C C N"
_symmetry_group_IT_number 56
_symmetry_cell_setting 'orthorhombic'
loop_
_space_group_symop_operation_xyz
x,y,z
1/2-x,1/2-y,z
1/2+x,-y,1/2-z
-x,1/2+y,1/2-z
-x,-y,-z
1/2+x,1/2+y,-z
1/2-x,y,1/2+z
x,1/2-y,1/2+z
loop_
_atom_site_type_symbol
_atom_site_label
_atom_site_fract_x
_atom_site_fract_y
_atom_site_fract_z
Si Si1 0.832435 0.471985 0.516864
Si Si2 0.658730 0.576968 0.191904
Si Si3 0.810383 0.854116 0.791196
Si Si4 0.159473 0.851578 0.769477
Si Si5 0.809752 0.076408 0.831347
Si Si6 0.862753 0.395631 0.932482
Si Si7 0.250000 0.750000 0.993945
Si Si8 0.203627 0.367099 0.908546
O O1 0.712806 0.484985 0.469735
O O2 0.819241 0.349308 0.537164
O O3 0.806902 0.550056 0.562436
O O4 0.000000 0.500000 0.500000
O O5 0.694663 0.629337 0.244994
O O6 0.695222 0.452276 0.195573
O O7 0.485823 0.606696 0.176970
O O8 0.768192 0.627001 0.150609
O O9 0.750000 0.750000 0.819912
O O10 0.978832 0.834621 0.769740
O O11 0.797280 0.949806 0.830052
O O12 0.250000 0.750000 0.791144
O O13 0.209421 0.870973 0.712145
O O14 0.748727 0.118039 0.884543
O O15 0.034298 0.414071 0.915523
O O16 0.878426 0.290641 0.966524
O O17 0.250000 0.250000 0.927551
#
# Coordination Sequence:
#
# PCOD8228400 Si02
#       8
#     8   8   8   8   8   8   4   8
#     4  10  21  41  63  89 120 153 195 241 298 356
#     4  10  22  37  55  86 113 152 197 241 290 349
#     4  10  20  37  55  81 115 152 193 240 291 344
#     4  10  21  35  56  82 113 155 193 239 294 347
#     4  10  21  36  60  81 115 152 194 241 289 349
#     4  10  22  39  60  91 116 153 195 240 295 349
#     4   8  22  38  66  84 120 152 194 234 298 352
#     4  12  24  38  63  90 120 152 197 249 294 352
#
# _framework density 20.284051000000002
#
# number of rings (size 3 to 8) (size 9 to 14) (size 15 to 20)
#    0.800    1.067    0.000    4.000    2.800    3.200 
#    1.200    0.667    0.000    0.000    0.000    0.000 
#    0.000    0.000    0.000    0.000    0.000    0.000 
#
# Total GULP energy -743326.991327 kJ/mol
# GULP energy per Si atom -12388.783189 kJ/mol
# Density = 2.023788 g / cm^3
# Si number density = 20.284051 Si / 1000 Ang^3
#
#
#
# Elastic Constant Matrix: (Units=GPa)
#
#
# Indices 1 2 3 4 5 6 
#
# 1 77.8443 23.7523 -2.1397 0.0000 0.0000 0.0000
# 2 23.7523 121.6106 7.4466 0.0000 0.0000 0.0000
# 3 -2.1397 7.4466 44.7860 0.0000 0.0000 0.0000
# 4 0.0000 0.0000 0.0000 23.3944 0.0000 0.0000
# 5 0.0000 0.0000 0.0000 0.0000 29.0281 0.0000
# 6 0.0000 0.0000 0.0000 0.0000 0.0000 35.5260
#
#
#
# Elastic Compliance Matrix: (Units=1/GPa)
#
#
# Indices 1 2 3 4 5 6 
#
# 1 0.013715 -0.002747 0.001112 0.000000 0.000000 0.000000
# 2 -0.002747 0.008858 -0.001604 0.000000 0.000000 0.000000
# 3 0.001112 -0.001604 0.022648 0.000000 0.000000 0.000000
# 4 0.000000 0.000000 0.000000 0.042745 0.000000 0.000000
# 5 0.000000 0.000000 0.000000 0.000000 0.034449 0.000000
# 6 0.000000 0.000000 0.000000 0.000000 0.000000 0.028148
#
#
# Mechanical properties :
#
#
# Convention : Reuss Voigt Hill
#
# Bulk Modulus (GPa) = 25.81104 33.59545 29.70325
# Shear Modulus (GPa) = 29.41943 31.93517 30.67730
#
# Velocity S-wave (km/s) = 3.81251 3.97217 3.89316
# Velocity P-wave (km/s) = 5.66857 6.13482 5.90630
#
# Compressibility (1/GPa) = 0.03874311
#
# Stress axis : x y z
#
# Youngs Moduli (GPa) = 72.91372 112.89652 44.15353
#
# Poissons Ratio (x) = 0.31010 -0.04910
# Poissons Ratio (y) = 0.20028 0.07082
# Poissons Ratio (z) = -0.08108 0.18109
#
# Static dielectric constant tensor:
#      x y z
#    x 3.561390 0.000000 0.000000 
#    y 0.000000 3.505130 0.000000 
#    z 0.000000 0.000000 3.457560 
# 
# 
# High freq. dielectric constant tensor:
#      x y z
#    x 1.800510 0.000000 0.000000 
#    y 0.000000 1.799030 0.000000 
#    z 0.000000 0.000000 1.765210 
# 
# From -- ./inp_files/20641.got.cif
#   From: 2010.03.12/outbox.cif.g09.slc.cpg/sg56_11_cif.got.tgz:20641.got - 2010.04.16 15:33:40.
