data_PCOD8228424
_publ_section_title
;
Structure prediction by ZEFSAII (Michael W. Deem and Ramdas Pophale) SiO2 
 PCOD8228424
Probable space group: P C C N
;
_chemical_formula_sum "Si O2"
_cell_formula_units_Z 64
_cell_length_a 19.292473
_cell_length_b 9.042098
_cell_length_c 18.260613
_cell_angle_alpha 90.000000
_cell_angle_beta 90.000000
_cell_angle_gamma 90.000000
_cell_volume 3185.462254
_symmetry_space_group_name_H-M "P C C N"
_symmetry_group_IT_number 56
_symmetry_cell_setting 'orthorhombic'
loop_
_space_group_symop_operation_xyz
x,y,z
1/2-x,1/2-y,z
1/2+x,-y,1/2-z
-x,1/2+y,1/2-z
-x,-y,-z
1/2+x,1/2+y,-z
1/2-x,y,1/2+z
x,1/2-y,1/2+z
loop_
_atom_site_type_symbol
_atom_site_label
_atom_site_fract_x
_atom_site_fract_y
_atom_site_fract_z
Si Si1 0.307836 0.054961 0.963893
Si Si2 0.185590 0.651400 0.831695
Si Si3 0.590385 0.095306 0.643139
Si Si4 0.033805 0.851503 0.702623
Si Si5 0.559267 0.647026 0.909700
Si Si6 0.656893 0.883139 0.538369
Si Si7 0.063717 0.014108 0.556915
Si Si8 0.418766 0.526625 0.227849
O O1 0.230604 0.069685 0.998385
O O2 0.341015 0.211175 0.941899
O O3 0.292079 0.969136 0.889774
O O4 0.362692 0.976984 0.017999
O O5 0.250000 0.750000 0.805833
O O6 0.127008 0.748671 0.871681
O O7 0.155102 0.575442 0.759309
O O8 0.579073 0.078407 0.730690
O O9 0.520002 0.095995 0.596422
O O10 0.639714 0.965207 0.614260
O O11 0.034496 0.672389 0.708132
O O12 0.059822 0.895191 0.622079
O O13 0.957545 0.922295 0.712649
O O14 0.564926 0.824117 0.906774
O O15 0.599351 0.573721 0.841821
O O16 0.594804 0.582663 0.982215
O O17 0.000000 0.000000 0.500000
#
# Coordination Sequence:
#
# PCOD8228424 Si02
#       8
#     8   8   8   8   8   8   8   8
#     4  10  22  38  58  84 121 160 204 252 305 377
#     4  11  21  39  61  86 121 161 205 251 307 373
#     4  10  20  37  62  87 118 156 204 257 302 370
#     4  10  21  38  59  89 123 153 206 253 311 361
#     4  10  22  38  60  92 123 157 204 259 313 375
#     4  10  21  39  57  87 121 159 202 253 311 366
#     4  11  22  39  63  90 126 163 203 255 314 375
#     4  10  22  39  61  90 123 159 203 263 312 369
#
# _framework density 20.091275
#
# number of rings (size 3 to 8) (size 9 to 14) (size 15 to 20)
#    0.000    1.750    1.250    4.125    0.000    9.000 
#    4.500    0.000    0.000    0.000    0.000    0.000 
#    0.000    0.000    0.000    0.000    0.000    0.000 
#
# Total GULP energy -793346.961528 kJ/mol
# GULP energy per Si atom -12396.046274 kJ/mol
# Density = 2.004555 g / cm^3
# Si number density = 20.091275 Si / 1000 Ang^3
#
#
#
# Elastic Constant Matrix: (Units=GPa)
#
#
# Indices 1 2 3 4 5 6 
#
# 1 107.7004 26.8141 45.4333 0.0000 0.0000 0.0000
# 2 26.8141 83.5644 51.6931 0.0000 0.0000 0.0000
# 3 45.4333 51.6931 92.0203 0.0000 0.0000 0.0000
# 4 0.0000 0.0000 0.0000 40.7596 0.0000 0.0000
# 5 0.0000 0.0000 0.0000 0.0000 18.0780 0.0000
# 6 0.0000 0.0000 0.0000 0.0000 0.0000 32.7417
#
#
#
# Elastic Compliance Matrix: (Units=1/GPa)
#
#
# Indices 1 2 3 4 5 6 
#
# 1 0.011732 -0.000278 -0.005636 0.000000 0.000000 0.000000
# 2 -0.000278 0.018347 -0.010169 0.000000 0.000000 0.000000
# 3 -0.005636 -0.010169 0.019363 0.000000 0.000000 0.000000
# 4 0.000000 0.000000 0.000000 0.024534 0.000000 0.000000
# 5 0.000000 0.000000 0.000000 0.000000 0.055316 0.000000
# 6 0.000000 0.000000 0.000000 0.000000 0.000000 0.030542
#
#
# Mechanical properties :
#
#
# Convention : Reuss Voigt Hill
#
# Bulk Modulus (GPa) = 57.88908 59.01845 58.45376
# Shear Modulus (GPa) = 25.28342 28.93882 27.11112
#
# Velocity S-wave (km/s) = 3.55128 3.79934 3.67740
# Velocity P-wave (km/s) = 6.75952 6.97750 6.86937
#
# Compressibility (1/GPa) = 0.01727442
#
# Stress axis : x y z
#
# Youngs Moduli (GPa) = 85.23803 54.50584 51.64607
#
# Poissons Ratio (x) = 0.01515 0.29109
# Poissons Ratio (y) = 0.02369 0.52520
# Poissons Ratio (z) = 0.48042 0.55428
#
# Static dielectric constant tensor:
#      x y z
#    x 3.760950 0.000000 0.000000 
#    y 0.000000 3.737760 0.000000 
#    z 0.000000 0.000000 3.529090 
# 
# 
# High freq. dielectric constant tensor:
#      x y z
#    x 1.784350 0.000000 0.000000 
#    y 0.000000 1.791080 0.000000 
#    z 0.000000 0.000000 1.771620 
# 
# From -- ./inp_files/16853.got.cif
#   From: 2010.03.12/outbox.cif.g09.slc.cpg/sg56_9_cif.got.tgz:16853.got - 2010.04.16 15:33:40.
