data_PCOD8228830
_publ_section_title
;
Structure prediction by ZEFSAII (Michael W. Deem and Ramdas Pophale) SiO2 
 PCOD8228830
Probable space group: P C C N
;
_chemical_formula_sum "Si O2"
_cell_formula_units_Z 64
_cell_length_a 12.654170
_cell_length_b 8.401871
_cell_length_c 27.622977
_cell_angle_alpha 90.000000
_cell_angle_beta 90.000000
_cell_angle_gamma 90.000000
_cell_volume 2936.839114
_symmetry_space_group_name_H-M "P C C N"
_symmetry_group_IT_number 56
_symmetry_cell_setting 'orthorhombic'
loop_
_space_group_symop_operation_xyz
x,y,z
1/2-x,1/2-y,z
1/2+x,-y,1/2-z
-x,1/2+y,1/2-z
-x,-y,-z
1/2+x,1/2+y,-z
1/2-x,y,1/2+z
x,1/2-y,1/2+z
loop_
_atom_site_type_symbol
_atom_site_label
_atom_site_fract_x
_atom_site_fract_y
_atom_site_fract_z
Si Si1 0.302253 0.403578 0.807243
Si Si2 0.477142 0.063683 0.098153
Si Si3 0.662936 0.554432 0.540484
Si Si4 0.908110 0.059015 0.697028
Si Si5 0.992460 0.404220 0.716326
Si Si6 0.776646 0.430092 0.938240
Si Si7 0.868359 0.609222 0.586397
Si Si8 0.428916 0.423171 0.109487
O O1 0.250000 0.250000 0.781383
O O2 0.216761 0.545451 0.813679
O O3 0.398270 0.469018 0.775551
O O4 0.349519 0.342011 0.858195
O O5 0.530585 0.017375 0.148385
O O6 0.428501 0.238720 0.095927
O O7 0.563729 0.054997 0.055146
O O8 0.382724 0.935105 0.094024
O O9 0.692824 0.536474 0.484492
O O10 0.768054 0.502676 0.569962
O O11 0.628573 0.735925 0.552190
O O12 0.938586 0.232311 0.715846
O O13 0.933065 0.924805 0.737394
O O14 0.057468 0.440552 0.667327
O O15 0.750000 0.250000 0.953281
O O16 0.681068 0.503204 0.907488
O O17 0.975625 0.509187 0.580892
#
# Coordination Sequence:
#
# PCOD8228830 Si02
#       8
#     8   8   8   8   8   8   8   8
#     4  11  19  38  65  96 125 166 209 270 322 384
#     4  11  24  44  68  94 133 169 221 276 325 384
#     4  11  23  42  65  98 126 171 221 265 323 386
#     4  11  22  42  65  98 130 168 217 269 325 389
#     4  10  24  40  66  98 128 171 215 267 328 392
#     4  12  28  45  64  94 134 179 220 265 332 395
#     4  10  21  40  69  94 128 166 217 263 325 379
#     4  10  25  44  67  96 133 171 215 275 330 387
#
# _framework density 21.792138000000001
#
# number of rings (size 3 to 8) (size 9 to 14) (size 15 to 20)
#    0.000    1.250    2.500    2.625    5.250    4.500 
#    0.000    1.250    0.000    0.000    0.000    0.000 
#    0.000    0.000    0.000    0.000    0.000    0.000 
#
# Total GULP energy -793600.040641 kJ/mol
# GULP energy per Si atom -12400.000635 kJ/mol
# Density = 2.174254 g / cm^3
# Si number density = 21.792138 Si / 1000 Ang^3
#
#
#
# Elastic Constant Matrix: (Units=GPa)
#
#
# Indices 1 2 3 4 5 6 
#
# 1 121.9615 26.1400 30.9152 0.0000 0.0000 0.0000
# 2 26.1400 80.0185 31.5631 0.0000 0.0000 0.0000
# 3 30.9152 31.5631 74.1825 0.0000 0.0000 0.0000
# 4 0.0000 0.0000 0.0000 26.5931 0.0000 0.0000
# 5 0.0000 0.0000 0.0000 0.0000 27.7952 0.0000
# 6 0.0000 0.0000 0.0000 0.0000 0.0000 41.8961
#
#
#
# Elastic Compliance Matrix: (Units=1/GPa)
#
#
# Indices 1 2 3 4 5 6 
#
# 1 0.009386 -0.001830 -0.003133 0.000000 0.000000 0.000000
# 2 -0.001830 0.015374 -0.005779 0.000000 0.000000 0.000000
# 3 -0.003133 -0.005779 0.017245 0.000000 0.000000 0.000000
# 4 0.000000 0.000000 0.000000 0.037604 0.000000 0.000000
# 5 0.000000 0.000000 0.000000 0.000000 0.035977 0.000000
# 6 0.000000 0.000000 0.000000 0.000000 0.000000 0.023869
#
#
# Mechanical properties :
#
#
# Convention : Reuss Voigt Hill
#
# Bulk Modulus (GPa) = 48.73019 50.37767 49.55393
# Shear Modulus (GPa) = 29.80123 31.75981 30.78052
#
# Velocity S-wave (km/s) = 3.70201 3.82173 3.76235
# Velocity P-wave (km/s) = 6.37833 6.53006 6.45464
#
# Compressibility (1/GPa) = 0.02052116
#
# Stress axis : x y z
#
# Youngs Moduli (GPa) = 106.54517 65.04298 57.98950
#
# Poissons Ratio (x) = 0.11905 0.18166
# Poissons Ratio (y) = 0.19502 0.33510
# Poissons Ratio (z) = 0.33377 0.37586
#
# Static dielectric constant tensor:
#      x y z
#    x 4.170410 0.000000 0.000000 
#    y 0.000000 3.909490 0.000000 
#    z 0.000000 0.000000 3.775030 
# 
# 
# High freq. dielectric constant tensor:
#      x y z
#    x 1.873150 0.000000 0.000000 
#    y 0.000000 1.856280 0.000000 
#    z 0.000000 0.000000 1.845220 
# 
# From -- ./inp_files/23512.got.cif
#   From: 2010.03.12/outbox.cif.g09.slc.cpg/sg56_12_cif.got.tgz:23512.got - 2010.04.16 15:33:40.
