data_PCOD8228368
_publ_section_title
;
Structure prediction by ZEFSAII (Michael W. Deem and Ramdas Pophale) SiO2 
 PCOD8228368
Probable space group: P C C N
;
_chemical_formula_sum "Si O2"
_cell_formula_units_Z 48
_cell_length_a 13.445629
_cell_length_b 8.848135
_cell_length_c 21.062595
_cell_angle_alpha 90.000000
_cell_angle_beta 90.000000
_cell_angle_gamma 90.000000
_cell_volume 2505.790400
_symmetry_space_group_name_H-M "P C C N"
_symmetry_group_IT_number 56
_symmetry_cell_setting 'orthorhombic'
loop_
_space_group_symop_operation_xyz
x,y,z
1/2-x,1/2-y,z
1/2+x,-y,1/2-z
-x,1/2+y,1/2-z
-x,-y,-z
1/2+x,1/2+y,-z
1/2-x,y,1/2+z
x,1/2-y,1/2+z
loop_
_atom_site_type_symbol
_atom_site_label
_atom_site_fract_x
_atom_site_fract_y
_atom_site_fract_z
Si Si1 0.832992 0.128850 0.608678
Si Si2 0.250000 0.250000 0.206859
Si Si3 0.695793 0.023732 0.715988
Si Si4 0.766160 0.575641 0.521389
Si Si5 0.564642 0.081671 0.601987
Si Si6 0.659065 0.979471 0.387428
Si Si7 0.750000 0.250000 0.316511
O O1 0.750000 0.250000 0.590287
O O2 0.800140 0.056909 0.677177
O O3 0.932565 0.231754 0.603918
O O4 0.830838 0.002987 0.553432
O O5 0.189700 0.359213 0.253330
O O6 0.175027 0.150700 0.164713
O O7 0.600191 0.030201 0.671356
O O8 0.681518 0.145119 0.772095
O O9 0.750000 0.750000 0.537634
O O10 0.866801 0.504381 0.550612
O O11 0.766407 0.548734 0.446057
O O12 0.453532 0.028804 0.588295
O O13 0.679198 0.145852 0.359741
#
# Coordination Sequence:
#
# PCOD8228368 Si02
#       7
#     8   4   8   8   8   8   4
#     4   8  17  34  61  80 107 146 187 235 274 327
#     4  10  22  36  56  80 124 156 164 234 290 336
#     4   9  17  37  57  84 110 146 194 215 282 339
#     4  10  20  38  58  82 113 146 188 233 289 339
#     4  10  21  37  62  85 106 146 198 244 260 333
#     4  11  23  38  56  84 118 147 189 230 292 340
#     4  10  20  36  60  78 118 162 172 224 292 358
#
# _framework density 19.155632000000001
#
# number of rings (size 3 to 8) (size 9 to 14) (size 15 to 20)
#    0.000    2.667    3.333    0.500    8.167    1.333 
#    0.000    4.167    0.000    0.000    0.000    0.000 
#    0.000    0.000    0.000    0.000    0.000    0.000 
#
# Total GULP energy -594650.661898 kJ/mol
# GULP energy per Si atom -12388.555456 kJ/mol
# Density = 1.911203 g / cm^3
# Si number density = 19.155632 Si / 1000 Ang^3
#
#
#
# Elastic Constant Matrix: (Units=GPa)
#
#
# Indices 1 2 3 4 5 6 
#
# 1 47.8321 23.3004 20.9143 0.0000 0.0000 0.0000
# 2 23.3004 147.7877 69.0794 0.0000 0.0000 0.0000
# 3 20.9143 69.0794 108.7610 0.0000 0.0000 0.0000
# 4 0.0000 0.0000 0.0000 27.8500 0.0000 0.0000
# 5 0.0000 0.0000 0.0000 0.0000 7.9840 0.0000
# 6 0.0000 0.0000 0.0000 0.0000 0.0000 22.6222
#
#
#
# Elastic Compliance Matrix: (Units=1/GPa)
#
#
# Indices 1 2 3 4 5 6 
#
# 1 0.023340 -0.002250 -0.003059 0.000000 0.000000 0.000000
# 2 -0.002250 0.009840 -0.005817 0.000000 0.000000 0.000000
# 3 -0.003059 -0.005817 0.013478 0.000000 0.000000 0.000000
# 4 0.000000 0.000000 0.000000 0.035907 0.000000 0.000000
# 5 0.000000 0.000000 0.000000 0.000000 0.125250 0.000000
# 6 0.000000 0.000000 0.000000 0.000000 0.000000 0.044204
#
#
# Mechanical properties :
#
#
# Convention : Reuss Voigt Hill
#
# Bulk Modulus (GPa) = 40.97512 58.99657 49.98584
# Shear Modulus (GPa) = 17.70490 24.43034 21.06762
#
# Velocity S-wave (km/s) = 3.04347 3.57509 3.31994
# Velocity P-wave (km/s) = 5.81269 6.92150 6.39119
#
# Compressibility (1/GPa) = 0.02440506
#
# Stress axis : x y z
#
# Youngs Moduli (GPa) = 42.84479 101.62175 74.19657
#
# Poissons Ratio (x) = 0.22864 0.22698
# Poissons Ratio (y) = 0.09640 0.43164
# Poissons Ratio (z) = 0.13107 0.59118
#
# Static dielectric constant tensor:
#      x y z
#    x 3.247080 0.000000 0.000000 
#    y 0.000000 4.145140 0.000000 
#    z 0.000000 0.000000 3.657370 
# 
# 
# High freq. dielectric constant tensor:
#      x y z
#    x 1.686780 0.000000 0.000000 
#    y 0.000000 1.761830 0.000000 
#    z 0.000000 0.000000 1.759470 
# 
# From -- ./inp_files/19009.got.cif
#   From: 2010.03.12/outbox.cif.g09.slc.cpg/sg56_10_cif.got.tgz:19009.got - 2010.04.16 15:33:40.
