data_PCOD8228324
_publ_section_title
;
Structure prediction by ZEFSAII (Michael W. Deem and Ramdas Pophale) SiO2 
 PCOD8228324
Probable space group: P C C N
;
_chemical_formula_sum "Si O2"
_cell_formula_units_Z 56
_cell_length_a 21.584219
_cell_length_b 9.019310
_cell_length_c 14.019248
_cell_angle_alpha 90.000000
_cell_angle_beta 90.000000
_cell_angle_gamma 90.000000
_cell_volume 2729.193772
_symmetry_space_group_name_H-M "P C C N"
_symmetry_group_IT_number 56
_symmetry_cell_setting 'orthorhombic'
loop_
_space_group_symop_operation_xyz
x,y,z
1/2-x,1/2-y,z
1/2+x,-y,1/2-z
-x,1/2+y,1/2-z
-x,-y,-z
1/2+x,1/2+y,-z
1/2-x,y,1/2+z
x,1/2-y,1/2+z
loop_
_atom_site_type_symbol
_atom_site_label
_atom_site_fract_x
_atom_site_fract_y
_atom_site_fract_z
Si Si1 0.694281 0.848318 0.047773
Si Si2 0.315020 0.828935 0.273251
Si Si3 0.189992 0.679386 0.967228
Si Si4 0.975158 0.644952 0.547898
Si Si5 0.913844 0.323514 0.880267
Si Si6 0.366453 0.147929 0.304017
Si Si7 0.413030 0.345815 0.603342
O O1 0.750000 0.750000 0.007935
O O2 0.672021 0.779600 0.147680
O O3 0.712140 0.017891 0.069348
O O4 0.647859 0.852592 0.960092
O O5 0.250000 0.750000 0.239251
O O6 0.329005 0.778832 0.378808
O O7 0.371302 0.772090 0.207745
O O8 0.320770 0.010362 0.274502
O O9 0.250000 0.750000 0.020552
O O10 0.128743 0.682487 0.027588
O O11 0.917861 0.603673 0.616492
O O12 0.961786 0.751529 0.457369
O O13 0.000000 0.500000 0.500000
O O14 0.027951 0.715635 0.614196
O O15 0.940000 0.490712 0.873390
O O16 0.396878 0.219302 0.208349
#
# Coordination Sequence:
#
# PCOD8228324 Si02
#       7
#     8   8   8   8   8   8   8
#     4  10  20  36  57  82 113 149 187 234 291 347
#     4  10  20  37  60  86 114 147 191 241 293 350
#     4  10  20  35  56  82 113 146 184 233 284 339
#     4  11  23  38  59  86 116 151 195 242 289 346
#     4  10  21  38  59  81 111 151 192 233 284 344
#     4  10  22  40  58  84 119 151 191 241 292 349
#     4   9  22  40  57  81 114 153 192 234 289 349
#
# _framework density 20.518881
#
# number of rings (size 3 to 8) (size 9 to 14) (size 15 to 20)
#    0.000    2.000    0.000    3.429    0.000    6.286 
#    0.000    4.286    0.000    0.000    0.000    0.000 
#    0.000    0.000    0.000    0.000    0.000    0.000 
#
# Total GULP energy -693893.042921 kJ/mol
# GULP energy per Si atom -12390.947195 kJ/mol
# Density = 2.047218 g / cm^3
# Si number density = 20.518881 Si / 1000 Ang^3
#
#
#
# Elastic Constant Matrix: (Units=GPa)
#
#
# Indices 1 2 3 4 5 6 
#
# 1 80.9380 38.6985 3.0437 0.0000 0.0000 0.0000
# 2 38.6985 81.8690 6.5043 0.0000 0.0000 0.0000
# 3 3.0437 6.5043 74.3903 0.0000 0.0000 0.0000
# 4 0.0000 0.0000 0.0000 21.6225 0.0000 0.0000
# 5 0.0000 0.0000 0.0000 0.0000 18.5465 0.0000
# 6 0.0000 0.0000 0.0000 0.0000 0.0000 33.2825
#
#
#
# Elastic Compliance Matrix: (Units=1/GPa)
#
#
# Indices 1 2 3 4 5 6 
#
# 1 0.015963 -0.007546 0.000007 0.000000 0.000000 0.000000
# 2 -0.007546 0.015867 -0.001079 0.000000 0.000000 0.000000
# 3 0.000007 -0.001079 0.013537 0.000000 0.000000 0.000000
# 4 0.000000 0.000000 0.000000 0.046248 0.000000 0.000000
# 5 0.000000 0.000000 0.000000 0.000000 0.053918 0.000000
# 6 0.000000 0.000000 0.000000 0.000000 0.000000 0.030046
#
#
# Mechanical properties :
#
#
# Convention : Reuss Voigt Hill
#
# Bulk Modulus (GPa) = 35.54815 37.07670 36.31243
# Shear Modulus (GPa) = 24.72899 27.28702 26.00801
#
# Velocity S-wave (km/s) = 3.47534 3.65067 3.56408
# Velocity P-wave (km/s) = 5.78500 5.98987 5.88833
#
# Compressibility (1/GPa) = 0.02813086
#
# Stress axis : x y z
#
# Youngs Moduli (GPa) = 62.64568 63.02311 73.87355
#
# Poissons Ratio (x) = 0.47557 -0.00049
# Poissons Ratio (y) = 0.47272 0.07968
# Poissons Ratio (z) = -0.00042 0.06798
#
# Static dielectric constant tensor:
#      x y z
#    x 4.104720 0.000000 0.000000 
#    y 0.000000 4.080370 0.000000 
#    z 0.000000 0.000000 3.796170 
# 
# 
# High freq. dielectric constant tensor:
#      x y z
#    x 1.798620 0.000000 0.000000 
#    y 0.000000 1.802830 0.000000 
#    z 0.000000 0.000000 1.810280 
# 
# From -- ./inp_files/13079.got.cif
#   From: 2010.03.12/outbox.cif.g09.slc.cpg/sg56_7_cif.got.tgz:13079.got - 2010.04.16 15:33:40.
