data_PCOD8228294
_publ_section_title
;
Structure prediction by ZEFSAII (Michael W. Deem and Ramdas Pophale) SiO2 
 PCOD8228294
Probable space group: P C C N
;
_chemical_formula_sum "Si O2"
_cell_formula_units_Z 48
_cell_length_a 24.395240
_cell_length_b 11.731788
_cell_length_c 8.527984
_cell_angle_alpha 90.000000
_cell_angle_beta 90.000000
_cell_angle_gamma 90.000000
_cell_volume 2440.707178
_symmetry_space_group_name_H-M "P C C N"
_symmetry_group_IT_number 56
_symmetry_cell_setting 'orthorhombic'
loop_
_space_group_symop_operation_xyz
x,y,z
1/2-x,1/2-y,z
1/2+x,-y,1/2-z
-x,1/2+y,1/2-z
-x,-y,-z
1/2+x,1/2+y,-z
1/2-x,y,1/2+z
x,1/2-y,1/2+z
loop_
_atom_site_type_symbol
_atom_site_label
_atom_site_fract_x
_atom_site_fract_y
_atom_site_fract_z
Si Si1 0.394156 0.212895 0.084350
Si Si2 0.851967 0.907635 0.711774
Si Si3 0.317652 0.694035 0.995132
Si Si4 0.042390 0.122675 0.870101
Si Si5 0.724655 0.105985 0.188845
Si Si6 0.076233 0.571803 0.589008
O O1 0.351363 0.299515 0.169923
O O2 0.424795 0.134565 0.209241
O O3 0.361792 0.131887 0.965741
O O4 0.441096 0.279639 0.991600
O O5 0.793999 0.974218 0.707840
O O6 0.898236 0.995421 0.772227
O O7 0.282799 0.673141 0.150626
O O8 0.380996 0.664180 0.022641
O O9 0.312114 0.825713 0.941182
O O10 0.288593 0.612416 0.862934
O O11 0.977186 0.133896 0.839911
O O12 0.057728 0.999969 0.938330
#
# Coordination Sequence:
#
# PCOD8228294 Si02
#       6
#     8   8   8   8   8   8
#     4   9  18  34  54  76 107 143 175 222 265 308
#     4   9  19  35  56  78 106 140 179 219 266 315
#     4  10  20  34  53  77 107 135 169 215 265 314
#     4   9  18  32  51  75 105 138 177 214 262 315
#     4  10  20  35  55  80 106 137 174 214 266 322
#     4   9  19  34  51  76 105 138 176 219 262 315
#
# _framework density 19.666432
#
# number of rings (size 3 to 8) (size 9 to 14) (size 15 to 20)
#    0.000    2.667    0.000    2.000    0.000    6.000 
#    0.000    3.333    0.000   34.000    0.000    0.000 
#    0.000    0.000    0.000    0.000    0.000    0.000 
#
# Total GULP energy -594866.591822 kJ/mol
# GULP energy per Si atom -12393.053996 kJ/mol
# Density = 1.962167 g / cm^3
# Si number density = 19.666432 Si / 1000 Ang^3
#
#
#
# Elastic Constant Matrix: (Units=GPa)
#
#
# Indices 1 2 3 4 5 6 
#
# 1 70.4426 21.2202 9.2599 0.0000 0.0000 0.0000
# 2 21.2202 59.0209 19.1584 0.0000 0.0000 0.0000
# 3 9.2599 19.1584 102.5153 0.0000 0.0000 0.0000
# 4 0.0000 0.0000 0.0000 20.6578 0.0000 0.0000
# 5 0.0000 0.0000 0.0000 0.0000 17.6172 0.0000
# 6 0.0000 0.0000 0.0000 0.0000 0.0000 34.2123
#
#
#
# Elastic Compliance Matrix: (Units=1/GPa)
#
#
# Indices 1 2 3 4 5 6 
#
# 1 0.015935 -0.005602 -0.000392 0.000000 0.000000 0.000000
# 2 -0.005602 0.020007 -0.003233 0.000000 0.000000 0.000000
# 3 -0.000392 -0.003233 0.010394 0.000000 0.000000 0.000000
# 4 0.000000 0.000000 0.000000 0.048408 0.000000 0.000000
# 5 0.000000 0.000000 0.000000 0.000000 0.056763 0.000000
# 6 0.000000 0.000000 0.000000 0.000000 0.000000 0.029229
#
#
# Mechanical properties :
#
#
# Convention : Reuss Voigt Hill
#
# Bulk Modulus (GPa) = 35.86610 36.80622 36.33616
# Shear Modulus (GPa) = 23.98264 26.65347 25.31806
#
# Velocity S-wave (km/s) = 3.49588 3.68540 3.59189
# Velocity P-wave (km/s) = 5.87977 6.07169 5.97650
#
# Compressibility (1/GPa) = 0.02788148
#
# Stress axis : x y z
#
# Youngs Moduli (GPa) = 62.75473 49.98344 96.20690
#
# Poissons Ratio (x) = 0.28000 0.03776
# Poissons Ratio (y) = 0.35154 0.31103
# Poissons Ratio (z) = 0.02463 0.16159
#
# Static dielectric constant tensor:
#      x y z
#    x 3.481300 0.000000 0.000000 
#    y 0.000000 3.538060 0.000000 
#    z 0.000000 0.000000 3.810710 
# 
# 
# High freq. dielectric constant tensor:
#      x y z
#    x 1.748830 0.000000 0.000000 
#    y 0.000000 1.753970 0.000000 
#    z 0.000000 0.000000 1.777170 
# 
# From -- ./inp_files/2847.got.cif
#   From: 2010.03.12/outbox.cif.g09.slc.cpg/sg56_2_cif.got.tgz:2847.got - 2010.04.16 15:33:40.
