data_PCOD8228498
_publ_section_title
;
Structure prediction by ZEFSAII (Michael W. Deem and Ramdas Pophale) SiO2 
 PCOD8228498
Probable space group: P C C N
;
_chemical_formula_sum "Si O2"
_cell_formula_units_Z 40
_cell_length_a 13.147524
_cell_length_b 11.152139
_cell_length_c 12.153997
_cell_angle_alpha 90.000000
_cell_angle_beta 90.000000
_cell_angle_gamma 90.000000
_cell_volume 1782.055686
_symmetry_space_group_name_H-M "P C C N"
_symmetry_group_IT_number 56
_symmetry_cell_setting 'orthorhombic'
loop_
_space_group_symop_operation_xyz
x,y,z
1/2-x,1/2-y,z
1/2+x,-y,1/2-z
-x,1/2+y,1/2-z
-x,-y,-z
1/2+x,1/2+y,-z
1/2-x,y,1/2+z
x,1/2-y,1/2+z
loop_
_atom_site_type_symbol
_atom_site_label
_atom_site_fract_x
_atom_site_fract_y
_atom_site_fract_z
Si Si1 0.541856 0.156779 0.116360
Si Si2 0.302376 0.956078 0.733088
Si Si3 0.239413 0.121945 0.914813
Si Si4 0.559593 0.596000 0.927983
Si Si5 0.373084 0.516795 0.576652
O O1 0.636406 0.149163 0.203190
O O2 0.509142 0.295080 0.116942
O O3 0.454095 0.059315 0.150527
O O4 0.575195 0.123891 0.991845
O O5 0.230162 0.025618 0.818761
O O6 0.388396 0.039102 0.679096
O O7 0.218626 0.916711 0.642754
O O8 0.250000 0.250000 0.855535
O O9 0.141918 0.144973 0.988716
O O10 0.332398 0.083706 0.992580
O O11 0.500000 0.500000 0.000000
#
# Coordination Sequence:
#
# PCOD8228498 Si02
#       5
#     8   8   8   8   8
#     4  10  21  44  69  93 136 178 216 284 344 402
#     4  10  24  39  69 103 128 175 236 274 341 409
#     4  10  20  38  65  96 129 173 220 283 323 391
#     4  11  25  43  64 101 136 172 224 281 336 410
#     4   9  20  41  64  98 134 173 223 273 341 396
#
# _framework density 22.445986000000001
#
# number of rings (size 3 to 8) (size 9 to 14) (size 15 to 20)
#    0.000    2.000    2.000    0.000    5.600    0.000 
#    0.000   11.000    0.000    0.000    0.000    0.000 
#    0.000    0.000    0.000    0.000    0.000    0.000 
#
# Total GULP energy -495634.364991 kJ/mol
# GULP energy per Si atom -12390.859125 kJ/mol
# Density = 2.239490 g / cm^3
# Si number density = 22.445986 Si / 1000 Ang^3
#
#
#
# Elastic Constant Matrix: (Units=GPa)
#
#
# Indices 1 2 3 4 5 6 
#
# 1 87.1300 28.9317 27.8847 0.0000 0.0000 0.0000
# 2 28.9317 76.7824 23.0858 0.0000 0.0000 0.0000
# 3 27.8847 23.0858 76.0446 0.0000 0.0000 0.0000
# 4 0.0000 0.0000 0.0000 19.8160 0.0000 0.0000
# 5 0.0000 0.0000 0.0000 0.0000 46.7354 0.0000
# 6 0.0000 0.0000 0.0000 0.0000 0.0000 27.2191
#
#
#
# Elastic Compliance Matrix: (Units=1/GPa)
#
#
# Indices 1 2 3 4 5 6 
#
# 1 0.014104 -0.004137 -0.003916 0.000000 0.000000 0.000000
# 2 -0.004137 0.015545 -0.003202 0.000000 0.000000 0.000000
# 3 -0.003916 -0.003202 0.015558 0.000000 0.000000 0.000000
# 4 0.000000 0.000000 0.000000 0.050464 0.000000 0.000000
# 5 0.000000 0.000000 0.000000 0.000000 0.021397 0.000000
# 6 0.000000 0.000000 0.000000 0.000000 0.000000 0.036739
#
#
# Mechanical properties :
#
#
# Convention : Reuss Voigt Hill
#
# Bulk Modulus (GPa) = 44.05808 44.41792 44.23800
# Shear Modulus (GPa) = 27.19101 29.42441 28.30771
#
# Velocity S-wave (km/s) = 3.48429 3.62456 3.55512
# Velocity P-wave (km/s) = 5.98817 6.11133 6.05006
#
# Compressibility (1/GPa) = 0.02269731
#
# Stress axis : x y z
#
# Youngs Moduli (GPa) = 70.90169 64.32730 64.27454
#
# Poissons Ratio (x) = 0.26613 0.25169
# Poissons Ratio (y) = 0.29332 0.20583
# Poissons Ratio (z) = 0.27764 0.20600
#
# Static dielectric constant tensor:
#      x y z
#    x 4.052770 0.000000 0.000000 
#    y 0.000000 3.643410 0.000000 
#    z 0.000000 0.000000 3.987300 
# 
# 
# High freq. dielectric constant tensor:
#      x y z
#    x 1.898450 0.000000 0.000000 
#    y 0.000000 1.861440 0.000000 
#    z 0.000000 0.000000 1.882060 
# 
# From -- ./inp_files/7644.got.cif
#   From: 2010.03.12/outbox.cif.g09.slc.cpg/sg56_4_cif.got.tgz:7644.got - 2010.04.16 15:33:40.
