data_PCOD8228373
_publ_section_title
;
Structure prediction by ZEFSAII (Michael W. Deem and Ramdas Pophale) SiO2 
 PCOD8228373
Probable space group: P C C N
;
_chemical_formula_sum "Si O2"
_cell_formula_units_Z 48
_cell_length_a 12.304007
_cell_length_b 10.049866
_cell_length_c 18.339479
_cell_angle_alpha 90.000000
_cell_angle_beta 90.000000
_cell_angle_gamma 90.000000
_cell_volume 2267.742997
_symmetry_space_group_name_H-M "P C C N"
_symmetry_group_IT_number 56
_symmetry_cell_setting 'orthorhombic'
loop_
_space_group_symop_operation_xyz
x,y,z
1/2-x,1/2-y,z
1/2+x,-y,1/2-z
-x,1/2+y,1/2-z
-x,-y,-z
1/2+x,1/2+y,-z
1/2-x,y,1/2+z
x,1/2-y,1/2+z
loop_
_atom_site_type_symbol
_atom_site_label
_atom_site_fract_x
_atom_site_fract_y
_atom_site_fract_z
Si Si1 0.897900 0.353425 0.352731
Si Si2 0.664139 0.074738 0.903734
Si Si3 0.798239 0.394440 0.062102
Si Si4 0.916252 0.219439 0.693744
Si Si5 0.373388 0.487070 0.845718
Si Si6 0.651111 0.839360 0.798625
O O1 0.907727 0.201359 0.379455
O O2 0.794153 0.415744 0.392243
O O3 0.874540 0.355197 0.266181
O O4 0.006938 0.438070 0.371237
O O5 0.622351 0.953428 0.856044
O O6 0.643930 0.048822 0.989638
O O7 0.750000 0.250000 0.041182
O O8 0.886252 0.376453 0.126363
O O9 0.707250 0.504980 0.084969
O O10 0.863407 0.363589 0.686160
O O11 0.043825 0.250174 0.701280
O O12 0.326044 0.392442 0.782808
O O13 0.750000 0.750000 0.825829
#
# Coordination Sequence:
#
# PCOD8228373 Si02
#       6
#     8   8   8   8   8   8
#     4  10  20  36  61  90 116 165 209 261 309 369
#     4  11  21  39  59  89 126 162 204 255 316 377
#     4  10  21  38  61  91 124 168 206 251 317 379
#     4  10  21  38  62  88 120 164 209 256 317 370
#     4  10  21  39  62  90 119 159 214 263 305 372
#     4  11  23  40  63  91 120 159 209 262 309 370
#
# _framework density 21.166419999999999
#
# number of rings (size 3 to 8) (size 9 to 14) (size 15 to 20)
#    0.000    1.667    3.333    2.000    4.667    2.667 
#    3.000    0.833    0.000    0.000    0.000    0.000 
#    0.000    0.000    0.000    0.000    0.000    0.000 
#
# Total GULP energy -595122.966980 kJ/mol
# GULP energy per Si atom -12398.395145 kJ/mol
# Density = 2.111824 g / cm^3
# Si number density = 21.166420 Si / 1000 Ang^3
#
#
#
# Elastic Constant Matrix: (Units=GPa)
#
#
# Indices 1 2 3 4 5 6 
#
# 1 66.3457 10.1813 22.5833 0.0000 0.0000 0.0000
# 2 10.1813 46.7080 11.4094 0.0000 0.0000 0.0000
# 3 22.5833 11.4094 128.5764 0.0000 0.0000 0.0000
# 4 0.0000 0.0000 0.0000 11.0029 0.0000 0.0000
# 5 0.0000 0.0000 0.0000 0.0000 20.6729 0.0000
# 6 0.0000 0.0000 0.0000 0.0000 0.0000 35.4596
#
#
#
# Elastic Compliance Matrix: (Units=1/GPa)
#
#
# Indices 1 2 3 4 5 6 
#
# 1 0.016416 -0.002938 -0.002623 0.000000 0.000000 0.000000
# 2 -0.002938 0.022410 -0.001473 0.000000 0.000000 0.000000
# 3 -0.002623 -0.001473 0.008369 0.000000 0.000000 0.000000
# 4 0.000000 0.000000 0.000000 0.090885 0.000000 0.000000
# 5 0.000000 0.000000 0.000000 0.000000 0.048372 0.000000
# 6 0.000000 0.000000 0.000000 0.000000 0.000000 0.028201
#
#
# Mechanical properties :
#
#
# Convention : Reuss Voigt Hill
#
# Bulk Modulus (GPa) = 30.18531 36.66424 33.42477
# Shear Modulus (GPa) = 20.85399 26.59082 23.72240
#
# Velocity S-wave (km/s) = 3.14226 3.54824 3.35140
# Velocity P-wave (km/s) = 5.23994 5.84347 5.54991
#
# Compressibility (1/GPa) = 0.03312870
#
# Stress axis : x y z
#
# Youngs Moduli (GPa) = 60.91584 44.62356 119.49157
#
# Poissons Ratio (x) = 0.13109 0.31339
# Poissons Ratio (y) = 0.17895 0.17596
# Poissons Ratio (z) = 0.15976 0.06571
#
# Static dielectric constant tensor:
#      x y z
#    x 3.784890 0.000000 0.000000 
#    y 0.000000 3.710510 0.000000 
#    z 0.000000 0.000000 3.877120 
# 
# 
# High freq. dielectric constant tensor:
#      x y z
#    x 1.825850 0.000000 0.000000 
#    y 0.000000 1.810530 0.000000 
#    z 0.000000 0.000000 1.830140 
# 
# From -- ./inp_files/15570.got.cif
#   From: 2010.03.12/outbox.cif.g09.slc.cpg/sg56_8_cif.got.tgz:15570.got - 2010.04.16 15:33:40.
