data_PCOD8228866
_publ_section_title
;
Structure prediction by ZEFSAII (Michael W. Deem and Ramdas Pophale) SiO2 
 PCOD8228866
Probable space group: P C C N
;
_chemical_formula_sum "Si O2"
_cell_formula_units_Z 40
_cell_length_a 11.536844
_cell_length_b 8.856473
_cell_length_c 14.171869
_cell_angle_alpha 90.000000
_cell_angle_beta 90.000000
_cell_angle_gamma 90.000000
_cell_volume 1448.021307
_symmetry_space_group_name_H-M "P C C N"
_symmetry_group_IT_number 56
_symmetry_cell_setting 'orthorhombic'
loop_
_space_group_symop_operation_xyz
x,y,z
1/2-x,1/2-y,z
1/2+x,-y,1/2-z
-x,1/2+y,1/2-z
-x,-y,-z
1/2+x,1/2+y,-z
1/2-x,y,1/2+z
x,1/2-y,1/2+z
loop_
_atom_site_type_symbol
_atom_site_label
_atom_site_fract_x
_atom_site_fract_y
_atom_site_fract_z
Si Si1 0.595380 0.307081 0.475619
Si Si2 0.135184 0.022798 0.014444
Si Si3 0.623340 0.222281 0.768672
Si Si4 0.580312 0.944341 0.287409
Si Si5 0.645940 0.889989 0.080726
O O1 0.672174 0.155402 0.494624
O O2 0.628318 0.364899 0.369677
O O3 0.451221 0.282393 0.471508
O O4 0.618625 0.436766 0.551568
O O5 0.158476 0.086709 0.120407
O O6 0.215891 0.130209 0.946886
O O7 0.000000 0.000000 0.000000
O O8 0.750000 0.250000 0.725231
O O9 0.556488 0.378561 0.781203
O O10 0.548540 0.124355 0.695190
O O11 0.638673 0.874713 0.193792
#
# Coordination Sequence:
#
# PCOD8228866 Si02
#       5
#     8   8   8   8   8
#     4   9  20  41  65  94 128 174 233 279 340 412
#     4  11  24  40  64 102 143 171 228 287 345 415
#     4  10  21  41  70  99 144 180 235 294 351 421
#     4  10  24  41  69 107 133 186 240 281 354 431
#     4  10  21  41  68  95 132 182 227 287 349 412
#
# _framework density 27.623905000000001
#
# number of rings (size 3 to 8) (size 9 to 14) (size 15 to 20)
#    0.000    2.000    0.000    3.000    5.600    0.800 
#    0.000    1.000    8.800    0.000    0.000    0.000 
#    0.000    0.000    0.000    0.000    0.000    0.000 
#
# Total GULP energy -495707.670202 kJ/mol
# GULP energy per Si atom -12392.691755 kJ/mol
# Density = 2.756103 g / cm^3
# Si number density = 27.623905 Si / 1000 Ang^3
#
#
#
# Elastic Constant Matrix: (Units=GPa)
#
#
# Indices 1 2 3 4 5 6 
#
# 1 175.1113 43.7644 38.3115 0.0000 0.0000 0.0000
# 2 43.7644 56.9071 13.9100 0.0000 0.0000 0.0000
# 3 38.3115 13.9100 113.4484 0.0000 0.0000 0.0000
# 4 0.0000 0.0000 0.0000 28.5952 0.0000 0.0000
# 5 0.0000 0.0000 0.0000 0.0000 26.5395 0.0000
# 6 0.0000 0.0000 0.0000 0.0000 0.0000 48.4316
#
#
#
# Elastic Compliance Matrix: (Units=1/GPa)
#
#
# Indices 1 2 3 4 5 6 
#
# 1 0.007434 -0.005261 -0.001865 0.000000 0.000000 0.000000
# 2 -0.005261 0.021839 -0.000901 0.000000 0.000000 0.000000
# 3 -0.001865 -0.000901 0.009555 0.000000 0.000000 0.000000
# 4 0.000000 0.000000 0.000000 0.034971 0.000000 0.000000
# 5 0.000000 0.000000 0.000000 0.000000 0.037680 0.000000
# 6 0.000000 0.000000 0.000000 0.000000 0.000000 0.020648
#
#
# Mechanical properties :
#
#
# Convention : Reuss Voigt Hill
#
# Bulk Modulus (GPa) = 43.91212 59.71540 51.81376
# Shear Modulus (GPa) = 32.09845 37.34531 34.72188
#
# Velocity S-wave (km/s) = 3.41248 3.68084 3.54920
# Velocity P-wave (km/s) = 5.60871 6.30309 5.96601
#
# Compressibility (1/GPa) = 0.02277275
#
# Stress axis : x y z
#
# Youngs Moduli (GPa) = 134.52517 45.79047 104.65764
#
# Poissons Ratio (x) = 0.24090 0.19521
# Poissons Ratio (y) = 0.70772 0.09430
# Poissons Ratio (z) = 0.25093 0.04126
#
# Static dielectric constant tensor:
#      x y z
#    x 5.417440 0.000000 0.000000 
#    y 0.000000 5.661380 0.000000 
#    z 0.000000 0.000000 5.186970 
# 
# 
# High freq. dielectric constant tensor:
#      x y z
#    x 2.135440 0.000000 0.000000 
#    y 0.000000 2.125410 0.000000 
#    z 0.000000 0.000000 2.096620 
# 
# From -- ./inp_files/11441.got.cif
#   From: 2010.03.12/outbox.cif.g09.slc.cpg/sg56_6_cif.got.tgz:11441.got - 2010.04.16 15:33:40.
