data_PCOD8228185
_publ_section_title
;
Structure prediction by ZEFSAII (Michael W. Deem and Ramdas Pophale) SiO2 
 PCOD8228185
Probable space group: P C C N
;
_chemical_formula_sum "Si O2"
_cell_formula_units_Z 44
_cell_length_a 5.263442
_cell_length_b 15.041813
_cell_length_c 23.993038
_cell_angle_alpha 90.000000
_cell_angle_beta 90.000000
_cell_angle_gamma 90.000000
_cell_volume 1899.569854
_symmetry_space_group_name_H-M "P C C N"
_symmetry_group_IT_number 56
_symmetry_cell_setting 'orthorhombic'
loop_
_space_group_symop_operation_xyz
x,y,z
1/2-x,1/2-y,z
1/2+x,-y,1/2-z
-x,1/2+y,1/2-z
-x,-y,-z
1/2+x,1/2+y,-z
1/2-x,y,1/2+z
x,1/2-y,1/2+z
loop_
_atom_site_type_symbol
_atom_site_label
_atom_site_fract_x
_atom_site_fract_y
_atom_site_fract_z
Si Si1 0.015064 0.584774 0.862191
Si Si2 0.970255 0.908282 0.928649
Si Si3 0.510082 0.886913 0.552078
Si Si4 0.630750 0.884314 0.146392
Si Si5 0.923082 0.556860 0.746617
Si Si6 0.750000 0.250000 0.373978
O O1 0.781462 0.625168 0.896934
O O2 0.000930 0.621920 0.798517
O O3 0.279295 0.610560 0.891789
O O4 0.983783 0.478186 0.852269
O O5 0.931631 0.010973 0.942558
O O6 0.982804 0.856627 0.987514
O O7 0.778324 0.869495 0.582649
O O8 0.305509 0.831135 0.585061
O O9 0.871744 0.888679 0.189280
O O10 0.469020 0.796022 0.163802
O O11 0.656648 0.509857 0.764315
#
# Coordination Sequence:
#
# PCOD8228185 Si02
#       6
#     8   8   8   8   8   4
#     4  10  19  37  59  90 115 155 202 255 301 354
#     4  10  21  36  62  86 121 152 206 256 300 363
#     4  10  22  36  56  87 121 159 202 253 314 364
#     4  10  22  35  58  90 128 160 205 251 315 371
#     4  10  20  35  61  89 122 156 200 256 306 362
#     4  12  22  38  56  88 128 170 200 250 324 382
#
# _framework density 23.163138
#
# number of rings (size 3 to 8) (size 9 to 14) (size 15 to 20)
#    0.000    1.818    1.818    3.818    5.091    2.182 
#    0.000    0.000    0.000    1.091    0.000    0.000 
#    0.000    0.000    0.000    0.000    0.000    0.000 
#
# Total GULP energy -545132.331572 kJ/mol
# GULP energy per Si atom -12389.371172 kJ/mol
# Density = 2.311042 g / cm^3
# Si number density = 23.163138 Si / 1000 Ang^3
#
#
#
# Elastic Constant Matrix: (Units=GPa)
#
#
# Indices 1 2 3 4 5 6 
#
# 1 140.3292 10.2284 54.1737 0.0000 0.0000 0.0000
# 2 10.2284 28.3105 4.0197 0.0000 0.0000 0.0000
# 3 54.1737 4.0197 167.2643 0.0000 0.0000 0.0000
# 4 0.0000 0.0000 0.0000 11.5709 0.0000 0.0000
# 5 0.0000 0.0000 0.0000 0.0000 31.1236 0.0000
# 6 0.0000 0.0000 0.0000 0.0000 0.0000 18.5383
#
#
#
# Elastic Compliance Matrix: (Units=1/GPa)
#
#
# Indices 1 2 3 4 5 6 
#
# 1 0.008336 -0.002637 -0.002637 0.000000 0.000000 0.000000
# 2 -0.002637 0.036278 -0.000018 0.000000 0.000000 0.000000
# 3 -0.002637 -0.000018 0.006833 0.000000 0.000000 0.000000
# 4 0.000000 0.000000 0.000000 0.086424 0.000000 0.000000
# 5 0.000000 0.000000 0.000000 0.000000 0.032130 0.000000
# 6 0.000000 0.000000 0.000000 0.000000 0.000000 0.053942
#
#
# Mechanical properties :
#
#
# Convention : Reuss Voigt Hill
#
# Bulk Modulus (GPa) = 24.47153 52.52753 38.49953
# Shear Modulus (GPa) = 20.14931 30.07871 25.11401
#
# Velocity S-wave (km/s) = 2.95258 3.60746 3.29633
# Velocity P-wave (km/s) = 4.71290 6.33073 5.58075
#
# Compressibility (1/GPa) = 0.04086381
#
# Stress axis : x y z
#
# Youngs Moduli (GPa) = 119.95916 27.56494 146.35053
#
# Poissons Ratio (x) = 0.07270 0.38586
# Poissons Ratio (y) = 0.31639 0.00258
# Poissons Ratio (z) = 0.31628 0.00049
#
# Static dielectric constant tensor:
#      x y z
#    x 4.140350 0.000000 0.000000 
#    y 0.000000 3.796760 0.000000 
#    z 0.000000 0.000000 4.701930 
# 
# 
# High freq. dielectric constant tensor:
#      x y z
#    x 1.925140 0.000000 0.000000 
#    y 0.000000 1.856590 0.000000 
#    z 0.000000 0.000000 1.929850 
# 
# From -- ./inp_files/20039.got.cif
#   From: 2010.03.12/outbox.cif.g09.slc.cpg/sg56_11_cif.got.tgz:20039.got - 2010.04.16 15:33:40.
