data_PCOD8228084
_publ_section_title
;
Structure prediction by ZEFSAII (Michael W. Deem and Ramdas Pophale) SiO2 
 PCOD8228084
Probable space group: P C C N
;
_chemical_formula_sum "Si O2"
_cell_formula_units_Z 52
_cell_length_a 19.961582
_cell_length_b 8.227837
_cell_length_c 16.217599
_cell_angle_alpha 90.000000
_cell_angle_beta 90.000000
_cell_angle_gamma 90.000000
_cell_volume 2663.588887
_symmetry_space_group_name_H-M "P C C N"
_symmetry_group_IT_number 56
_symmetry_cell_setting 'orthorhombic'
loop_
_space_group_symop_operation_xyz
x,y,z
1/2-x,1/2-y,z
1/2+x,-y,1/2-z
-x,1/2+y,1/2-z
-x,-y,-z
1/2+x,1/2+y,-z
1/2-x,y,1/2+z
x,1/2-y,1/2+z
loop_
_atom_site_type_symbol
_atom_site_label
_atom_site_fract_x
_atom_site_fract_y
_atom_site_fract_z
Si Si1 0.418335 0.352709 0.263749
Si Si2 0.028750 0.257653 0.027279
Si Si3 0.750000 0.750000 0.975242
Si Si4 0.362737 0.462882 0.095608
Si Si5 0.045876 0.462232 0.178103
Si Si6 0.862238 0.940127 0.565978
Si Si7 0.892565 0.301713 0.950082
O O1 0.386332 0.447543 0.188545
O O2 0.419403 0.156215 0.247170
O O3 0.493751 0.416662 0.279036
O O4 0.369033 0.404871 0.337563
O O5 0.077863 0.103170 0.036029
O O6 0.009401 0.334829 0.116151
O O7 0.067440 0.392786 0.975299
O O8 0.963297 0.218125 0.974570
O O9 0.706198 0.634469 0.916710
O O10 0.702801 0.848420 0.035743
O O11 0.347179 0.651649 0.079154
O O12 0.100158 0.567395 0.125394
O O13 0.856532 0.125189 0.532056
#
# Coordination Sequence:
#
# PCOD8228084 Si02
#       7
#     8   8   4   8   8   8   8
#     4  11  20  35  56  93 118 160 177 252 303 355
#     4   9  17  35  56  87 119 155 183 236 294 362
#     4  10  24  46  54  80 108 168 214 238 276 352
#     4  10  23  35  60  85 120 155 199 242 299 341
#     4  10  19  32  55  88 133 145 182 235 314 367
#     4  10  20  37  63  77 120 157 204 237 288 343
#     4  11  18  37  61  89 118 158 192 244 293 367
#
# _framework density 19.522532999999999
#
# number of rings (size 3 to 8) (size 9 to 14) (size 15 to 20)
#    0.000    1.846    3.077    3.231    0.000    1.231 
#    2.769    0.000    0.000    1.846    0.000    0.000 
#    0.000    0.000    0.000    0.000    0.000    0.000 
#
# Total GULP energy -644427.896153 kJ/mol
# GULP energy per Si atom -12392.844157 kJ/mol
# Density = 1.947810 g / cm^3
# Si number density = 19.522533 Si / 1000 Ang^3
#
#
#
# Elastic Constant Matrix: (Units=GPa)
#
#
# Indices 1 2 3 4 5 6 
#
# 1 62.8679 30.3870 21.3820 0.0000 0.0000 0.0000
# 2 30.3870 133.2875 46.2303 0.0000 0.0000 0.0000
# 3 21.3820 46.2303 96.7719 0.0000 0.0000 0.0000
# 4 0.0000 0.0000 0.0000 25.9197 0.0000 0.0000
# 5 0.0000 0.0000 0.0000 0.0000 14.6004 0.0000
# 6 0.0000 0.0000 0.0000 0.0000 0.0000 18.1444
#
#
#
# Elastic Compliance Matrix: (Units=1/GPa)
#
#
# Indices 1 2 3 4 5 6 
#
# 1 0.018354 -0.003329 -0.002465 0.000000 0.000000 0.000000
# 2 -0.003329 0.009597 -0.003849 0.000000 0.000000 0.000000
# 3 -0.002465 -0.003849 0.012717 0.000000 0.000000 0.000000
# 4 0.000000 0.000000 0.000000 0.038581 0.000000 0.000000
# 5 0.000000 0.000000 0.000000 0.000000 0.068491 0.000000
# 6 0.000000 0.000000 0.000000 0.000000 0.000000 0.055113
#
#
# Mechanical properties :
#
#
# Convention : Reuss Voigt Hill
#
# Bulk Modulus (GPa) = 46.77006 54.32509 50.54758
# Shear Modulus (GPa) = 21.80872 24.72810 23.26841
#
# Velocity S-wave (km/s) = 3.34594 3.56286 3.45610
# Velocity P-wave (km/s) = 6.23988 6.69422 6.47103
#
# Compressibility (1/GPa) = 0.02138120
#
# Stress axis : x y z
#
# Youngs Moduli (GPa) = 54.48415 104.20358 78.63555
#
# Poissons Ratio (x) = 0.34694 0.19382
# Poissons Ratio (y) = 0.18140 0.30266
# Poissons Ratio (z) = 0.13429 0.40107
#
# Static dielectric constant tensor:
#      x y z
#    x 3.295900 0.000000 0.000000 
#    y 0.000000 3.669150 0.000000 
#    z 0.000000 0.000000 3.685620 
# 
# 
# High freq. dielectric constant tensor:
#      x y z
#    x 1.727580 0.000000 0.000000 
#    y 0.000000 1.765220 0.000000 
#    z 0.000000 0.000000 1.756970 
# 
# From -- ./inp_files/10960.got.cif
#   From: 2010.03.12/outbox.cif.g09.slc.cpg/sg56_6_cif.got.tgz:10960.got - 2010.04.16 15:33:40.
