data_PCOD8228051
_publ_section_title
;
Structure prediction by ZEFSAII (Michael W. Deem and Ramdas Pophale) SiO2 
 PCOD8228051
Probable space group: P C C N
;
_chemical_formula_sum "Si O2"
_cell_formula_units_Z 48
_cell_length_a 12.426255
_cell_length_b 14.047493
_cell_length_c 11.177737
_cell_angle_alpha 90.000000
_cell_angle_beta 90.000000
_cell_angle_gamma 90.000000
_cell_volume 1951.160399
_symmetry_space_group_name_H-M "P C C N"
_symmetry_group_IT_number 56
_symmetry_cell_setting 'orthorhombic'
loop_
_space_group_symop_operation_xyz
x,y,z
1/2-x,1/2-y,z
1/2+x,-y,1/2-z
-x,1/2+y,1/2-z
-x,-y,-z
1/2+x,1/2+y,-z
1/2-x,y,1/2+z
x,1/2-y,1/2+z
loop_
_atom_site_type_symbol
_atom_site_label
_atom_site_fract_x
_atom_site_fract_y
_atom_site_fract_z
Si Si1 0.671013 0.671332 0.432666
Si Si2 0.341660 0.036462 0.487604
Si Si3 0.990165 0.194684 0.993741
Si Si4 0.372008 0.617680 0.796131
Si Si5 0.484474 0.022961 0.138689
Si Si6 0.652040 0.113085 0.306449
O O1 0.750000 0.750000 0.368480
O O2 0.745341 0.612798 0.524305
O O3 0.576575 0.721256 0.510331
O O4 0.614566 0.598178 0.340844
O O5 0.456546 0.089756 0.492591
O O6 0.333388 0.972592 0.371955
O O7 0.325509 0.975322 0.606704
O O8 0.913313 0.197615 0.876415
O O9 0.922402 0.199882 0.118531
O O10 0.459232 0.577705 0.701867
O O11 0.265729 0.658764 0.732269
O O12 0.589608 0.073807 0.190845
O O13 0.500000 0.000000 0.000000
#
# Coordination Sequence:
#
# PCOD8228051 Si02
#       6
#     8   8   8   8   8   8
#     4  10  23  44  68 104 137 168 232 296 345 397
#     4  10  18  40  69 103 129 176 233 282 344 402
#     4  10  21  42  65 100 141 176 222 293 350 391
#     4  11  21  39  69  99 137 182 229 279 336 424
#     4  12  24  42  66 103 137 179 231 280 339 417
#     4  11  21  38  68  96 133 185 229 272 341 420
#
# _framework density 24.600745
#
# number of rings (size 3 to 8) (size 9 to 14) (size 15 to 20)
#    0.000    1.333    5.000    2.000    2.333    0.000 
#    6.000    0.833    0.000    0.000    0.000    0.000 
#    0.000    0.000    0.000    0.000    0.000    0.000 
#
# Total GULP energy -595176.382919 kJ/mol
# GULP energy per Si atom -12399.507977 kJ/mol
# Density = 2.454475 g / cm^3
# Si number density = 24.600745 Si / 1000 Ang^3
#
#
#
# Elastic Constant Matrix: (Units=GPa)
#
#
# Indices 1 2 3 4 5 6 
#
# 1 118.3992 15.0242 28.8986 0.0000 0.0000 0.0000
# 2 15.0242 53.8418 9.1248 0.0000 0.0000 0.0000
# 3 28.8986 9.1248 118.4752 0.0000 0.0000 0.0000
# 4 0.0000 0.0000 0.0000 8.0706 0.0000 0.0000
# 5 0.0000 0.0000 0.0000 0.0000 41.9062 0.0000
# 6 0.0000 0.0000 0.0000 0.0000 0.0000 43.5540
#
#
#
# Elastic Compliance Matrix: (Units=1/GPa)
#
#
# Indices 1 2 3 4 5 6 
#
# 1 0.009236 -0.002225 -0.002082 0.000000 0.000000 0.000000
# 2 -0.002225 0.019354 -0.000948 0.000000 0.000000 0.000000
# 3 -0.002082 -0.000948 0.009021 0.000000 0.000000 0.000000
# 4 0.000000 0.000000 0.000000 0.123907 0.000000 0.000000
# 5 0.000000 0.000000 0.000000 0.000000 0.023863 0.000000
# 6 0.000000 0.000000 0.000000 0.000000 0.000000 0.022960
#
#
# Mechanical properties :
#
#
# Convention : Reuss Voigt Hill
#
# Bulk Modulus (GPa) = 36.89538 44.09014 40.49276
# Shear Modulus (GPa) = 21.94089 34.55071 28.24580
#
# Velocity S-wave (km/s) = 2.98967 3.75168 3.39214
# Velocity P-wave (km/s) = 5.19112 6.06036 5.64250
#
# Compressibility (1/GPa) = 0.02710367
#
# Stress axis : x y z
#
# Youngs Moduli (GPa) = 108.26773 51.66794 110.84817
#
# Poissons Ratio (x) = 0.11494 0.23074
# Poissons Ratio (y) = 0.24085 0.10509
# Poissons Ratio (z) = 0.22537 0.04898
#
# Static dielectric constant tensor:
#      x y z
#    x 4.751270 0.000000 0.000000 
#    y 0.000000 4.421650 0.000000 
#    z 0.000000 0.000000 4.172040 
# 
# 
# High freq. dielectric constant tensor:
#      x y z
#    x 1.995600 0.000000 0.000000 
#    y 0.000000 1.978360 0.000000 
#    z 0.000000 0.000000 1.956430 
# 
# From -- ./inp_files/7167.got.cif
#   From: 2010.03.12/outbox.cif.g09.slc.cpg/sg56_4_cif.got.tgz:7167.got - 2010.04.16 15:33:40.
