data_PCOD8228407
_publ_section_title
;
Structure prediction by ZEFSAII (Michael W. Deem and Ramdas Pophale) SiO2 
 PCOD8228407
Probable space group: P C C N
;
_chemical_formula_sum "Si O2"
_cell_formula_units_Z 48
_cell_length_a 17.083903
_cell_length_b 8.442999
_cell_length_c 15.720844
_cell_angle_alpha 90.000000
_cell_angle_beta 90.000000
_cell_angle_gamma 90.000000
_cell_volume 2267.564728
_symmetry_space_group_name_H-M "P C C N"
_symmetry_group_IT_number 56
_symmetry_cell_setting 'orthorhombic'
loop_
_space_group_symop_operation_xyz
x,y,z
1/2-x,1/2-y,z
1/2+x,-y,1/2-z
-x,1/2+y,1/2-z
-x,-y,-z
1/2+x,1/2+y,-z
1/2-x,y,1/2+z
x,1/2-y,1/2+z
loop_
_atom_site_type_symbol
_atom_site_label
_atom_site_fract_x
_atom_site_fract_y
_atom_site_fract_z
Si Si1 0.851609 0.993004 0.579014
Si Si2 0.250000 0.250000 0.315932
Si Si3 0.405020 0.154573 0.282292
Si Si4 0.439270 0.199106 0.470936
Si Si5 0.750000 0.250000 0.480373
Si Si6 0.548839 0.493305 0.732427
Si Si7 0.900935 0.087999 0.916511
O O1 0.801831 0.127601 0.534125
O O2 0.907742 0.076541 0.649195
O O3 0.791612 0.878762 0.626414
O O4 0.905652 0.879023 0.518416
O O5 0.313404 0.160025 0.255825
O O6 0.408597 0.118339 0.383453
O O7 0.444414 0.320997 0.263096
O O8 0.454610 0.031576 0.226696
O O9 0.534906 0.197521 0.466572
O O10 0.407531 0.091854 0.548232
O O11 0.687400 0.152224 0.425309
O O12 0.582223 0.408721 0.816234
#
# Coordination Sequence:
#
# PCOD8228407 Si02
#       7
#     8   4   8   8   4   8   8
#     4  10  21  38  57  81 110 151 190 227 281 348
#     4   8  16  34  56  76 104 136 184 226 270 332
#     4   9  17  34  57  81 107 145 183 225 274 334
#     4   8  18  38  59  75 109 151 182 216 283 356
#     4  12  24  34  56  86 114 146 188 242 294 318
#     4   9  20  36  57  82 111 146 191 227 274 337
#     4  10  20  37  58  84 112 145 186 239 284 332
#
# _framework density 21.168081999999998
#
# number of rings (size 3 to 8) (size 9 to 14) (size 15 to 20)
#    0.000    3.000    0.000    2.000    0.000    6.667 
#    0.000   18.333    0.000    0.000    0.000    0.000 
#    0.000    0.000    0.000    0.000    0.000    0.000 
#
# Total GULP energy -594668.745756 kJ/mol
# GULP energy per Si atom -12388.932203 kJ/mol
# Density = 2.111990 g / cm^3
# Si number density = 21.168082 Si / 1000 Ang^3
#
#
#
# Elastic Constant Matrix: (Units=GPa)
#
#
# Indices 1 2 3 4 5 6 
#
# 1 155.9924 36.4782 39.1527 0.0000 0.0000 0.0000
# 2 36.4782 60.5222 23.8226 0.0000 0.0000 0.0000
# 3 39.1527 23.8226 52.6777 0.0000 0.0000 0.0000
# 4 0.0000 0.0000 0.0000 19.1709 0.0000 0.0000
# 5 0.0000 0.0000 0.0000 0.0000 65.6260 0.0000
# 6 0.0000 0.0000 0.0000 0.0000 0.0000 53.3514
#
#
#
# Elastic Compliance Matrix: (Units=1/GPa)
#
#
# Indices 1 2 3 4 5 6 
#
# 1 0.008347 -0.003149 -0.004779 0.000000 0.000000 0.000000
# 2 -0.003149 0.021289 -0.007287 0.000000 0.000000 0.000000
# 3 -0.004779 -0.007287 0.025831 0.000000 0.000000 0.000000
# 4 0.000000 0.000000 0.000000 0.052162 0.000000 0.000000
# 5 0.000000 0.000000 0.000000 0.000000 0.015238 0.000000
# 6 0.000000 0.000000 0.000000 0.000000 0.000000 0.018744
#
#
# Mechanical properties :
#
#
# Convention : Reuss Voigt Hill
#
# Bulk Modulus (GPa) = 39.94321 52.01104 45.97713
# Shear Modulus (GPa) = 27.71809 38.94558 33.33183
#
# Velocity S-wave (km/s) = 3.62253 4.29397 3.97246
# Velocity P-wave (km/s) = 6.03386 7.01485 6.54277
#
# Compressibility (1/GPa) = 0.02503555
#
# Stress axis : x y z
#
# Youngs Moduli (GPa) = 119.80879 46.97170 38.71316
#
# Poissons Ratio (x) = 0.14794 0.18502
# Poissons Ratio (y) = 0.37734 0.28210
# Poissons Ratio (z) = 0.57261 0.34228
#
# Static dielectric constant tensor:
#      x y z
#    x 4.474330 0.000000 0.000000 
#    y 0.000000 3.738230 0.000000 
#    z 0.000000 0.000000 3.695780 
# 
# 
# High freq. dielectric constant tensor:
#      x y z
#    x 1.850690 0.000000 0.000000 
#    y 0.000000 1.814250 0.000000 
#    z 0.000000 0.000000 1.799490 
# 
# From -- ./inp_files/15005.got.cif
#   From: 2010.03.12/outbox.cif.g09.slc.cpg/sg56_8_cif.got.tgz:15005.got - 2010.04.16 15:33:40.
