data_PCOD8228729
_publ_section_title
;
Structure prediction by ZEFSAII (Michael W. Deem and Ramdas Pophale) SiO2 
 PCOD8228729
Probable space group: P C C N
;
_chemical_formula_sum "Si O2"
_cell_formula_units_Z 60
_cell_length_a 9.298106
_cell_length_b 11.381059
_cell_length_c 27.248851
_cell_angle_alpha 90.000000
_cell_angle_beta 90.000000
_cell_angle_gamma 90.000000
_cell_volume 2883.535894
_symmetry_space_group_name_H-M "P C C N"
_symmetry_group_IT_number 56
_symmetry_cell_setting 'orthorhombic'
loop_
_space_group_symop_operation_xyz
x,y,z
1/2-x,1/2-y,z
1/2+x,-y,1/2-z
-x,1/2+y,1/2-z
-x,-y,-z
1/2+x,1/2+y,-z
1/2-x,y,1/2+z
x,1/2-y,1/2+z
loop_
_atom_site_type_symbol
_atom_site_label
_atom_site_fract_x
_atom_site_fract_y
_atom_site_fract_z
Si Si1 0.250000 0.750000 0.931553
Si Si2 0.911631 0.210768 0.347997
Si Si3 0.403400 0.216975 0.435330
Si Si4 0.236528 0.380265 0.103353
Si Si5 0.999909 0.070139 0.795119
Si Si6 0.447119 0.963311 0.397048
Si Si7 0.816046 0.514836 0.797854
Si Si8 0.512823 0.875327 0.976338
O O1 0.150986 0.845694 0.902157
O O2 0.354767 0.828994 0.963654
O O3 0.750000 0.250000 0.356072
O O4 0.979675 0.217228 0.401878
O O5 0.997143 0.294360 0.310854
O O6 0.914668 0.082871 0.324264
O O7 0.250000 0.250000 0.413128
O O8 0.416464 0.271934 0.490102
O O9 0.409491 0.073711 0.432763
O O10 0.250000 0.250000 0.086089
O O11 0.384962 0.445181 0.090324
O O12 0.202152 0.385248 0.161245
O O13 0.102373 0.419544 0.070882
O O14 0.102673 0.064683 0.748723
O O15 0.066637 0.994846 0.839582
O O16 0.839175 0.031184 0.780579
O O17 0.500000 0.000000 0.000000
#
# Coordination Sequence:
#
# PCOD8228729 Si02
#       8
#     4   8   8   8   8   8   8   8
#     4  12  26  42  66  98 130 174 222 278 330 392
#     4   9  20  41  62  91 123 166 215 267 319 386
#     4  11  24  42  68  93 129 169 221 272 325 389
#     4  11  23  45  65  93 137 176 214 270 337 396
#     4   9  21  39  63  97 123 168 215 259 325 388
#     4  10  24  46  65  93 134 175 217 272 335 385
#     4  10  21  38  65  91 129 167 211 262 324 390
#     4  12  27  42  66 102 131 174 227 267 334 395
#
# _framework density 20.807786
#
# number of rings (size 3 to 8) (size 9 to 14) (size 15 to 20)
#    0.000    1.600    1.333    2.800    2.800    5.867 
#    3.600    0.667    0.000    0.000    0.000    0.000 
#    0.000    0.000    0.000    0.000    0.000    0.000 
#
# Total GULP energy -743461.650831 kJ/mol
# GULP energy per Si atom -12391.027514 kJ/mol
# Density = 2.076043 g / cm^3
# Si number density = 20.807786 Si / 1000 Ang^3
#
#
#
# Elastic Constant Matrix: (Units=GPa)
#
#
# Indices 1 2 3 4 5 6 
#
# 1 104.9537 42.8077 50.5252 0.0000 0.0000 0.0000
# 2 42.8077 95.9387 27.3663 0.0000 0.0000 0.0000
# 3 50.5252 27.3663 93.0701 0.0000 0.0000 0.0000
# 4 0.0000 0.0000 0.0000 31.7873 0.0000 0.0000
# 5 0.0000 0.0000 0.0000 0.0000 41.5136 0.0000
# 6 0.0000 0.0000 0.0000 0.0000 0.0000 34.6395
#
#
#
# Elastic Compliance Matrix: (Units=1/GPa)
#
#
# Indices 1 2 3 4 5 6 
#
# 1 0.014570 -0.004633 -0.006547 0.000000 0.000000 0.000000
# 2 -0.004633 0.012851 -0.001263 0.000000 0.000000 0.000000
# 3 -0.006547 -0.001263 0.014670 0.000000 0.000000 0.000000
# 4 0.000000 0.000000 0.000000 0.031459 0.000000 0.000000
# 5 0.000000 0.000000 0.000000 0.000000 0.024089 0.000000
# 6 0.000000 0.000000 0.000000 0.000000 0.000000 0.028869
#
#
# Mechanical properties :
#
#
# Convention : Reuss Voigt Hill
#
# Bulk Modulus (GPa) = 58.12821 59.48454 58.80637
# Shear Modulus (GPa) = 31.82088 33.13896 32.47992
#
# Velocity S-wave (km/s) = 3.91484 3.99510 3.95517
# Velocity P-wave (km/s) = 6.95924 7.06617 7.01291
#
# Compressibility (1/GPa) = 0.01720335
#
# Stress axis : x y z
#
# Youngs Moduli (GPa) = 68.63598 77.81415 68.16501
#
# Poissons Ratio (x) = 0.36055 0.44628
# Poissons Ratio (y) = 0.31802 0.08612
# Poissons Ratio (z) = 0.44936 0.09831
#
# Static dielectric constant tensor:
#      x y z
#    x 3.479570 0.000000 0.000000 
#    y 0.000000 4.175140 0.000000 
#    z 0.000000 0.000000 3.679440 
# 
# 
# High freq. dielectric constant tensor:
#      x y z
#    x 1.825310 0.000000 0.000000 
#    y 0.000000 1.824790 0.000000 
#    z 0.000000 0.000000 1.808470 
# 
# From -- ./inp_files/22094.got.cif
#   From: 2010.03.12/outbox.cif.g09.slc.cpg/sg56_12_cif.got.tgz:22094.got - 2010.04.16 15:33:40.
