data_PCOD8228757
_publ_section_title
;
Structure prediction by ZEFSAII (Michael W. Deem and Ramdas Pophale) SiO2 
 PCOD8228757
Probable space group: P C C N
;
_chemical_formula_sum "Si O2"
_cell_formula_units_Z 64
_cell_length_a 11.121085
_cell_length_b 9.946919
_cell_length_c 26.612021
_cell_angle_alpha 90.000000
_cell_angle_beta 90.000000
_cell_angle_gamma 90.000000
_cell_volume 2943.835912
_symmetry_space_group_name_H-M "P C C N"
_symmetry_group_IT_number 56
_symmetry_cell_setting 'orthorhombic'
loop_
_space_group_symop_operation_xyz
x,y,z
1/2-x,1/2-y,z
1/2+x,-y,1/2-z
-x,1/2+y,1/2-z
-x,-y,-z
1/2+x,1/2+y,-z
1/2-x,y,1/2+z
x,1/2-y,1/2+z
loop_
_atom_site_type_symbol
_atom_site_label
_atom_site_fract_x
_atom_site_fract_y
_atom_site_fract_z
Si Si1 0.153051 0.860361 0.882033
Si Si2 0.504716 0.894404 0.044092
Si Si3 0.756230 0.103054 0.416899
Si Si4 0.686114 0.608272 0.631569
Si Si5 0.492659 0.318227 0.210044
Si Si6 0.081955 0.628217 0.495718
Si Si7 0.480371 0.486479 0.703626
Si Si8 0.233451 0.105129 0.158127
O O1 0.250000 0.750000 0.866419
O O2 0.039624 0.840665 0.846207
O O3 0.203351 0.007419 0.871877
O O4 0.112875 0.836052 0.938841
O O5 0.396007 0.936530 0.080777
O O6 0.626569 0.891799 0.076357
O O7 0.491707 0.747440 0.021057
O O8 0.500000 0.000000 0.000000
O O9 0.750000 0.250000 0.391545
O O10 0.704961 0.105191 0.473597
O O11 0.679969 0.997642 0.383313
O O12 0.750000 0.750000 0.645977
O O13 0.587614 0.558356 0.672386
O O14 0.554701 0.413892 0.250829
O O15 0.352676 0.366091 0.206150
O O16 0.515223 0.161976 0.224794
O O17 0.000000 0.500000 0.500000
O O18 0.358325 0.465147 0.673045
O O19 0.250000 0.250000 0.131330
#
# Coordination Sequence:
#
# PCOD8228757 Si02
#       8
#     8   8   8   8   8   8   8   8
#     4  12  24  45  70 102 145 190 238 296 358 435
#     4  11  23  40  66  97 137 187 228 281 343 412
#     4  10  21  39  62  95 135 177 223 278 339 404
#     4  12  26  44  72 105 148 187 239 297 364 430
#     4  11  27  45  74 103 136 186 238 294 374 425
#     4  11  23  40  65 100 144 181 238 284 344 418
#     4  11  26  48  71 105 138 184 235 307 361 435
#     4  10  23  44  71 100 135 179 237 285 353 426
#
# _framework density 21.740342999999999
#
# number of rings (size 3 to 8) (size 9 to 14) (size 15 to 20)
#    0.000    1.000    2.500    4.125    3.500    3.500 
#    0.000    0.625    0.000    0.000    0.000    0.000 
#    0.000    0.000    0.000    0.000    0.000    0.000 
#
# Total GULP energy -793433.781483 kJ/mol
# GULP energy per Si atom -12397.402836 kJ/mol
# Density = 2.169086 g / cm^3
# Si number density = 21.740343 Si / 1000 Ang^3
#
#
#
# Elastic Constant Matrix: (Units=GPa)
#
#
# Indices 1 2 3 4 5 6 
#
# 1 74.0631 40.6771 15.7299 0.0000 0.0000 0.0000
# 2 40.6771 167.5091 58.9739 0.0000 0.0000 0.0000
# 3 15.7299 58.9739 103.3288 0.0000 0.0000 0.0000
# 4 0.0000 0.0000 0.0000 34.7810 0.0000 0.0000
# 5 0.0000 0.0000 0.0000 0.0000 19.6883 0.0000
# 6 0.0000 0.0000 0.0000 0.0000 0.0000 40.7033
#
#
#
# Elastic Compliance Matrix: (Units=1/GPa)
#
#
# Indices 1 2 3 4 5 6 
#
# 1 0.015586 -0.003691 -0.000266 0.000000 0.000000 0.000000
# 2 -0.003691 0.008345 -0.004201 0.000000 0.000000 0.000000
# 3 -0.000266 -0.004201 0.012116 0.000000 0.000000 0.000000
# 4 0.000000 0.000000 0.000000 0.028751 0.000000 0.000000
# 5 0.000000 0.000000 0.000000 0.000000 0.050791 0.000000
# 6 0.000000 0.000000 0.000000 0.000000 0.000000 0.024568
#
#
# Mechanical properties :
#
#
# Convention : Reuss Voigt Hill
#
# Bulk Modulus (GPa) = 50.68243 63.96254 57.32248
# Shear Modulus (GPa) = 30.66526 34.33586 32.50056
#
# Velocity S-wave (km/s) = 3.75977 3.97843 3.87064
# Velocity P-wave (km/s) = 6.49700 7.11259 6.81175
#
# Compressibility (1/GPa) = 0.01973071
#
# Stress axis : x y z
#
# Youngs Moduli (GPa) = 64.16128 119.82946 82.53524
#
# Poissons Ratio (x) = 0.44231 0.02195
# Poissons Ratio (y) = 0.23683 0.34673
# Poissons Ratio (z) = 0.01706 0.50341
#
# Static dielectric constant tensor:
#      x y z
#    x 3.869420 0.000000 0.000000 
#    y 0.000000 4.356890 0.000000 
#    z 0.000000 0.000000 3.781260 
# 
# 
# High freq. dielectric constant tensor:
#      x y z
#    x 1.856830 0.000000 0.000000 
#    y 0.000000 1.874680 0.000000 
#    z 0.000000 0.000000 1.846640 
# 
# From -- ./inp_files/23534.got.cif
#   From: 2010.03.12/outbox.cif.g09.slc.cpg/sg56_12_cif.got.tgz:23534.got - 2010.04.16 15:33:40.
