data_PCOD8228262
_publ_section_title
;
Structure prediction by ZEFSAII (Michael W. Deem and Ramdas Pophale) SiO2 
 PCOD8228262
Probable space group: P C C N
;
_chemical_formula_sum "Si O2"
_cell_formula_units_Z 40
_cell_length_a 14.367123
_cell_length_b 19.304260
_cell_length_c 8.034239
_cell_angle_alpha 90.000000
_cell_angle_beta 90.000000
_cell_angle_gamma 90.000000
_cell_volume 2228.269496
_symmetry_space_group_name_H-M "P C C N"
_symmetry_group_IT_number 56
_symmetry_cell_setting 'orthorhombic'
loop_
_space_group_symop_operation_xyz
x,y,z
1/2-x,1/2-y,z
1/2+x,-y,1/2-z
-x,1/2+y,1/2-z
-x,-y,-z
1/2+x,1/2+y,-z
1/2-x,y,1/2+z
x,1/2-y,1/2+z
loop_
_atom_site_type_symbol
_atom_site_label
_atom_site_fract_x
_atom_site_fract_y
_atom_site_fract_z
Si Si1 0.634229 0.068711 0.877179
Si Si2 0.173072 0.533358 0.752526
Si Si3 0.471574 0.058272 0.625831
Si Si4 0.151078 0.716297 0.224188
Si Si5 0.581040 0.339602 0.941279
O O1 0.715679 0.036077 0.760985
O O2 0.536925 0.052241 0.788435
O O3 0.642872 0.151480 0.900538
O O4 0.639607 0.035430 0.057889
O O5 0.134079 0.459392 0.682063
O O6 0.131741 0.597479 0.649650
O O7 0.485146 0.132404 0.529330
O O8 0.500000 0.000000 0.500000
O O9 0.250000 0.750000 0.192816
O O10 0.146518 0.688380 0.411139
O O11 0.070047 0.773976 0.183525
#
# Coordination Sequence:
#
# PCOD8228262 Si02
#       5
#     8   8   8   8   8
#     4  11  21  32  53  76 104 147 175 221 270 313
#     4  11  20  34  48  72 106 142 185 216 263 321
#     4   9  20  35  49  71 105 141 181 221 257 319
#     4  11  19  28  45  73 104 135 171 206 263 333
#     4  10  20  30  46  70 103 142 168 212 260 315
#
# _framework density 17.951149999999998
#
# number of rings (size 3 to 8) (size 9 to 14) (size 15 to 20)
#    0.000    1.600    2.000    6.000    0.000    0.000 
#    0.000    0.000    0.000    0.000    0.000    0.000 
#    0.000  193.600    0.000    0.000    0.000    0.000 
#
# Total GULP energy -495553.035974 kJ/mol
# GULP energy per Si atom -12388.825899 kJ/mol
# Density = 1.791029 g / cm^3
# Si number density = 17.951150 Si / 1000 Ang^3
#
#
#
# Elastic Constant Matrix: (Units=GPa)
#
#
# Indices 1 2 3 4 5 6 
#
# 1 49.0644 36.8750 2.6279 0.0000 0.0000 0.0000
# 2 36.8750 75.2497 22.9773 0.0000 0.0000 0.0000
# 3 2.6279 22.9773 83.9987 0.0000 0.0000 0.0000
# 4 0.0000 0.0000 0.0000 26.5464 0.0000 0.0000
# 5 0.0000 0.0000 0.0000 0.0000 20.1587 0.0000
# 6 0.0000 0.0000 0.0000 0.0000 0.0000 34.2744
#
#
#
# Elastic Compliance Matrix: (Units=1/GPa)
#
#
# Indices 1 2 3 4 5 6 
#
# 1 0.033304 -0.017460 0.003734 0.000000 0.000000 0.000000
# 2 -0.017460 0.023654 -0.005924 0.000000 0.000000 0.000000
# 3 0.003734 -0.005924 0.013409 0.000000 0.000000 0.000000
# 4 0.000000 0.000000 0.000000 0.037670 0.000000 0.000000
# 5 0.000000 0.000000 0.000000 0.000000 0.049606 0.000000
# 6 0.000000 0.000000 0.000000 0.000000 0.000000 0.029176
#
#
# Mechanical properties :
#
#
# Convention : Reuss Voigt Hill
#
# Bulk Modulus (GPa) = 32.18933 37.03034 34.60984
# Shear Modulus (GPa) = 21.14388 25.91809 23.53099
#
# Velocity S-wave (km/s) = 3.43572 3.80388 3.62447
# Velocity P-wave (km/s) = 5.80598 6.32185 6.06940
#
# Compressibility (1/GPa) = 0.03106619
#
# Stress axis : x y z
#
# Youngs Moduli (GPa) = 30.02658 42.27588 74.57878
#
# Poissons Ratio (x) = 0.73815 -0.27850
# Poissons Ratio (y) = 0.52427 0.44182
# Poissons Ratio (z) = -0.11213 0.25045
#
# Static dielectric constant tensor:
#      x y z
#    x 3.442530 0.000000 0.000000 
#    y 0.000000 3.934530 0.000000 
#    z 0.000000 0.000000 3.659140 
# 
# 
# High freq. dielectric constant tensor:
#      x y z
#    x 1.646790 0.000000 0.000000 
#    y 0.000000 1.683490 0.000000 
#    z 0.000000 0.000000 1.719390 
# 
# From -- ./inp_files/2683.got.cif
#   From: 2010.03.12/outbox.cif.g09.slc.cpg/sg56_2_cif.got.tgz:2683.got - 2010.04.16 15:33:40.
