data_PCOD8228380
_publ_section_title
;
Structure prediction by ZEFSAII (Michael W. Deem and Ramdas Pophale) SiO2 
 PCOD8228380
Probable space group: P C C N
;
_chemical_formula_sum "Si O2"
_cell_formula_units_Z 60
_cell_length_a 12.622100
_cell_length_b 11.631492
_cell_length_c 21.254184
_cell_angle_alpha 90.000000
_cell_angle_beta 90.000000
_cell_angle_gamma 90.000000
_cell_volume 3120.408692
_symmetry_space_group_name_H-M "P C C N"
_symmetry_group_IT_number 56
_symmetry_cell_setting 'orthorhombic'
loop_
_space_group_symop_operation_xyz
x,y,z
1/2-x,1/2-y,z
1/2+x,-y,1/2-z
-x,1/2+y,1/2-z
-x,-y,-z
1/2+x,1/2+y,-z
1/2-x,y,1/2+z
x,1/2-y,1/2+z
loop_
_atom_site_type_symbol
_atom_site_label
_atom_site_fract_x
_atom_site_fract_y
_atom_site_fract_z
Si Si1 0.750000 0.250000 0.833211
Si Si2 0.043948 0.685061 0.092567
Si Si3 0.816954 0.420923 0.228855
Si Si4 0.204291 0.133137 0.731733
Si Si5 0.019576 0.059043 0.648540
Si Si6 0.589885 0.197094 0.053134
Si Si7 0.151659 0.332065 0.370216
Si Si8 0.795034 0.412386 0.603160
O O1 0.841628 0.298209 0.877122
O O2 0.695985 0.345534 0.790342
O O3 0.998016 0.565359 0.118501
O O4 0.960200 0.784427 0.106774
O O5 0.058331 0.687512 0.018466
O O6 0.802425 0.552950 0.249226
O O7 0.728594 0.384685 0.176777
O O8 0.934161 0.410785 0.201885
O O9 0.250000 0.250000 0.701801
O O10 0.134128 0.067638 0.680162
O O11 0.138983 0.159868 0.795061
O O12 0.010341 0.154005 0.593695
O O13 0.615848 0.327027 0.075723
O O14 0.687545 0.109736 0.064406
O O15 0.250000 0.250000 0.389013
O O16 0.168792 0.455657 0.403725
#
# Coordination Sequence:
#
# PCOD8228380 Si02
#       8
#     4   8   8   8   8   8   8   8
#     4  12  22  38  58  94 124 152 198 258 322 360
#     4  12  24  39  61  90 123 162 207 253 307 359
#     4  10  20  36  62  87 118 152 199 248 305 376
#     4  10  20  39  57  88 123 150 195 253 308 362
#     4  11  21  39  60  85 117 165 200 242 305 367
#     4  10  21  39  60  85 119 168 209 247 292 365
#     4  10  21  39  64  93 121 159 207 259 307 366
#     4   9  19  39  61  86 117 164 208 248 300 361
#
# _framework density 19.228249000000002
#
# number of rings (size 3 to 8) (size 9 to 14) (size 15 to 20)
#    0.000    1.600    1.333    6.800    0.000    0.533 
#    7.200    2.000    0.000    0.000    0.000    0.000 
#    0.000    0.000    0.000    0.000    0.000    0.000 
#
# Total GULP energy -744006.424807 kJ/mol
# GULP energy per Si atom -12400.107080 kJ/mol
# Density = 1.918448 g / cm^3
# Si number density = 19.228249 Si / 1000 Ang^3
#
#
#
# Elastic Constant Matrix: (Units=GPa)
#
#
# Indices 1 2 3 4 5 6 
#
# 1 56.3978 32.3017 28.9629 0.0000 0.0000 0.0000
# 2 32.3017 122.9343 39.2896 0.0000 0.0000 0.0000
# 3 28.9629 39.2896 92.3579 0.0000 0.0000 0.0000
# 4 0.0000 0.0000 0.0000 14.4121 0.0000 0.0000
# 5 0.0000 0.0000 0.0000 0.0000 15.4761 0.0000
# 6 0.0000 0.0000 0.0000 0.0000 0.0000 33.2986
#
#
#
# Elastic Compliance Matrix: (Units=1/GPa)
#
#
# Indices 1 2 3 4 5 6 
#
# 1 0.022959 -0.004319 -0.005362 0.000000 0.000000 0.000000
# 2 -0.004319 0.010227 -0.002996 0.000000 0.000000 0.000000
# 3 -0.005362 -0.002996 0.013784 0.000000 0.000000 0.000000
# 4 0.000000 0.000000 0.000000 0.069386 0.000000 0.000000
# 5 0.000000 0.000000 0.000000 0.000000 0.064616 0.000000
# 6 0.000000 0.000000 0.000000 0.000000 0.000000 0.030031
#
#
# Mechanical properties :
#
#
# Convention : Reuss Voigt Hill
#
# Bulk Modulus (GPa) = 46.26563 52.53312 49.39938
# Shear Modulus (GPa) = 20.52871 24.04643 22.28757
#
# Velocity S-wave (km/s) = 3.27101 3.54019 3.40826
# Velocity P-wave (km/s) = 6.19512 6.64008 6.42146
#
# Compressibility (1/GPa) = 0.02161432
#
# Stress axis : x y z
#
# Youngs Moduli (GPa) = 43.55670 97.78264 72.54944
#
# Poissons Ratio (x) = 0.42229 0.38905
# Poissons Ratio (y) = 0.18811 0.21737
# Poissons Ratio (z) = 0.23357 0.29298
#
# Static dielectric constant tensor:
#      x y z
#    x 3.354970 0.000000 0.000000 
#    y 0.000000 3.689670 0.000000 
#    z 0.000000 0.000000 3.488290 
# 
# 
# High freq. dielectric constant tensor:
#      x y z
#    x 1.735340 0.000000 0.000000 
#    y 0.000000 1.760310 0.000000 
#    z 0.000000 0.000000 1.742080 
# 
# From -- ./inp_files/18797.got.cif
#   From: 2010.03.12/outbox.cif.g09.slc.cpg/sg56_10_cif.got.tgz:18797.got - 2010.04.16 15:33:40.
