data_PCOD8228512
_publ_section_title
;
Structure prediction by ZEFSAII (Michael W. Deem and Ramdas Pophale) SiO2 
 PCOD8228512
Probable space group: P C C N
;
_chemical_formula_sum "Si O2"
_cell_formula_units_Z 48
_cell_length_a 12.433652
_cell_length_b 16.946913
_cell_length_c 11.201466
_cell_angle_alpha 90.000000
_cell_angle_beta 90.000000
_cell_angle_gamma 90.000000
_cell_volume 2360.283513
_symmetry_space_group_name_H-M "P C C N"
_symmetry_group_IT_number 56
_symmetry_cell_setting 'orthorhombic'
loop_
_space_group_symop_operation_xyz
x,y,z
1/2-x,1/2-y,z
1/2+x,-y,1/2-z
-x,1/2+y,1/2-z
-x,-y,-z
1/2+x,1/2+y,-z
1/2-x,y,1/2+z
x,1/2-y,1/2+z
loop_
_atom_site_type_symbol
_atom_site_label
_atom_site_fract_x
_atom_site_fract_y
_atom_site_fract_z
Si Si1 0.807303 0.666466 0.978178
Si Si2 0.994785 0.174321 0.362858
Si Si3 0.453173 0.328998 0.735870
Si Si4 0.873135 0.265720 0.069562
Si Si5 0.450751 0.904025 0.370680
Si Si6 0.619139 0.938773 0.558599
O O1 0.750000 0.750000 0.003464
O O2 0.919521 0.648064 0.040961
O O3 0.733383 0.598303 0.030379
O O4 0.842755 0.659430 0.839963
O O5 0.055256 0.243071 0.292382
O O6 0.886948 0.202319 0.433988
O O7 0.963669 0.104110 0.272414
O O8 0.566357 0.326520 0.660558
O O9 0.451832 0.394942 0.839133
O O10 0.750000 0.250000 0.105699
O O11 0.928319 0.180415 0.071691
O O12 0.558700 0.936941 0.431578
O O13 0.360693 0.970782 0.398207
#
# Coordination Sequence:
#
# PCOD8228512 Si02
#       6
#     8   8   8   8   8   8
#     4  11  21  34  63  95 120 159 203 254 311 374
#     4  10  20  39  62  90 120 157 213 251 299 373
#     4  10  21  38  60  93 120 156 207 253 306 373
#     4  10  21  42  65  86 118 167 219 257 296 367
#     4  10  23  42  59  88 124 164 204 252 317 378
#     4  11  22  41  60  90 131 161 192 263 327 370
#
# _framework density 20.336539999999999
#
# number of rings (size 3 to 8) (size 9 to 14) (size 15 to 20)
#    0.000    1.667    3.333    2.000    4.667    2.667 
#    6.000    1.667    0.000    0.000    0.000    0.000 
#    0.000    0.000    0.000    0.000    0.000    0.000 
#
# Total GULP energy -594736.232455 kJ/mol
# GULP energy per Si atom -12390.338176 kJ/mol
# Density = 2.029025 g / cm^3
# Si number density = 20.336540 Si / 1000 Ang^3
#
#
#
# Elastic Constant Matrix: (Units=GPa)
#
#
# Indices 1 2 3 4 5 6 
#
# 1 87.3461 6.9809 33.4505 0.0000 0.0000 0.0000
# 2 6.9809 53.6041 22.4952 0.0000 0.0000 0.0000
# 3 33.4505 22.4952 97.6187 0.0000 0.0000 0.0000
# 4 0.0000 0.0000 0.0000 21.0974 0.0000 0.0000
# 5 0.0000 0.0000 0.0000 0.0000 21.4558 0.0000
# 6 0.0000 0.0000 0.0000 0.0000 0.0000 26.2709
#
#
#
# Elastic Compliance Matrix: (Units=1/GPa)
#
#
# Indices 1 2 3 4 5 6 
#
# 1 0.013180 0.000198 -0.004562 0.000000 0.000000 0.000000
# 2 0.000198 0.020655 -0.004828 0.000000 0.000000 0.000000
# 3 -0.004562 -0.004828 0.012920 0.000000 0.000000 0.000000
# 4 0.000000 0.000000 0.000000 0.047399 0.000000 0.000000
# 5 0.000000 0.000000 0.000000 0.000000 0.046608 0.000000
# 6 0.000000 0.000000 0.000000 0.000000 0.000000 0.038065
#
#
# Mechanical properties :
#
#
# Convention : Reuss Voigt Hill
#
# Bulk Modulus (GPa) = 35.24625 40.49136 37.86880
# Shear Modulus (GPa) = 24.19347 25.47428 24.83387
#
# Velocity S-wave (km/s) = 3.45288 3.54310 3.49828
# Velocity P-wave (km/s) = 5.76764 6.05739 5.91429
#
# Compressibility (1/GPa) = 0.02837181
#
# Stress axis : x y z
#
# Youngs Moduli (GPa) = 75.87282 48.41335 77.40144
#
# Poissons Ratio (x) = -0.00959 0.35310
# Poissons Ratio (y) = -0.01502 0.37367
# Poissons Ratio (z) = 0.34613 0.23372
#
# Static dielectric constant tensor:
#      x y z
#    x 3.657220 0.000000 0.000000 
#    y 0.000000 3.720920 0.000000 
#    z 0.000000 0.000000 4.084580 
# 
# 
# High freq. dielectric constant tensor:
#      x y z
#    x 1.775800 0.000000 0.000000 
#    y 0.000000 1.774630 0.000000 
#    z 0.000000 0.000000 1.812280 
# 
# From -- ./inp_files/7134.got.cif
#   From: 2010.03.12/outbox.cif.g09.slc.cpg/sg56_4_cif.got.tgz:7134.got - 2010.04.16 15:33:40.
