data_PCOD8228033
_publ_section_title
;
Structure prediction by ZEFSAII (Michael W. Deem and Ramdas Pophale) SiO2 
 PCOD8228033
Probable space group: P C C N
;
_chemical_formula_sum "Si O2"
_cell_formula_units_Z 64
_cell_length_a 10.206003
_cell_length_b 20.125034
_cell_length_c 14.762306
_cell_angle_alpha 90.000000
_cell_angle_beta 90.000000
_cell_angle_gamma 90.000000
_cell_volume 3032.120926
_symmetry_space_group_name_H-M "P C C N"
_symmetry_group_IT_number 56
_symmetry_cell_setting 'orthorhombic'
loop_
_space_group_symop_operation_xyz
x,y,z
1/2-x,1/2-y,z
1/2+x,-y,1/2-z
-x,1/2+y,1/2-z
-x,-y,-z
1/2+x,1/2+y,-z
1/2-x,y,1/2+z
x,1/2-y,1/2+z
loop_
_atom_site_type_symbol
_atom_site_label
_atom_site_fract_x
_atom_site_fract_y
_atom_site_fract_z
Si Si1 0.972291 0.874593 0.244047
Si Si2 0.116800 0.215222 0.479307
Si Si3 0.404435 0.259973 0.167763
Si Si4 0.984702 0.858506 0.686721
Si Si5 0.442773 0.414564 0.563364
Si Si6 0.237246 0.571663 0.677212
Si Si7 0.751559 0.958304 0.679713
Si Si8 0.200861 0.961202 0.488759
O O1 0.118748 0.883412 0.210183
O O2 0.963411 0.797536 0.269209
O O3 0.942276 0.920690 0.329341
O O4 0.862227 0.901989 0.174258
O O5 0.250000 0.250000 0.444994
O O6 0.047027 0.257933 0.561443
O O7 0.148870 0.145172 0.528186
O O8 0.028188 0.199494 0.390690
O O9 0.250000 0.250000 0.164737
O O10 0.445923 0.329084 0.214639
O O11 0.130493 0.886490 0.691740
O O12 0.888879 0.920134 0.663626
O O13 0.388802 0.482062 0.528459
O O14 0.595790 0.402964 0.534428
O O15 0.242350 0.500635 0.727700
O O16 0.205156 0.561606 0.570136
O O17 0.723279 0.011804 0.599541
#
# Coordination Sequence:
#
# PCOD8228033 Si02
#       8
#     8   8   8   8   8   8   8   8
#     4  11  23  40  64  96 137 166 223 281 322 388
#     4  10  21  36  67 102 123 162 229 281 321 392
#     4  10  22  42  68 100 122 169 226 283 327 389
#     4  12  23  43  69  95 133 177 218 269 344 395
#     4  10  18  38  63  93 127 177 221 263 326 403
#     4  12  25  40  64  99 139 176 216 272 334 403
#     4  12  23  40  68 102 129 177 227 276 323 401
#     4  11  20  37  65  93 129 181 221 256 338 401
#
# _framework density 21.107337999999999
#
# number of rings (size 3 to 8) (size 9 to 14) (size 15 to 20)
#    0.000    1.000    6.250    1.875    0.000    1.000 
#    0.000    1.250    0.000    1.500    0.000    0.000 
#    0.000    0.000    0.000    0.000    0.000    0.000 
#
# Total GULP energy -793031.754269 kJ/mol
# GULP energy per Si atom -12391.121160 kJ/mol
# Density = 2.105930 g / cm^3
# Si number density = 21.107338 Si / 1000 Ang^3
#
#
#
# Elastic Constant Matrix: (Units=GPa)
#
#
# Indices 1 2 3 4 5 6 
#
# 1 107.7049 25.8785 21.1302 0.0000 0.0000 0.0000
# 2 25.8785 51.7974 27.6804 0.0000 0.0000 0.0000
# 3 21.1302 27.6804 90.2165 0.0000 0.0000 0.0000
# 4 0.0000 0.0000 0.0000 33.6069 0.0000 0.0000
# 5 0.0000 0.0000 0.0000 0.0000 18.6848 0.0000
# 6 0.0000 0.0000 0.0000 0.0000 0.0000 32.4561
#
#
#
# Elastic Compliance Matrix: (Units=1/GPa)
#
#
# Indices 1 2 3 4 5 6 
#
# 1 0.010630 -0.004761 -0.001029 0.000000 0.000000 0.000000
# 2 -0.004761 0.025225 -0.006624 0.000000 0.000000 0.000000
# 3 -0.001029 -0.006624 0.013358 0.000000 0.000000 0.000000
# 4 0.000000 0.000000 0.000000 0.029756 0.000000 0.000000
# 5 0.000000 0.000000 0.000000 0.000000 0.053520 0.000000
# 6 0.000000 0.000000 0.000000 0.000000 0.000000 0.030811
#
#
# Mechanical properties :
#
#
# Convention : Reuss Voigt Hill
#
# Bulk Modulus (GPa) = 41.01036 44.34413 42.67725
# Shear Modulus (GPa) = 25.47685 28.61819 27.04752
#
# Velocity S-wave (km/s) = 3.47798 3.68617 3.58359
# Velocity P-wave (km/s) = 5.96658 6.25872 6.11440
#
# Compressibility (1/GPa) = 0.02438408
#
# Stress axis : x y z
#
# Youngs Moduli (GPa) = 94.06898 39.64352 74.86173
#
# Poissons Ratio (x) = 0.18875 0.07703
# Poissons Ratio (y) = 0.44788 0.49591
# Poissons Ratio (z) = 0.09680 0.26261
#
# Static dielectric constant tensor:
#      x y z
#    x 3.638220 0.000000 0.000000 
#    y 0.000000 3.830130 0.000000 
#    z 0.000000 0.000000 4.572230 
# 
# 
# High freq. dielectric constant tensor:
#      x y z
#    x 1.794960 0.000000 0.000000 
#    y 0.000000 1.820100 0.000000 
#    z 0.000000 0.000000 1.847660 
# 
# From -- ./inp_files/11063.got.cif
#   From: 2010.03.12/outbox.cif.g09.slc.cpg/sg56_6_cif.got.tgz:11063.got - 2010.04.16 15:33:40.
