data_PCOD8228442
_publ_section_title
;
Structure prediction by ZEFSAII (Michael W. Deem and Ramdas Pophale) SiO2 
 PCOD8228442
Probable space group: P C C N
;
_chemical_formula_sum "Si O2"
_cell_formula_units_Z 40
_cell_length_a 17.448833
_cell_length_b 15.718074
_cell_length_c 8.736697
_cell_angle_alpha 90.000000
_cell_angle_beta 90.000000
_cell_angle_gamma 90.000000
_cell_volume 2396.144415
_symmetry_space_group_name_H-M "P C C N"
_symmetry_group_IT_number 56
_symmetry_cell_setting 'orthorhombic'
loop_
_space_group_symop_operation_xyz
x,y,z
1/2-x,1/2-y,z
1/2+x,-y,1/2-z
-x,1/2+y,1/2-z
-x,-y,-z
1/2+x,1/2+y,-z
1/2-x,y,1/2+z
x,1/2-y,1/2+z
loop_
_atom_site_type_symbol
_atom_site_label
_atom_site_fract_x
_atom_site_fract_y
_atom_site_fract_z
Si Si1 0.035127 0.002325 0.166120
Si Si2 0.672278 0.393653 0.826226
Si Si3 0.469797 0.838668 0.833148
Si Si4 0.028458 0.830617 0.694101
Si Si5 0.303815 0.831819 0.334914
O O1 0.022392 0.092560 0.242960
O O2 0.126744 0.983144 0.152504
O O3 0.995002 0.927187 0.267980
O O4 0.000000 0.000000 0.000000
O O5 0.619826 0.332795 0.717119
O O6 0.753379 0.408603 0.741168
O O7 0.683101 0.345397 0.986484
O O8 0.510325 0.756450 0.756386
O O9 0.476753 0.833046 0.013163
O O10 0.115595 0.835806 0.749396
O O11 0.250000 0.750000 0.300606
#
# Coordination Sequence:
#
# PCOD8228442 Si02
#       5
#     8   8   8   8   8
#     4  10  20  38  53  77 112 149 190 227 275 331
#     4  10  22  32  49  79 112 144 183 216 279 330
#     4  10  22  34  52  81 107 151 180 230 278 325
#     4  12  20  36  56  76 118 144 189 229 276 340
#     4  12  20  31  51  79 115 149 175 224 277 340
#
# _framework density 16.693484999999999
#
# number of rings (size 3 to 8) (size 9 to 14) (size 15 to 20)
#    1.200    0.000    4.000    4.800    0.000    0.000 
#    0.000    0.000    0.000    0.000    0.000    1.400 
#    0.000    0.000    0.000    0.000    0.000    0.000 
#
# Total GULP energy -495560.451919 kJ/mol
# GULP energy per Si atom -12389.011298 kJ/mol
# Density = 1.665549 g / cm^3
# Si number density = 16.693485 Si / 1000 Ang^3
#
#
#
# Elastic Constant Matrix: (Units=GPa)
#
#
# Indices 1 2 3 4 5 6 
#
# 1 39.8784 13.4738 0.2869 0.0000 0.0000 0.0000
# 2 13.4738 87.1469 21.9032 0.0000 0.0000 0.0000
# 3 0.2869 21.9032 132.5267 0.0000 0.0000 0.0000
# 4 0.0000 0.0000 0.0000 29.9884 0.0000 0.0000
# 5 0.0000 0.0000 0.0000 0.0000 24.5961 0.0000
# 6 0.0000 0.0000 0.0000 0.0000 0.0000 26.7266
#
#
#
# Elastic Compliance Matrix: (Units=1/GPa)
#
#
# Indices 1 2 3 4 5 6 
#
# 1 0.026511 -0.004262 0.000647 0.000000 0.000000 0.000000
# 2 -0.004262 0.012657 -0.002083 0.000000 0.000000 0.000000
# 3 0.000647 -0.002083 0.007888 0.000000 0.000000 0.000000
# 4 0.000000 0.000000 0.000000 0.033346 0.000000 0.000000
# 5 0.000000 0.000000 0.000000 0.000000 0.040657 0.000000
# 6 0.000000 0.000000 0.000000 0.000000 0.000000 0.037416
#
#
# Mechanical properties :
#
#
# Convention : Reuss Voigt Hill
#
# Bulk Modulus (GPa) = 28.04065 36.76444 32.40255
# Shear Modulus (GPa) = 27.50907 31.18809 29.34858
#
# Velocity S-wave (km/s) = 4.06383 4.32705 4.19750
# Velocity P-wave (km/s) = 6.23325 6.85824 6.55320
#
# Compressibility (1/GPa) = 0.03566251
#
# Stress axis : x y z
#
# Youngs Moduli (GPa) = 37.71957 79.00631 126.76746
#
# Poissons Ratio (x) = 0.33669 -0.08201
# Poissons Ratio (y) = 0.16074 0.26402
# Poissons Ratio (z) = -0.02440 0.16455
#
# Static dielectric constant tensor:
#      x y z
#    x 2.248870 0.000000 0.000000 
#    y 0.000000 2.848300 0.000000 
#    z 0.000000 0.000000 3.237370 
# 
# 
# High freq. dielectric constant tensor:
#      x y z
#    x 1.606040 0.000000 0.000000 
#    y 0.000000 1.630960 0.000000 
#    z 0.000000 0.000000 1.667770 
# 
# From -- ./inp_files/3297.got.cif
#   From: 2010.03.12/outbox.cif.g09.slc.cpg/sg56_2_cif.got.tgz:3297.got - 2010.04.16 15:33:40.
