data_PCOD8228458
_publ_section_title
;
Structure prediction by ZEFSAII (Michael W. Deem and Ramdas Pophale) SiO2 
 PCOD8228458
Probable space group: P C C N
;
_chemical_formula_sum "Si O2"
_cell_formula_units_Z 32
_cell_length_a 7.444467
_cell_length_b 12.365616
_cell_length_c 15.809086
_cell_angle_alpha 90.000000
_cell_angle_beta 90.000000
_cell_angle_gamma 90.000000
_cell_volume 1455.312055
_symmetry_space_group_name_H-M "P C C N"
_symmetry_group_IT_number 56
_symmetry_cell_setting 'orthorhombic'
loop_
_space_group_symop_operation_xyz
x,y,z
1/2-x,1/2-y,z
1/2+x,-y,1/2-z
-x,1/2+y,1/2-z
-x,-y,-z
1/2+x,1/2+y,-z
1/2-x,y,1/2+z
x,1/2-y,1/2+z
loop_
_atom_site_type_symbol
_atom_site_label
_atom_site_fract_x
_atom_site_fract_y
_atom_site_fract_z
Si Si1 0.712600 0.131483 0.224978
Si Si2 0.390653 0.652753 0.460685
Si Si3 0.741808 0.925070 0.500543
Si Si4 0.001493 0.997731 0.139807
O O1 0.750000 0.250000 0.258863
O O2 0.591108 0.134042 0.140137
O O3 0.629903 0.074233 0.305088
O O4 0.898412 0.073714 0.204594
O O5 0.250000 0.750000 0.481182
O O6 0.598145 0.665843 0.494465
O O7 0.317715 0.547034 0.507383
O O8 0.632374 0.916736 0.588471
O O9 0.603810 0.917509 0.422051
#
# Coordination Sequence:
#
# PCOD8228458 Si02
#       4
#     8   8   8   8
#     4  10  21  38  59  84 118 157 197 246 305 362
#     4   9  18  36  60  84 115 156 199 249 307 366
#     4   9  19  36  58  85 119 156 198 251 305 359
#     4  10  20  38  60  86 121 159 201 253 306 369
#
# _framework density 21.988410999999999
#
# number of rings (size 3 to 8) (size 9 to 14) (size 15 to 20)
#    0.000    2.500    0.000    1.500    0.000    1.000 
#    0.000   35.000    0.000    0.000    0.000    0.000 
#    0.000    0.000    0.000    0.000    0.000    0.000 
#
# Total GULP energy -396583.072268 kJ/mol
# GULP energy per Si atom -12393.221008 kJ/mol
# Density = 2.193836 g / cm^3
# Si number density = 21.988411 Si / 1000 Ang^3
#
#
#
# Elastic Constant Matrix: (Units=GPa)
#
#
# Indices 1 2 3 4 5 6 
#
# 1 147.6085 50.4009 55.2750 0.0000 0.0000 0.0000
# 2 50.4009 75.3417 43.1544 0.0000 0.0000 0.0000
# 3 55.2750 43.1544 83.6536 0.0000 0.0000 0.0000
# 4 0.0000 0.0000 0.0000 30.6362 0.0000 0.0000
# 5 0.0000 0.0000 0.0000 0.0000 46.4751 0.0000
# 6 0.0000 0.0000 0.0000 0.0000 0.0000 38.5484
#
#
#
# Elastic Compliance Matrix: (Units=1/GPa)
#
#
# Indices 1 2 3 4 5 6 
#
# 1 0.009798 -0.004040 -0.004390 0.000000 0.000000 0.000000
# 2 -0.004040 0.020505 -0.007909 0.000000 0.000000 0.000000
# 3 -0.004390 -0.007909 0.018935 0.000000 0.000000 0.000000
# 4 0.000000 0.000000 0.000000 0.032641 0.000000 0.000000
# 5 0.000000 0.000000 0.000000 0.000000 0.021517 0.000000
# 6 0.000000 0.000000 0.000000 0.000000 0.000000 0.025941
#
#
# Mechanical properties :
#
#
# Convention : Reuss Voigt Hill
#
# Bulk Modulus (GPa) = 60.38387 67.14051 63.76219
# Shear Modulus (GPa) = 29.84443 33.65016 31.74730
#
# Velocity S-wave (km/s) = 3.68813 3.91622 3.80388
# Velocity P-wave (km/s) = 6.75704 7.14492 6.95369
#
# Compressibility (1/GPa) = 0.01656071
#
# Stress axis : x y z
#
# Youngs Moduli (GPa) = 102.06062 48.76756 52.81306
#
# Poissons Ratio (x) = 0.19702 0.23185
# Poissons Ratio (y) = 0.41233 0.41768
# Poissons Ratio (z) = 0.44805 0.38569
#
# Static dielectric constant tensor:
#      x y z
#    x 4.266360 0.000000 0.000000 
#    y 0.000000 3.827300 0.000000 
#    z 0.000000 0.000000 3.811330 
# 
# 
# High freq. dielectric constant tensor:
#      x y z
#    x 1.875760 0.000000 0.000000 
#    y 0.000000 1.847170 0.000000 
#    z 0.000000 0.000000 1.859390 
# 
# From -- ./inp_files/10082.got.cif
#   From: 2010.03.12/outbox.cif.g09.slc.cpg/sg56_6_cif.got.tgz:10082.got - 2010.04.16 15:33:40.
