data_PCOD8228483
_publ_section_title
;
Structure prediction by ZEFSAII (Michael W. Deem and Ramdas Pophale) SiO2 
 PCOD8228483
Probable space group: P C C N
;
_chemical_formula_sum "Si O2"
_cell_formula_units_Z 32
_cell_length_a 14.745141
_cell_length_b 5.030625
_cell_length_c 18.830127
_cell_angle_alpha 90.000000
_cell_angle_beta 90.000000
_cell_angle_gamma 90.000000
_cell_volume 1396.767508
_symmetry_space_group_name_H-M "P C C N"
_symmetry_group_IT_number 56
_symmetry_cell_setting 'orthorhombic'
loop_
_space_group_symop_operation_xyz
x,y,z
1/2-x,1/2-y,z
1/2+x,-y,1/2-z
-x,1/2+y,1/2-z
-x,-y,-z
1/2+x,1/2+y,-z
1/2-x,y,1/2+z
x,1/2-y,1/2+z
loop_
_atom_site_type_symbol
_atom_site_label
_atom_site_fract_x
_atom_site_fract_y
_atom_site_fract_z
Si Si1 0.309792 0.503632 0.125238
Si Si2 0.142650 0.283135 0.901465
Si Si3 0.856099 0.285663 0.520701
Si Si4 0.559523 0.574571 0.747396
O O1 0.250000 0.250000 0.098567
O O2 0.373514 0.395168 0.186634
O O3 0.250000 0.750000 0.154510
O O4 0.370536 0.621071 0.060587
O O5 0.250000 0.250000 0.905281
O O6 0.102286 0.501198 0.957229
O O7 0.115000 0.353100 0.822319
O O8 0.099681 0.004335 0.926752
O O9 0.750000 0.250000 0.534949
O O10 0.524029 0.274435 0.742009
#
# Coordination Sequence:
#
# PCOD8228483 Si02
#       4
#     8   8   8   8
#     4  11  22  41  66  91 118 158 204 251 302 360
#     4  10  20  38  63  88 115 155 201 246 295 355
#     4   9  18  35  62  92 114 142 200 258 295 343
#     4  12  26  42  58  89 130 165 200 247 300 360
#
# _framework density 22.910041
#
# number of rings (size 3 to 8) (size 9 to 14) (size 15 to 20)
#    0.000    1.500    0.000    7.500    0.000    3.000 
#    0.000    7.500    0.000    0.000    0.000    0.000 
#    0.000    0.000    0.000    0.000    0.000    0.000 
#
# Total GULP energy -396695.233101 kJ/mol
# GULP energy per Si atom -12396.726034 kJ/mol
# Density = 2.285790 g / cm^3
# Si number density = 22.910041 Si / 1000 Ang^3
#
#
#
# Elastic Constant Matrix: (Units=GPa)
#
#
# Indices 1 2 3 4 5 6 
#
# 1 24.9182 20.8640 28.6712 0.0000 0.0000 0.0000
# 2 20.8640 94.2778 40.7030 0.0000 0.0000 0.0000
# 3 28.6712 40.7030 173.0100 0.0000 0.0000 0.0000
# 4 0.0000 0.0000 0.0000 56.3192 0.0000 0.0000
# 5 0.0000 0.0000 0.0000 0.0000 -13.8044 0.0000
# 6 0.0000 0.0000 0.0000 0.0000 0.0000 30.6412
#
#
#
# Elastic Compliance Matrix: (Units=1/GPa)
#
#
# Indices 1 2 3 4 5 6 
#
# 1 0.056138 -0.009357 -0.007102 0.000000 0.000000 0.000000
# 2 -0.009357 0.013366 -0.001594 0.000000 0.000000 0.000000
# 3 -0.007102 -0.001594 0.007332 0.000000 0.000000 0.000000
# 4 0.000000 0.000000 0.000000 0.017756 0.000000 0.000000
# 5 0.000000 0.000000 0.000000 0.000000 -0.072441 0.000000
# 6 0.000000 0.000000 0.000000 0.000000 0.000000 0.032636
#
#
# Mechanical properties :
#
#
# Convention : Reuss Voigt Hill
#
# Bulk Modulus (GPa) = 24.55220 52.52027 38.53623
# Shear Modulus (GPa) = 47.86132 28.09571 37.97851
#
# Velocity S-wave (km/s) = 4.57562 3.50573 4.07593
# Velocity P-wave (km/s) = 6.21733 6.27385 6.24565
#
# Compressibility (1/GPa) = 0.04072955
#
# Stress axis : x y z
#
# Youngs Moduli (GPa) = 17.81340 74.81740 136.39104
#
# Poissons Ratio (x) = 0.70010 0.96860
# Poissons Ratio (y) = 0.16669 0.21738
# Poissons Ratio (z) = 0.12650 0.11924
#
# Static dielectric constant tensor:
#      x y z
#    x 3.527200 0.000000 0.000000 
#    y 0.000000 4.833120 0.000000 
#    z 0.000000 0.000000 4.080100 
# 
# 
# High freq. dielectric constant tensor:
#      x y z
#    x 1.864280 0.000000 0.000000 
#    y 0.000000 1.934580 0.000000 
#    z 0.000000 0.000000 1.911090 
# 
# From -- ./inp_files/15949.got.cif
#   From: 2010.03.12/outbox.cif.g09.slc.cpg/sg56_8_cif.got.tgz:15949.got - 2010.04.16 15:33:40.
