data_PCOD8228037
_publ_section_title
;
Structure prediction by ZEFSAII (Michael W. Deem and Ramdas Pophale) SiO2 
 PCOD8228037
Probable space group: P C C N
;
_chemical_formula_sum "Si O2"
_cell_formula_units_Z 44
_cell_length_a 8.061752
_cell_length_b 11.712765
_cell_length_c 22.596242
_cell_angle_alpha 90.000000
_cell_angle_beta 90.000000
_cell_angle_gamma 90.000000
_cell_volume 2133.659340
_symmetry_space_group_name_H-M "P C C N"
_symmetry_group_IT_number 56
_symmetry_cell_setting 'orthorhombic'
loop_
_space_group_symop_operation_xyz
x,y,z
1/2-x,1/2-y,z
1/2+x,-y,1/2-z
-x,1/2+y,1/2-z
-x,-y,-z
1/2+x,1/2+y,-z
1/2-x,y,1/2+z
x,1/2-y,1/2+z
loop_
_atom_site_type_symbol
_atom_site_label
_atom_site_fract_x
_atom_site_fract_y
_atom_site_fract_z
Si Si1 0.250000 0.750000 0.769293
Si Si2 0.412876 0.303178 0.297103
Si Si3 0.283771 0.975264 0.844380
Si Si4 0.750000 0.250000 0.956770
Si Si5 0.055168 0.347930 0.404620
Si Si6 0.750000 0.750000 0.491144
Si Si7 0.028426 0.895653 0.458819
O O1 0.417407 0.744674 0.730609
O O2 0.235496 0.863771 0.807945
O O3 0.250000 0.250000 0.263714
O O4 0.390925 0.440584 0.301462
O O5 0.405704 0.263298 0.365300
O O6 0.397473 0.932525 0.897100
O O7 0.116548 0.037637 0.869754
O O8 0.643977 0.340644 0.916719
O O9 0.635852 0.185253 0.001468
O O10 0.148261 0.337778 0.467182
O O11 0.640847 0.673586 0.446824
O O12 0.000000 0.000000 0.500000
#
# Coordination Sequence:
#
# PCOD8228037 Si02
#       7
#     4   8   8   4   8   4   8
#     4  12  28  44  68 100 130 172 224 290 338 392
#     4  10  23  45  70  91 125 174 228 277 336 393
#     4  11  23  43  65  95 139 166 222 283 330 399
#     4  10  22  34  66 100 124 174 224 242 332 410
#     4  10  18  41  66  94 128 170 220 266 318 407
#     4  10  18  38  64  94 132 172 212 260 324 400
#     4  11  21  40  62  95 133 174 210 265 328 390
#
# _framework density 20.621848
#
# number of rings (size 3 to 8) (size 9 to 14) (size 15 to 20)
#    0.000    1.455    4.545    2.182    5.091    0.727 
#    4.909    0.000    0.000    0.000    0.000    0.000 
#    0.000    0.000    0.000    0.000    0.000    0.000 
#
# Total GULP energy -545112.295236 kJ/mol
# GULP energy per Si atom -12388.915801 kJ/mol
# Density = 2.057491 g / cm^3
# Si number density = 20.621848 Si / 1000 Ang^3
#
#
#
# Elastic Constant Matrix: (Units=GPa)
#
#
# Indices 1 2 3 4 5 6 
#
# 1 155.6359 51.8991 45.1097 0.0000 0.0000 0.0000
# 2 51.8991 128.1923 38.3117 0.0000 0.0000 0.0000
# 3 45.1097 38.3117 69.0601 0.0000 0.0000 0.0000
# 4 0.0000 0.0000 0.0000 29.3409 0.0000 0.0000
# 5 0.0000 0.0000 0.0000 0.0000 21.2005 0.0000
# 6 0.0000 0.0000 0.0000 0.0000 0.0000 25.0977
#
#
#
# Elastic Compliance Matrix: (Units=1/GPa)
#
#
# Indices 1 2 3 4 5 6 
#
# 1 0.008374 -0.002104 -0.004302 0.000000 0.000000 0.000000
# 2 -0.002104 0.009880 -0.004106 0.000000 0.000000 0.000000
# 3 -0.004302 -0.004106 0.019569 0.000000 0.000000 0.000000
# 4 0.000000 0.000000 0.000000 0.034082 0.000000 0.000000
# 5 0.000000 0.000000 0.000000 0.000000 0.047169 0.000000
# 6 0.000000 0.000000 0.000000 0.000000 0.000000 0.039844
#
#
# Mechanical properties :
#
#
# Convention : Reuss Voigt Hill
#
# Bulk Modulus (GPa) = 59.53789 69.28103 64.40946
# Shear Modulus (GPa) = 26.94793 29.63233 28.29013
#
# Velocity S-wave (km/s) = 3.61884 3.79481 3.70787
# Velocity P-wave (km/s) = 6.81141 7.27115 7.04503
#
# Compressibility (1/GPa) = 0.01679603
#
# Stress axis : x y z
#
# Youngs Moduli (GPa) = 119.41687 101.21441 51.10247
#
# Poissons Ratio (x) = 0.21300 0.21986
# Poissons Ratio (y) = 0.25130 0.20985
# Poissons Ratio (z) = 0.51378 0.41563
#
# Static dielectric constant tensor:
#      x y z
#    x 4.399650 0.000000 0.000000 
#    y 0.000000 3.866990 0.000000 
#    z 0.000000 0.000000 3.535480 
# 
# 
# High freq. dielectric constant tensor:
#      x y z
#    x 1.819800 0.000000 0.000000 
#    y 0.000000 1.808320 0.000000 
#    z 0.000000 0.000000 1.785730 
# 
# From -- ./inp_files/20446.got.cif
#   From: 2010.03.12/outbox.cif.g09.slc.cpg/sg56_11_cif.got.tgz:20446.got - 2010.04.16 15:33:40.
