data_PCOD8228601
_publ_section_title
;
Structure prediction by ZEFSAII (Michael W. Deem and Ramdas Pophale) SiO2 
 PCOD8228601
Probable space group: P C C N
;
_chemical_formula_sum "Si O2"
_cell_formula_units_Z 48
_cell_length_a 14.420084
_cell_length_b 16.842366
_cell_length_c 9.730836
_cell_angle_alpha 90.000000
_cell_angle_beta 90.000000
_cell_angle_gamma 90.000000
_cell_volume 2363.311913
_symmetry_space_group_name_H-M "P C C N"
_symmetry_group_IT_number 56
_symmetry_cell_setting 'orthorhombic'
loop_
_space_group_symop_operation_xyz
x,y,z
1/2-x,1/2-y,z
1/2+x,-y,1/2-z
-x,1/2+y,1/2-z
-x,-y,-z
1/2+x,1/2+y,-z
1/2-x,y,1/2+z
x,1/2-y,1/2+z
loop_
_atom_site_type_symbol
_atom_site_label
_atom_site_fract_x
_atom_site_fract_y
_atom_site_fract_z
Si Si1 0.631566 0.519395 0.620719
Si Si2 0.853537 0.067743 0.360335
Si Si3 0.353973 0.579546 0.115008
Si Si4 0.660698 0.544505 0.105727
Si Si5 0.986060 0.833606 0.721981
Si Si6 0.475905 0.317942 0.956542
O O1 0.592165 0.474112 0.486697
O O2 0.637990 0.448548 0.729546
O O3 0.730270 0.559362 0.579924
O O4 0.568025 0.587078 0.682583
O O5 0.753840 0.101204 0.411465
O O6 0.906134 0.144068 0.298878
O O7 0.847884 0.997584 0.251023
O O8 0.421312 0.653533 0.086543
O O9 0.384753 0.509486 0.012586
O O10 0.604062 0.625870 0.103973
O O11 0.956820 0.765557 0.616354
O O12 0.966930 0.808071 0.878960
#
# Coordination Sequence:
#
# PCOD8228601 Si02
#       6
#     8   8   8   8   8   8
#     4  10  22  39  68  94 119 151 213 255 301 354
#     4  10  22  39  68  94 119 151 213 255 301 354
#     4  10  20  42  67  91 115 162 204 257 298 357
#     4  10  20  42  67  91 115 162 204 257 298 357
#     4  12  26  42  58  93 127 167 197 249 307 370
#     4  12  26  41  62  87 131 166 201 243 313 364
#
# _framework density 20.310479000000001
#
# number of rings (size 3 to 8) (size 9 to 14) (size 15 to 20)
#    0.000    1.333    3.333    2.000    4.667    1.333 
#    0.000    3.333    0.000    0.000    0.000    0.000 
#    0.000    0.000    0.000    0.000    0.000    0.000 
#
# Total GULP energy -595204.733461 kJ/mol
# GULP energy per Si atom -12400.098614 kJ/mol
# Density = 2.026425 g / cm^3
# Si number density = 20.310479 Si / 1000 Ang^3
#
#
#
# Elastic Constant Matrix: (Units=GPa)
#
#
# Indices 1 2 3 4 5 6 
#
# 1 50.6712 1.1885 4.8966 0.0000 0.0000 0.0000
# 2 1.1885 43.8842 18.1986 0.0000 0.0000 0.0000
# 3 4.8966 18.1986 128.3299 0.0000 0.0000 0.0000
# 4 0.0000 0.0000 0.0000 35.2500 0.0000 0.0000
# 5 0.0000 0.0000 0.0000 0.0000 24.4965 0.0000
# 6 0.0000 0.0000 0.0000 0.0000 0.0000 10.3476
#
#
#
# Elastic Compliance Matrix: (Units=1/GPa)
#
#
# Indices 1 2 3 4 5 6 
#
# 1 0.019810 -0.000237 -0.000722 0.000000 0.000000 0.000000
# 2 -0.000237 0.024214 -0.003425 0.000000 0.000000 0.000000
# 3 -0.000722 -0.003425 0.008306 0.000000 0.000000 0.000000
# 4 0.000000 0.000000 0.000000 0.028369 0.000000 0.000000
# 5 0.000000 0.000000 0.000000 0.000000 0.040822 0.000000
# 6 0.000000 0.000000 0.000000 0.000000 0.000000 0.096641
#
#
# Mechanical properties :
#
#
# Convention : Reuss Voigt Hill
#
# Bulk Modulus (GPa) = 22.95582 30.16141 26.55862
# Shear Modulus (GPa) = 20.70819 27.25892 23.98356
#
# Velocity S-wave (km/s) = 3.19655 3.66746 3.44007
# Velocity P-wave (km/s) = 4.99509 5.72853 5.37434
#
# Compressibility (1/GPa) = 0.04356194
#
# Stress axis : x y z
#
# Youngs Moduli (GPa) = 50.47841 41.29857 120.39999
#
# Poissons Ratio (x) = 0.00979 0.08696
# Poissons Ratio (y) = 0.01196 0.41234
# Poissons Ratio (z) = 0.03646 0.14144
#
# Static dielectric constant tensor:
#      x y z
#    x 3.895640 0.000000 0.000000 
#    y 0.000000 3.346230 0.000000 
#    z 0.000000 0.000000 3.866620 
# 
# 
# High freq. dielectric constant tensor:
#      x y z
#    x 1.801690 0.000000 0.000000 
#    y 0.000000 1.763910 0.000000 
#    z 0.000000 0.000000 1.815360 
# 
# From -- ./inp_files/3371.got.cif
#   From: 2010.03.12/outbox.cif.g09.slc.cpg/sg56_2_cif.got.tgz:3371.got - 2010.04.16 15:33:40.
