data_PCOD8228837
_publ_section_title
;
Structure prediction by ZEFSAII (Michael W. Deem and Ramdas Pophale) SiO2 
 PCOD8228837
Probable space group: P C C N
;
_chemical_formula_sum "Si O2"
_cell_formula_units_Z 56
_cell_length_a 21.477392
_cell_length_b 8.555957
_cell_length_c 13.896660
_cell_angle_alpha 90.000000
_cell_angle_beta 90.000000
_cell_angle_gamma 90.000000
_cell_volume 2553.645272
_symmetry_space_group_name_H-M "P C C N"
_symmetry_group_IT_number 56
_symmetry_cell_setting 'orthorhombic'
loop_
_space_group_symop_operation_xyz
x,y,z
1/2-x,1/2-y,z
1/2+x,-y,1/2-z
-x,1/2+y,1/2-z
-x,-y,-z
1/2+x,1/2+y,-z
1/2-x,y,1/2+z
x,1/2-y,1/2+z
loop_
_atom_site_type_symbol
_atom_site_label
_atom_site_fract_x
_atom_site_fract_y
_atom_site_fract_z
Si Si1 0.305312 0.349806 0.699104
Si Si2 0.000139 0.127778 0.131347
Si Si3 0.923857 0.645761 0.549999
Si Si4 0.802557 0.485442 0.608478
Si Si5 0.294501 0.891665 0.043901
Si Si6 0.596956 0.874828 0.213145
Si Si7 0.125143 0.810968 0.377692
O O1 0.250000 0.250000 0.651674
O O2 0.282574 0.407160 0.803178
O O3 0.317725 0.495551 0.628786
O O4 0.365081 0.240680 0.716079
O O5 0.030250 0.104742 0.236077
O O6 0.945689 0.255048 0.131798
O O7 0.053252 0.184400 0.056945
O O8 0.975079 0.957518 0.104381
O O9 0.858681 0.554356 0.544514
O O10 0.914883 0.805773 0.607551
O O11 0.743187 0.479479 0.540106
O O12 0.824856 0.320197 0.655186
O O13 0.250000 0.750000 0.082431
O O14 0.358220 0.837747 0.991091
O O15 0.632007 0.039547 0.193334
#
# Coordination Sequence:
#
# PCOD8228837 Si02
#       7
#     8   8   8   8   8   8   8
#     4  11  25  40  63  97 123 167 207 261 323 387
#     4  10  21  41  61  91 126 173 216 257 323 381
#     4   9  21  40  60  88 128 165 210 268 318 379
#     4   9  21  45  64  88 132 164 211 266 325 386
#     4  10  23  42  65  92 125 167 210 262 322 384
#     4  11  23  38  63  94 126 167 214 263 322 376
#     4  10  22  42  65  94 129 170 214 271 316 386
#
# _framework density 21.929435999999999
#
# number of rings (size 3 to 8) (size 9 to 14) (size 15 to 20)
#    0.000    2.000    0.000    1.714    4.000    5.143 
#   15.429    0.000    0.000    0.000    0.000    0.000 
#    0.000    0.000    0.000    0.000    0.000    0.000 
#
# Total GULP energy -694270.967906 kJ/mol
# GULP energy per Si atom -12397.695855 kJ/mol
# Density = 2.187952 g / cm^3
# Si number density = 21.929436 Si / 1000 Ang^3
#
#
#
# Elastic Constant Matrix: (Units=GPa)
#
#
# Indices 1 2 3 4 5 6 
#
# 1 59.1274 20.4933 21.0256 0.0000 0.0000 0.0000
# 2 20.4933 95.3372 30.2393 0.0000 0.0000 0.0000
# 3 21.0256 30.2393 52.6368 0.0000 0.0000 0.0000
# 4 0.0000 0.0000 0.0000 35.4249 0.0000 0.0000
# 5 0.0000 0.0000 0.0000 0.0000 31.7018 0.0000
# 6 0.0000 0.0000 0.0000 0.0000 0.0000 26.6078
#
#
#
# Elastic Compliance Matrix: (Units=1/GPa)
#
#
# Indices 1 2 3 4 5 6 
#
# 1 0.020072 -0.002166 -0.006773 0.000000 0.000000 0.000000
# 2 -0.002166 0.013060 -0.006638 0.000000 0.000000 0.000000
# 3 -0.006773 -0.006638 0.025517 0.000000 0.000000 0.000000
# 4 0.000000 0.000000 0.000000 0.028229 0.000000 0.000000
# 5 0.000000 0.000000 0.000000 0.000000 0.031544 0.000000
# 6 0.000000 0.000000 0.000000 0.000000 0.000000 0.037583
#
#
# Mechanical properties :
#
#
# Convention : Reuss Voigt Hill
#
# Bulk Modulus (GPa) = 36.37044 38.95754 37.66399
# Shear Modulus (GPa) = 25.46815 27.76978 26.61896
#
# Velocity S-wave (km/s) = 3.41158 3.56241 3.48781
# Velocity P-wave (km/s) = 5.66919 5.89275 5.78205
#
# Compressibility (1/GPa) = 0.02749486
#
# Stress axis : x y z
#
# Youngs Moduli (GPa) = 49.82068 76.56933 39.18971
#
# Poissons Ratio (x) = 0.16587 0.26544
# Poissons Ratio (y) = 0.10792 0.26012
# Poissons Ratio (z) = 0.33745 0.50823
#
# Static dielectric constant tensor:
#      x y z
#    x 3.880470 0.000000 0.000000 
#    y 0.000000 4.074760 0.000000 
#    z 0.000000 0.000000 3.754180 
# 
# 
# High freq. dielectric constant tensor:
#      x y z
#    x 1.863460 0.000000 0.000000 
#    y 0.000000 1.868440 0.000000 
#    z 0.000000 0.000000 1.847700 
# 
# From -- ./inp_files/13089.got.cif
#   From: 2010.03.12/outbox.cif.g09.slc.cpg/sg56_7_cif.got.tgz:13089.got - 2010.04.16 15:33:40.
