data_PCOD8228232
_publ_section_title
;
Structure prediction by ZEFSAII (Michael W. Deem and Ramdas Pophale) SiO2 
 PCOD8228232
Probable space group: P C C N
;
_chemical_formula_sum "Si O2"
_cell_formula_units_Z 44
_cell_length_a 7.766218
_cell_length_b 19.913505
_cell_length_c 13.349167
_cell_angle_alpha 90.000000
_cell_angle_beta 90.000000
_cell_angle_gamma 90.000000
_cell_volume 2064.483664
_symmetry_space_group_name_H-M "P C C N"
_symmetry_group_IT_number 56
_symmetry_cell_setting 'orthorhombic'
loop_
_space_group_symop_operation_xyz
x,y,z
1/2-x,1/2-y,z
1/2+x,-y,1/2-z
-x,1/2+y,1/2-z
-x,-y,-z
1/2+x,1/2+y,-z
1/2-x,y,1/2+z
x,1/2-y,1/2+z
loop_
_atom_site_type_symbol
_atom_site_label
_atom_site_fract_x
_atom_site_fract_y
_atom_site_fract_z
Si Si1 0.065442 0.014142 0.613060
Si Si2 0.299242 0.919056 0.742305
Si Si3 0.884363 0.299340 0.655750
Si Si4 0.250000 0.250000 0.972072
Si Si5 0.037776 0.194328 0.801788
Si Si6 0.748919 0.849018 0.377029
O O1 0.206184 0.073566 0.607588
O O2 0.903341 0.029193 0.685839
O O3 0.168729 0.952852 0.663597
O O4 0.000000 0.000000 0.500000
O O5 0.201294 0.869635 0.816545
O O6 0.431207 0.873808 0.679081
O O7 0.750000 0.250000 0.594229
O O8 0.928724 0.254428 0.753380
O O9 0.053187 0.325626 0.597901
O O10 0.101491 0.215673 0.908996
O O11 0.352075 0.194617 0.040191
O O12 0.202737 0.175588 0.733566
#
# Coordination Sequence:
#
# PCOD8228232 Si02
#       6
#     8   8   8   4   8   8
#     4  11  26  45  67  98 136 185 233 273 339 418
#     4  10  24  43  67  91 133 179 218 283 331 400
#     4  10  19  39  66  93 132 168 217 278 342 389
#     4  12  20  34  68  94 124 164 214 270 338 388
#     4  10  21  40  63  96 128 168 217 270 345 394
#     4  11  22  40  64  94 134 170 214 279 328 404
#
# _framework density 21.312836000000001
#
# number of rings (size 3 to 8) (size 9 to 14) (size 15 to 20)
#    0.000    1.455    3.636    1.091    2.545    4.364 
#    0.000    5.455    0.000    0.000    0.000    0.000 
#    0.000    0.000    0.000    0.000    0.000    0.000 
#
# Total GULP energy -545096.859530 kJ/mol
# GULP energy per Si atom -12388.564989 kJ/mol
# Density = 2.126433 g / cm^3
# Si number density = 21.312836 Si / 1000 Ang^3
#
#
#
# Elastic Constant Matrix: (Units=GPa)
#
#
# Indices 1 2 3 4 5 6 
#
# 1 123.2405 56.0482 42.2037 0.0000 0.0000 0.0000
# 2 56.0482 109.7416 39.5891 0.0000 0.0000 0.0000
# 3 42.2037 39.5891 97.8057 0.0000 0.0000 0.0000
# 4 0.0000 0.0000 0.0000 26.2766 0.0000 0.0000
# 5 0.0000 0.0000 0.0000 0.0000 21.1075 0.0000
# 6 0.0000 0.0000 0.0000 0.0000 0.0000 46.4748
#
#
#
# Elastic Compliance Matrix: (Units=1/GPa)
#
#
# Indices 1 2 3 4 5 6 
#
# 1 0.011258 -0.004681 -0.002963 0.000000 0.000000 0.000000
# 2 -0.004681 0.012617 -0.003087 0.000000 0.000000 0.000000
# 3 -0.002963 -0.003087 0.012753 0.000000 0.000000 0.000000
# 4 0.000000 0.000000 0.000000 0.038057 0.000000 0.000000
# 5 0.000000 0.000000 0.000000 0.000000 0.047376 0.000000
# 6 0.000000 0.000000 0.000000 0.000000 0.000000 0.021517
#
#
# Mechanical properties :
#
#
# Convention : Reuss Voigt Hill
#
# Bulk Modulus (GPa) = 65.94162 67.38553 66.66358
# Shear Modulus (GPa) = 29.39556 31.63489 30.51523
#
# Velocity S-wave (km/s) = 3.71784 3.85686 3.78799
# Velocity P-wave (km/s) = 7.03113 7.17773 7.10481
#
# Compressibility (1/GPa) = 0.01516493
#
# Stress axis : x y z
#
# Youngs Moduli (GPa) = 88.82859 79.26111 78.41575
#
# Poissons Ratio (x) = 0.37099 0.23236
# Poissons Ratio (y) = 0.41578 0.24208
# Poissons Ratio (z) = 0.26321 0.24469
#
# Static dielectric constant tensor:
#      x y z
#    x 4.346300 0.000000 0.000000 
#    y 0.000000 4.070280 0.000000 
#    z 0.000000 0.000000 3.560490 
# 
# 
# High freq. dielectric constant tensor:
#      x y z
#    x 1.845280 0.000000 0.000000 
#    y 0.000000 1.850240 0.000000 
#    z 0.000000 0.000000 1.813850 
# 
# From -- ./inp_files/6357.got.cif
#   From: 2010.03.12/outbox.cif.g09.slc.cpg/sg56_4_cif.got.tgz:6357.got - 2010.04.16 15:33:40.
