data_PCOD8228715
_publ_section_title
;
Structure prediction by ZEFSAII (Michael W. Deem and Ramdas Pophale) SiO2 
 PCOD8228715
Probable space group: P C C N
;
_chemical_formula_sum "Si O2"
_cell_formula_units_Z 48
_cell_length_a 4.855595
_cell_length_b 26.522259
_cell_length_c 15.886568
_cell_angle_alpha 90.000000
_cell_angle_beta 90.000000
_cell_angle_gamma 90.000000
_cell_volume 2045.893645
_symmetry_space_group_name_H-M "P C C N"
_symmetry_group_IT_number 56
_symmetry_cell_setting 'orthorhombic'
loop_
_space_group_symop_operation_xyz
x,y,z
1/2-x,1/2-y,z
1/2+x,-y,1/2-z
-x,1/2+y,1/2-z
-x,-y,-z
1/2+x,1/2+y,-z
1/2-x,y,1/2+z
x,1/2-y,1/2+z
loop_
_atom_site_type_symbol
_atom_site_label
_atom_site_fract_x
_atom_site_fract_y
_atom_site_fract_z
Si Si1 0.674314 0.693017 0.053140
Si Si2 0.813247 0.364069 0.883386
Si Si3 0.689137 0.521872 0.222763
Si Si4 0.938237 0.946627 0.042031
Si Si5 0.837840 0.393449 0.201332
Si Si6 0.327489 0.372069 0.093814
O O1 0.750000 0.750000 0.072614
O O2 0.372984 0.683362 0.090062
O O3 0.874919 0.651548 0.096424
O O4 0.662647 0.682128 0.952937
O O5 0.713546 0.414870 0.932716
O O6 0.789831 0.368688 0.783460
O O7 0.484653 0.471791 0.227693
O O8 0.729711 0.544198 0.129652
O O9 0.454664 0.550432 0.280671
O O10 0.750569 0.914621 0.977097
O O11 0.000000 0.000000 0.000000
O O12 0.624500 0.389813 0.125679
O O13 0.111093 0.364833 0.168669
#
# Coordination Sequence:
#
# PCOD8228715 Si02
#       6
#     8   8   8   8   8   8
#     4  11  23  44  67  91 121 162 209 261 319 381
#     4  10  23  41  65  92 124 166 208 254 313 381
#     4  11  23  37  57  85 122 170 217 256 303 367
#     4  10  21  38  61  91 126 167 210 253 310 374
#     4  11  22  40  60  89 128 161 202 260 313 368
#     4  11  23  40  64  92 126 162 206 260 314 371
#
# _framework density 23.461632999999999
#
# number of rings (size 3 to 8) (size 9 to 14) (size 15 to 20)
#    0.000    1.333    0.000    6.500    0.000    8.000 
#    0.000   15.000    0.000    0.000    0.000    0.000 
#    0.000    0.000    0.000    0.000    0.000    0.000 
#
# Total GULP energy -594818.844076 kJ/mol
# GULP energy per Si atom -12392.059252 kJ/mol
# Density = 2.340823 g / cm^3
# Si number density = 23.461633 Si / 1000 Ang^3
#
#
#
# Elastic Constant Matrix: (Units=GPa)
#
#
# Indices 1 2 3 4 5 6 
#
# 1 84.4093 -16.3035 18.2129 0.0000 0.0000 0.0000
# 2 -16.3035 76.4849 16.4695 0.0000 0.0000 0.0000
# 3 18.2129 16.4695 106.9675 0.0000 0.0000 0.0000
# 4 0.0000 0.0000 0.0000 17.9359 0.0000 0.0000
# 5 0.0000 0.0000 0.0000 0.0000 37.2676 0.0000
# 6 0.0000 0.0000 0.0000 0.0000 0.0000 21.8079
#
#
#
# Elastic Compliance Matrix: (Units=1/GPa)
#
#
# Indices 1 2 3 4 5 6 
#
# 1 0.013094 0.003383 -0.002750 0.000000 0.000000 0.000000
# 2 0.003383 0.014397 -0.002793 0.000000 0.000000 0.000000
# 3 -0.002750 -0.002793 0.010247 0.000000 0.000000 0.000000
# 4 0.000000 0.000000 0.000000 0.055754 0.000000 0.000000
# 5 0.000000 0.000000 0.000000 0.000000 0.026833 0.000000
# 6 0.000000 0.000000 0.000000 0.000000 0.000000 0.045855
#
#
# Mechanical properties :
#
#
# Convention : Reuss Voigt Hill
#
# Bulk Modulus (GPa) = 29.92366 33.84662 31.88514
# Shear Modulus (GPa) = 27.52714 32.03446 29.78080
#
# Velocity S-wave (km/s) = 3.42904 3.69914 3.56665
# Velocity P-wave (km/s) = 5.33477 5.71861 5.53002
#
# Compressibility (1/GPa) = 0.03341837
#
# Stress axis : x y z
#
# Youngs Moduli (GPa) = 76.37100 69.45873 97.59025
#
# Poissons Ratio (x) = -0.23500 0.26841
# Poissons Ratio (y) = -0.25839 0.27255
# Poissons Ratio (z) = 0.21005 0.19398
#
# Static dielectric constant tensor:
#      x y z
#    x 4.348770 0.000000 0.000000 
#    y 0.000000 3.999000 0.000000 
#    z 0.000000 0.000000 4.356900 
# 
# 
# High freq. dielectric constant tensor:
#      x y z
#    x 1.945360 0.000000 0.000000 
#    y 0.000000 1.899770 0.000000 
#    z 0.000000 0.000000 1.937390 
# 
# From -- ./inp_files/9695.got.cif
#   From: 2010.03.12/outbox.cif.g09.slc.cpg/sg56_5_cif.got.tgz:9695.got - 2010.04.16 15:33:40.
