data_PCOD8228862
_publ_section_title
;
Structure prediction by ZEFSAII (Michael W. Deem and Ramdas Pophale) SiO2 
 PCOD8228862
Probable space group: P C C N
;
_chemical_formula_sum "Si O2"
_cell_formula_units_Z 64
_cell_length_a 8.904025
_cell_length_b 12.103364
_cell_length_c 26.169321
_cell_angle_alpha 90.000000
_cell_angle_beta 90.000000
_cell_angle_gamma 90.000000
_cell_volume 2820.232543
_symmetry_space_group_name_H-M "P C C N"
_symmetry_group_IT_number 56
_symmetry_cell_setting 'orthorhombic'
loop_
_space_group_symop_operation_xyz
x,y,z
1/2-x,1/2-y,z
1/2+x,-y,1/2-z
-x,1/2+y,1/2-z
-x,-y,-z
1/2+x,1/2+y,-z
1/2-x,y,1/2+z
x,1/2-y,1/2+z
loop_
_atom_site_type_symbol
_atom_site_label
_atom_site_fract_x
_atom_site_fract_y
_atom_site_fract_z
Si Si1 0.900463 0.891743 0.171658
Si Si2 0.061349 0.363142 0.847187
Si Si3 0.269086 0.419560 0.051698
Si Si4 0.120352 0.071665 0.158940
Si Si5 0.492361 0.258820 0.535450
Si Si6 0.419892 0.770936 0.848773
Si Si7 0.913843 0.542591 0.787707
Si Si8 0.152759 0.655698 0.060839
O O1 0.940123 0.765160 0.165376
O O2 0.730731 0.912468 0.152095
O O3 0.936612 0.930264 0.228979
O O4 0.017527 0.967787 0.140236
O O5 0.966456 0.419041 0.801764
O O6 0.983411 0.384085 0.902447
O O7 0.271796 0.394875 0.112193
O O8 0.130931 0.354041 0.027966
O O9 0.421959 0.364924 0.029089
O O10 0.250501 0.550257 0.042280
O O11 0.234230 0.048834 0.205052
O O12 0.016077 0.172267 0.175647
O O13 0.573633 0.272651 0.589788
O O14 0.605115 0.278197 0.489572
O O15 0.250000 0.750000 0.831266
O O16 0.484660 0.882136 0.824634
O O17 0.250000 0.750000 0.090701
#
# Coordination Sequence:
#
# PCOD8228862 Si02
#       8
#     8   8   8   8   8   8   8   8
#     4  11  27  43  67 100 136 181 235 289 351 424
#     4  11  26  47  66 100 140 182 232 288 359 419
#     4  10  21  41  66  98 132 185 233 282 347 412
#     4  11  22  42  70  94 135 180 229 286 351 411
#     4  10  22  42  69 103 135 182 236 287 346 425
#     4  11  23  40  67 102 139 179 232 290 344 411
#     4  12  24  43  71  97 137 182 233 292 349 416
#     4  12  24  43  71 100 144 188 229 293 361 430
#
# _framework density 22.693163999999999
#
# number of rings (size 3 to 8) (size 9 to 14) (size 15 to 20)
#    0.000    1.000    2.500    3.375    5.250    2.500 
#    0.000    3.750    0.000    0.000    0.000    0.000 
#    0.000    0.000    0.000    0.000    0.000    0.000 
#
# Total GULP energy -793537.810223 kJ/mol
# GULP energy per Si atom -12399.028285 kJ/mol
# Density = 2.264151 g / cm^3
# Si number density = 22.693164 Si / 1000 Ang^3
#
#
#
# Elastic Constant Matrix: (Units=GPa)
#
#
# Indices 1 2 3 4 5 6 
#
# 1 105.8224 34.9780 30.1064 0.0000 0.0000 0.0000
# 2 34.9780 115.8006 20.6230 0.0000 0.0000 0.0000
# 3 30.1064 20.6230 71.4545 0.0000 0.0000 0.0000
# 4 0.0000 0.0000 0.0000 27.7744 0.0000 0.0000
# 5 0.0000 0.0000 0.0000 0.0000 23.8440 0.0000
# 6 0.0000 0.0000 0.0000 0.0000 0.0000 44.2047
#
#
#
# Elastic Compliance Matrix: (Units=1/GPa)
#
#
# Indices 1 2 3 4 5 6 
#
# 1 0.011515 -0.002756 -0.004056 0.000000 0.000000 0.000000
# 2 -0.002756 0.009763 -0.001657 0.000000 0.000000 0.000000
# 3 -0.004056 -0.001657 0.016182 0.000000 0.000000 0.000000
# 4 0.000000 0.000000 0.000000 0.036004 0.000000 0.000000
# 5 0.000000 0.000000 0.000000 0.000000 0.041939 0.000000
# 6 0.000000 0.000000 0.000000 0.000000 0.000000 0.022622
#
#
# Mechanical properties :
#
#
# Convention : Reuss Voigt Hill
#
# Bulk Modulus (GPa) = 48.72690 51.61026 50.16858
# Shear Modulus (GPa) = 30.90174 32.98931 31.94553
#
# Velocity S-wave (km/s) = 3.69415 3.81689 3.75602
# Velocity P-wave (km/s) = 6.30193 6.49745 6.40044
#
# Compressibility (1/GPa) = 0.02052255
#
# Stress axis : x y z
#
# Youngs Moduli (GPa) = 86.84606 102.42823 61.79670
#
# Poissons Ratio (x) = 0.28226 0.25066
# Poissons Ratio (y) = 0.23932 0.10238
# Poissons Ratio (z) = 0.35226 0.16969
#
# Static dielectric constant tensor:
#      x y z
#    x 4.273100 0.000000 0.000000 
#    y 0.000000 4.242830 0.000000 
#    z 0.000000 0.000000 3.754110 
# 
# 
# High freq. dielectric constant tensor:
#      x y z
#    x 1.908420 0.000000 0.000000 
#    y 0.000000 1.907640 0.000000 
#    z 0.000000 0.000000 1.875330 
# 
# From -- ./inp_files/23373.got.cif
#   From: 2010.03.12/outbox.cif.g09.slc.cpg/sg56_12_cif.got.tgz:23373.got - 2010.04.16 15:33:40.
