data_PCOD8228965
_publ_section_title
;
Structure prediction by ZEFSAII (Michael W. Deem and Ramdas Pophale) SiO2 
 PCOD8228965
Probable space group: P C C N
;
_chemical_formula_sum "Si O2"
_cell_formula_units_Z 40
_cell_length_a 9.097629
_cell_length_b 22.881349
_cell_length_c 8.456687
_cell_angle_alpha 90.000000
_cell_angle_beta 90.000000
_cell_angle_gamma 90.000000
_cell_volume 1760.394911
_symmetry_space_group_name_H-M "P C C N"
_symmetry_group_IT_number 56
_symmetry_cell_setting 'orthorhombic'
loop_
_space_group_symop_operation_xyz
x,y,z
1/2-x,1/2-y,z
1/2+x,-y,1/2-z
-x,1/2+y,1/2-z
-x,-y,-z
1/2+x,1/2+y,-z
1/2-x,y,1/2+z
x,1/2-y,1/2+z
loop_
_atom_site_type_symbol
_atom_site_label
_atom_site_fract_x
_atom_site_fract_y
_atom_site_fract_z
Si Si1 0.375261 0.527606 0.109421
Si Si2 0.367746 0.613703 0.576276
Si Si3 0.934381 0.630387 0.623342
Si Si4 0.674621 0.312249 0.717384
Si Si5 0.856859 0.594038 0.272107
O O1 0.236478 0.558924 0.021225
O O2 0.465920 0.578164 0.202335
O O3 0.309793 0.474124 0.211467
O O4 0.500000 0.500000 0.000000
O O5 0.298066 0.642047 0.731881
O O6 0.384217 0.665553 0.450733
O O7 0.527260 0.592417 0.629624
O O8 0.916575 0.622274 0.434871
O O9 0.780100 0.632546 0.713293
O O10 0.033246 0.688262 0.660847
O O11 0.750000 0.250000 0.700228
#
# Coordination Sequence:
#
# PCOD8228965 Si02
#       5
#     8   8   8   8   8
#     4   9  19  36  58  92 135 177 213 255 313 385
#     4  11  22  38  64  94 125 167 219 266 319 390
#     4  10  22  38  60  91 131 172 215 264 317 386
#     4  11  23  42  64  88 119 163 216 274 325 375
#     4  11  21  38  61  95 136 171 209 261 323 388
#
# _framework density 22.722176000000001
#
# number of rings (size 3 to 8) (size 9 to 14) (size 15 to 20)
#    0.000    1.600    0.000    6.600    0.000    4.800 
#    0.000   12.000    0.000    7.200    0.000    0.000 
#    0.000    0.000    0.000    0.000    0.000    0.000 
#
# Total GULP energy -495579.676441 kJ/mol
# GULP energy per Si atom -12389.491911 kJ/mol
# Density = 2.267046 g / cm^3
# Si number density = 22.722176 Si / 1000 Ang^3
#
#
#
# Elastic Constant Matrix: (Units=GPa)
#
#
# Indices 1 2 3 4 5 6 
#
# 1 143.6567 54.8019 36.2550 0.0000 0.0000 0.0000
# 2 54.8019 106.1987 41.0479 0.0000 0.0000 0.0000
# 3 36.2550 41.0479 87.3936 0.0000 0.0000 0.0000
# 4 0.0000 0.0000 0.0000 26.8648 0.0000 0.0000
# 5 0.0000 0.0000 0.0000 0.0000 38.5332 0.0000
# 6 0.0000 0.0000 0.0000 0.0000 0.0000 27.1269
#
#
#
# Elastic Compliance Matrix: (Units=1/GPa)
#
#
# Indices 1 2 3 4 5 6 
#
# 1 0.008913 -0.003873 -0.001878 0.000000 0.000000 0.000000
# 2 -0.003873 0.013188 -0.004588 0.000000 0.000000 0.000000
# 3 -0.001878 -0.004588 0.014376 0.000000 0.000000 0.000000
# 4 0.000000 0.000000 0.000000 0.037223 0.000000 0.000000
# 5 0.000000 0.000000 0.000000 0.000000 0.025952 0.000000
# 6 0.000000 0.000000 0.000000 0.000000 0.000000 0.036864
#
#
# Mechanical properties :
#
#
# Convention : Reuss Voigt Hill
#
# Bulk Modulus (GPa) = 63.29408 66.82873 65.06140
# Shear Modulus (GPa) = 30.77672 32.18125 31.47898
#
# Velocity S-wave (km/s) = 3.68432 3.76745 3.72612
# Velocity P-wave (km/s) = 6.78344 6.95701 6.87077
#
# Compressibility (1/GPa) = 0.01579927
#
# Stress axis : x y z
#
# Youngs Moduli (GPa) = 112.20087 75.82532 69.55861
#
# Poissons Ratio (x) = 0.29369 0.13064
# Poissons Ratio (y) = 0.43458 0.31910
# Poissons Ratio (z) = 0.21073 0.34785
#
# Static dielectric constant tensor:
#      x y z
#    x 4.195020 0.000000 0.000000 
#    y 0.000000 4.321050 0.000000 
#    z 0.000000 0.000000 3.932840 
# 
# 
# High freq. dielectric constant tensor:
#      x y z
#    x 1.909060 0.000000 0.000000 
#    y 0.000000 1.873050 0.000000 
#    z 0.000000 0.000000 1.885940 
# 
# From -- ./inp_files/2058.got.cif
#   From: 2010.03.12/outbox.cif.g09.slc.cpg/sg56_2_cif.got.tgz:2058.got - 2010.04.16 15:33:40.
