data_PCOD8228378
_publ_section_title
;
Structure prediction by ZEFSAII (Michael W. Deem and Ramdas Pophale) SiO2 
 PCOD8228378
Probable space group: P C C N
;
_chemical_formula_sum "Si O2"
_cell_formula_units_Z 60
_cell_length_a 25.979285
_cell_length_b 12.131377
_cell_length_c 9.389995
_cell_angle_alpha 90.000000
_cell_angle_beta 90.000000
_cell_angle_gamma 90.000000
_cell_volume 2959.393084
_symmetry_space_group_name_H-M "P C C N"
_symmetry_group_IT_number 56
_symmetry_cell_setting 'orthorhombic'
loop_
_space_group_symop_operation_xyz
x,y,z
1/2-x,1/2-y,z
1/2+x,-y,1/2-z
-x,1/2+y,1/2-z
-x,-y,-z
1/2+x,1/2+y,-z
1/2-x,y,1/2+z
x,1/2-y,1/2+z
loop_
_atom_site_type_symbol
_atom_site_label
_atom_site_fract_x
_atom_site_fract_y
_atom_site_fract_z
Si Si1 0.250000 0.750000 0.212254
Si Si2 0.660492 0.963841 0.423793
Si Si3 0.865264 0.537943 0.740355
Si Si4 0.926630 0.083173 0.472251
Si Si5 0.536498 0.852792 0.085468
Si Si6 0.726025 0.020663 0.926555
Si Si7 0.663812 0.115715 0.164699
Si Si8 0.092781 0.265364 0.659593
O O1 0.262342 0.853301 0.113791
O O2 0.199770 0.777179 0.309260
O O3 0.635244 0.995624 0.574947
O O4 0.640051 0.847218 0.367980
O O5 0.721900 0.951405 0.442250
O O6 0.646450 0.061169 0.313429
O O7 0.900995 0.450013 0.822346
O O8 0.807971 0.536472 0.805107
O O9 0.886712 0.660535 0.755059
O O10 0.886026 0.149870 0.571258
O O11 0.975465 0.160338 0.440892
O O12 0.944550 0.976174 0.558377
O O13 0.548614 0.824714 0.248408
O O14 0.567066 0.767179 0.988409
O O15 0.696042 0.022594 0.077362
#
# Coordination Sequence:
#
# PCOD8228378 Si02
#       8
#     4   8   8   8   8   8   8   8
#     4  10  20  36  62  86 118 154 208 250 298 362
#     4  11  20  36  61  92 122 159 203 245 298 366
#     4  10  22  39  59  91 123 161 201 248 300 365
#     4   9  20  40  63  84 123 161 196 251 314 358
#     4  10  20  40  63  88 120 158 202 252 310 358
#     4  10  22  38  59  88 126 164 198 248 305 356
#     4  10  20  38  63  88 118 162 199 252 306 362
#     4  11  21  38  63  89 123 160 200 253 302 360
#
# _framework density 20.274426999999999
#
# number of rings (size 3 to 8) (size 9 to 14) (size 15 to 20)
#    0.000    1.867    2.667    2.000    0.000    1.600 
#    4.800    3.333    0.000    0.000    0.000    0.000 
#    0.000    0.000    0.000    0.000    0.000    0.000 
#
# Total GULP energy -744105.441530 kJ/mol
# GULP energy per Si atom -12401.757359 kJ/mol
# Density = 2.022828 g / cm^3
# Si number density = 20.274427 Si / 1000 Ang^3
#
#
#
# Elastic Constant Matrix: (Units=GPa)
#
#
# Indices 1 2 3 4 5 6 
#
# 1 131.9259 41.2294 35.0582 0.0000 0.0000 0.0000
# 2 41.2294 57.1921 30.9984 0.0000 0.0000 0.0000
# 3 35.0582 30.9984 108.3963 0.0000 0.0000 0.0000
# 4 0.0000 0.0000 0.0000 21.3349 0.0000 0.0000
# 5 0.0000 0.0000 0.0000 0.0000 25.4469 0.0000
# 6 0.0000 0.0000 0.0000 0.0000 0.0000 35.7381
#
#
#
# Elastic Compliance Matrix: (Units=1/GPa)
#
#
# Indices 1 2 3 4 5 6 
#
# 1 0.009956 -0.006428 -0.001382 0.000000 0.000000 0.000000
# 2 -0.006428 0.024843 -0.005025 0.000000 0.000000 0.000000
# 3 -0.001382 -0.005025 0.011109 0.000000 0.000000 0.000000
# 4 0.000000 0.000000 0.000000 0.046872 0.000000 0.000000
# 5 0.000000 0.000000 0.000000 0.000000 0.039297 0.000000
# 6 0.000000 0.000000 0.000000 0.000000 0.000000 0.027981
#
#
# Mechanical properties :
#
#
# Convention : Reuss Voigt Hill
#
# Bulk Modulus (GPa) = 49.41306 56.89848 53.15577
# Shear Modulus (GPa) = 25.97732 29.18587 27.58160
#
# Velocity S-wave (km/s) = 3.58339 3.79824 3.69238
# Velocity P-wave (km/s) = 6.44561 6.88191 6.66733
#
# Compressibility (1/GPa) = 0.02023756
#
# Stress axis : x y z
#
# Youngs Moduli (GPa) = 100.43980 40.25299 90.01397
#
# Poissons Ratio (x) = 0.25876 0.12437
# Poissons Ratio (y) = 0.64567 0.45234
# Poissons Ratio (z) = 0.13878 0.20228
#
# Static dielectric constant tensor:
#      x y z
#    x 3.892440 0.000000 0.000000 
#    y 0.000000 3.365150 0.000000 
#    z 0.000000 0.000000 3.762300 
# 
# 
# High freq. dielectric constant tensor:
#      x y z
#    x 1.795700 0.000000 0.000000 
#    y 0.000000 1.764130 0.000000 
#    z 0.000000 0.000000 1.804920 
# 
# From -- ./inp_files/4967.got.cif
#   From: 2010.03.12/outbox.cif.g09.slc.cpg/sg56_3_cif.got.tgz:4967.got - 2010.04.16 15:33:40.
