data_PCOD8228122
_publ_section_title
;
Structure prediction by ZEFSAII (Michael W. Deem and Ramdas Pophale) SiO2 
 PCOD8228122
Probable space group: P C C N
;
_chemical_formula_sum "Si O2"
_cell_formula_units_Z 64
_cell_length_a 10.056510
_cell_length_b 20.680549
_cell_length_c 14.266342
_cell_angle_alpha 90.000000
_cell_angle_beta 90.000000
_cell_angle_gamma 90.000000
_cell_volume 2967.030320
_symmetry_space_group_name_H-M "P C C N"
_symmetry_group_IT_number 56
_symmetry_cell_setting 'orthorhombic'
loop_
_space_group_symop_operation_xyz
x,y,z
1/2-x,1/2-y,z
1/2+x,-y,1/2-z
-x,1/2+y,1/2-z
-x,-y,-z
1/2+x,1/2+y,-z
1/2-x,y,1/2+z
x,1/2-y,1/2+z
loop_
_atom_site_type_symbol
_atom_site_label
_atom_site_fract_x
_atom_site_fract_y
_atom_site_fract_z
Si Si1 0.180899 0.012002 0.795569
Si Si2 0.509022 0.869889 0.718201
Si Si3 0.453076 0.427519 0.278417
Si Si4 0.108031 0.745984 0.627117
Si Si5 0.303491 0.896942 0.884474
Si Si6 0.487719 0.137750 0.969096
Si Si7 0.423589 0.810232 0.320829
Si Si8 0.877978 0.708405 0.872781
O O1 0.090096 0.071793 0.830656
O O2 0.317183 0.036900 0.745482
O O3 0.224813 0.965375 0.881303
O O4 0.086591 0.971467 0.724743
O O5 0.442327 0.828243 0.634818
O O6 0.400953 0.894422 0.794040
O O7 0.616631 0.823764 0.770013
O O8 0.434742 0.409378 0.388303
O O9 0.472263 0.365971 0.211006
O O10 0.250000 0.750000 0.575006
O O11 0.005841 0.790516 0.572092
O O12 0.133514 0.775686 0.729701
O O13 0.198762 0.838436 0.880055
O O14 0.380493 0.892598 0.982876
O O15 0.380165 0.150325 0.051032
O O16 0.495800 0.756740 0.385409
O O17 0.750000 0.750000 0.885750
#
# Coordination Sequence:
#
# PCOD8228122 Si02
#       8
#     8   8   8   8   8   8   8   8
#     4  11  21  39  64  86 119 163 213 256 293 370
#     4  10  20  36  63  90 114 166 212 252 306 369
#     4  10  22  40  64  89 115 162 213 255 296 368
#     4  10  19  34  59  91 120 150 206 259 301 376
#     4  10  20  38  58  93 125 158 206 255 315 371
#     4  10  24  36  59  92 124 160 196 258 325 371
#     4   9  19  36  62  86 118 155 204 255 300 368
#     4  10  21  37  57  88 128 162 198 253 326 380
#
# _framework density 21.570388999999999
#
# number of rings (size 3 to 8) (size 9 to 14) (size 15 to 20)
#    0.000    2.000    2.500    0.750    1.750    1.500 
#    0.000    1.250    5.500    2.250    0.000    0.000 
#    0.000    0.000    0.000    0.000    0.000    0.000 
#
# Total GULP energy -793197.038656 kJ/mol
# GULP energy per Si atom -12393.703729 kJ/mol
# Density = 2.152129 g / cm^3
# Si number density = 21.570389 Si / 1000 Ang^3
#
#
#
# Elastic Constant Matrix: (Units=GPa)
#
#
# Indices 1 2 3 4 5 6 
#
# 1 80.0710 34.2428 12.2194 0.0000 0.0000 0.0000
# 2 34.2428 114.8457 21.2749 0.0000 0.0000 0.0000
# 3 12.2194 21.2749 47.7193 0.0000 0.0000 0.0000
# 4 0.0000 0.0000 0.0000 21.3138 0.0000 0.0000
# 5 0.0000 0.0000 0.0000 0.0000 13.2728 0.0000
# 6 0.0000 0.0000 0.0000 0.0000 0.0000 49.5413
#
#
#
# Elastic Compliance Matrix: (Units=1/GPa)
#
#
# Indices 1 2 3 4 5 6 
#
# 1 0.014478 -0.003957 -0.001943 0.000000 0.000000 0.000000
# 2 -0.003957 0.010573 -0.003700 0.000000 0.000000 0.000000
# 3 -0.001943 -0.003700 0.023103 0.000000 0.000000 0.000000
# 4 0.000000 0.000000 0.000000 0.046918 0.000000 0.000000
# 5 0.000000 0.000000 0.000000 0.000000 0.075342 0.000000
# 6 0.000000 0.000000 0.000000 0.000000 0.000000 0.020185
#
#
# Mechanical properties :
#
#
# Convention : Reuss Voigt Hill
#
# Bulk Modulus (GPa) = 34.53908 42.01224 38.27566
# Shear Modulus (GPa) = 22.78424 28.48552 25.63488
#
# Velocity S-wave (km/s) = 3.25356 3.63793 3.45110
# Velocity P-wave (km/s) = 5.49193 6.09632 5.80200
#
# Compressibility (1/GPa) = 0.02895271
#
# Stress axis : x y z
#
# Youngs Moduli (GPa) = 69.07241 94.58425 43.28396
#
# Poissons Ratio (x) = 0.37424 0.08411
# Poissons Ratio (y) = 0.27330 0.16017
# Poissons Ratio (z) = 0.13422 0.35000
#
# Static dielectric constant tensor:
#      x y z
#    x 3.921930 0.000000 0.000000 
#    y 0.000000 4.208670 0.000000 
#    z 0.000000 0.000000 3.507530 
# 
# 
# High freq. dielectric constant tensor:
#      x y z
#    x 1.845270 0.000000 0.000000 
#    y 0.000000 1.861660 0.000000 
#    z 0.000000 0.000000 1.802740 
# 
# From -- ./inp_files/11074.got.cif
#   From: 2010.03.12/outbox.cif.g09.slc.cpg/sg56_6_cif.got.tgz:11074.got - 2010.04.16 15:33:40.
