data_PCOD8228354
_publ_section_title
;
Structure prediction by ZEFSAII (Michael W. Deem and Ramdas Pophale) SiO2 
 PCOD8228354
Probable space group: P C C N
;
_chemical_formula_sum "Si O2"
_cell_formula_units_Z 32
_cell_length_a 10.608797
_cell_length_b 8.887327
_cell_length_c 14.284687
_cell_angle_alpha 90.000000
_cell_angle_beta 90.000000
_cell_angle_gamma 90.000000
_cell_volume 1346.815258
_symmetry_space_group_name_H-M "P C C N"
_symmetry_group_IT_number 56
_symmetry_cell_setting 'orthorhombic'
loop_
_space_group_symop_operation_xyz
x,y,z
1/2-x,1/2-y,z
1/2+x,-y,1/2-z
-x,1/2+y,1/2-z
-x,-y,-z
1/2+x,1/2+y,-z
1/2-x,y,1/2+z
x,1/2-y,1/2+z
loop_
_atom_site_type_symbol
_atom_site_label
_atom_site_fract_x
_atom_site_fract_y
_atom_site_fract_z
Si Si1 0.628284 0.194795 0.011233
Si Si2 0.372787 0.158728 0.215576
Si Si3 0.875988 0.174546 0.210286
Si Si4 0.138528 0.143161 0.491981
O O1 0.750000 0.250000 0.949560
O O2 0.624405 0.308290 0.098343
O O3 0.496751 0.206759 0.954516
O O4 0.653238 0.024450 0.047849
O O5 0.250000 0.250000 0.249675
O O6 0.496715 0.248468 0.249133
O O7 0.368255 0.135293 0.104100
O O8 0.375794 0.999661 0.265646
O O9 0.750000 0.250000 0.253871
O O10 0.250000 0.250000 0.454988
#
# Coordination Sequence:
#
# PCOD8228354 Si02
#       4
#     8   8   8   8
#     4   9  19  36  54  78 110 140 179 227 272 325
#     4  10  20  36  59  83 111 146 183 229 279 331
#     4  10  20  36  55  81 114 145 184 227 275 331
#     4   9  19  36  56  79 107 141 183 227 274 326
#
# _framework density 23.759754999999998
#
# number of rings (size 3 to 8) (size 9 to 14) (size 15 to 20)
#    0.000    2.500    0.000    1.500    0.000    2.000 
#    0.000   20.000    0.000    0.000    0.000    0.000 
#    0.000    0.000    0.000    0.000    0.000    0.000 
#
# Total GULP energy -396579.101369 kJ/mol
# GULP energy per Si atom -12393.096918 kJ/mol
# Density = 2.370568 g / cm^3
# Si number density = 23.759755 Si / 1000 Ang^3
#
#
#
# Elastic Constant Matrix: (Units=GPa)
#
#
# Indices 1 2 3 4 5 6 
#
# 1 282.1169 96.6844 -12.5407 0.0000 0.0000 0.0000
# 2 96.6844 155.4852 15.8779 0.0000 0.0000 0.0000
# 3 -12.5407 15.8779 36.2422 0.0000 0.0000 0.0000
# 4 0.0000 0.0000 0.0000 36.6824 0.0000 0.0000
# 5 0.0000 0.0000 0.0000 0.0000 -6.9795 0.0000
# 6 0.0000 0.0000 0.0000 0.0000 0.0000 59.7299
#
#
#
# Elastic Compliance Matrix: (Units=1/GPa)
#
#
# Indices 1 2 3 4 5 6 
#
# 1 0.004820 -0.003316 0.003120 0.000000 0.000000 0.000000
# 2 -0.003316 0.009014 -0.005096 0.000000 0.000000 0.000000
# 3 0.003120 -0.005096 0.030905 0.000000 0.000000 0.000000
# 4 0.000000 0.000000 0.000000 0.027261 0.000000 0.000000
# 5 0.000000 0.000000 0.000000 0.000000 -0.143276 0.000000
# 6 0.000000 0.000000 0.000000 0.000000 0.000000 0.016742
#
#
# Mechanical properties :
#
#
# Convention : Reuss Voigt Hill
#
# Bulk Modulus (GPa) = 29.27849 74.87639 52.07744
# Shear Modulus (GPa) = -153.52832 42.80806 -55.36013
#
# Velocity S-wave (km/s) = -8.04719 4.24925 -4.83224
# Velocity P-wave (km/s) = 8.60195 7.46038 3.02789
#
# Compressibility (1/GPa) = 0.03415477
#
# Stress axis : x y z
#
# Youngs Moduli (GPa) = 207.48505 110.94330 32.35771
#
# Poissons Ratio (x) = 0.36784 -0.10097
# Poissons Ratio (y) = 0.68794 0.16490
# Poissons Ratio (z) = -0.64742 0.56539
#
# Static dielectric constant tensor:
#      x y z
#    x 5.476340 0.000000 0.000000 
#    y 0.000000 4.116840 0.000000 
#    z 0.000000 0.000000 3.715090 
# 
# 
# High freq. dielectric constant tensor:
#      x y z
#    x 1.977600 0.000000 0.000000 
#    y 0.000000 1.940760 0.000000 
#    z 0.000000 0.000000 1.904100 
# 
# From -- ./inp_files/10065.got.cif
#   From: 2010.03.12/outbox.cif.g09.slc.cpg/sg56_6_cif.got.tgz:10065.got - 2010.04.16 15:33:40.
