data_PCOD8228453
_publ_section_title
;
Structure prediction by ZEFSAII (Michael W. Deem and Ramdas Pophale) SiO2 
 PCOD8228453
Probable space group: P C C N
;
_chemical_formula_sum "Si O2"
_cell_formula_units_Z 64
_cell_length_a 16.269241
_cell_length_b 10.948053
_cell_length_c 18.719554
_cell_angle_alpha 90.000000
_cell_angle_beta 90.000000
_cell_angle_gamma 90.000000
_cell_volume 3334.261678
_symmetry_space_group_name_H-M "P C C N"
_symmetry_group_IT_number 56
_symmetry_cell_setting 'orthorhombic'
loop_
_space_group_symop_operation_xyz
x,y,z
1/2-x,1/2-y,z
1/2+x,-y,1/2-z
-x,1/2+y,1/2-z
-x,-y,-z
1/2+x,1/2+y,-z
1/2-x,y,1/2+z
x,1/2-y,1/2+z
loop_
_atom_site_type_symbol
_atom_site_label
_atom_site_fract_x
_atom_site_fract_y
_atom_site_fract_z
Si Si1 0.383567 0.291574 0.026076
Si Si2 0.936144 0.625374 0.627220
Si Si3 0.225420 0.059740 0.517705
Si Si4 0.744739 0.605193 0.138073
Si Si5 0.436149 0.746393 0.723133
Si Si6 0.025334 0.116063 0.152069
Si Si7 0.797433 0.126125 0.364104
Si Si8 0.165628 0.510737 0.732322
O O1 0.343219 0.160265 0.031803
O O2 0.315922 0.396321 0.042843
O O3 0.454203 0.294944 0.086192
O O4 0.423989 0.308496 0.948447
O O5 0.849489 0.581977 0.661064
O O6 0.981069 0.716992 0.681703
O O7 0.991409 0.506662 0.616306
O O8 0.232149 0.031563 0.433590
O O9 0.194630 0.939922 0.559457
O O10 0.750000 0.750000 0.122330
O O11 0.808170 0.555710 0.195371
O O12 0.459088 0.677192 0.795791
O O13 0.385167 0.655372 0.671717
O O14 0.382591 0.863275 0.746754
O O15 0.108874 0.087574 0.193857
O O16 0.750000 0.250000 0.379321
O O17 0.747470 0.036401 0.312383
#
# Coordination Sequence:
#
# PCOD8228453 Si02
#       8
#     8   8   8   8   8   8   8   8
#     4  10  20  38  59  90 118 151 203 257 299 354
#     4  10  21  39  58  86 124 161 195 255 313 355
#     4  10  20  38  62  90 117 153 208 254 288 362
#     4  11  20  38  63  89 121 153 201 256 304 352
#     4  10  23  40  56  90 126 158 204 256 306 362
#     4  11  21  36  61  87 119 162 209 243 305 378
#     4  10  21  42  62  82 123 166 201 247 309 368
#     4  10  22  37  62  86 120 161 206 252 302 361
#
# _framework density 19.194655000000001
#
# number of rings (size 3 to 8) (size 9 to 14) (size 15 to 20)
#    0.000    1.750    3.750    1.875    0.000    4.000 
#    2.250    2.500    0.000    0.000    0.000    0.000 
#    0.000    0.000    0.000    0.000    0.000    0.000 
#
# Total GULP energy -793642.577197 kJ/mol
# GULP energy per Si atom -12400.665269 kJ/mol
# Density = 1.915097 g / cm^3
# Si number density = 19.194655 Si / 1000 Ang^3
#
#
#
# Elastic Constant Matrix: (Units=GPa)
#
#
# Indices 1 2 3 4 5 6 
#
# 1 76.7414 15.3786 35.1932 0.0000 0.0000 0.0000
# 2 15.3786 51.3497 39.3255 0.0000 0.0000 0.0000
# 3 35.1932 39.3255 100.6683 0.0000 0.0000 0.0000
# 4 0.0000 0.0000 0.0000 32.7364 0.0000 0.0000
# 5 0.0000 0.0000 0.0000 0.0000 34.4645 0.0000
# 6 0.0000 0.0000 0.0000 0.0000 0.0000 24.7231
#
#
#
# Elastic Compliance Matrix: (Units=1/GPa)
#
#
# Indices 1 2 3 4 5 6 
#
# 1 0.015537 -0.000704 -0.005157 0.000000 0.000000 0.000000
# 2 -0.000704 0.027819 -0.010621 0.000000 0.000000 0.000000
# 3 -0.005157 -0.010621 0.015886 0.000000 0.000000 0.000000
# 4 0.000000 0.000000 0.000000 0.030547 0.000000 0.000000
# 5 0.000000 0.000000 0.000000 0.000000 0.029015 0.000000
# 6 0.000000 0.000000 0.000000 0.000000 0.000000 0.040448
#
#
# Mechanical properties :
#
#
# Convention : Reuss Voigt Hill
#
# Bulk Modulus (GPa) = 38.05504 45.39490 41.72497
# Shear Modulus (GPa) = 24.87872 27.64227 26.26049
#
# Velocity S-wave (km/s) = 3.60408 3.79899 3.70282
# Velocity P-wave (km/s) = 6.09821 6.55318 6.32978
#
# Compressibility (1/GPa) = 0.02627773
#
# Stress axis : x y z
#
# Youngs Moduli (GPa) = 64.36412 35.94614 62.95043
#
# Poissons Ratio (x) = 0.02530 0.32461
# Poissons Ratio (y) = 0.04531 0.66862
# Poissons Ratio (z) = 0.33190 0.38180
#
# Static dielectric constant tensor:
#      x y z
#    x 3.695320 0.000000 0.000000 
#    y 0.000000 3.343780 0.000000 
#    z 0.000000 0.000000 3.424700 
# 
# 
# High freq. dielectric constant tensor:
#      x y z
#    x 1.752660 0.000000 0.000000 
#    y 0.000000 1.735190 0.000000 
#    z 0.000000 0.000000 1.749060 
# 
# From -- ./inp_files/16347.got.cif
#   From: 2010.03.12/outbox.cif.g09.slc.cpg/sg56_9_cif.got.tgz:16347.got - 2010.04.16 15:33:40.
