data_PCOD8228275
_publ_section_title
;
Structure prediction by ZEFSAII (Michael W. Deem and Ramdas Pophale) SiO2 
 PCOD8228275
Probable space group: P C C N
;
_chemical_formula_sum "Si O2"
_cell_formula_units_Z 60
_cell_length_a 27.506867
_cell_length_b 11.571669
_cell_length_c 8.770197
_cell_angle_alpha 90.000000
_cell_angle_beta 90.000000
_cell_angle_gamma 90.000000
_cell_volume 2791.556864
_symmetry_space_group_name_H-M "P C C N"
_symmetry_group_IT_number 56
_symmetry_cell_setting 'orthorhombic'
loop_
_space_group_symop_operation_xyz
x,y,z
1/2-x,1/2-y,z
1/2+x,-y,1/2-z
-x,1/2+y,1/2-z
-x,-y,-z
1/2+x,1/2+y,-z
1/2-x,y,1/2+z
x,1/2-y,1/2+z
loop_
_atom_site_type_symbol
_atom_site_label
_atom_site_fract_x
_atom_site_fract_y
_atom_site_fract_z
Si Si1 0.540483 0.368841 0.777191
Si Si2 0.361497 0.507379 0.659222
Si Si3 0.403163 0.724378 0.504942
Si Si4 0.774704 0.409184 0.981860
Si Si5 0.068021 0.174705 0.766403
Si Si6 0.750000 0.250000 0.738540
Si Si7 0.082783 0.093083 0.112641
Si Si8 0.163297 0.941880 0.992772
O O1 0.550806 0.294293 0.929287
O O2 0.581516 0.335252 0.653455
O O3 0.487404 0.340737 0.711921
O O4 0.542155 0.503731 0.825752
O O5 0.389906 0.624871 0.624594
O O6 0.316234 0.492214 0.537362
O O7 0.399380 0.402469 0.652169
O O8 0.338871 0.503358 0.826603
O O9 0.357474 0.811494 0.485729
O O10 0.787724 0.320160 0.843561
O O11 0.719440 0.448932 0.955983
O O12 0.781573 0.339865 0.138778
O O13 0.085600 0.305369 0.737013
O O14 0.070921 0.140897 0.944089
O O15 0.133496 0.022349 0.109850
#
# Coordination Sequence:
#
# PCOD8228275 Si02
#       8
#     8   8   8   8   8   4   8   8
#     4  11  24  41  71  96 136 176 218 280 338 406
#     4  11  24  39  62  94 134 172 217 280 321 400
#     4  11  22  39  65 100 133 169 219 267 344 406
#     4  11  21  36  60  91 130 170 212 263 343 390
#     4  11  25  46  66  93 134 176 233 274 333 392
#     4  10  20  32  60  92 124 166 206 264 330 408
#     4  10  25  44  68  94 130 177 227 279 330 395
#     4  10  22  43  62  96 133 171 215 277 330 405
#
# _framework density 21.493383000000001
#
# number of rings (size 3 to 8) (size 9 to 14) (size 15 to 20)
#    0.000    1.333    2.667    2.800    3.733    2.667 
#    0.000    0.667    0.000    3.200    0.000    0.000 
#    0.000    0.000    0.000    0.000    0.000    0.000 
#
# Total GULP energy -743724.193291 kJ/mol
# GULP energy per Si atom -12395.403222 kJ/mol
# Density = 2.144446 g / cm^3
# Si number density = 21.493383 Si / 1000 Ang^3
#
#
#
# Elastic Constant Matrix: (Units=GPa)
#
#
# Indices 1 2 3 4 5 6 
#
# 1 125.3088 46.2810 20.7532 0.0000 0.0000 0.0000
# 2 46.2810 128.9567 34.9998 0.0000 0.0000 0.0000
# 3 20.7532 34.9998 76.8503 0.0000 0.0000 0.0000
# 4 0.0000 0.0000 0.0000 38.3171 0.0000 0.0000
# 5 0.0000 0.0000 0.0000 0.0000 28.8581 0.0000
# 6 0.0000 0.0000 0.0000 0.0000 0.0000 25.7085
#
#
#
# Elastic Compliance Matrix: (Units=1/GPa)
#
#
# Indices 1 2 3 4 5 6 
#
# 1 0.009285 -0.003026 -0.001129 0.000000 0.000000 0.000000
# 2 -0.003026 0.009834 -0.003662 0.000000 0.000000 0.000000
# 3 -0.001129 -0.003662 0.014985 0.000000 0.000000 0.000000
# 4 0.000000 0.000000 0.000000 0.026098 0.000000 0.000000
# 5 0.000000 0.000000 0.000000 0.000000 0.034652 0.000000
# 6 0.000000 0.000000 0.000000 0.000000 0.000000 0.038898
#
#
# Mechanical properties :
#
#
# Convention : Reuss Voigt Hill
#
# Bulk Modulus (GPa) = 54.14045 59.46488 56.80267
# Shear Modulus (GPa) = 32.14561 33.84887 32.99724
#
# Velocity S-wave (km/s) = 3.87150 3.97274 3.92245
# Velocity P-wave (km/s) = 6.72523 6.98357 6.85562
#
# Compressibility (1/GPa) = 0.01847048
#
# Stress axis : x y z
#
# Youngs Moduli (GPa) = 107.70265 101.68554 66.73366
#
# Poissons Ratio (x) = 0.30767 0.07537
# Poissons Ratio (y) = 0.32588 0.24436
# Poissons Ratio (z) = 0.12163 0.37234
#
# Static dielectric constant tensor:
#      x y z
#    x 3.868610 0.000000 0.000000 
#    y 0.000000 3.907830 0.000000 
#    z 0.000000 0.000000 3.900350 
# 
# 
# High freq. dielectric constant tensor:
#      x y z
#    x 1.845660 0.000000 0.000000 
#    y 0.000000 1.819740 0.000000 
#    z 0.000000 0.000000 1.850870 
# 
# From -- ./inp_files/5185.got.cif
#   From: 2010.03.12/outbox.cif.g09.slc.cpg/sg56_3_cif.got.tgz:5185.got - 2010.04.16 15:33:40.
