data_PCOD8228608
_publ_section_title
;
Structure prediction by ZEFSAII (Michael W. Deem and Ramdas Pophale) SiO2 
 PCOD8228608
Probable space group: P C C N
;
_chemical_formula_sum "Si O2"
_cell_formula_units_Z 60
_cell_length_a 8.701882
_cell_length_b 11.751972
_cell_length_c 28.982216
_cell_angle_alpha 90.000000
_cell_angle_beta 90.000000
_cell_angle_gamma 90.000000
_cell_volume 2963.845267
_symmetry_space_group_name_H-M "P C C N"
_symmetry_group_IT_number 56
_symmetry_cell_setting 'orthorhombic'
loop_
_space_group_symop_operation_xyz
x,y,z
1/2-x,1/2-y,z
1/2+x,-y,1/2-z
-x,1/2+y,1/2-z
-x,-y,-z
1/2+x,1/2+y,-z
1/2-x,y,1/2+z
x,1/2-y,1/2+z
loop_
_atom_site_type_symbol
_atom_site_label
_atom_site_fract_x
_atom_site_fract_y
_atom_site_fract_z
Si Si1 0.125579 0.580524 0.782930
Si Si2 0.250000 0.250000 0.426765
Si Si3 0.713395 0.377914 0.613616
Si Si4 0.411587 0.312654 0.783145
Si Si5 0.399761 0.605034 0.709850
Si Si6 0.462337 0.047395 0.950299
Si Si7 0.440163 0.069862 0.374269
Si Si8 0.773791 0.117489 0.384950
O O1 0.156825 0.627048 0.833792
O O2 0.276467 0.593048 0.751101
O O3 0.969017 0.644339 0.766592
O O4 0.068385 0.450223 0.780807
O O5 0.160477 0.151737 0.455595
O O6 0.369799 0.186184 0.394168
O O7 0.750000 0.250000 0.596169
O O8 0.591493 0.440832 0.580774
O O9 0.866273 0.452776 0.609341
O O10 0.250000 0.250000 0.778875
O O11 0.555084 0.235324 0.799343
O O12 0.412567 0.418519 0.819004
O O13 0.336216 0.557800 0.661618
O O14 0.617677 0.096005 0.928390
O O15 0.500000 0.000000 0.000000
O O16 0.611202 0.057637 0.393287
O O17 0.750000 0.250000 0.377277
#
# Coordination Sequence:
#
# PCOD8228608 Si02
#       8
#     8   4   8   8   8   8   8   8
#     4  12  24  38  59  90 136 182 220 266 333 404
#     4  10  20  42  74 102 128 170 224 280 342 388
#     4  11  25  47  63  92 139 185 218 264 347 415
#     4  12  22  36  60  95 131 178 232 274 322 388
#     4  12  22  38  60  95 133 175 224 275 321 392
#     4  11  25  47  73 101 134 171 223 286 343 402
#     4  11  21  39  71  99 129 177 227 282 329 390
#     4  12  21  41  70 105 131 162 228 292 332 385
#
# _framework density 20.243973
#
# number of rings (size 3 to 8) (size 9 to 14) (size 15 to 20)
#    0.000    0.533    6.000    3.600    0.000    0.533 
#    4.800    1.333    0.000    0.000    0.000    0.000 
#    0.000    0.000    0.000    0.000    0.000    0.000 
#
# Total GULP energy -743682.683909 kJ/mol
# GULP energy per Si atom -12394.711398 kJ/mol
# Density = 2.019790 g / cm^3
# Si number density = 20.243973 Si / 1000 Ang^3
#
#
#
# Elastic Constant Matrix: (Units=GPa)
#
#
# Indices 1 2 3 4 5 6 
#
# 1 95.5110 29.1694 44.6676 0.0000 0.0000 0.0000
# 2 29.1694 102.1025 29.4557 0.0000 0.0000 0.0000
# 3 44.6676 29.4557 118.7886 0.0000 0.0000 0.0000
# 4 0.0000 0.0000 0.0000 22.3866 0.0000 0.0000
# 5 0.0000 0.0000 0.0000 0.0000 28.4482 0.0000
# 6 0.0000 0.0000 0.0000 0.0000 0.0000 25.1862
#
#
#
# Elastic Compliance Matrix: (Units=1/GPa)
#
#
# Indices 1 2 3 4 5 6 
#
# 1 0.013287 -0.002536 -0.004367 0.000000 0.000000 0.000000
# 2 -0.002536 0.011033 -0.001782 0.000000 0.000000 0.000000
# 3 -0.004367 -0.001782 0.010502 0.000000 0.000000 0.000000
# 4 0.000000 0.000000 0.000000 0.044670 0.000000 0.000000
# 5 0.000000 0.000000 0.000000 0.000000 0.035152 0.000000
# 6 0.000000 0.000000 0.000000 0.000000 0.000000 0.039704
#
#
# Mechanical properties :
#
#
# Convention : Reuss Voigt Hill
#
# Bulk Modulus (GPa) = 57.30293 58.10971 57.70632
# Shear Modulus (GPa) = 28.16334 29.41150 28.78742
#
# Velocity S-wave (km/s) = 3.73392 3.81576 3.77506
# Velocity P-wave (km/s) = 6.85253 6.94121 6.89701
#
# Compressibility (1/GPa) = 0.01745111
#
# Stress axis : x y z
#
# Youngs Moduli (GPa) = 75.26155 90.63956 95.21547
#
# Poissons Ratio (x) = 0.22986 0.41585
# Poissons Ratio (y) = 0.19086 0.16969
# Poissons Ratio (z) = 0.32870 0.16153
#
# Static dielectric constant tensor:
#      x y z
#    x 3.941840 0.000000 0.000000 
#    y 0.000000 3.826860 0.000000 
#    z 0.000000 0.000000 3.411070 
# 
# 
# High freq. dielectric constant tensor:
#      x y z
#    x 1.810340 0.000000 0.000000 
#    y 0.000000 1.792030 0.000000 
#    z 0.000000 0.000000 1.763230 
# 
# From -- ./inp_files/22125.got.cif
#   From: 2010.03.12/outbox.cif.g09.slc.cpg/sg56_12_cif.got.tgz:22125.got - 2010.04.16 15:33:40.
