data_PCOD8228951
_publ_section_title
;
Structure prediction by ZEFSAII (Michael W. Deem and Ramdas Pophale) SiO2 
 PCOD8228951
Probable space group: P C C N
;
_chemical_formula_sum "Si O2"
_cell_formula_units_Z 48
_cell_length_a 12.598089
_cell_length_b 11.570764
_cell_length_c 17.307440
_cell_angle_alpha 90.000000
_cell_angle_beta 90.000000
_cell_angle_gamma 90.000000
_cell_volume 2522.897129
_symmetry_space_group_name_H-M "P C C N"
_symmetry_group_IT_number 56
_symmetry_cell_setting 'orthorhombic'
loop_
_space_group_symop_operation_xyz
x,y,z
1/2-x,1/2-y,z
1/2+x,-y,1/2-z
-x,1/2+y,1/2-z
-x,-y,-z
1/2+x,1/2+y,-z
1/2-x,y,1/2+z
x,1/2-y,1/2+z
loop_
_atom_site_type_symbol
_atom_site_label
_atom_site_fract_x
_atom_site_fract_y
_atom_site_fract_z
Si Si1 0.144863 0.607584 0.680823
Si Si2 0.894769 0.541042 0.463335
Si Si3 0.633639 0.788740 0.917296
Si Si4 0.621945 0.141024 0.860960
Si Si5 0.827384 0.014916 0.511548
Si Si6 0.467902 0.559630 0.339789
O O1 0.117940 0.501915 0.624423
O O2 0.092308 0.724524 0.646815
O O3 0.271823 0.616376 0.688262
O O4 0.099378 0.584364 0.764620
O O5 0.908829 0.678554 0.462532
O O6 0.800002 0.493805 0.518224
O O7 0.000000 0.500000 0.500000
O O8 0.750000 0.750000 0.883379
O O9 0.552621 0.835171 0.851542
O O10 0.635806 0.890816 0.980047
O O11 0.528661 0.061200 0.827608
O O12 0.641180 0.114691 0.951142
O O13 0.883666 0.047455 0.590892
#
# Coordination Sequence:
#
# PCOD8228951 Si02
#       6
#     8   8   8   8   8   8
#     4  10  23  38  57  88 122 155 188 254 300 353
#     4  10  22  37  59  88 125 153 194 248 305 346
#     4   9  19  38  60  86 116 154 198 247 295 356
#     4   9  20  42  58  79 120 153 196 240 297 353
#     4   9  20  40  64  84 110 162 204 239 290 372
#     4  11  22  37  67  86 115 160 207 242 304 361
#
# _framework density 19.025746000000002
#
# number of rings (size 3 to 8) (size 9 to 14) (size 15 to 20)
#    0.000    2.333    0.000    3.000    7.000    1.333 
#    3.000    0.000    0.000    0.000    0.000    0.000 
#    0.000    0.000    0.000    0.000    0.000    0.000 
#
# Total GULP energy -594994.569604 kJ/mol
# GULP energy per Si atom -12395.720200 kJ/mol
# Density = 1.898244 g / cm^3
# Si number density = 19.025746 Si / 1000 Ang^3
#
#
#
# Elastic Constant Matrix: (Units=GPa)
#
#
# Indices 1 2 3 4 5 6 
#
# 1 116.4428 41.6599 64.4031 0.0000 0.0000 0.0000
# 2 41.6599 89.0022 38.7075 0.0000 0.0000 0.0000
# 3 64.4031 38.7075 99.4544 0.0000 0.0000 0.0000
# 4 0.0000 0.0000 0.0000 16.9506 0.0000 0.0000
# 5 0.0000 0.0000 0.0000 0.0000 28.9487 0.0000
# 6 0.0000 0.0000 0.0000 0.0000 0.0000 25.6382
#
#
#
# Elastic Compliance Matrix: (Units=1/GPa)
#
#
# Indices 1 2 3 4 5 6 
#
# 1 0.014082 -0.003160 -0.007889 0.000000 0.000000 0.000000
# 2 -0.003160 0.014234 -0.003493 0.000000 0.000000 0.000000
# 3 -0.007889 -0.003493 0.016523 0.000000 0.000000 0.000000
# 4 0.000000 0.000000 0.000000 0.058995 0.000000 0.000000
# 5 0.000000 0.000000 0.000000 0.000000 0.034544 0.000000
# 6 0.000000 0.000000 0.000000 0.000000 0.000000 0.039004
#
#
# Mechanical properties :
#
#
# Convention : Reuss Voigt Hill
#
# Bulk Modulus (GPa) = 63.47680 66.04892 64.76286
# Shear Modulus (GPa) = 23.61624 24.98279 24.29951
#
# Velocity S-wave (km/s) = 3.52700 3.62761 3.57766
# Velocity P-wave (km/s) = 7.07265 7.23443 7.15400
#
# Compressibility (1/GPa) = 0.01575379
#
# Stress axis : x y z
#
# Youngs Moduli (GPa) = 71.01336 70.25282 60.52170
#
# Poissons Ratio (x) = 0.22203 0.47745
# Poissons Ratio (y) = 0.22444 0.21142
# Poissons Ratio (z) = 0.56021 0.24542
#
# Static dielectric constant tensor:
#      x y z
#    x 3.780230 0.000000 0.000000 
#    y 0.000000 4.022410 0.000000 
#    z 0.000000 0.000000 3.067290 
# 
# 
# High freq. dielectric constant tensor:
#      x y z
#    x 1.751530 0.000000 0.000000 
#    y 0.000000 1.755280 0.000000 
#    z 0.000000 0.000000 1.707150 
# 
# From -- ./inp_files/15615.got.cif
#   From: 2010.03.12/outbox.cif.g09.slc.cpg/sg56_8_cif.got.tgz:15615.got - 2010.04.16 15:33:40.
