data_PCOD8228832
_publ_section_title
;
Structure prediction by ZEFSAII (Michael W. Deem and Ramdas Pophale) SiO2 
 PCOD8228832
Probable space group: P C C N
;
_chemical_formula_sum "Si O2"
_cell_formula_units_Z 32
_cell_length_a 9.167094
_cell_length_b 11.813910
_cell_length_c 14.252433
_cell_angle_alpha 90.000000
_cell_angle_beta 90.000000
_cell_angle_gamma 90.000000
_cell_volume 1543.527427
_symmetry_space_group_name_H-M "P C C N"
_symmetry_group_IT_number 56
_symmetry_cell_setting 'orthorhombic'
loop_
_space_group_symop_operation_xyz
x,y,z
1/2-x,1/2-y,z
1/2+x,-y,1/2-z
-x,1/2+y,1/2-z
-x,-y,-z
1/2+x,1/2+y,-z
1/2-x,y,1/2+z
x,1/2-y,1/2+z
loop_
_atom_site_type_symbol
_atom_site_label
_atom_site_fract_x
_atom_site_fract_y
_atom_site_fract_z
Si Si1 0.580204 0.253993 0.541585
Si Si2 0.098522 0.308225 0.365072
Si Si3 0.420622 0.599664 0.290664
Si Si4 0.100565 0.554687 0.323045
O O1 0.750000 0.250000 0.511434
O O2 0.476056 0.254450 0.452312
O O3 0.548174 0.368693 0.600691
O O4 0.536691 0.148254 0.607419
O O5 0.250000 0.250000 0.339410
O O6 0.128856 0.441401 0.385644
O O7 0.989555 0.301220 0.275272
O O8 0.247821 0.598054 0.273830
O O9 0.488561 0.477246 0.262009
#
# Coordination Sequence:
#
# PCOD8228832 Si02
#       4
#     8   8   8   8
#     4  10  21  41  59  88 128 163 202 257 307 358
#     4  10  23  38  61  94 118 160 206 252 303 368
#     4   9  22  38  65  87 122 161 205 251 305 368
#     4   9  21  40  60  91 119 162 201 252 306 362
#
# _framework density 20.731732999999998
#
# number of rings (size 3 to 8) (size 9 to 14) (size 15 to 20)
#    1.500    1.000    0.000    0.750    3.500    6.000 
#    0.000    2.500    0.000    0.000    0.000    0.000 
#    0.000    0.000    0.000    0.000    0.000    0.000 
#
# Total GULP energy -396531.605344 kJ/mol
# GULP energy per Si atom -12391.612667 kJ/mol
# Density = 2.068455 g / cm^3
# Si number density = 20.731733 Si / 1000 Ang^3
#
#
#
# Elastic Constant Matrix: (Units=GPa)
#
#
# Indices 1 2 3 4 5 6 
#
# 1 80.8278 -11.3388 48.4825 0.0000 0.0000 0.0000
# 2 -11.3388 13.2778 -12.9829 0.0000 0.0000 0.0000
# 3 48.4825 -12.9829 80.6817 0.0000 0.0000 0.0000
# 4 0.0000 0.0000 0.0000 33.0274 0.0000 0.0000
# 5 0.0000 0.0000 0.0000 0.0000 30.9628 0.0000
# 6 0.0000 0.0000 0.0000 0.0000 0.0000 40.7144
#
#
#
# Elastic Compliance Matrix: (Units=1/GPa)
#
#
# Indices 1 2 3 4 5 6 
#
# 1 0.019772 0.006251 -0.010875 0.000000 0.000000 0.000000
# 2 0.006251 0.091352 0.010944 0.000000 0.000000 0.000000
# 3 -0.010875 0.010944 0.020691 0.000000 0.000000 0.000000
# 4 0.000000 0.000000 0.000000 0.030278 0.000000 0.000000
# 5 0.000000 0.000000 0.000000 0.000000 0.032297 0.000000
# 6 0.000000 0.000000 0.000000 0.000000 0.000000 0.024561
#
#
# Mechanical properties :
#
#
# Convention : Reuss Voigt Hill
#
# Bulk Modulus (GPa) = 6.92265 24.78987 15.85626
# Shear Modulus (GPa) = 19.64915 30.98269 25.31592
#
# Velocity S-wave (km/s) = 3.08195 3.87002 3.49824
# Velocity P-wave (km/s) = 4.00137 5.65268 4.89713
#
# Compressibility (1/GPa) = 0.14445331
#
# Stress axis : x y z
#
# Youngs Moduli (GPa) = 50.57582 10.94664 48.33123
#
# Poissons Ratio (x) = -0.06843 0.52563
# Poissons Ratio (y) = -0.31615 -0.52892
# Poissons Ratio (z) = 0.55004 -0.11980
#
# Static dielectric constant tensor:
#      x y z
#    x 3.613640 0.000000 0.000000 
#    y 0.000000 3.759420 0.000000 
#    z 0.000000 0.000000 3.456060 
# 
# 
# High freq. dielectric constant tensor:
#      x y z
#    x 1.807090 0.000000 0.000000 
#    y 0.000000 1.810640 0.000000 
#    z 0.000000 0.000000 1.790570 
# 
# From -- ./inp_files/7513.got.cif
#   From: 2010.03.12/outbox.cif.g09.slc.cpg/sg56_4_cif.got.tgz:7513.got - 2010.04.16 15:33:40.
