data_PCOD8228300
_publ_section_title
;
Structure prediction by ZEFSAII (Michael W. Deem and Ramdas Pophale) SiO2 
 PCOD8228300
Probable space group: P C C N
;
_chemical_formula_sum "Si O2"
_cell_formula_units_Z 48
_cell_length_a 18.175725
_cell_length_b 9.207384
_cell_length_c 15.190164
_cell_angle_alpha 90.000000
_cell_angle_beta 90.000000
_cell_angle_gamma 90.000000
_cell_volume 2542.087306
_symmetry_space_group_name_H-M "P C C N"
_symmetry_group_IT_number 56
_symmetry_cell_setting 'orthorhombic'
loop_
_space_group_symop_operation_xyz
x,y,z
1/2-x,1/2-y,z
1/2+x,-y,1/2-z
-x,1/2+y,1/2-z
-x,-y,-z
1/2+x,1/2+y,-z
1/2-x,y,1/2+z
x,1/2-y,1/2+z
loop_
_atom_site_type_symbol
_atom_site_label
_atom_site_fract_x
_atom_site_fract_y
_atom_site_fract_z
Si Si1 0.092665 0.419508 0.171210
Si Si2 0.423407 0.580997 0.845964
Si Si3 0.665033 0.416393 0.483719
Si Si4 0.334967 0.916393 0.516281
Si Si5 0.576593 0.419003 0.654036
Si Si6 0.407335 0.419508 0.171210
O O1 0.109919 0.491392 0.265038
O O2 0.147588 0.485821 0.100140
O O3 0.108286 0.250000 0.179315
O O4 0.009412 0.453288 0.141707
O O5 0.409152 0.750000 0.826955
O O6 0.509412 0.546713 0.858293
O O7 0.382442 0.528257 0.933662
O O8 0.645033 0.250000 0.461278
O O9 0.750000 0.433643 0.508816
O O10 0.617558 0.471743 0.566338
O O11 0.352412 0.014179 0.600140
O O12 0.609919 0.508608 0.734962
#
# Coordination Sequence:
#
# PCOD8228300 Si02
#       6
#     8   8   8   8   8   8
#     4  10  20  34  55  81 107 136 172 219 268 310
#     4   9  19  36  56  78 105 139 179 217 256 310
#     4  10  21  36  54  76 104 140 178 215 258 312
#     4  10  21  36  54  76 104 140 178 215 258 312
#     4   9  19  36  56  78 105 139 179 217 256 310
#     4  10  20  34  55  81 107 136 172 219 268 310
#
# _framework density 18.882121999999999
#
# number of rings (size 3 to 8) (size 9 to 14) (size 15 to 20)
#    0.000    2.333    0.000    2.000    0.000    4.667 
#    0.000    3.333    0.000    0.000    0.000    0.000 
#    0.000    0.000    0.000    0.000    0.000    0.000 
#
# Total GULP energy -595475.351193 kJ/mol
# GULP energy per Si atom -12405.736483 kJ/mol
# Density = 1.883915 g / cm^3
# Si number density = 18.882122 Si / 1000 Ang^3
#
#
#
# Elastic Constant Matrix: (Units=GPa)
#
#
# Indices 1 2 3 4 5 6 
#
# 1 44.3983 20.7864 28.1197 0.0000 0.0000 0.0000
# 2 20.7864 69.3371 47.5679 0.0000 0.0000 0.0000
# 3 28.1197 47.5679 106.4964 0.0000 0.0000 0.0000
# 4 0.0000 0.0000 0.0000 28.9651 0.0000 0.0000
# 5 0.0000 0.0000 0.0000 0.0000 19.7841 0.0000
# 6 0.0000 0.0000 0.0000 0.0000 0.0000 26.0744
#
#
#
# Elastic Compliance Matrix: (Units=1/GPa)
#
#
# Indices 1 2 3 4 5 6 
#
# 1 0.028117 -0.004810 -0.005276 0.000000 0.000000 0.000000
# 2 -0.004810 0.021617 -0.008386 0.000000 0.000000 0.000000
# 3 -0.005276 -0.008386 0.014528 0.000000 0.000000 0.000000
# 4 0.000000 0.000000 0.000000 0.034524 0.000000 0.000000
# 5 0.000000 0.000000 0.000000 0.000000 0.050546 0.000000
# 6 0.000000 0.000000 0.000000 0.000000 0.000000 0.038352
#
#
# Mechanical properties :
#
#
# Convention : Reuss Voigt Hill
#
# Bulk Modulus (GPa) = 36.60290 45.90887 41.25588
# Shear Modulus (GPa) = 21.39200 23.21524 22.30362
#
# Velocity S-wave (km/s) = 3.36954 3.51020 3.44059
# Velocity P-wave (km/s) = 5.87924 6.38709 6.13842
#
# Compressibility (1/GPa) = 0.02732024
#
# Stress axis : x y z
#
# Youngs Moduli (GPa) = 35.56624 46.25999 68.83031
#
# Poissons Ratio (x) = 0.22250 0.36313
# Poissons Ratio (y) = 0.17106 0.57718
# Poissons Ratio (z) = 0.18764 0.38791
#
# Static dielectric constant tensor:
#      x y z
#    x 3.359350 0.000000 0.000000 
#    y 0.000000 3.422860 0.000000 
#    z 0.000000 0.000000 3.465170 
# 
# 
# High freq. dielectric constant tensor:
#      x y z
#    x 1.726340 0.000000 0.000000 
#    y 0.000000 1.732230 0.000000 
#    z 0.000000 0.000000 1.740360 
# 
# From -- ./inp_files/10657.got.cif
#   From: 2010.03.12/outbox.cif.g09.slc.cpg/sg56_6_cif.got.tgz:10657.got - 2010.04.16 15:33:40.
