data_PCOD8228699
_publ_section_title
;
Structure prediction by ZEFSAII (Michael W. Deem and Ramdas Pophale) SiO2 
 PCOD8228699
Probable space group: P C C N
;
_chemical_formula_sum "Si O2"
_cell_formula_units_Z 60
_cell_length_a 16.091608
_cell_length_b 11.015360
_cell_length_c 18.340752
_cell_angle_alpha 90.000000
_cell_angle_beta 90.000000
_cell_angle_gamma 90.000000
_cell_volume 3250.987338
_symmetry_space_group_name_H-M "P C C N"
_symmetry_group_IT_number 56
_symmetry_cell_setting 'orthorhombic'
loop_
_space_group_symop_operation_xyz
x,y,z
1/2-x,1/2-y,z
1/2+x,-y,1/2-z
-x,1/2+y,1/2-z
-x,-y,-z
1/2+x,1/2+y,-z
1/2-x,y,1/2+z
x,1/2-y,1/2+z
loop_
_atom_site_type_symbol
_atom_site_label
_atom_site_fract_x
_atom_site_fract_y
_atom_site_fract_z
Si Si1 0.722905 0.067917 0.558723
Si Si2 0.510524 0.843919 0.064839
Si Si3 0.535506 0.995356 0.382556
Si Si4 0.750000 0.250000 0.433066
Si Si5 0.896256 0.232489 0.829391
Si Si6 0.902770 0.624147 0.517736
Si Si7 0.413237 0.901262 0.929258
Si Si8 0.403991 0.684312 0.831474
O O1 0.715814 0.140472 0.482909
O O2 0.818367 0.057270 0.580182
O O3 0.675816 0.140827 0.622447
O O4 0.682161 0.934510 0.548965
O O5 0.482915 0.787800 0.141895
O O6 0.590417 0.769557 0.031956
O O7 0.531216 0.981629 0.081794
O O8 0.433362 0.839667 0.007371
O O9 0.591752 0.904222 0.431252
O O10 0.475433 0.918390 0.329548
O O11 0.593950 0.085030 0.334273
O O12 0.483024 0.072654 0.440476
O O13 0.675541 0.287520 0.380014
O O14 0.876093 0.280370 0.749208
O O15 0.440192 0.805395 0.868192
#
# Coordination Sequence:
#
# PCOD8228699 Si02
#       8
#     8   8   8   4   8   8   8   8
#     4  11  20  36  58  82 112 146 186 241 282 328
#     4  10  21  38  55  82 113 148 192 228 277 338
#     4   9  18  34  55  79 104 147 183 230 274 334
#     4  12  20  34  56  84 110 138 184 240 276 320
#     4  11  23  35  55  84 113 145 184 231 285 339
#     4   9  17  34  58  78 105 145 192 226 272 336
#     4  11  21  35  57  81 116 148 181 241 282 326
#     4  11  22  35  56  82 116 145 188 231 291 335
#
# _framework density 18.455929999999999
#
# number of rings (size 3 to 8) (size 9 to 14) (size 15 to 20)
#    0.000    1.600    5.333    0.000    3.733    0.533 
#    0.000    0.000    0.000    0.000    0.000    0.000 
#    0.000    0.000    0.000    0.000    0.000    0.000 
#
# Total GULP energy -743761.663225 kJ/mol
# GULP energy per Si atom -12396.027720 kJ/mol
# Density = 1.841392 g / cm^3
# Si number density = 18.455930 Si / 1000 Ang^3
#
#
#
# Elastic Constant Matrix: (Units=GPa)
#
#
# Indices 1 2 3 4 5 6 
#
# 1 66.9575 28.6944 35.3020 0.0000 0.0000 0.0000
# 2 28.6944 77.3433 35.7011 0.0000 0.0000 0.0000
# 3 35.3020 35.7011 117.8257 0.0000 0.0000 0.0000
# 4 0.0000 0.0000 0.0000 21.6414 0.0000 0.0000
# 5 0.0000 0.0000 0.0000 0.0000 18.4204 0.0000
# 6 0.0000 0.0000 0.0000 0.0000 0.0000 21.0464
#
#
#
# Elastic Compliance Matrix: (Units=1/GPa)
#
#
# Indices 1 2 3 4 5 6 
#
# 1 0.019413 -0.005252 -0.004225 0.000000 0.000000 0.000000
# 2 -0.005252 0.016453 -0.003412 0.000000 0.000000 0.000000
# 3 -0.004225 -0.003412 0.010787 0.000000 0.000000 0.000000
# 4 0.000000 0.000000 0.000000 0.046208 0.000000 0.000000
# 5 0.000000 0.000000 0.000000 0.000000 0.054288 0.000000
# 6 0.000000 0.000000 0.000000 0.000000 0.000000 0.047514
#
#
# Mechanical properties :
#
#
# Convention : Reuss Voigt Hill
#
# Bulk Modulus (GPa) = 47.90380 51.28017 49.59198
# Shear Modulus (GPa) = 21.98791 23.05023 22.51907
#
# Velocity S-wave (km/s) = 3.45537 3.53786 3.49686
# Velocity P-wave (km/s) = 6.47546 6.67339 6.57517
#
# Compressibility (1/GPa) = 0.02087517
#
# Stress axis : x y z
#
# Youngs Moduli (GPa) = 51.51145 60.78054 92.70687
#
# Poissons Ratio (x) = 0.31922 0.39169
# Poissons Ratio (y) = 0.27054 0.31627
# Poissons Ratio (z) = 0.21764 0.20736
#
# Static dielectric constant tensor:
#      x y z
#    x 3.191620 0.000000 0.000000 
#    y 0.000000 3.486790 0.000000 
#    z 0.000000 0.000000 3.237400 
# 
# 
# High freq. dielectric constant tensor:
#      x y z
#    x 1.699940 0.000000 0.000000 
#    y 0.000000 1.714310 0.000000 
#    z 0.000000 0.000000 1.699600 
# 
# From -- ./inp_files/16307.got.cif
#   From: 2010.03.12/outbox.cif.g09.slc.cpg/sg56_9_cif.got.tgz:16307.got - 2010.04.16 15:33:40.
