data_PCOD8228085
_publ_section_title
;
Structure prediction by ZEFSAII (Michael W. Deem and Ramdas Pophale) SiO2 
 PCOD8228085
Probable space group: P C C N
;
_chemical_formula_sum "Si O2"
_cell_formula_units_Z 64
_cell_length_a 8.730933
_cell_length_b 17.930044
_cell_length_c 20.568841
_cell_angle_alpha 90.000000
_cell_angle_beta 90.000000
_cell_angle_gamma 90.000000
_cell_volume 3219.970048
_symmetry_space_group_name_H-M "P C C N"
_symmetry_group_IT_number 56
_symmetry_cell_setting 'orthorhombic'
loop_
_space_group_symop_operation_xyz
x,y,z
1/2-x,1/2-y,z
1/2+x,-y,1/2-z
-x,1/2+y,1/2-z
-x,-y,-z
1/2+x,1/2+y,-z
1/2-x,y,1/2+z
x,1/2-y,1/2+z
loop_
_atom_site_type_symbol
_atom_site_label
_atom_site_fract_x
_atom_site_fract_y
_atom_site_fract_z
Si Si1 0.415201 0.921025 0.987656
Si Si2 0.294457 0.407143 0.249390
Si Si3 0.796733 0.422776 0.631412
Si Si4 0.126117 0.108667 0.112160
Si Si5 0.193299 0.933433 0.103566
Si Si6 0.641488 0.905112 0.625692
Si Si7 0.143158 0.560434 0.230082
Si Si8 0.706030 0.831966 0.008121
O O1 0.272428 0.911850 0.035828
O O2 0.527124 0.850384 0.997693
O O3 0.352818 0.913679 0.913477
O O4 0.500000 0.000000 0.000000
O O5 0.320182 0.359978 0.183069
O O6 0.210815 0.363382 0.309583
O O7 0.185043 0.474088 0.228589
O O8 0.460092 0.436134 0.271920
O O9 0.841601 0.508349 0.640229
O O10 0.778460 0.397340 0.707315
O O11 0.943748 0.380149 0.601658
O O12 0.168631 0.022013 0.103682
O O13 0.208101 0.158682 0.059525
O O14 0.296025 0.903799 0.163223
O O15 0.035321 0.887275 0.110750
O O16 0.738814 0.889393 0.562055
O O17 0.750000 0.750000 0.033883
#
# Coordination Sequence:
#
# PCOD8228085 Si02
#       8
#     8   8   8   8   8   8   8   8
#     4  12  21  34  57  85 108 146 195 237 281 343
#     4   9  17  29  52  79 114 145 179 225 278 336
#     4   9  18  32  56  84 111 143 178 234 284 331
#     4   9  18  35  53  81 113 145 181 226 282 335
#     4  10  19  32  56  85 110 144 183 234 286 332
#     4  10  19  35  54  80 113 146 181 230 283 336
#     4   9  17  27  48  86 118 137 172 230 290 328
#     4  12  25  38  53  78 112 148 188 237 283 337
#
# _framework density 19.875959999999999
#
# number of rings (size 3 to 8) (size 9 to 14) (size 15 to 20)
#    0.000    2.000    2.500    3.750    1.750    3.000 
#    0.000    3.125    0.000    0.000    0.000    3.500 
#    0.000    0.000    0.000    0.000    0.000    0.000 
#
# Total GULP energy -793000.554775 kJ/mol
# GULP energy per Si atom -12390.633668 kJ/mol
# Density = 1.983072 g / cm^3
# Si number density = 19.875960 Si / 1000 Ang^3
#
#
#
# Elastic Constant Matrix: (Units=GPa)
#
#
# Indices 1 2 3 4 5 6 
#
# 1 78.4156 15.0483 28.7365 0.0000 0.0000 0.0000
# 2 15.0483 19.5171 1.8282 0.0000 0.0000 0.0000
# 3 28.7365 1.8282 108.1164 0.0000 0.0000 0.0000
# 4 0.0000 0.0000 0.0000 4.5079 0.0000 0.0000
# 5 0.0000 0.0000 0.0000 0.0000 46.1794 0.0000
# 6 0.0000 0.0000 0.0000 0.0000 0.0000 15.6798
#
#
#
# Elastic Compliance Matrix: (Units=1/GPa)
#
#
# Indices 1 2 3 4 5 6 
#
# 1 0.016696 -0.012477 -0.004227 0.000000 0.000000 0.000000
# 2 -0.012477 0.060643 0.002291 0.000000 0.000000 0.000000
# 3 -0.004227 0.002291 0.010334 0.000000 0.000000 0.000000
# 4 0.000000 0.000000 0.000000 0.221834 0.000000 0.000000
# 5 0.000000 0.000000 0.000000 0.000000 0.021655 0.000000
# 6 0.000000 0.000000 0.000000 0.000000 0.000000 0.063776
#
#
# Mechanical properties :
#
#
# Convention : Reuss Voigt Hill
#
# Bulk Modulus (GPa) = 16.99327 33.03056 25.01191
# Shear Modulus (GPa) = 11.27705 23.96917 17.62311
#
# Velocity S-wave (km/s) = 2.38454 3.47643 2.98090
# Velocity P-wave (km/s) = 4.01866 5.72438 4.94561
#
# Compressibility (1/GPa) = 0.05884684
#
# Stress axis : x y z
#
# Youngs Moduli (GPa) = 59.89501 16.49002 96.76826
#
# Poissons Ratio (x) = 0.20575 0.40901
# Poissons Ratio (y) = 0.74732 -0.22169
# Poissons Ratio (z) = 0.25316 -0.03778
#
# Static dielectric constant tensor:
#      x y z
#    x 3.867060 0.000000 0.000000 
#    y 0.000000 2.899010 0.000000 
#    z 0.000000 0.000000 4.150060 
# 
# 
# High freq. dielectric constant tensor:
#      x y z
#    x 1.788750 0.000000 0.000000 
#    y 0.000000 1.684200 0.000000 
#    z 0.000000 0.000000 1.805140 
# 
# From -- ./inp_files/18438.got.cif
#   From: 2010.03.12/outbox.cif.g09.slc.cpg/sg56_10_cif.got.tgz:18438.got - 2010.04.16 15:33:40.
