data_PCOD8228273
_publ_section_title
;
Structure prediction by ZEFSAII (Michael W. Deem and Ramdas Pophale) SiO2 
 PCOD8228273
Probable space group: P C C N
;
_chemical_formula_sum "Si O2"
_cell_formula_units_Z 32
_cell_length_a 8.417328
_cell_length_b 17.372168
_cell_length_c 7.812777
_cell_angle_alpha 90.000000
_cell_angle_beta 90.000000
_cell_angle_gamma 90.000000
_cell_volume 1142.440787
_symmetry_space_group_name_H-M "P C C N"
_symmetry_group_IT_number 56
_symmetry_cell_setting 'orthorhombic'
loop_
_space_group_symop_operation_xyz
x,y,z
1/2-x,1/2-y,z
1/2+x,-y,1/2-z
-x,1/2+y,1/2-z
-x,-y,-z
1/2+x,1/2+y,-z
1/2-x,y,1/2+z
x,1/2-y,1/2+z
loop_
_atom_site_type_symbol
_atom_site_label
_atom_site_fract_x
_atom_site_fract_y
_atom_site_fract_z
Si Si1 0.961325 0.318961 0.367260
Si Si2 0.607040 0.420374 0.161340
Si Si3 0.207791 0.426570 0.481589
Si Si4 0.037359 0.850455 0.504763
O O1 0.851327 0.352532 0.521739
O O2 0.133404 0.359407 0.362810
O O3 0.992991 0.229197 0.395847
O O4 0.878881 0.336242 0.180989
O O5 0.717367 0.493852 0.124709
O O6 0.641173 0.399244 0.359084
O O7 0.416380 0.438829 0.141585
O O8 0.378836 0.398194 0.540209
#
# Coordination Sequence:
#
# PCOD8228273 Si02
#       4
#     8   8   8   8
#     4  10  20  32  55  86 116 152 189 242 296 344
#     4   9  21  37  49  81 129 150 190 238 294 354
#     4   9  20  36  48  81 127 151 187 243 287 355
#     4  12  19  34  61  85 119 155 191 239 301 344
#
# _framework density 28.010202
#
# number of rings (size 3 to 8) (size 9 to 14) (size 15 to 20)
#    1.500    0.500    2.500    2.250    0.000    3.000 
#    0.000    0.000    0.000    0.000    0.000    1.750 
#   15.000    0.000    0.000    0.000    0.000    0.000 
#
# Total GULP energy -396505.906977 kJ/mol
# GULP energy per Si atom -12390.809593 kJ/mol
# Density = 2.794645 g / cm^3
# Si number density = 28.010202 Si / 1000 Ang^3
#
#
#
# Elastic Constant Matrix: (Units=GPa)
#
#
# Indices 1 2 3 4 5 6 
#
# 1 80.6135 19.6381 62.4032 0.0000 0.0000 0.0000
# 2 19.6381 91.2404 -5.1415 0.0000 0.0000 0.0000
# 3 62.4032 -5.1415 150.0012 0.0000 0.0000 0.0000
# 4 0.0000 0.0000 0.0000 41.2727 0.0000 0.0000
# 5 0.0000 0.0000 0.0000 0.0000 27.0748 0.0000
# 6 0.0000 0.0000 0.0000 0.0000 0.0000 12.0675
#
#
#
# Elastic Compliance Matrix: (Units=1/GPa)
#
#
# Indices 1 2 3 4 5 6 
#
# 1 0.020225 -0.004836 -0.008580 0.000000 0.000000 0.000000
# 2 -0.004836 0.012138 0.002428 0.000000 0.000000 0.000000
# 3 -0.008580 0.002428 0.010319 0.000000 0.000000 0.000000
# 4 0.000000 0.000000 0.000000 0.024229 0.000000 0.000000
# 5 0.000000 0.000000 0.000000 0.000000 0.036935 0.000000
# 6 0.000000 0.000000 0.000000 0.000000 0.000000 0.082867
#
#
# Mechanical properties :
#
#
# Convention : Reuss Voigt Hill
#
# Bulk Modulus (GPa) = 48.29606 52.85054 50.57330
# Shear Modulus (GPa) = 23.19213 32.41333 27.80273
#
# Velocity S-wave (km/s) = 2.88060 3.40545 3.15396
# Velocity P-wave (km/s) = 5.32387 5.86277 5.59980
#
# Compressibility (1/GPa) = 0.02070562
#
# Stress axis : x y z
#
# Youngs Moduli (GPa) = 49.44489 82.38680 96.90781
#
# Poissons Ratio (x) = 0.39846 0.83143
# Poissons Ratio (y) = 0.23914 -0.23530
# Poissons Ratio (z) = 0.42421 -0.20004
#
# Static dielectric constant tensor:
#      x y z
#    x 4.605540 0.000000 0.000000 
#    y 0.000000 4.869420 0.000000 
#    z 0.000000 0.000000 5.044850 
# 
# 
# High freq. dielectric constant tensor:
#      x y z
#    x 2.131770 0.000000 0.000000 
#    y 0.000000 2.129070 0.000000 
#    z 0.000000 0.000000 2.147900 
# 
# From -- ./inp_files/2531.got.cif
#   From: 2010.03.12/outbox.cif.g09.slc.cpg/sg56_2_cif.got.tgz:2531.got - 2010.04.16 15:33:40.
