data_PCOD8228639
_publ_section_title
;
Structure prediction by ZEFSAII (Michael W. Deem and Ramdas Pophale) SiO2 
 PCOD8228639
Probable space group: P C C N
;
_chemical_formula_sum "Si O2"
_cell_formula_units_Z 40
_cell_length_a 27.718119
_cell_length_b 11.061067
_cell_length_c 5.028013
_cell_angle_alpha 90.000000
_cell_angle_beta 90.000000
_cell_angle_gamma 90.000000
_cell_volume 1541.548418
_symmetry_space_group_name_H-M "P C C N"
_symmetry_group_IT_number 56
_symmetry_cell_setting 'orthorhombic'
loop_
_space_group_symop_operation_xyz
x,y,z
1/2-x,1/2-y,z
1/2+x,-y,1/2-z
-x,1/2+y,1/2-z
-x,-y,-z
1/2+x,1/2+y,-z
1/2-x,y,1/2+z
x,1/2-y,1/2+z
loop_
_atom_site_type_symbol
_atom_site_label
_atom_site_fract_x
_atom_site_fract_y
_atom_site_fract_z
Si Si1 0.934736 0.169694 0.725861
Si Si2 0.776245 0.919677 0.102025
Si Si3 0.543468 0.669651 0.217958
Si Si4 0.197832 0.830105 0.750763
Si Si5 0.877859 0.496588 0.572122
O O1 0.927095 0.218298 0.429397
O O2 0.989286 0.119058 0.757953
O O3 0.898933 0.057656 0.794631
O O4 0.758640 0.859894 0.379675
O O5 0.765569 0.062390 0.163608
O O6 0.833384 0.907093 0.025616
O O7 0.554193 0.772351 0.432463
O O8 0.580067 0.557087 0.247639
O O9 0.205949 0.780963 0.453963
O O10 0.143146 0.881582 0.765091
#
# Coordination Sequence:
#
# PCOD8228639 Si02
#       5
#     8   8   8   8   8
#     4  10  21  38  60  91 123 149 188 233 288 358
#     4  10  23  37  55  84 120 154 193 234 281 343
#     4  10  23  41  62  87 114 151 198 245 289 341
#     4  10  21  34  53  83 114 150 186 222 278 343
#     4  10  23  38  63  83 121 156 192 238 292 340
#
# _framework density 25.947935999999999
#
# number of rings (size 3 to 8) (size 9 to 14) (size 15 to 20)
#    1.200    0.800    0.000    3.000    0.000    8.800 
#    0.000    6.000    0.000    3.600    0.000    0.000 
#    0.000    0.000    0.000    0.000    0.000    0.000 
#
# Total GULP energy -495538.869067 kJ/mol
# GULP energy per Si atom -12388.471727 kJ/mol
# Density = 2.588888 g / cm^3
# Si number density = 25.947936 Si / 1000 Ang^3
#
#
#
# Elastic Constant Matrix: (Units=GPa)
#
#
# Indices 1 2 3 4 5 6 
#
# 1 139.4369 19.4112 16.4900 0.0000 0.0000 0.0000
# 2 19.4112 38.3825 -10.3563 0.0000 0.0000 0.0000
# 3 16.4900 -10.3563 92.5217 0.0000 0.0000 0.0000
# 4 0.0000 0.0000 0.0000 -1.2724 0.0000 0.0000
# 5 0.0000 0.0000 0.0000 0.0000 12.3483 0.0000
# 6 0.0000 0.0000 0.0000 0.0000 0.0000 47.3669
#
#
#
# Elastic Compliance Matrix: (Units=1/GPa)
#
#
# Indices 1 2 3 4 5 6 
#
# 1 0.008041 -0.004592 -0.001947 0.000000 0.000000 0.000000
# 2 -0.004592 0.029487 0.004119 0.000000 0.000000 0.000000
# 3 -0.001947 0.004119 0.011616 0.000000 0.000000 0.000000
# 4 0.000000 0.000000 0.000000 -0.785921 0.000000 0.000000
# 5 0.000000 0.000000 0.000000 0.000000 0.080983 0.000000
# 6 0.000000 0.000000 0.000000 0.000000 0.000000 0.021112
#
#
# Mechanical properties :
#
#
# Convention : Reuss Voigt Hill
#
# Bulk Modulus (GPa) = 22.57105 35.71453 29.14279
# Shear Modulus (GPa) = -8.12912 28.00831 9.93959
#
# Velocity S-wave (km/s) = -1.77191 3.28899 1.95931
# Velocity P-wave (km/s) = 2.12868 5.31198 4.04650
#
# Compressibility (1/GPa) = 0.04430454
#
# Stress axis : x y z
#
# Youngs Moduli (GPa) = 124.35884 33.91287 86.08534
#
# Poissons Ratio (x) = 0.15573 0.16762
# Poissons Ratio (y) = 0.57107 -0.35459
# Poissons Ratio (z) = 0.24215 -0.13969
#
# Static dielectric constant tensor:
#      x y z
#    x 5.525930 0.000000 0.000000 
#    y 0.000000 4.118970 0.000000 
#    z 0.000000 0.000000 4.327690 
# 
# 
# High freq. dielectric constant tensor:
#      x y z
#    x 2.055250 0.000000 0.000000 
#    y 0.000000 2.007520 0.000000 
#    z 0.000000 0.000000 2.030410 
# 
# From -- ./inp_files/1178.got.cif
#   From: 2010.03.12/outbox.cif.g09.slc.cpg/sg56_1_cif.got.tgz:1178.got - 2010.04.16 15:33:40.
