data_PCOD8228821
_publ_section_title
;
Structure prediction by ZEFSAII (Michael W. Deem and Ramdas Pophale) SiO2 
 PCOD8228821
Probable space group: P C C N
;
_chemical_formula_sum "Si O2"
_cell_formula_units_Z 48
_cell_length_a 21.657593
_cell_length_b 8.232318
_cell_length_c 11.849119
_cell_angle_alpha 90.000000
_cell_angle_beta 90.000000
_cell_angle_gamma 90.000000
_cell_volume 2112.605408
_symmetry_space_group_name_H-M "P C C N"
_symmetry_group_IT_number 56
_symmetry_cell_setting 'orthorhombic'
loop_
_space_group_symop_operation_xyz
x,y,z
1/2-x,1/2-y,z
1/2+x,-y,1/2-z
-x,1/2+y,1/2-z
-x,-y,-z
1/2+x,1/2+y,-z
1/2-x,y,1/2+z
x,1/2-y,1/2+z
loop_
_atom_site_type_symbol
_atom_site_label
_atom_site_fract_x
_atom_site_fract_y
_atom_site_fract_z
Si Si1 0.189698 0.536449 0.146718
Si Si2 0.423851 0.060102 0.269385
Si Si3 0.580570 0.374565 0.007641
Si Si4 0.375080 0.957966 0.921092
Si Si5 0.511047 0.665191 0.628564
Si Si6 0.673127 0.081933 0.320298
O O1 0.148474 0.431682 0.235119
O O2 0.178627 0.723861 0.178484
O O3 0.261820 0.494791 0.154463
O O4 0.170492 0.485374 0.020160
O O5 0.454419 0.239288 0.268934
O O6 0.435225 0.005193 0.397817
O O7 0.456141 0.941150 0.180316
O O8 0.619141 0.235028 0.069748
O O9 0.518771 0.295698 0.956221
O O10 0.621550 0.465447 0.912490
O O11 0.440678 0.049466 0.936648
O O12 0.347161 0.992416 0.798935
#
# Coordination Sequence:
#
# PCOD8228821 Si02
#       6
#     8   8   8   8   8   8
#     4  10  23  38  68  95 124 171 216 269 315 375
#     4  12  24  41  64  97 131 169 217 267 323 386
#     4  11  21  41  65  98 127 170 213 269 319 383
#     4  11  22  41  65  93 131 166 213 265 326 384
#     4  12  25  40  65  96 135 169 212 263 331 389
#     4  10  21  40  67  98 122 168 219 267 311 376
#
# _framework density 22.720759999999999
#
# number of rings (size 3 to 8) (size 9 to 14) (size 15 to 20)
#    0.000    1.000    5.000    3.000    4.667    1.333 
#    0.000    0.833    0.000    0.000    0.000    0.000 
#    0.000    0.000    0.000    0.000    0.000    0.000 
#
# Total GULP energy -595240.846667 kJ/mol
# GULP energy per Si atom -12400.850972 kJ/mol
# Density = 2.266905 g / cm^3
# Si number density = 22.720760 Si / 1000 Ang^3
#
#
#
# Elastic Constant Matrix: (Units=GPa)
#
#
# Indices 1 2 3 4 5 6 
#
# 1 143.2387 16.4695 59.4244 0.0000 0.0000 0.0000
# 2 16.4695 24.9160 12.4859 0.0000 0.0000 0.0000
# 3 59.4244 12.4859 132.4259 0.0000 0.0000 0.0000
# 4 0.0000 0.0000 0.0000 15.6541 0.0000 0.0000
# 5 0.0000 0.0000 0.0000 0.0000 30.6285 0.0000
# 6 0.0000 0.0000 0.0000 0.0000 0.0000 25.4161
#
#
#
# Elastic Compliance Matrix: (Units=1/GPa)
#
#
# Indices 1 2 3 4 5 6 
#
# 1 0.008961 -0.004102 -0.003634 0.000000 0.000000 0.000000
# 2 -0.004102 0.044003 -0.002308 0.000000 0.000000 0.000000
# 3 -0.003634 -0.002308 0.009400 0.000000 0.000000 0.000000
# 4 0.000000 0.000000 0.000000 0.063881 0.000000 0.000000
# 5 0.000000 0.000000 0.000000 0.000000 0.032649 0.000000
# 6 0.000000 0.000000 0.000000 0.000000 0.000000 0.039345
#
#
# Mechanical properties :
#
#
# Convention : Reuss Voigt Hill
#
# Bulk Modulus (GPa) = 23.65470 53.03779 38.34625
# Shear Modulus (GPa) = 21.51284 28.48645 24.99964
#
# Velocity S-wave (km/s) = 3.08041 3.54469 3.32068
# Velocity P-wave (km/s) = 4.80474 6.33618 5.62284
#
# Compressibility (1/GPa) = 0.04227489
#
# Stress axis : x y z
#
# Youngs Moduli (GPa) = 111.59840 22.72574 106.38473
#
# Poissons Ratio (x) = 0.09322 0.38663
# Poissons Ratio (y) = 0.45776 0.24556
# Poissons Ratio (z) = 0.40558 0.05246
#
# Static dielectric constant tensor:
#      x y z
#    x 4.284930 0.000000 0.000000 
#    y 0.000000 3.772310 0.000000 
#    z 0.000000 0.000000 4.042600 
# 
# 
# High freq. dielectric constant tensor:
#      x y z
#    x 1.902910 0.000000 0.000000 
#    y 0.000000 1.866270 0.000000 
#    z 0.000000 0.000000 1.902910 
# 
# From -- ./inp_files/8869.got.cif
#   From: 2010.03.12/outbox.cif.g09.slc.cpg/sg56_5_cif.got.tgz:8869.got - 2010.04.16 15:33:40.
