data_PCOD8228780
_publ_section_title
;
Structure prediction by ZEFSAII (Michael W. Deem and Ramdas Pophale) SiO2 
 PCOD8228780
Probable space group: P C C N
;
_chemical_formula_sum "Si O2"
_cell_formula_units_Z 64
_cell_length_a 21.870941
_cell_length_b 14.651694
_cell_length_c 8.927756
_cell_angle_alpha 90.000000
_cell_angle_beta 90.000000
_cell_angle_gamma 90.000000
_cell_volume 2860.866690
_symmetry_space_group_name_H-M "P C C N"
_symmetry_group_IT_number 56
_symmetry_cell_setting 'orthorhombic'
loop_
_space_group_symop_operation_xyz
x,y,z
1/2-x,1/2-y,z
1/2+x,-y,1/2-z
-x,1/2+y,1/2-z
-x,-y,-z
1/2+x,1/2+y,-z
1/2-x,y,1/2+z
x,1/2-y,1/2+z
loop_
_atom_site_type_symbol
_atom_site_label
_atom_site_fract_x
_atom_site_fract_y
_atom_site_fract_z
Si Si1 0.116112 0.876453 0.096061
Si Si2 0.594491 0.203185 0.729723
Si Si3 0.874089 0.719076 0.446331
Si Si4 0.696396 0.549202 0.872435
Si Si5 0.458370 0.256834 0.796511
Si Si6 0.013196 0.932691 0.286919
Si Si7 0.319893 0.407683 0.476601
Si Si8 0.582176 0.049092 0.927113
O O1 0.126206 0.798868 0.224399
O O2 0.054666 0.935020 0.135734
O O3 0.172044 0.946922 0.094557
O O4 0.107209 0.821905 0.941628
O O5 0.522411 0.205489 0.773984
O O6 0.622045 0.121558 0.832572
O O7 0.839825 0.623133 0.475392
O O8 0.938993 0.732397 0.530979
O O9 0.897824 0.711045 0.275263
O O10 0.826903 0.800878 0.481757
O O11 0.692819 0.575680 0.698313
O O12 0.765964 0.549820 0.924675
O O13 0.461378 0.356929 0.725771
O O14 0.058690 0.904049 0.421300
O O15 0.977578 0.025557 0.323827
O O16 0.380993 0.459237 0.527522
#
# Coordination Sequence:
#
# PCOD8228780 Si02
#       8
#     8   8   8   8   8   8   8   8
#     4  11  25  47  72 108 147 194 249 304 369 442
#     4  11  25  43  71 105 152 188 233 303 367 441
#     4  12  25  43  71 106 148 186 233 294 357 444
#     4  12  30  49  77 101 144 193 257 308 360 440
#     4  11  22  40  65 108 146 186 228 280 364 443
#     4  10  21  39  67 106 147 188 230 290 366 440
#     4  12  28  50  72 104 144 191 249 308 368 437
#     4  11  23  41  73 100 148 189 237 297 371 433
#
# _framework density 22.370844000000002
#
# number of rings (size 3 to 8) (size 9 to 14) (size 15 to 20)
#    0.000    0.750    3.750    4.125    8.750    1.500 
#    0.000    0.625    0.000    0.000    0.000    0.000 
#    0.000    0.000    0.000    0.000    0.000    0.000 
#
# Total GULP energy -793292.265072 kJ/mol
# GULP energy per Si atom -12395.191642 kJ/mol
# Density = 2.231993 g / cm^3
# Si number density = 22.370844 Si / 1000 Ang^3
#
#
#
# Elastic Constant Matrix: (Units=GPa)
#
#
# Indices 1 2 3 4 5 6 
#
# 1 72.5347 33.7422 35.8787 0.0000 0.0000 0.0000
# 2 33.7422 116.0729 47.6275 0.0000 0.0000 0.0000
# 3 35.8787 47.6275 106.0391 0.0000 0.0000 0.0000
# 4 0.0000 0.0000 0.0000 32.1902 0.0000 0.0000
# 5 0.0000 0.0000 0.0000 0.0000 32.7697 0.0000
# 6 0.0000 0.0000 0.0000 0.0000 0.0000 36.8188
#
#
#
# Elastic Compliance Matrix: (Units=1/GPa)
#
#
# Indices 1 2 3 4 5 6 
#
# 1 0.017509 -0.003260 -0.004460 0.000000 0.000000 0.000000
# 2 -0.003260 0.011169 -0.003913 0.000000 0.000000 0.000000
# 3 -0.004460 -0.003913 0.012697 0.000000 0.000000 0.000000
# 4 0.000000 0.000000 0.000000 0.031065 0.000000 0.000000
# 5 0.000000 0.000000 0.000000 0.000000 0.030516 0.000000
# 6 0.000000 0.000000 0.000000 0.000000 0.000000 0.027160
#
#
# Mechanical properties :
#
#
# Convention : Reuss Voigt Hill
#
# Bulk Modulus (GPa) = 55.22314 58.79373 57.00844
# Shear Modulus (GPa) = 31.36382 32.18228 31.77305
#
# Velocity S-wave (km/s) = 3.74839 3.79698 3.77276
# Velocity P-wave (km/s) = 6.59339 6.74990 6.67210
#
# Compressibility (1/GPa) = 0.01810835
#
# Stress axis : x y z
#
# Youngs Moduli (GPa) = 57.11326 89.53623 78.75672
#
# Poissons Ratio (x) = 0.29187 0.35127
# Poissons Ratio (y) = 0.18617 0.30821
# Poissons Ratio (z) = 0.25473 0.35040
#
# Static dielectric constant tensor:
#      x y z
#    x 3.698460 0.000000 0.000000 
#    y 0.000000 4.045440 0.000000 
#    z 0.000000 0.000000 4.101310 
# 
# 
# High freq. dielectric constant tensor:
#      x y z
#    x 1.852160 0.000000 0.000000 
#    y 0.000000 1.891550 0.000000 
#    z 0.000000 0.000000 1.892900 
# 
# From -- ./inp_files/4829.got.cif
#   From: 2010.03.12/outbox.cif.g09.slc.cpg/sg56_3_cif.got.tgz:4829.got - 2010.04.16 15:33:40.
