data_PCOD8228756
_publ_section_title
;
Structure prediction by ZEFSAII (Michael W. Deem and Ramdas Pophale) SiO2 
 PCOD8228756
Probable space group: P C C N
;
_chemical_formula_sum "Si O2"
_cell_formula_units_Z 60
_cell_length_a 11.306024
_cell_length_b 16.698762
_cell_length_c 13.062136
_cell_angle_alpha 90.000000
_cell_angle_beta 90.000000
_cell_angle_gamma 90.000000
_cell_volume 2466.086917
_symmetry_space_group_name_H-M "P C C N"
_symmetry_group_IT_number 56
_symmetry_cell_setting 'orthorhombic'
loop_
_space_group_symop_operation_xyz
x,y,z
1/2-x,1/2-y,z
1/2+x,-y,1/2-z
-x,1/2+y,1/2-z
-x,-y,-z
1/2+x,1/2+y,-z
1/2-x,y,1/2+z
x,1/2-y,1/2+z
loop_
_atom_site_type_symbol
_atom_site_label
_atom_site_fract_x
_atom_site_fract_y
_atom_site_fract_z
Si Si1 0.046439 0.660945 0.064834
Si Si2 0.793841 0.937761 0.016287
Si Si3 0.604649 0.618264 0.385072
Si Si4 0.967519 0.158123 0.958915
Si Si5 0.750000 0.750000 0.318166
Si Si6 0.634248 0.897516 0.201830
Si Si7 0.901996 0.423641 0.252724
Si Si8 0.744786 0.383887 0.063573
O O1 0.003063 0.621847 0.172041
O O2 0.000707 0.752037 0.072615
O O3 0.987916 0.607814 0.975548
O O4 0.183219 0.648168 0.036723
O O5 0.710537 0.895727 0.098765
O O6 0.918122 0.892037 0.007542
O O7 0.810018 0.028779 0.046307
O O8 0.724256 0.932430 0.907388
O O9 0.640612 0.712832 0.381268
O O10 0.539429 0.586356 0.282969
O O11 0.897423 0.114548 0.865103
O O12 0.877168 0.166947 0.056565
O O13 0.696559 0.826361 0.261473
O O14 0.633782 0.982926 0.259397
O O15 0.814166 0.377302 0.171959
#
# Coordination Sequence:
#
# PCOD8228756 Si02
#       8
#     8   8   8   8   4   8   8   8
#     4  10  21  42  64  89 128 179 220 269 341 403
#     4  10  21  40  67  92 126 169 219 282 336 392
#     4  10  21  39  65  93 129 171 218 277 340 405
#     4  12  23  41  68  98 135 174 229 281 331 398
#     4  12  22  34  62 102 134 158 220 292 338 394
#     4  10  21  39  62  94 126 167 216 276 344 398
#     4  10  23  43  66  96 134 179 226 271 339 414
#     4  10  23  43  64  92 133 179 222 271 333 403
#
# _framework density 24.330041999999999
#
# number of rings (size 3 to 8) (size 9 to 14) (size 15 to 20)
#    0.000    1.600    0.000    4.800    1.867    5.333 
#    7.200    5.333    0.000    0.000    0.000    0.000 
#    0.000    0.000    0.000    0.000    0.000    0.000 
#
# Total GULP energy -743308.236724 kJ/mol
# GULP energy per Si atom -12388.470612 kJ/mol
# Density = 2.427467 g / cm^3
# Si number density = 24.330042 Si / 1000 Ang^3
#
#
#
# Elastic Constant Matrix: (Units=GPa)
#
#
# Indices 1 2 3 4 5 6 
#
# 1 109.0059 2.3331 13.9896 0.0000 0.0000 0.0000
# 2 2.3331 73.9434 1.8533 0.0000 0.0000 0.0000
# 3 13.9896 1.8533 40.6550 0.0000 0.0000 0.0000
# 4 0.0000 0.0000 0.0000 30.8170 0.0000 0.0000
# 5 0.0000 0.0000 0.0000 0.0000 28.0055 0.0000
# 6 0.0000 0.0000 0.0000 0.0000 0.0000 43.9034
#
#
#
# Elastic Compliance Matrix: (Units=1/GPa)
#
#
# Indices 1 2 3 4 5 6 
#
# 1 0.009601 -0.000220 -0.003294 0.000000 0.000000 0.000000
# 2 -0.000220 0.013544 -0.000542 0.000000 0.000000 0.000000
# 3 -0.003294 -0.000542 0.025755 0.000000 0.000000 0.000000
# 4 0.000000 0.000000 0.000000 0.032450 0.000000 0.000000
# 5 0.000000 0.000000 0.000000 0.000000 0.035707 0.000000
# 6 0.000000 0.000000 0.000000 0.000000 0.000000 0.022777
#
#
# Mechanical properties :
#
#
# Convention : Reuss Voigt Hill
#
# Bulk Modulus (GPa) = 24.51619 28.88404 26.70011
# Shear Modulus (GPa) = 30.95149 34.24041 32.59595
#
# Velocity S-wave (km/s) = 3.57059 3.75551 3.66422
# Velocity P-wave (km/s) = 5.20550 5.54100 5.37587
#
# Compressibility (1/GPa) = 0.04078938
#
# Stress axis : x y z
#
# Youngs Moduli (GPa) = 104.15314 73.83134 38.82697
#
# Poissons Ratio (x) = 0.01627 0.12789
# Poissons Ratio (y) = 0.02295 0.02103
# Poissons Ratio (z) = 0.34306 0.03999
#
# Static dielectric constant tensor:
#      x y z
#    x 4.720720 0.000000 0.000000 
#    y 0.000000 4.306950 0.000000 
#    z 0.000000 0.000000 4.396650 
# 
# 
# High freq. dielectric constant tensor:
#      x y z
#    x 1.979270 0.000000 0.000000 
#    y 0.000000 1.966690 0.000000 
#    z 0.000000 0.000000 1.950780 
# 
# From -- ./inp_files/11825.got.cif
#   From: 2010.03.12/outbox.cif.g09.slc.cpg/sg56_6_cif.got.tgz:11825.got - 2010.04.16 15:33:40.
