data_PCOD8228874
_publ_section_title
;
Structure prediction by ZEFSAII (Michael W. Deem and Ramdas Pophale) SiO2 
 PCOD8228874
Probable space group: P C C N
;
_chemical_formula_sum "Si O2"
_cell_formula_units_Z 36
_cell_length_a 9.283130
_cell_length_b 9.174646
_cell_length_c 20.959625
_cell_angle_alpha 90.000000
_cell_angle_beta 90.000000
_cell_angle_gamma 90.000000
_cell_volume 1785.119346
_symmetry_space_group_name_H-M "P C C N"
_symmetry_group_IT_number 56
_symmetry_cell_setting 'orthorhombic'
loop_
_space_group_symop_operation_xyz
x,y,z
1/2-x,1/2-y,z
1/2+x,-y,1/2-z
-x,1/2+y,1/2-z
-x,-y,-z
1/2+x,1/2+y,-z
1/2-x,y,1/2+z
x,1/2-y,1/2+z
loop_
_atom_site_type_symbol
_atom_site_label
_atom_site_fract_x
_atom_site_fract_y
_atom_site_fract_z
Si Si1 0.996452 0.287597 0.938914
Si Si2 0.108127 0.168736 0.304419
Si Si3 0.250000 0.250000 0.036777
Si Si4 0.851871 0.132527 0.764770
Si Si5 0.714693 0.051046 0.405847
O O1 0.934041 0.123701 0.930996
O O2 0.854663 0.389941 0.944371
O O3 0.091605 0.343354 0.880068
O O4 0.107297 0.295111 0.997440
O O5 0.250000 0.250000 0.283972
O O6 0.992807 0.275863 0.275638
O O7 0.106925 0.005578 0.277284
O O8 0.297330 0.379992 0.083022
O O9 0.750000 0.250000 0.728273
O O10 0.770694 0.085054 0.830443
#
# Coordination Sequence:
#
# PCOD8228874 Si02
#       5
#     8   8   4   8   8
#     4  10  21  42  58  84 123 155 191 248 298 339
#     4  11  22  37  64  88 119 156 196 245 300 351
#     4  12  22  36  66  88 110 160 210 238 282 358
#     4  11  22  41  62  86 123 156 195 246 303 361
#     4  10  22  40  61  85 122 158 192 244 302 346
#
# _framework density 20.166717999999999
#
# number of rings (size 3 to 8) (size 9 to 14) (size 15 to 20)
#    0.000    1.333    5.556    2.667    1.556    0.000 
#    0.000    0.000    4.889    0.000    0.000    0.000 
#    0.000    0.000    0.000    0.000    0.000    0.000 
#
# Total GULP energy -446157.778756 kJ/mol
# GULP energy per Si atom -12393.271632 kJ/mol
# Density = 2.012082 g / cm^3
# Si number density = 20.166718 Si / 1000 Ang^3
#
#
#
# Elastic Constant Matrix: (Units=GPa)
#
#
# Indices 1 2 3 4 5 6 
#
# 1 100.1718 43.9730 32.1214 0.0000 0.0000 0.0000
# 2 43.9730 182.4366 66.2761 0.0000 0.0000 0.0000
# 3 32.1214 66.2761 54.0605 0.0000 0.0000 0.0000
# 4 0.0000 0.0000 0.0000 34.7247 0.0000 0.0000
# 5 0.0000 0.0000 0.0000 0.0000 33.2305 0.0000
# 6 0.0000 0.0000 0.0000 0.0000 0.0000 31.0492
#
#
#
# Elastic Compliance Matrix: (Units=1/GPa)
#
#
# Indices 1 2 3 4 5 6 
#
# 1 0.012364 -0.000561 -0.006658 0.000000 0.000000 0.000000
# 2 -0.000561 0.009908 -0.011814 0.000000 0.000000 0.000000
# 3 -0.006658 -0.011814 0.036937 0.000000 0.000000 0.000000
# 4 0.000000 0.000000 0.000000 0.028798 0.000000 0.000000
# 5 0.000000 0.000000 0.000000 0.000000 0.030093 0.000000
# 6 0.000000 0.000000 0.000000 0.000000 0.000000 0.032207
#
#
# Mechanical properties :
#
#
# Convention : Reuss Voigt Hill
#
# Bulk Modulus (GPa) = 47.29704 69.04554 58.17129
# Shear Modulus (GPa) = 25.58560 32.75411 29.16986
#
# Velocity S-wave (km/s) = 3.56575 4.03447 3.80733
# Velocity P-wave (km/s) = 6.36056 7.48427 6.94518
#
# Compressibility (1/GPa) = 0.02114297
#
# Stress axis : x y z
#
# Youngs Moduli (GPa) = 80.87758 100.92457 27.07294
#
# Poissons Ratio (x) = 0.05665 0.18026
# Poissons Ratio (y) = 0.04540 0.31983
# Poissons Ratio (z) = 0.53852 1.19230
#
# Static dielectric constant tensor:
#      x y z
#    x 3.802990 0.000000 0.000000 
#    y 0.000000 3.748700 0.000000 
#    z 0.000000 0.000000 3.449630 
# 
# 
# High freq. dielectric constant tensor:
#      x y z
#    x 1.807130 0.000000 0.000000 
#    y 0.000000 1.799170 0.000000 
#    z 0.000000 0.000000 1.756840 
# 
# From -- ./inp_files/17856.got.cif
#   From: 2010.03.12/outbox.cif.g09.slc.cpg/sg56_9_cif.got.tgz:17856.got - 2010.04.16 15:33:40.
