data_PCOD8228428
_publ_section_title
;
Structure prediction by ZEFSAII (Michael W. Deem and Ramdas Pophale) SiO2 
 PCOD8228428
Probable space group: P C C N
;
_chemical_formula_sum "Si O2"
_cell_formula_units_Z 48
_cell_length_a 11.394661
_cell_length_b 11.328398
_cell_length_c 18.768949
_cell_angle_alpha 90.000000
_cell_angle_beta 90.000000
_cell_angle_gamma 90.000000
_cell_volume 2422.757028
_symmetry_space_group_name_H-M "P C C N"
_symmetry_group_IT_number 56
_symmetry_cell_setting 'orthorhombic'
loop_
_space_group_symop_operation_xyz
x,y,z
1/2-x,1/2-y,z
1/2+x,-y,1/2-z
-x,1/2+y,1/2-z
-x,-y,-z
1/2+x,1/2+y,-z
1/2-x,y,1/2+z
x,1/2-y,1/2+z
loop_
_atom_site_type_symbol
_atom_site_label
_atom_site_fract_x
_atom_site_fract_y
_atom_site_fract_z
Si Si1 0.328571 0.864601 0.722304
Si Si2 0.179363 0.366292 0.980172
Si Si3 0.212396 0.069676 0.326158
Si Si4 0.444229 0.730131 0.540341
Si Si5 0.565671 0.716794 0.187706
Si Si6 0.279540 0.927909 0.563269
O O1 0.250000 0.750000 0.720968
O O2 0.462446 0.826631 0.739613
O O3 0.313314 0.931400 0.646668
O O4 0.291881 0.945029 0.787825
O O5 0.250000 0.250000 0.957965
O O6 0.169261 0.444508 0.908052
O O7 0.049287 0.324346 0.009561
O O8 0.257757 0.437971 0.037533
O O9 0.132922 0.166403 0.283869
O O10 0.347230 0.108454 0.324371
O O11 0.506212 0.747225 0.614753
O O12 0.382909 0.856633 0.519515
O O13 0.343471 0.634591 0.549019
#
# Coordination Sequence:
#
# PCOD8228428 Si02
#       6
#     8   8   8   8   8   8
#     4  11  22  38  62  87 116 154 198 241 294 345
#     4  11  21  38  59  86 117 156 195 237 299 353
#     4  10  21  38  64  82 120 154 192 242 291 348
#     4   9  17  38  61  81 113 160 189 235 297 349
#     4   9  18  39  60  82 113 161 187 232 302 344
#     4  10  20  37  63  82 118 153 197 242 290 347
#
# _framework density 19.812139999999999
#
# number of rings (size 3 to 8) (size 9 to 14) (size 15 to 20)
#    0.000    2.000    6.667    0.500    2.333    0.667 
#    6.000    0.000    0.000    0.000    0.000    0.000 
#    0.000    0.000    0.000    0.000    0.000    0.000 
#
# Total GULP energy -594659.147804 kJ/mol
# GULP energy per Si atom -12388.732246 kJ/mol
# Density = 1.976705 g / cm^3
# Si number density = 19.812140 Si / 1000 Ang^3
#
#
#
# Elastic Constant Matrix: (Units=GPa)
#
#
# Indices 1 2 3 4 5 6 
#
# 1 101.0584 24.3078 22.1124 0.0000 0.0000 0.0000
# 2 24.3078 84.2566 48.5778 0.0000 0.0000 0.0000
# 3 22.1124 48.5778 60.7872 0.0000 0.0000 0.0000
# 4 0.0000 0.0000 0.0000 23.0434 0.0000 0.0000
# 5 0.0000 0.0000 0.0000 0.0000 27.0459 0.0000
# 6 0.0000 0.0000 0.0000 0.0000 0.0000 30.1275
#
#
#
# Elastic Compliance Matrix: (Units=1/GPa)
#
#
# Indices 1 2 3 4 5 6 
#
# 1 0.010864 -0.001587 -0.002684 0.000000 0.000000 0.000000
# 2 -0.001587 0.022241 -0.017196 0.000000 0.000000 0.000000
# 3 -0.002684 -0.017196 0.031170 0.000000 0.000000 0.000000
# 4 0.000000 0.000000 0.000000 0.043396 0.000000 0.000000
# 5 0.000000 0.000000 0.000000 0.000000 0.036974 0.000000
# 6 0.000000 0.000000 0.000000 0.000000 0.000000 0.033192
#
#
# Mechanical properties :
#
#
# Convention : Reuss Voigt Hill
#
# Bulk Modulus (GPa) = 46.85981 48.45536 47.65758
# Shear Modulus (GPa) = 21.94086 26.11698 24.02892
#
# Velocity S-wave (km/s) = 3.33144 3.63468 3.48636
# Velocity P-wave (km/s) = 6.20495 6.49038 6.34927
#
# Compressibility (1/GPa) = 0.02134025
#
# Stress axis : x y z
#
# Youngs Moduli (GPa) = 92.04524 44.96229 32.08254
#
# Poissons Ratio (x) = 0.07135 0.08611
# Poissons Ratio (y) = 0.14607 0.55170
# Poissons Ratio (z) = 0.24704 0.77319
#
# Static dielectric constant tensor:
#      x y z
#    x 4.064450 0.000000 0.000000 
#    y 0.000000 3.752500 0.000000 
#    z 0.000000 0.000000 3.187340 
# 
# 
# High freq. dielectric constant tensor:
#      x y z
#    x 1.801720 0.000000 0.000000 
#    y 0.000000 1.768590 0.000000 
#    z 0.000000 0.000000 1.718310 
# 
# From -- ./inp_files/18678.got.cif
#   From: 2010.03.12/outbox.cif.g09.slc.cpg/sg56_10_cif.got.tgz:18678.got - 2010.04.16 15:33:40.
