data_PCOD8228072
_publ_section_title
;
Structure prediction by ZEFSAII (Michael W. Deem and Ramdas Pophale) SiO2 
 PCOD8228072
Probable space group: P C C N
;
_chemical_formula_sum "Si O2"
_cell_formula_units_Z 44
_cell_length_a 12.308302
_cell_length_b 21.294985
_cell_length_c 9.060947
_cell_angle_alpha 90.000000
_cell_angle_beta 90.000000
_cell_angle_gamma 90.000000
_cell_volume 2374.920478
_symmetry_space_group_name_H-M "P C C N"
_symmetry_group_IT_number 56
_symmetry_cell_setting 'orthorhombic'
loop_
_space_group_symop_operation_xyz
x,y,z
1/2-x,1/2-y,z
1/2+x,-y,1/2-z
-x,1/2+y,1/2-z
-x,-y,-z
1/2+x,1/2+y,-z
1/2-x,y,1/2+z
x,1/2-y,1/2+z
loop_
_atom_site_type_symbol
_atom_site_label
_atom_site_fract_x
_atom_site_fract_y
_atom_site_fract_z
Si Si1 0.800595 0.551538 0.351831
Si Si2 0.653521 0.669373 0.362125
Si Si3 0.250000 0.250000 0.893717
Si Si4 0.762622 0.035159 0.112895
Si Si5 0.977532 0.047527 0.271768
Si Si6 0.532656 0.415764 0.598184
O O1 0.732511 0.611329 0.403249
O O2 0.766391 0.531218 0.188017
O O3 0.782333 0.487622 0.446061
O O4 0.928651 0.567481 0.343802
O O5 0.661843 0.716810 0.499989
O O6 0.686705 0.700483 0.207864
O O7 0.528550 0.646446 0.343168
O O8 0.867488 0.066575 0.187137
O O9 0.662697 0.084639 0.123427
O O10 0.991243 0.084551 0.423785
O O11 0.977877 0.973770 0.314299
#
# Coordination Sequence:
#
# PCOD8228072 Si02
#       6
#     8   8   4   8   8   8
#     4  11  20  31  56  77 123 144 174 216 270 329
#     4  11  20  39  55  82 102 146 179 239 283 300
#     4  10  24  36  58  78 104 130 206 240 270 324
#     4  11  19  33  49  85 118 150 176 198 259 357
#     4  10  19  32  49  85 118 149 175 201 255 352
#     4  10  19  33  54  75 117 148 170 220 271 319
#
# _framework density 18.526935000000002
#
# number of rings (size 3 to 8) (size 9 to 14) (size 15 to 20)
#    0.000    1.455    3.636    4.909    0.000    0.000 
#    0.000    0.000    0.000    0.000    0.000   21.636 
#    0.000    0.000    0.000    0.000    0.000    0.000 
#
# Total GULP energy -545437.427214 kJ/mol
# GULP energy per Si atom -12396.305164 kJ/mol
# Density = 1.848477 g / cm^3
# Si number density = 18.526935 Si / 1000 Ang^3
#
#
#
# Elastic Constant Matrix: (Units=GPa)
#
#
# Indices 1 2 3 4 5 6 
#
# 1 149.7741 31.1269 29.8418 0.0000 0.0000 0.0000
# 2 31.1269 43.0937 16.1274 0.0000 0.0000 0.0000
# 3 29.8418 16.1274 67.8140 0.0000 0.0000 0.0000
# 4 0.0000 0.0000 0.0000 21.4832 0.0000 0.0000
# 5 0.0000 0.0000 0.0000 0.0000 25.9762 0.0000
# 6 0.0000 0.0000 0.0000 0.0000 0.0000 29.3154
#
#
#
# Elastic Compliance Matrix: (Units=1/GPa)
#
#
# Indices 1 2 3 4 5 6 
#
# 1 0.008201 -0.005020 -0.002415 0.000000 0.000000 0.000000
# 2 -0.005020 0.028545 -0.004579 0.000000 0.000000 0.000000
# 3 -0.002415 -0.004579 0.016898 0.000000 0.000000 0.000000
# 4 0.000000 0.000000 0.000000 0.046548 0.000000 0.000000
# 5 0.000000 0.000000 0.000000 0.000000 0.038497 0.000000
# 6 0.000000 0.000000 0.000000 0.000000 0.000000 0.034112
#
#
# Mechanical properties :
#
#
# Convention : Reuss Voigt Hill
#
# Bulk Modulus (GPa) = 33.76645 46.09711 39.93178
# Shear Modulus (GPa) = 24.18945 27.59401 25.89173
#
# Velocity S-wave (km/s) = 3.61728 3.86346 3.74240
# Velocity P-wave (km/s) = 5.97591 6.69604 6.34619
#
# Compressibility (1/GPa) = 0.02961520
#
# Stress axis : x y z
#
# Youngs Moduli (GPa) = 121.93335 35.03241 59.17824
#
# Poissons Ratio (x) = 0.17586 0.14292
# Poissons Ratio (y) = 0.61210 0.27100
# Poissons Ratio (z) = 0.29449 0.16043
#
# Static dielectric constant tensor:
#      x y z
#    x 3.560140 0.000000 0.000000 
#    y 0.000000 3.000700 0.000000 
#    z 0.000000 0.000000 3.456940 
# 
# 
# High freq. dielectric constant tensor:
#      x y z
#    x 1.723910 0.000000 0.000000 
#    y 0.000000 1.660050 0.000000 
#    z 0.000000 0.000000 1.735390 
# 
# From -- ./inp_files/2736.got.cif
#   From: 2010.03.12/outbox.cif.g09.slc.cpg/sg56_2_cif.got.tgz:2736.got - 2010.04.16 15:33:40.
