data_PCOD8228624
_publ_section_title
;
Structure prediction by ZEFSAII (Michael W. Deem and Ramdas Pophale) SiO2 
 PCOD8228624
Probable space group: P C C N
;
_chemical_formula_sum "Si O2"
_cell_formula_units_Z 32
_cell_length_a 7.400311
_cell_length_b 5.519277
_cell_length_c 32.220616
_cell_angle_alpha 90.000000
_cell_angle_beta 90.000000
_cell_angle_gamma 90.000000
_cell_volume 1316.030642
_symmetry_space_group_name_H-M "P C C N"
_symmetry_group_IT_number 56
_symmetry_cell_setting 'orthorhombic'
loop_
_space_group_symop_operation_xyz
x,y,z
1/2-x,1/2-y,z
1/2+x,-y,1/2-z
-x,1/2+y,1/2-z
-x,-y,-z
1/2+x,1/2+y,-z
1/2-x,y,1/2+z
x,1/2-y,1/2+z
loop_
_atom_site_type_symbol
_atom_site_label
_atom_site_fract_x
_atom_site_fract_y
_atom_site_fract_z
Si Si1 0.062755 0.623138 0.380598
Si Si2 0.750000 0.750000 0.671425
Si Si3 0.969782 0.611159 0.800973
Si Si4 0.143250 0.492816 0.536029
Si Si5 0.750000 0.250000 0.258865
O O1 0.250000 0.750000 0.394713
O O2 0.103381 0.374924 0.357790
O O3 0.952826 0.789505 0.347775
O O4 0.943284 0.556820 0.419562
O O5 0.636791 0.577753 0.701014
O O6 0.773678 0.491258 0.788920
O O7 0.061162 0.787986 0.766656
O O8 0.250000 0.250000 0.524681
O O9 0.000000 0.500000 0.500000
O O10 0.250000 0.750000 0.537083
#
# Coordination Sequence:
#
# PCOD8228624 Si02
#       5
#     8   4   8   8   4
#     4  10  24  46  75 106 151 196 255 315 395 456
#     4  10  20  44  70 100 144 198 246 322 392 444
#     4  11  24  44  66 104 141 200 255 322 378 456
#     4  12  29  51  82 122 161 204 254 315 394 478
#     4  12  24  44  68  96 148 198 264 316 388 444
#
# _framework density 24.315539999999999
#
# number of rings (size 3 to 8) (size 9 to 14) (size 15 to 20)
#    0.000    1.000    3.750    3.000    8.750    2.000 
#    0.000    0.000    0.000    0.000    0.000    0.000 
#    0.000    0.000    0.000    0.000    0.000    0.000 
#
# Total GULP energy -396474.197686 kJ/mol
# GULP energy per Si atom -12389.818678 kJ/mol
# Density = 2.426020 g / cm^3
# Si number density = 24.315540 Si / 1000 Ang^3
#
#
#
# Elastic Constant Matrix: (Units=GPa)
#
#
# Indices 1 2 3 4 5 6 
#
# 1 122.5565 40.1407 77.5676 0.0000 0.0000 0.0000
# 2 40.1407 109.1115 44.0389 0.0000 0.0000 0.0000
# 3 77.5676 44.0389 168.2570 0.0000 0.0000 0.0000
# 4 0.0000 0.0000 0.0000 13.2099 0.0000 0.0000
# 5 0.0000 0.0000 0.0000 0.0000 51.8788 0.0000
# 6 0.0000 0.0000 0.0000 0.0000 0.0000 54.4597
#
#
#
# Elastic Compliance Matrix: (Units=1/GPa)
#
#
# Indices 1 2 3 4 5 6 
#
# 1 0.012083 -0.002456 -0.004927 0.000000 0.000000 0.000000
# 2 -0.002456 0.010747 -0.001680 0.000000 0.000000 0.000000
# 3 -0.004927 -0.001680 0.008655 0.000000 0.000000 0.000000
# 4 0.000000 0.000000 0.000000 0.075701 0.000000 0.000000
# 5 0.000000 0.000000 0.000000 0.000000 0.019276 0.000000
# 6 0.000000 0.000000 0.000000 0.000000 0.000000 0.018362
#
#
# Mechanical properties :
#
#
# Convention : Reuss Voigt Hill
#
# Bulk Modulus (GPa) = 74.87279 80.37994 77.62636
# Shear Modulus (GPa) = 29.86813 39.78821 34.82817
#
# Velocity S-wave (km/s) = 3.50859 4.04954 3.78874
# Velocity P-wave (km/s) = 6.87551 7.41579 7.15075
#
# Compressibility (1/GPa) = 0.01335599
#
# Stress axis : x y z
#
# Youngs Moduli (GPa) = 82.76432 93.05063 115.54546
#
# Poissons Ratio (x) = 0.22856 0.56932
# Poissons Ratio (y) = 0.20329 0.19417
# Poissons Ratio (z) = 0.40780 0.15637
#
# Static dielectric constant tensor:
#      x y z
#    x 4.288690 0.000000 0.000000 
#    y 0.000000 4.400050 0.000000 
#    z 0.000000 0.000000 4.280210 
# 
# 
# High freq. dielectric constant tensor:
#      x y z
#    x 1.968910 0.000000 0.000000 
#    y 0.000000 1.989070 0.000000 
#    z 0.000000 0.000000 1.970880 
# 
# From -- ./inp_files/23061.got.cif
#   From: 2010.03.12/outbox.cif.g09.slc.cpg/sg56_12_cif.got.tgz:23061.got - 2010.04.16 15:33:40.
