data_PCOD8228924
_publ_section_title
;
Structure prediction by ZEFSAII (Michael W. Deem and Ramdas Pophale) SiO2 
 PCOD8228924
Probable space group: P C C N
;
_chemical_formula_sum "Si O2"
_cell_formula_units_Z 48
_cell_length_a 10.935549
_cell_length_b 8.942438
_cell_length_c 22.260001
_cell_angle_alpha 90.000000
_cell_angle_beta 90.000000
_cell_angle_gamma 90.000000
_cell_volume 2176.815936
_symmetry_space_group_name_H-M "P C C N"
_symmetry_group_IT_number 56
_symmetry_cell_setting 'orthorhombic'
loop_
_space_group_symop_operation_xyz
x,y,z
1/2-x,1/2-y,z
1/2+x,-y,1/2-z
-x,1/2+y,1/2-z
-x,-y,-z
1/2+x,1/2+y,-z
1/2-x,y,1/2+z
x,1/2-y,1/2+z
loop_
_atom_site_type_symbol
_atom_site_label
_atom_site_fract_x
_atom_site_fract_y
_atom_site_fract_z
Si Si1 0.750000 0.750000 0.715928
Si Si2 0.514050 0.817824 0.152064
Si Si3 0.430507 0.583168 0.427710
Si Si4 0.312336 0.399983 0.526930
Si Si5 0.750000 0.250000 0.657460
Si Si6 0.321312 0.605955 0.119454
Si Si7 0.181872 0.951675 0.735382
O O1 0.846565 0.820589 0.670930
O O2 0.822701 0.630884 0.757034
O O3 0.464350 0.658483 0.124490
O O4 0.440885 0.879157 0.209938
O O5 0.503138 0.939340 0.100501
O O6 0.330361 0.527917 0.476468
O O7 0.552946 0.660309 0.453495
O O8 0.364107 0.696605 0.382766
O O9 0.250000 0.250000 0.500715
O O10 0.218958 0.465603 0.578376
O O11 0.707128 0.113690 0.698805
O O12 0.250000 0.750000 0.094164
O O13 0.291070 0.579503 0.189292
#
# Coordination Sequence:
#
# PCOD8228924 Si02
#       7
#     4   8   8   8   4   8   8
#     4  12  28  38  70 102 146 186 232 290 350 418
#     4  11  24  45  68 102 145 189 228 299 350 430
#     4  11  26  46  72 103 148 180 242 302 351 415
#     4  11  26  47  76 105 137 189 244 297 355 426
#     4  12  24  46  70 102 144 192 230 294 360 424
#     4  10  21  44  72  97 140 184 236 285 359 417
#     4  11  24  42  67 103 142 185 234 281 354 432
#
# _framework density 22.050554000000002
#
# number of rings (size 3 to 8) (size 9 to 14) (size 15 to 20)
#    0.000    1.000    7.500    0.000    8.167    1.333 
#    0.000    1.667    0.000    0.000    0.000    0.000 
#    0.000    0.000    0.000    0.000    0.000    0.000 
#
# Total GULP energy -594735.141535 kJ/mol
# GULP energy per Si atom -12390.315449 kJ/mol
# Density = 2.200037 g / cm^3
# Si number density = 22.050554 Si / 1000 Ang^3
#
#
#
# Elastic Constant Matrix: (Units=GPa)
#
#
# Indices 1 2 3 4 5 6 
#
# 1 91.1089 29.7550 23.6990 0.0000 0.0000 0.0000
# 2 29.7550 90.3837 27.8180 0.0000 0.0000 0.0000
# 3 23.6990 27.8180 82.2639 0.0000 0.0000 0.0000
# 4 0.0000 0.0000 0.0000 8.6944 0.0000 0.0000
# 5 0.0000 0.0000 0.0000 0.0000 -6.6217 0.0000
# 6 0.0000 0.0000 0.0000 0.0000 0.0000 35.7316
#
#
#
# Elastic Compliance Matrix: (Units=1/GPa)
#
#
# Indices 1 2 3 4 5 6 
#
# 1 0.012748 -0.003423 -0.002515 0.000000 0.000000 0.000000
# 2 -0.003423 0.013268 -0.003501 0.000000 0.000000 0.000000
# 3 -0.002515 -0.003501 0.014064 0.000000 0.000000 0.000000
# 4 0.000000 0.000000 0.000000 0.115017 0.000000 0.000000
# 5 0.000000 0.000000 0.000000 0.000000 -0.151018 0.000000
# 6 0.000000 0.000000 0.000000 0.000000 0.000000 0.027986
#
#
# Mechanical properties :
#
#
# Convention : Reuss Voigt Hill
#
# Bulk Modulus (GPa) = 47.16191 47.36672 47.26431
# Shear Modulus (GPa) = 86.19117 19.72650 52.95883
#
# Velocity S-wave (km/s) = 6.25882 2.99424 4.90603
# Velocity P-wave (km/s) = 8.58283 5.78632 7.31938
#
# Compressibility (1/GPa) = 0.02120355
#
# Stress axis : x y z
#
# Youngs Moduli (GPa) = 78.44447 75.36861 71.10187
#
# Poissons Ratio (x) = 0.25796 0.17883
# Poissons Ratio (y) = 0.26849 0.24891
# Poissons Ratio (z) = 0.19729 0.26384
#
# Static dielectric constant tensor:
#      x y z
#    x 4.011060 0.000000 0.000000 
#    y 0.000000 4.111660 0.000000 
#    z 0.000000 0.000000 3.947960 
# 
# 
# High freq. dielectric constant tensor:
#      x y z
#    x 1.864430 0.000000 0.000000 
#    y 0.000000 1.862020 0.000000 
#    z 0.000000 0.000000 1.864450 
# 
# From -- ./inp_files/20932.got.cif
#   From: 2010.03.12/outbox.cif.g09.slc.cpg/sg56_11_cif.got.tgz:20932.got - 2010.04.16 15:33:40.
