data_PCOD8228791
_publ_section_title
;
Structure prediction by ZEFSAII (Michael W. Deem and Ramdas Pophale) SiO2 
 PCOD8228791
Probable space group: P C C N
;
_chemical_formula_sum "Si O2"
_cell_formula_units_Z 64
_cell_length_a 25.009542
_cell_length_b 14.479799
_cell_length_c 8.731386
_cell_angle_alpha 90.000000
_cell_angle_beta 90.000000
_cell_angle_gamma 90.000000
_cell_volume 3161.924240
_symmetry_space_group_name_H-M "P C C N"
_symmetry_group_IT_number 56
_symmetry_cell_setting 'orthorhombic'
loop_
_space_group_symop_operation_xyz
x,y,z
1/2-x,1/2-y,z
1/2+x,-y,1/2-z
-x,1/2+y,1/2-z
-x,-y,-z
1/2+x,1/2+y,-z
1/2-x,y,1/2+z
x,1/2-y,1/2+z
loop_
_atom_site_type_symbol
_atom_site_label
_atom_site_fract_x
_atom_site_fract_y
_atom_site_fract_z
Si Si1 0.374602 0.164780 0.050934
Si Si2 0.121017 0.650175 0.483269
Si Si3 0.486112 0.091596 0.088835
Si Si4 0.356236 0.360516 0.910821
Si Si5 0.447961 0.010718 0.402495
Si Si6 0.901057 0.338497 0.164687
Si Si7 0.711983 0.488038 0.955962
Si Si8 0.680281 0.497087 0.607881
O O1 0.438144 0.152110 0.015280
O O2 0.360261 0.151799 0.228703
O O3 0.355470 0.264914 0.999659
O O4 0.342249 0.094597 0.945712
O O5 0.079749 0.589045 0.383447
O O6 0.127404 0.747065 0.398289
O O7 0.097370 0.663322 0.652507
O O8 0.178417 0.600941 0.489273
O O9 0.463605 0.055084 0.245657
O O10 0.538037 0.156142 0.104789
O O11 0.500000 0.000000 0.000000
O O12 0.405427 0.420221 0.981611
O O13 0.303137 0.418869 0.950599
O O14 0.500000 0.000000 0.500000
O O15 0.868053 0.424695 0.100180
O O16 0.704482 0.506042 0.776671
O O17 0.773548 0.464597 0.991047
#
# Coordination Sequence:
#
# PCOD8228791 Si02
#       8
#     8   8   8   8   8   8   8   8
#     4  11  23  39  63  94 127 165 204 255 303 375
#     4  10  24  41  62  91 126 164 209 259 306 369
#     4  11  23  38  61  92 128 168 204 253 302 364
#     4  10  23  39  61  94 125 161 209 249 311 366
#     4  10  21  40  59  85 127 170 208 247 302 361
#     4  11  24  40  62  95 125 164 210 252 311 369
#     4  10  23  44  66  90 122 162 204 265 314 366
#     4  11  23  43  67  89 123 160 209 259 315 370
#
# _framework density 20.240839999999999
#
# number of rings (size 3 to 8) (size 9 to 14) (size 15 to 20)
#    0.000    1.500    2.500    1.500    3.500    4.000 
#    0.000    5.000    0.000    0.000    0.000    0.000 
#    0.000    0.000    0.000    0.000    0.000    0.000 
#
# Total GULP energy -793707.256338 kJ/mol
# GULP energy per Si atom -12401.675880 kJ/mol
# Density = 2.019477 g / cm^3
# Si number density = 20.240840 Si / 1000 Ang^3
#
#
#
# Elastic Constant Matrix: (Units=GPa)
#
#
# Indices 1 2 3 4 5 6 
#
# 1 98.9967 18.3316 31.8130 0.0000 0.0000 0.0000
# 2 18.3316 114.3540 31.4478 0.0000 0.0000 0.0000
# 3 31.8130 31.4478 59.7712 0.0000 0.0000 0.0000
# 4 0.0000 0.0000 0.0000 34.4035 0.0000 0.0000
# 5 0.0000 0.0000 0.0000 0.0000 31.8638 0.0000
# 6 0.0000 0.0000 0.0000 0.0000 0.0000 14.8846
#
#
#
# Elastic Compliance Matrix: (Units=1/GPa)
#
#
# Indices 1 2 3 4 5 6 
#
# 1 0.012189 -0.000199 -0.006383 0.000000 0.000000 0.000000
# 2 -0.000199 0.010227 -0.005275 0.000000 0.000000 0.000000
# 3 -0.006383 -0.005275 0.022903 0.000000 0.000000 0.000000
# 4 0.000000 0.000000 0.000000 0.029067 0.000000 0.000000
# 5 0.000000 0.000000 0.000000 0.000000 0.031384 0.000000
# 6 0.000000 0.000000 0.000000 0.000000 0.000000 0.067183
#
#
# Mechanical properties :
#
#
# Convention : Reuss Voigt Hill
#
# Bulk Modulus (GPa) = 46.28365 48.47853 47.38109
# Shear Modulus (GPa) = 24.52541 28.99901 26.76221
#
# Velocity S-wave (km/s) = 3.48469 3.78921 3.64014
# Velocity P-wave (km/s) = 6.25355 6.56863 6.41303
#
# Compressibility (1/GPa) = 0.02160590
#
# Stress axis : x y z
#
# Youngs Moduli (GPa) = 82.03845 97.77720 43.66155
#
# Poissons Ratio (x) = 0.01942 0.27870
# Poissons Ratio (y) = 0.01629 0.23033
# Poissons Ratio (z) = 0.52367 0.51580
#
# Static dielectric constant tensor:
#      x y z
#    x 3.649930 0.000000 0.000000 
#    y 0.000000 3.639430 0.000000 
#    z 0.000000 0.000000 3.699610 
# 
# 
# High freq. dielectric constant tensor:
#      x y z
#    x 1.799510 0.000000 0.000000 
#    y 0.000000 1.793920 0.000000 
#    z 0.000000 0.000000 1.793350 
# 
# From -- ./inp_files/4813.got.cif
#   From: 2010.03.12/outbox.cif.g09.slc.cpg/sg56_3_cif.got.tgz:4813.got - 2010.04.16 15:33:40.
