data_PCOD8228137
_publ_section_title
;
Structure prediction by ZEFSAII (Michael W. Deem and Ramdas Pophale) SiO2 
 PCOD8228137
Probable space group: P C C N
;
_chemical_formula_sum "Si O2"
_cell_formula_units_Z 64
_cell_length_a 10.130285
_cell_length_b 13.189388
_cell_length_c 22.800978
_cell_angle_alpha 90.000000
_cell_angle_beta 90.000000
_cell_angle_gamma 90.000000
_cell_volume 3046.490187
_symmetry_space_group_name_H-M "P C C N"
_symmetry_group_IT_number 56
_symmetry_cell_setting 'orthorhombic'
loop_
_space_group_symop_operation_xyz
x,y,z
1/2-x,1/2-y,z
1/2+x,-y,1/2-z
-x,1/2+y,1/2-z
-x,-y,-z
1/2+x,1/2+y,-z
1/2-x,y,1/2+z
x,1/2-y,1/2+z
loop_
_atom_site_type_symbol
_atom_site_label
_atom_site_fract_x
_atom_site_fract_y
_atom_site_fract_z
Si Si1 0.115033 0.298417 0.309614
Si Si2 0.995974 0.368366 0.539823
Si Si3 0.979717 0.916326 0.702985
Si Si4 0.411939 0.071472 0.417804
Si Si5 0.613690 0.557085 0.573755
Si Si6 0.726050 0.542747 0.273918
Si Si7 0.485388 0.642409 0.465044
Si Si8 0.742794 0.637813 0.393102
O O1 0.250000 0.250000 0.336088
O O2 0.020941 0.205713 0.290345
O O3 0.044131 0.372574 0.357474
O O4 0.147227 0.360445 0.250961
O O5 0.991688 0.394031 0.470540
O O6 0.933371 0.256161 0.547961
O O7 0.149541 0.371289 0.556063
O O8 0.921039 0.448123 0.582378
O O9 0.960125 0.945936 0.635612
O O10 0.859962 0.974213 0.737024
O O11 0.122487 0.949520 0.728061
O O12 0.259723 0.102150 0.423931
O O13 0.530543 0.632994 0.532533
O O14 0.625067 0.442505 0.547631
O O15 0.769601 0.559775 0.340832
O O16 0.604158 0.612730 0.422150
O O17 0.750000 0.750000 0.365866
#
# Coordination Sequence:
#
# PCOD8228137 Si02
#       8
#     8   8   8   8   8   8   8   8
#     4  10  21  39  64  87 112 161 210 254 293 367
#     4  10  23  35  57  91 124 154 189 251 310 365
#     4  11  23  40  64  89 120 160 209 256 308 359
#     4  11  21  38  60  90 118 155 207 246 301 371
#     4  11  20  37  63  89 118 156 207 251 296 371
#     4  11  23  39  60  89 120 156 207 255 304 363
#     4  10  21  36  60  89 121 155 195 247 306 363
#     4  10  19  35  59  85 114 151 194 239 295 362
#
# _framework density 21.007781999999999
#
# number of rings (size 3 to 8) (size 9 to 14) (size 15 to 20)
#    0.000    1.500    5.000    1.875    1.750    0.500 
#    0.000    0.625    2.750    0.000    0.000    0.000 
#    0.000    0.000    0.000    0.000    0.000    0.000 
#
# Total GULP energy -793304.074366 kJ/mol
# GULP energy per Si atom -12395.376162 kJ/mol
# Density = 2.095997 g / cm^3
# Si number density = 21.007782 Si / 1000 Ang^3
#
#
#
# Elastic Constant Matrix: (Units=GPa)
#
#
# Indices 1 2 3 4 5 6 
#
# 1 39.9778 9.2930 5.2235 0.0000 0.0000 0.0000
# 2 9.2930 107.8406 15.3516 0.0000 0.0000 0.0000
# 3 5.2235 15.3516 87.3322 0.0000 0.0000 0.0000
# 4 0.0000 0.0000 0.0000 32.3936 0.0000 0.0000
# 5 0.0000 0.0000 0.0000 0.0000 20.1034 0.0000
# 6 0.0000 0.0000 0.0000 0.0000 0.0000 31.5039
#
#
#
# Elastic Compliance Matrix: (Units=1/GPa)
#
#
# Indices 1 2 3 4 5 6 
#
# 1 0.025642 -0.002042 -0.001175 0.000000 0.000000 0.000000
# 2 -0.002042 0.009674 -0.001578 0.000000 0.000000 0.000000
# 3 -0.001175 -0.001578 0.011798 0.000000 0.000000 0.000000
# 4 0.000000 0.000000 0.000000 0.030870 0.000000 0.000000
# 5 0.000000 0.000000 0.000000 0.000000 0.049743 0.000000
# 6 0.000000 0.000000 0.000000 0.000000 0.000000 0.031742
#
#
# Mechanical properties :
#
#
# Convention : Reuss Voigt Hill
#
# Bulk Modulus (GPa) = 26.65022 32.76520 29.70771
# Shear Modulus (GPa) = 27.53791 30.48567 29.01179
#
# Velocity S-wave (km/s) = 3.62449 3.81354 3.72022
# Velocity P-wave (km/s) = 5.49812 5.91789 5.71186
#
# Compressibility (1/GPa) = 0.03752314
#
# Stress axis : x y z
#
# Youngs Moduli (GPa) = 38.99829 103.37381 84.75843
#
# Poissons Ratio (x) = 0.21113 0.09956
# Poissons Ratio (y) = 0.07965 0.13378
# Poissons Ratio (z) = 0.04581 0.16316
#
# Static dielectric constant tensor:
#      x y z
#    x 3.455750 0.000000 0.000000 
#    y 0.000000 4.042680 0.000000 
#    z 0.000000 0.000000 3.719870 
# 
# 
# High freq. dielectric constant tensor:
#      x y z
#    x 1.787510 0.000000 0.000000 
#    y 0.000000 1.825000 0.000000 
#    z 0.000000 0.000000 1.826400 
# 
# From -- ./inp_files/21017.got.cif
#   From: 2010.03.12/outbox.cif.g09.slc.cpg/sg56_11_cif.got.tgz:21017.got - 2010.04.16 15:33:40.
