data_PCOD8228685
_publ_section_title
;
Structure prediction by ZEFSAII (Michael W. Deem and Ramdas Pophale) SiO2 
 PCOD8228685
Probable space group: P C C N
;
_chemical_formula_sum "Si O2"
_cell_formula_units_Z 44
_cell_length_a 30.751518
_cell_length_b 7.510292
_cell_length_c 8.923752
_cell_angle_alpha 90.000000
_cell_angle_beta 90.000000
_cell_angle_gamma 90.000000
_cell_volume 2060.966221
_symmetry_space_group_name_H-M "P C C N"
_symmetry_group_IT_number 56
_symmetry_cell_setting 'orthorhombic'
loop_
_space_group_symop_operation_xyz
x,y,z
1/2-x,1/2-y,z
1/2+x,-y,1/2-z
-x,1/2+y,1/2-z
-x,-y,-z
1/2+x,1/2+y,-z
1/2-x,y,1/2+z
x,1/2-y,1/2+z
loop_
_atom_site_type_symbol
_atom_site_label
_atom_site_fract_x
_atom_site_fract_y
_atom_site_fract_z
Si Si1 0.957908 0.511189 0.306298
Si Si2 0.132306 0.858149 0.158066
Si Si3 0.810219 0.849843 0.717251
Si Si4 0.250000 0.250000 0.530033
Si Si5 0.046260 0.343119 0.371514
Si Si6 0.637377 0.489236 0.173422
O O1 0.919772 0.366265 0.321138
O O2 0.948687 0.634060 0.162428
O O3 0.958579 0.639610 0.450792
O O4 0.003498 0.412486 0.285921
O O5 0.147369 0.659648 0.200889
O O6 0.153120 0.999578 0.274526
O O7 0.146337 0.905115 0.989646
O O8 0.781472 0.868476 0.867130
O O9 0.779067 0.880853 0.574121
O O10 0.830958 0.653582 0.704867
O O11 0.087680 0.449918 0.311030
#
# Coordination Sequence:
#
# PCOD8228685 Si02
#       6
#     8   8   8   4   8   8
#     4  10  21  37  58  90 129 170 216 261 308 366
#     4  11  24  40  65  96 130 173 215 261 319 383
#     4  11  22  46  66  96 124 170 210 266 330 383
#     4  10  24  42  74  90 128 160 212 274 326 390
#     4  10  21  37  58  90 129 170 216 261 308 366
#     4  11  24  40  65  96 130 173 215 261 319 383
#
# _framework density 21.349209999999999
#
# number of rings (size 3 to 8) (size 9 to 14) (size 15 to 20)
#    0.000    1.455    3.636    1.091    2.545    2.182 
#    0.000    5.455    0.000    0.000    0.000    0.000 
#    0.000    0.000    0.000    0.000    0.000    0.000 
#
# Total GULP energy -545697.123605 kJ/mol
# GULP energy per Si atom -12402.207355 kJ/mol
# Density = 2.130062 g / cm^3
# Si number density = 21.349210 Si / 1000 Ang^3
#
#
#
# Elastic Constant Matrix: (Units=GPa)
#
#
# Indices 1 2 3 4 5 6 
#
# 1 113.9438 33.1043 39.2805 0.0000 0.0000 0.0000
# 2 33.1043 91.6316 22.3799 0.0000 0.0000 0.0000
# 3 39.2805 22.3799 71.9424 0.0000 0.0000 0.0000
# 4 0.0000 0.0000 0.0000 32.3394 0.0000 0.0000
# 5 0.0000 0.0000 0.0000 0.0000 29.6571 0.0000
# 6 0.0000 0.0000 0.0000 0.0000 0.0000 18.5865
#
#
#
# Elastic Compliance Matrix: (Units=1/GPa)
#
#
# Indices 1 2 3 4 5 6 
#
# 1 0.011449 -0.002824 -0.005373 0.000000 0.000000 0.000000
# 2 -0.002824 0.012507 -0.002349 0.000000 0.000000 0.000000
# 3 -0.005373 -0.002349 0.017564 0.000000 0.000000 0.000000
# 4 0.000000 0.000000 0.000000 0.030922 0.000000 0.000000
# 5 0.000000 0.000000 0.000000 0.000000 0.033719 0.000000
# 6 0.000000 0.000000 0.000000 0.000000 0.000000 0.053802
#
#
# Mechanical properties :
#
#
# Convention : Reuss Voigt Hill
#
# Bulk Modulus (GPa) = 48.94929 51.89414 50.42172
# Shear Modulus (GPa) = 26.61502 28.30015 27.45759
#
# Velocity S-wave (km/s) = 3.53463 3.64481 3.59014
# Velocity P-wave (km/s) = 6.29570 6.48636 6.39174
#
# Compressibility (1/GPa) = 0.02042931
#
# Stress axis : x y z
#
# Youngs Moduli (GPa) = 87.34508 79.95403 56.93429
#
# Poissons Ratio (x) = 0.22579 0.30588
# Poissons Ratio (y) = 0.24666 0.13373
# Poissons Ratio (z) = 0.46927 0.18780
#
# Static dielectric constant tensor:
#      x y z
#    x 4.037040 0.000000 0.000000 
#    y 0.000000 3.532450 0.000000 
#    z 0.000000 0.000000 3.849160 
# 
# 
# High freq. dielectric constant tensor:
#      x y z
#    x 1.851330 0.000000 0.000000 
#    y 0.000000 1.813980 0.000000 
#    z 0.000000 0.000000 1.838800 
# 
# From -- ./inp_files/5104.got.cif
#   From: 2010.03.12/outbox.cif.g09.slc.cpg/sg56_3_cif.got.tgz:5104.got - 2010.04.16 15:33:40.
