data_PCOD8228093
_publ_section_title
;
Structure prediction by ZEFSAII (Michael W. Deem and Ramdas Pophale) SiO2 
 PCOD8228093
Probable space group: P C C N
;
_chemical_formula_sum "Si O2"
_cell_formula_units_Z 52
_cell_length_a 32.357941
_cell_length_b 10.295667
_cell_length_c 8.331241
_cell_angle_alpha 90.000000
_cell_angle_beta 90.000000
_cell_angle_gamma 90.000000
_cell_volume 2775.524491
_symmetry_space_group_name_H-M "P C C N"
_symmetry_group_IT_number 56
_symmetry_cell_setting 'orthorhombic'
loop_
_space_group_symop_operation_xyz
x,y,z
1/2-x,1/2-y,z
1/2+x,-y,1/2-z
-x,1/2+y,1/2-z
-x,-y,-z
1/2+x,1/2+y,-z
1/2-x,y,1/2+z
x,1/2-y,1/2+z
loop_
_atom_site_type_symbol
_atom_site_label
_atom_site_fract_x
_atom_site_fract_y
_atom_site_fract_z
Si Si1 0.285866 0.349918 0.032162
Si Si2 0.517847 0.100315 0.626727
Si Si3 0.722048 0.061988 0.912269
Si Si4 0.667197 0.641408 0.288476
Si Si5 0.250000 0.750000 0.334627
Si Si6 0.071068 0.098879 0.741442
Si Si7 0.523303 0.691091 0.559604
O O1 0.250000 0.250000 0.978556
O O2 0.311907 0.394325 0.879364
O O3 0.264459 0.477624 0.106852
O O4 0.317659 0.284838 0.158513
O O5 0.491717 0.101965 0.793444
O O6 0.515453 0.240528 0.537865
O O7 0.500000 0.000000 0.500000
O O8 0.562994 0.045914 0.682417
O O9 0.718542 0.163151 0.767167
O O10 0.682743 0.966235 0.916320
O O11 0.721257 0.150587 0.068845
O O12 0.618543 0.632384 0.279482
O O13 0.053488 0.200530 0.869118
O O14 0.048769 0.105932 0.568179
#
# Coordination Sequence:
#
# PCOD8228093 Si02
#       7
#     8   8   8   8   4   8   8
#     4  10  20  34  54  78 106 141 181 221 270 320
#     4   9  18  33  57  77 105 139 182 218 254 328
#     4  10  20  36  56  76 101 142 188 220 262 319
#     4  11  21  33  53  83 114 136 174 236 277 312
#     4  10  20  36  58  72  96 140 196 218 248 328
#     4  10  19  33  52  83 112 136 174 219 276 309
#     4   9  18  34  55  79 105 146 180 207 260 331
#
# _framework density 18.735199000000001
#
# number of rings (size 3 to 8) (size 9 to 14) (size 15 to 20)
#    0.000    2.154    1.538    2.769    2.154    0.000 
#    0.000    1.538    0.000    0.000    0.000    0.000 
#    0.000    0.000    0.000    0.000    0.000    0.000 
#
# Total GULP energy -644238.905388 kJ/mol
# GULP energy per Si atom -12389.209719 kJ/mol
# Density = 1.869256 g / cm^3
# Si number density = 18.735199 Si / 1000 Ang^3
#
#
#
# Elastic Constant Matrix: (Units=GPa)
#
#
# Indices 1 2 3 4 5 6 
#
# 1 90.0280 41.1031 29.5688 0.0000 0.0000 0.0000
# 2 41.1031 84.9011 37.5831 0.0000 0.0000 0.0000
# 3 29.5688 37.5831 97.1225 0.0000 0.0000 0.0000
# 4 0.0000 0.0000 0.0000 48.4147 0.0000 0.0000
# 5 0.0000 0.0000 0.0000 0.0000 18.7914 0.0000
# 6 0.0000 0.0000 0.0000 0.0000 0.0000 18.5392
#
#
#
# Elastic Compliance Matrix: (Units=1/GPa)
#
#
# Indices 1 2 3 4 5 6 
#
# 1 0.014594 -0.006152 -0.002062 0.000000 0.000000 0.000000
# 2 -0.006152 0.016807 -0.004631 0.000000 0.000000 0.000000
# 3 -0.002062 -0.004631 0.012716 0.000000 0.000000 0.000000
# 4 0.000000 0.000000 0.000000 0.020655 0.000000 0.000000
# 5 0.000000 0.000000 0.000000 0.000000 0.053216 0.000000
# 6 0.000000 0.000000 0.000000 0.000000 0.000000 0.053940
#
#
# Mechanical properties :
#
#
# Convention : Reuss Voigt Hill
#
# Bulk Modulus (GPa) = 54.27074 54.28461 54.27767
# Shear Modulus (GPa) = 24.53870 28.06885 26.30378
#
# Velocity S-wave (km/s) = 3.62299 3.87484 3.75103
# Velocity P-wave (km/s) = 6.82141 7.00405 6.91333
#
# Compressibility (1/GPa) = 0.01842613
#
# Stress axis : x y z
#
# Youngs Moduli (GPa) = 68.52153 59.49978 78.64108
#
# Poissons Ratio (x) = 0.36607 0.16218
# Poissons Ratio (y) = 0.42157 0.36415
# Poissons Ratio (z) = 0.14131 0.27552
#
# Static dielectric constant tensor:
#      x y z
#    x 3.165760 0.000000 0.000000 
#    y 0.000000 3.720540 0.000000 
#    z 0.000000 0.000000 3.753340 
# 
# 
# High freq. dielectric constant tensor:
#      x y z
#    x 1.681430 0.000000 0.000000 
#    y 0.000000 1.730810 0.000000 
#    z 0.000000 0.000000 1.747330 
# 
# From -- ./inp_files/5169.got.cif
#   From: 2010.03.12/outbox.cif.g09.slc.cpg/sg56_3_cif.got.tgz:5169.got - 2010.04.16 15:33:40.
