data_PCOD8228672
_publ_section_title
;
Structure prediction by ZEFSAII (Michael W. Deem and Ramdas Pophale) SiO2 
 PCOD8228672
Probable space group: P C C N
;
_chemical_formula_sum "Si O2"
_cell_formula_units_Z 60
_cell_length_a 9.395127
_cell_length_b 14.136469
_cell_length_c 21.446385
_cell_angle_alpha 90.000000
_cell_angle_beta 90.000000
_cell_angle_gamma 90.000000
_cell_volume 2848.378496
_symmetry_space_group_name_H-M "P C C N"
_symmetry_group_IT_number 56
_symmetry_cell_setting 'orthorhombic'
loop_
_space_group_symop_operation_xyz
x,y,z
1/2-x,1/2-y,z
1/2+x,-y,1/2-z
-x,1/2+y,1/2-z
-x,-y,-z
1/2+x,1/2+y,-z
1/2-x,y,1/2+z
x,1/2-y,1/2+z
loop_
_atom_site_type_symbol
_atom_site_label
_atom_site_fract_x
_atom_site_fract_y
_atom_site_fract_z
Si Si1 0.553253 0.384284 0.574744
Si Si2 0.750000 0.250000 0.146288
Si Si3 0.172926 0.149334 0.676457
Si Si4 0.717852 0.444907 0.845074
Si Si5 0.420665 0.431857 0.802422
Si Si6 0.956594 0.406882 0.934653
Si Si7 0.080360 0.636220 0.258282
Si Si8 0.846586 0.661465 0.164000
O O1 0.695737 0.337324 0.603472
O O2 0.422047 0.344378 0.614294
O O3 0.552080 0.498233 0.573744
O O4 0.541851 0.357443 0.501877
O O5 0.623151 0.286109 0.190596
O O6 0.250000 0.250000 0.682681
O O7 0.078026 0.129804 0.738483
O O8 0.276712 0.057768 0.669580
O O9 0.556770 0.402971 0.845555
O O10 0.794600 0.424984 0.911586
O O11 0.798749 0.383116 0.792909
O O12 0.453758 0.539794 0.791986
O O13 0.266539 0.425186 0.836083
O O14 0.038767 0.334986 0.890442
O O15 0.930026 0.668349 0.229181
O O16 0.750000 0.750000 0.155033
#
# Coordination Sequence:
#
# PCOD8228672 Si02
#       8
#     8   4   8   8   8   8   8   8
#     4  10  22  40  69  88 122 169 213 264 315 367
#     4  12  24  36  64 102 120 158 214 274 310 370
#     4  10  21  36  63  95 132 158 208 262 321 371
#     4   9  20  39  63  87 123 176 201 248 314 387
#     4  11  21  36  60  93 126 163 196 251 318 381
#     4   9  21  48  64  84 124 174 216 249 317 387
#     4  10  22  38  57  91 129 153 201 252 319 377
#     4  11  24  39  62  92 123 166 201 258 311 372
#
# _framework density 21.064616000000001
#
# number of rings (size 3 to 8) (size 9 to 14) (size 15 to 20)
#    0.000    1.867    0.000    4.400    7.467    0.533 
#    2.400    0.000    0.000    3.200    0.000    0.000 
#    0.000    0.000    0.000    0.000    0.000    0.000 
#
# Total GULP energy -743450.658666 kJ/mol
# GULP energy per Si atom -12390.844311 kJ/mol
# Density = 2.101667 g / cm^3
# Si number density = 21.064616 Si / 1000 Ang^3
#
#
#
# Elastic Constant Matrix: (Units=GPa)
#
#
# Indices 1 2 3 4 5 6 
#
# 1 132.2381 30.6763 55.1231 0.0000 0.0000 0.0000
# 2 30.6763 88.3613 38.8822 0.0000 0.0000 0.0000
# 3 55.1231 38.8822 109.1733 0.0000 0.0000 0.0000
# 4 0.0000 0.0000 0.0000 21.3002 0.0000 0.0000
# 5 0.0000 0.0000 0.0000 0.0000 25.2036 0.0000
# 6 0.0000 0.0000 0.0000 0.0000 0.0000 13.5831
#
#
#
# Elastic Compliance Matrix: (Units=1/GPa)
#
#
# Indices 1 2 3 4 5 6 
#
# 1 0.009731 -0.001442 -0.004399 0.000000 0.000000 0.000000
# 2 -0.001442 0.013634 -0.004128 0.000000 0.000000 0.000000
# 3 -0.004399 -0.004128 0.012851 0.000000 0.000000 0.000000
# 4 0.000000 0.000000 0.000000 0.046948 0.000000 0.000000
# 5 0.000000 0.000000 0.000000 0.000000 0.039677 0.000000
# 6 0.000000 0.000000 0.000000 0.000000 0.000000 0.073621
#
#
# Mechanical properties :
#
#
# Convention : Reuss Voigt Hill
#
# Bulk Modulus (GPa) = 61.43530 64.34844 62.89187
# Shear Modulus (GPa) = 22.54022 25.69014 24.11518
#
# Velocity S-wave (km/s) = 3.27471 3.49605 3.38719
# Velocity P-wave (km/s) = 6.59748 6.84915 6.72450
#
# Compressibility (1/GPa) = 0.01627729
#
# Stress axis : x y z
#
# Youngs Moduli (GPa) = 102.76882 73.34511 77.81410
#
# Poissons Ratio (x) = 0.10578 0.34234
# Poissons Ratio (y) = 0.14822 0.32119
# Poissons Ratio (z) = 0.45213 0.30274
#
# Static dielectric constant tensor:
#      x y z
#    x 3.627930 0.000000 0.000000 
#    y 0.000000 3.757380 0.000000 
#    z 0.000000 0.000000 3.833130 
# 
# 
# High freq. dielectric constant tensor:
#      x y z
#    x 1.829590 0.000000 0.000000 
#    y 0.000000 1.827390 0.000000 
#    z 0.000000 0.000000 1.802950 
# 
# From -- ./inp_files/20615.got.cif
#   From: 2010.03.12/outbox.cif.g09.slc.cpg/sg56_11_cif.got.tgz:20615.got - 2010.04.16 15:33:40.
