data_PCOD8228664
_publ_section_title
;
Structure prediction by ZEFSAII (Michael W. Deem and Ramdas Pophale) SiO2 
 PCOD8228664
Probable space group: P C C N
;
_chemical_formula_sum "Si O2"
_cell_formula_units_Z 52
_cell_length_a 20.376146
_cell_length_b 5.972553
_cell_length_c 20.705393
_cell_angle_alpha 90.000000
_cell_angle_beta 90.000000
_cell_angle_gamma 90.000000
_cell_volume 2519.796882
_symmetry_space_group_name_H-M "P C C N"
_symmetry_group_IT_number 56
_symmetry_cell_setting 'orthorhombic'
loop_
_space_group_symop_operation_xyz
x,y,z
1/2-x,1/2-y,z
1/2+x,-y,1/2-z
-x,1/2+y,1/2-z
-x,-y,-z
1/2+x,1/2+y,-z
1/2-x,y,1/2+z
x,1/2-y,1/2+z
loop_
_atom_site_type_symbol
_atom_site_label
_atom_site_fract_x
_atom_site_fract_y
_atom_site_fract_z
Si Si1 0.444433 0.401261 0.549037
Si Si2 0.250000 0.750000 0.444080
Si Si3 0.465383 0.816207 0.163346
Si Si4 0.644164 0.588571 0.028067
Si Si5 0.188515 0.120559 0.355971
Si Si6 0.577837 0.102524 0.214578
Si Si7 0.040905 0.922325 0.891034
O O1 0.500000 0.500000 0.500000
O O2 0.423869 0.587323 0.602403
O O3 0.377252 0.292468 0.519727
O O4 0.475239 0.208987 0.592824
O O5 0.205927 0.577294 0.489309
O O6 0.295387 0.600855 0.397657
O O7 0.416169 0.686311 0.211399
O O8 0.522471 0.666714 0.132996
O O9 0.505386 0.996681 0.206015
O O10 0.657642 0.697454 0.096910
O O11 0.580944 0.432997 0.041167
O O12 0.250000 0.250000 0.323688
O O13 0.138257 0.064780 0.298364
O O14 0.584605 0.303714 0.163650
#
# Coordination Sequence:
#
# PCOD8228664 Si02
#       7
#     8   4   8   8   8   8   8
#     4  11  23  34  54  89 128 158 194 242 314 388
#     4  10  22  34  58  88 114 160 202 250 318 324
#     4  11  22  33  55  90 122 165 192 242 328 367
#     4  11  20  36  57  84 128 152 202 254 301 371
#     4  10  21  36  57  89 119 153 203 254 306 347
#     4  11  20  36  55  84 131 152 202 251 300 386
#     4  11  20  34  58  87 123 158 188 245 317 368
#
# _framework density 20.636586000000001
#
# number of rings (size 3 to 8) (size 9 to 14) (size 15 to 20)
#    0.000    1.231    6.154    1.385    0.000    0.000 
#    0.000    0.000    0.000    0.000    0.000   14.000 
#    4.615    0.000    0.000    0.000    0.000    0.000 
#
# Total GULP energy -644185.108832 kJ/mol
# GULP energy per Si atom -12388.175170 kJ/mol
# Density = 2.058962 g / cm^3
# Si number density = 20.636586 Si / 1000 Ang^3
#
#
#
# Elastic Constant Matrix: (Units=GPa)
#
#
# Indices 1 2 3 4 5 6 
#
# 1 95.9012 38.9466 47.6013 0.0000 0.0000 0.0000
# 2 38.9466 87.1306 39.8042 0.0000 0.0000 0.0000
# 3 47.6013 39.8042 102.3431 0.0000 0.0000 0.0000
# 4 0.0000 0.0000 0.0000 39.6951 0.0000 0.0000
# 5 0.0000 0.0000 0.0000 0.0000 23.0673 0.0000
# 6 0.0000 0.0000 0.0000 0.0000 0.0000 39.8507
#
#
#
# Elastic Compliance Matrix: (Units=1/GPa)
#
#
# Indices 1 2 3 4 5 6 
#
# 1 0.014720 -0.004198 -0.005214 0.000000 0.000000 0.000000
# 2 -0.004198 0.015154 -0.003941 0.000000 0.000000 0.000000
# 3 -0.005214 -0.003941 0.013729 0.000000 0.000000 0.000000
# 4 0.000000 0.000000 0.000000 0.025192 0.000000 0.000000
# 5 0.000000 0.000000 0.000000 0.000000 0.043351 0.000000
# 6 0.000000 0.000000 0.000000 0.000000 0.000000 0.025094
#
#
# Mechanical properties :
#
#
# Convention : Reuss Voigt Hill
#
# Bulk Modulus (GPa) = 59.18230 59.78656 59.48443
# Shear Modulus (GPa) = 29.48484 31.12416 30.30450
#
# Velocity S-wave (km/s) = 3.78400 3.88777 3.83624
# Velocity P-wave (km/s) = 6.91608 7.01335 6.96488
#
# Compressibility (1/GPa) = 0.01689694
#
# Stress axis : x y z
#
# Youngs Moduli (GPa) = 67.93408 65.98926 72.83856
#
# Poissons Ratio (x) = 0.27702 0.37977
# Poissons Ratio (y) = 0.28518 0.28708
# Poissons Ratio (z) = 0.35420 0.26008
#
# Static dielectric constant tensor:
#      x y z
#    x 3.656670 0.000000 0.000000 
#    y 0.000000 4.152950 0.000000 
#    z 0.000000 0.000000 3.509880 
# 
# 
# High freq. dielectric constant tensor:
#      x y z
#    x 1.778510 0.000000 0.000000 
#    y 0.000000 1.832680 0.000000 
#    z 0.000000 0.000000 1.771500 
# 
# From -- ./inp_files/19453.got.cif
#   From: 2010.03.12/outbox.cif.g09.slc.cpg/sg56_10_cif.got.tgz:19453.got - 2010.04.16 15:33:40.
