data_PCOD8228376
_publ_section_title
;
Structure prediction by ZEFSAII (Michael W. Deem and Ramdas Pophale) SiO2 
 PCOD8228376
Probable space group: P C C N
;
_chemical_formula_sum "Si O2"
_cell_formula_units_Z 40
_cell_length_a 16.177501
_cell_length_b 6.683761
_cell_length_c 18.085262
_cell_angle_alpha 90.000000
_cell_angle_beta 90.000000
_cell_angle_gamma 90.000000
_cell_volume 1955.496991
_symmetry_space_group_name_H-M "P C C N"
_symmetry_group_IT_number 56
_symmetry_cell_setting 'orthorhombic'
loop_
_space_group_symop_operation_xyz
x,y,z
1/2-x,1/2-y,z
1/2+x,-y,1/2-z
-x,1/2+y,1/2-z
-x,-y,-z
1/2+x,1/2+y,-z
1/2-x,y,1/2+z
x,1/2-y,1/2+z
loop_
_atom_site_type_symbol
_atom_site_label
_atom_site_fract_x
_atom_site_fract_y
_atom_site_fract_z
Si Si1 0.043402 0.061820 0.093422
Si Si2 0.250000 0.750000 0.016678
Si Si3 0.543674 0.815702 0.040848
Si Si4 0.714768 0.536854 0.853637
Si Si5 0.381379 0.825224 0.894029
Si Si6 0.250000 0.750000 0.771601
O O1 0.114936 0.050441 0.154940
O O2 0.965555 0.198854 0.115555
O O3 0.084374 0.164448 0.019560
O O4 0.019589 0.828042 0.084216
O O5 0.257213 0.560311 0.069457
O O6 0.332272 0.755985 0.966873
O O7 0.604858 0.931834 0.098026
O O8 0.500000 0.000000 0.000000
O O9 0.750000 0.750000 0.857550
O O10 0.757043 0.439304 0.782073
O O11 0.331029 0.774468 0.820899
#
# Coordination Sequence:
#
# PCOD8228376 Si02
#       6
#     8   4   8   8   8   4
#     4  10  20  36  61  94 117 155 211 250 308 382
#     4  10  20  36  64  90 124 158 204 266 314 374
#     4   9  17  32  60  93 121 143 194 257 305 359
#     4  11  23  41  60  87 125 165 204 258 320 378
#     4  10  21  40  62  89 124 163 206 263 317 369
#     4  10  26  44  54  88 130 164 212 256 314 394
#
# _framework density 20.455157
#
# number of rings (size 3 to 8) (size 9 to 14) (size 15 to 20)
#    0.000    2.000    0.000    4.800    0.000    6.400 
#    7.200    4.000    0.000    0.000    0.000    0.000 
#    0.000    0.000    0.000    0.000    0.000    0.000 
#
# Total GULP energy -495524.017442 kJ/mol
# GULP energy per Si atom -12388.100436 kJ/mol
# Density = 2.040860 g / cm^3
# Si number density = 20.455157 Si / 1000 Ang^3
#
#
#
# Elastic Constant Matrix: (Units=GPa)
#
#
# Indices 1 2 3 4 5 6 
#
# 1 95.3919 59.6000 50.6653 0.0000 0.0000 0.0000
# 2 59.6000 178.8559 61.2407 0.0000 0.0000 0.0000
# 3 50.6653 61.2407 116.6349 0.0000 0.0000 0.0000
# 4 0.0000 0.0000 0.0000 9.0552 0.0000 0.0000
# 5 0.0000 0.0000 0.0000 0.0000 30.7509 0.0000
# 6 0.0000 0.0000 0.0000 0.0000 0.0000 35.5360
#
#
#
# Elastic Compliance Matrix: (Units=1/GPa)
#
#
# Indices 1 2 3 4 5 6 
#
# 1 0.015160 -0.003410 -0.004795 0.000000 0.000000 0.000000
# 2 -0.003410 0.007584 -0.002501 0.000000 0.000000 0.000000
# 3 -0.004795 -0.002501 0.011970 0.000000 0.000000 0.000000
# 4 0.000000 0.000000 0.000000 0.110433 0.000000 0.000000
# 5 0.000000 0.000000 0.000000 0.000000 0.032519 0.000000
# 6 0.000000 0.000000 0.000000 0.000000 0.000000 0.028140
#
#
# Mechanical properties :
#
#
# Convention : Reuss Voigt Hill
#
# Bulk Modulus (GPa) = 75.17496 81.54386 78.35941
# Shear Modulus (GPa) = 21.58405 29.69354 25.63879
#
# Velocity S-wave (km/s) = 3.25189 3.81417 3.54420
# Velocity P-wave (km/s) = 7.13657 7.70380 7.42560
#
# Compressibility (1/GPa) = 0.01330230
#
# Stress axis : x y z
#
# Youngs Moduli (GPa) = 65.96110 131.86302 83.54446
#
# Poissons Ratio (x) = 0.44966 0.40060
# Poissons Ratio (y) = 0.22493 0.20891
# Poissons Ratio (z) = 0.31629 0.32973
#
# Static dielectric constant tensor:
#      x y z
#    x 3.715390 0.000000 0.000000 
#    y 0.000000 4.146330 0.000000 
#    z 0.000000 0.000000 3.777850 
# 
# 
# High freq. dielectric constant tensor:
#      x y z
#    x 1.796690 0.000000 0.000000 
#    y 0.000000 1.818020 0.000000 
#    z 0.000000 0.000000 1.776220 
# 
# From -- ./inp_files/13877.got.cif
#   From: 2010.03.12/outbox.cif.g09.slc.cpg/sg56_7_cif.got.tgz:13877.got - 2010.04.16 15:33:40.
