data_PCOD8228296
_publ_section_title
;
Structure prediction by ZEFSAII (Michael W. Deem and Ramdas Pophale) SiO2 
 PCOD8228296
Probable space group: P C C N
;
_chemical_formula_sum "Si O2"
_cell_formula_units_Z 48
_cell_length_a 4.898726
_cell_length_b 20.372234
_cell_length_c 24.372375
_cell_angle_alpha 90.000000
_cell_angle_beta 90.000000
_cell_angle_gamma 90.000000
_cell_volume 2432.314094
_symmetry_space_group_name_H-M "P C C N"
_symmetry_group_IT_number 56
_symmetry_cell_setting 'orthorhombic'
loop_
_space_group_symop_operation_xyz
x,y,z
1/2-x,1/2-y,z
1/2+x,-y,1/2-z
-x,1/2+y,1/2-z
-x,-y,-z
1/2+x,1/2+y,-z
1/2-x,y,1/2+z
x,1/2-y,1/2+z
loop_
_atom_site_type_symbol
_atom_site_label
_atom_site_fract_x
_atom_site_fract_y
_atom_site_fract_z
Si Si1 0.995832 0.794965 0.560005
Si Si2 0.791351 0.415303 0.753604
Si Si3 0.733392 0.417827 0.997201
Si Si4 0.494445 0.293991 0.319793
Si Si5 0.782326 0.953296 0.311752
Si Si6 0.264316 0.044046 0.061813
O O1 0.750000 0.750000 0.534234
O O2 0.250000 0.750000 0.569896
O O3 0.104574 0.852976 0.521288
O O4 0.898887 0.822357 0.620211
O O5 0.905733 0.348070 0.777280
O O6 0.487328 0.411416 0.727676
O O7 0.823276 0.469105 0.801699
O O8 0.974800 0.435190 0.702442
O O9 0.667146 0.468010 0.946784
O O10 0.446089 0.406444 0.029772
O O11 0.930047 0.453207 0.039795
O O12 0.750000 0.250000 0.332023
O O13 0.250000 0.250000 0.294064
O O14 0.802197 0.936143 0.375285
#
# Coordination Sequence:
#
# PCOD8228296 Si02
#       6
#     8   8   8   8   8   8
#     4  10  20  34  54  79 107 139 175 219 269 320
#     4  10  20  34  54  79 107 139 175 219 269 320
#     4  10  20  34  54  79 107 139 175 219 269 321
#     4  10  20  34  54  79 107 139 175 219 269 320
#     4  10  20  34  54  79 107 139 175 219 269 320
#     4  10  20  34  54  79 107 139 175 219 269 321
#
# _framework density 19.734292
#
# number of rings (size 3 to 8) (size 9 to 14) (size 15 to 20)
#    0.000    2.000    0.000    4.000    0.000    0.000 
#    0.000   10.000    0.000   15.000    0.000    0.000 
#    0.000    0.000    0.000    0.000    0.000    0.000 
#
# Total GULP energy -594668.396045 kJ/mol
# GULP energy per Si atom -12388.924918 kJ/mol
# Density = 1.968938 g / cm^3
# Si number density = 19.734292 Si / 1000 Ang^3
#
#
#
# Elastic Constant Matrix: (Units=GPa)
#
#
# Indices 1 2 3 4 5 6 
#
# 1 97.1970 17.1002 12.8826 0.0000 0.0000 0.0000
# 2 17.1002 81.2589 32.6161 0.0000 0.0000 0.0000
# 3 12.8826 32.6161 88.1040 0.0000 0.0000 0.0000
# 4 0.0000 0.0000 0.0000 20.2392 0.0000 0.0000
# 5 0.0000 0.0000 0.0000 0.0000 22.5474 0.0000
# 6 0.0000 0.0000 0.0000 0.0000 0.0000 36.2476
#
#
#
# Elastic Compliance Matrix: (Units=1/GPa)
#
#
# Indices 1 2 3 4 5 6 
#
# 1 0.010739 -0.001914 -0.000862 0.000000 0.000000 0.000000
# 2 -0.001914 0.014795 -0.005197 0.000000 0.000000 0.000000
# 3 -0.000862 -0.005197 0.013400 0.000000 0.000000 0.000000
# 4 0.000000 0.000000 0.000000 0.049409 0.000000 0.000000
# 5 0.000000 0.000000 0.000000 0.000000 0.044351 0.000000
# 6 0.000000 0.000000 0.000000 0.000000 0.000000 0.027588
#
#
# Mechanical properties :
#
#
# Convention : Reuss Voigt Hill
#
# Bulk Modulus (GPa) = 43.49984 43.52864 43.51424
# Shear Modulus (GPa) = 27.18984 29.40423 28.29704
#
# Velocity S-wave (km/s) = 3.71590 3.86425 3.79080
# Velocity P-wave (km/s) = 6.36405 6.48191 6.42325
#
# Compressibility (1/GPa) = 0.02298859
#
# Stress axis : x y z
#
# Youngs Moduli (GPa) = 93.11542 67.58913 74.62533
#
# Poissons Ratio (x) = 0.12937 0.06431
# Poissons Ratio (y) = 0.17823 0.38785
# Poissons Ratio (z) = 0.08024 0.35128
#
# Static dielectric constant tensor:
#      x y z
#    x 3.855110 0.000000 0.000000 
#    y 0.000000 3.264300 0.000000 
#    z 0.000000 0.000000 3.341990 
# 
# 
# High freq. dielectric constant tensor:
#      x y z
#    x 1.794520 0.000000 0.000000 
#    y 0.000000 1.742310 0.000000 
#    z 0.000000 0.000000 1.752530 
# 
# From -- ./inp_files/20073.got.cif
#   From: 2010.03.12/outbox.cif.g09.slc.cpg/sg56_11_cif.got.tgz:20073.got - 2010.04.16 15:33:40.
