data_PCOD8228662
_publ_section_title
;
Structure prediction by ZEFSAII (Michael W. Deem and Ramdas Pophale) SiO2 
 PCOD8228662
Probable space group: P C C N
;
_chemical_formula_sum "Si O2"
_cell_formula_units_Z 44
_cell_length_a 13.131430
_cell_length_b 12.990323
_cell_length_c 13.801562
_cell_angle_alpha 90.000000
_cell_angle_beta 90.000000
_cell_angle_gamma 90.000000
_cell_volume 2354.291385
_symmetry_space_group_name_H-M "P C C N"
_symmetry_group_IT_number 56
_symmetry_cell_setting 'orthorhombic'
loop_
_space_group_symop_operation_xyz
x,y,z
1/2-x,1/2-y,z
1/2+x,-y,1/2-z
-x,1/2+y,1/2-z
-x,-y,-z
1/2+x,1/2+y,-z
1/2-x,y,1/2+z
x,1/2-y,1/2+z
loop_
_atom_site_type_symbol
_atom_site_label
_atom_site_fract_x
_atom_site_fract_y
_atom_site_fract_z
Si Si1 0.887235 0.616149 0.706391
Si Si2 0.113078 0.877809 0.996911
Si Si3 0.884883 0.186394 0.798374
Si Si4 0.250000 0.250000 0.154549
Si Si5 0.815023 0.112193 0.208625
Si Si6 0.615416 0.885299 0.484808
O O1 0.829570 0.691381 0.778292
O O2 0.862495 0.498327 0.732555
O O3 0.854122 0.639660 0.596028
O O4 0.007465 0.632207 0.719312
O O5 0.187266 0.862589 0.906080
O O6 0.999061 0.847799 0.962914
O O7 0.144316 0.807371 0.087734
O O8 0.119302 0.993903 0.036481
O O9 0.801553 0.118280 0.742118
O O10 0.884967 0.303727 0.762267
O O11 0.192668 0.169359 0.087011
#
# Coordination Sequence:
#
# PCOD8228662 Si02
#       6
#     8   8   8   4   8   8
#     4  10  22  37  57  83 109 141 184 226 263 322
#     4   9  18  37  56  74 108 148 180 210 260 338
#     4  10  21  36  57  82 108 143 183 222 271 319
#     4  12  20  34  58  84 110 134 176 234 270 300
#     4  10  21  36  57  82 108 143 183 222 271 319
#     4   9  19  34  56  80 106 145 179 209 268 331
#
# _framework density 18.689276
#
# number of rings (size 3 to 8) (size 9 to 14) (size 15 to 20)
#    0.000    2.182    0.000    3.818    0.000    4.364 
#    0.000    1.818    0.000   10.909    0.000    0.000 
#    0.000    0.000    0.000    0.000    0.000    0.000 
#
# Total GULP energy -545589.700238 kJ/mol
# GULP energy per Si atom -12399.765914 kJ/mol
# Density = 1.864674 g / cm^3
# Si number density = 18.689276 Si / 1000 Ang^3
#
#
#
# Elastic Constant Matrix: (Units=GPa)
#
#
# Indices 1 2 3 4 5 6 
#
# 1 101.5797 33.4904 50.8192 0.0000 0.0000 0.0000
# 2 33.4904 78.7696 37.0381 0.0000 0.0000 0.0000
# 3 50.8192 37.0381 115.0131 0.0000 0.0000 0.0000
# 4 0.0000 0.0000 0.0000 29.2688 0.0000 0.0000
# 5 0.0000 0.0000 0.0000 0.0000 30.5800 0.0000
# 6 0.0000 0.0000 0.0000 0.0000 0.0000 29.9942
#
#
#
# Elastic Compliance Matrix: (Units=1/GPa)
#
#
# Indices 1 2 3 4 5 6 
#
# 1 0.013380 -0.003428 -0.004808 0.000000 0.000000 0.000000
# 2 -0.003428 0.015839 -0.003586 0.000000 0.000000 0.000000
# 3 -0.004808 -0.003586 0.011974 0.000000 0.000000 0.000000
# 4 0.000000 0.000000 0.000000 0.034166 0.000000 0.000000
# 5 0.000000 0.000000 0.000000 0.000000 0.032701 0.000000
# 6 0.000000 0.000000 0.000000 0.000000 0.000000 0.033340
#
#
# Mechanical properties :
#
#
# Convention : Reuss Voigt Hill
#
# Bulk Modulus (GPa) = 56.98412 59.78420 58.38416
# Shear Modulus (GPa) = 29.25793 29.56958 29.41376
#
# Velocity S-wave (km/s) = 3.96092 3.98196 3.97146
# Velocity P-wave (km/s) = 7.17461 7.29379 7.23444
#
# Compressibility (1/GPa) = 0.01754875
#
# Stress axis : x y z
#
# Youngs Moduli (GPa) = 74.73755 63.13576 83.51437
#
# Poissons Ratio (x) = 0.21643 0.40155
# Poissons Ratio (y) = 0.25620 0.29948
# Poissons Ratio (z) = 0.35935 0.22640
#
# Static dielectric constant tensor:
#      x y z
#    x 3.385650 0.000000 0.000000 
#    y 0.000000 3.353480 0.000000 
#    z 0.000000 0.000000 3.579840 
# 
# 
# High freq. dielectric constant tensor:
#      x y z
#    x 1.724210 0.000000 0.000000 
#    y 0.000000 1.721810 0.000000 
#    z 0.000000 0.000000 1.737980 
# 
# From -- ./inp_files/7769.got.cif
#   From: 2010.03.12/outbox.cif.g09.slc.cpg/sg56_4_cif.got.tgz:7769.got - 2010.04.16 15:33:40.
