data_PCOD8228189
_publ_section_title
;
Structure prediction by ZEFSAII (Michael W. Deem and Ramdas Pophale) SiO2 
 PCOD8228189
Probable space group: P C C N
;
_chemical_formula_sum "Si O2"
_cell_formula_units_Z 40
_cell_length_a 7.706077
_cell_length_b 11.352260
_cell_length_c 19.611256
_cell_angle_alpha 90.000000
_cell_angle_beta 90.000000
_cell_angle_gamma 90.000000
_cell_volume 1715.619928
_symmetry_space_group_name_H-M "P C C N"
_symmetry_group_IT_number 56
_symmetry_cell_setting 'orthorhombic'
loop_
_space_group_symop_operation_xyz
x,y,z
1/2-x,1/2-y,z
1/2+x,-y,1/2-z
-x,1/2+y,1/2-z
-x,-y,-z
1/2+x,1/2+y,-z
1/2-x,y,1/2+z
x,1/2-y,1/2+z
loop_
_atom_site_type_symbol
_atom_site_label
_atom_site_fract_x
_atom_site_fract_y
_atom_site_fract_z
Si Si1 0.747983 0.986116 0.048266
Si Si2 0.829508 0.872576 0.681012
Si Si3 0.139194 0.012723 0.705151
Si Si4 0.076598 0.810805 0.379177
Si Si5 0.386012 0.421303 0.088377
O O1 0.676930 0.886670 0.099594
O O2 0.633611 0.105351 0.056833
O O3 0.740180 0.937257 0.971116
O O4 0.946679 0.005005 0.068919
O O5 0.750000 0.750000 0.705593
O O6 0.708342 0.970107 0.718226
O O7 0.032049 0.889146 0.703328
O O8 0.305942 0.019409 0.655781
O O9 0.002482 0.113159 0.682066
O O10 0.250000 0.750000 0.350126
O O11 0.932056 0.716709 0.402883
#
# Coordination Sequence:
#
# PCOD8228189 Si02
#       5
#     8   8   8   8   8
#     4   9  21  37  57  88 122 154 200 252 297 354
#     4  11  24  40  59  87 120 154 199 256 308 358
#     4  11  23  39  61  84 115 156 201 244 299 372
#     4   9  19  36  60  86 117 160 201 243 299 364
#     4  10  19  37  61  86 120 160 201 245 299 363
#
# _framework density 23.315187000000002
#
# number of rings (size 3 to 8) (size 9 to 14) (size 15 to 20)
#    0.000    2.000    0.000    3.000    0.000    9.600 
#    0.000    5.000    0.000    0.000    0.000    0.000 
#    0.000    0.000    0.000    0.000    0.000    0.000 
#
# Total GULP energy -495844.900723 kJ/mol
# GULP energy per Si atom -12396.122518 kJ/mol
# Density = 2.326212 g / cm^3
# Si number density = 23.315187 Si / 1000 Ang^3
#
#
#
# Elastic Constant Matrix: (Units=GPa)
#
#
# Indices 1 2 3 4 5 6 
#
# 1 98.2810 30.3671 -2.5621 0.0000 0.0000 0.0000
# 2 30.3671 77.7457 0.1359 0.0000 0.0000 0.0000
# 3 -2.5621 0.1359 59.3627 0.0000 0.0000 0.0000
# 4 0.0000 0.0000 0.0000 16.9727 0.0000 0.0000
# 5 0.0000 0.0000 0.0000 0.0000 35.9834 0.0000
# 6 0.0000 0.0000 0.0000 0.0000 0.0000 35.8903
#
#
#
# Elastic Compliance Matrix: (Units=1/GPa)
#
#
# Indices 1 2 3 4 5 6 
#
# 1 0.011587 -0.004527 0.000510 0.000000 0.000000 0.000000
# 2 -0.004527 0.014631 -0.000229 0.000000 0.000000 0.000000
# 3 0.000510 -0.000229 0.016868 0.000000 0.000000 0.000000
# 4 0.000000 0.000000 0.000000 0.058918 0.000000 0.000000
# 5 0.000000 0.000000 0.000000 0.000000 0.027791 0.000000
# 6 0.000000 0.000000 0.000000 0.000000 0.000000 0.027863
#
#
# Mechanical properties :
#
#
# Convention : Reuss Voigt Hill
#
# Bulk Modulus (GPa) = 28.90522 32.36346 30.63434
# Shear Modulus (GPa) = 28.14053 31.59917 29.86985
#
# Velocity S-wave (km/s) = 3.47790 3.68544 3.58317
# Velocity P-wave (km/s) = 5.34343 5.65870 5.50333
#
# Compressibility (1/GPa) = 0.03459582
#
# Stress axis : x y z
#
# Youngs Moduli (GPa) = 86.30458 68.34827 59.28331
#
# Poissons Ratio (x) = 0.30939 -0.03026
# Poissons Ratio (y) = 0.39067 0.01357
# Poissons Ratio (z) = -0.04405 0.01564
#
# Static dielectric constant tensor:
#      x y z
#    x 4.514240 0.000000 0.000000 
#    y 0.000000 4.047080 0.000000 
#    z 0.000000 0.000000 4.079210 
# 
# 
# High freq. dielectric constant tensor:
#      x y z
#    x 1.943220 0.000000 0.000000 
#    y 0.000000 1.898050 0.000000 
#    z 0.000000 0.000000 1.913720 
# 
# From -- ./inp_files/17980.got.cif
#   From: 2010.03.12/outbox.cif.g09.slc.cpg/sg56_9_cif.got.tgz:17980.got - 2010.04.16 15:33:40.
