data_PCOD8228681
_publ_section_title
;
Structure prediction by ZEFSAII (Michael W. Deem and Ramdas Pophale) SiO2 
 PCOD8228681
Probable space group: P C C N
;
_chemical_formula_sum "Si O2"
_cell_formula_units_Z 56
_cell_length_a 4.918225
_cell_length_b 16.703480
_cell_length_c 32.539067
_cell_angle_alpha 90.000000
_cell_angle_beta 90.000000
_cell_angle_gamma 90.000000
_cell_volume 2673.132282
_symmetry_space_group_name_H-M "P C C N"
_symmetry_group_IT_number 56
_symmetry_cell_setting 'orthorhombic'
loop_
_space_group_symop_operation_xyz
x,y,z
1/2-x,1/2-y,z
1/2+x,-y,1/2-z
-x,1/2+y,1/2-z
-x,-y,-z
1/2+x,1/2+y,-z
1/2-x,y,1/2+z
x,1/2-y,1/2+z
loop_
_atom_site_type_symbol
_atom_site_label
_atom_site_fract_x
_atom_site_fract_y
_atom_site_fract_z
Si Si1 0.765624 0.061828 0.959152
Si Si2 0.212786 0.339782 0.177337
Si Si3 0.001786 0.196507 0.403899
Si Si4 0.790341 0.339430 0.623071
Si Si5 0.260137 0.540119 0.450306
Si Si6 0.423830 0.446690 0.249843
Si Si7 0.510701 0.693934 0.687511
O O1 0.608169 0.132704 0.936369
O O2 0.570339 0.985793 0.955883
O O3 0.826787 0.083163 0.006904
O O4 0.056682 0.034991 0.939761
O O5 0.250000 0.250000 0.195075
O O6 0.403006 0.352204 0.137794
O O7 0.283923 0.402499 0.212017
O O8 0.906224 0.355238 0.162069
O O9 0.750000 0.250000 0.392653
O O10 0.250000 0.250000 0.422641
O O11 0.082030 0.161935 0.358906
O O12 0.750000 0.250000 0.606107
O O13 0.736324 0.398026 0.586078
O O14 0.693246 0.492196 0.233833
O O15 0.516706 0.385467 0.285226
O O16 0.750000 0.750000 0.704251
O O17 0.250000 0.750000 0.691223
#
# Coordination Sequence:
#
# PCOD8228681 Si02
#       7
#     8   8   8   8   8   8   8
#     4  10  21  37  58  85 119 156 189 230 292 350
#     4  10  22  40  60  82 116 157 192 235 296 353
#     4  10  21  38  60  86 111 145 193 236 279 337
#     4  10  21  38  60  86 113 151 201 242 282 340
#     4  10  21  37  57  84 119 156 190 231 289 347
#     4  12  25  39  60  92 119 146 195 246 289 344
#     4  10  22  41  62  83 116 157 191 233 296 356
#
# _framework density 20.949207999999999
#
# number of rings (size 3 to 8) (size 9 to 14) (size 15 to 20)
#    0.000    1.714    0.000    3.857    0.000    5.714 
#    0.000    2.143    0.000    0.000    0.000    0.000 
#    0.000    0.000    0.000    0.000    0.000    0.000 
#
# Total GULP energy -694254.819832 kJ/mol
# GULP energy per Si atom -12397.407497 kJ/mol
# Density = 2.090153 g / cm^3
# Si number density = 20.949208 Si / 1000 Ang^3
#
#
#
# Elastic Constant Matrix: (Units=GPa)
#
#
# Indices 1 2 3 4 5 6 
#
# 1 102.5363 24.1333 4.9419 0.0000 0.0000 0.0000
# 2 24.1333 96.2900 56.9131 0.0000 0.0000 0.0000
# 3 4.9419 56.9131 77.6752 0.0000 0.0000 0.0000
# 4 0.0000 0.0000 0.0000 44.6831 0.0000 0.0000
# 5 0.0000 0.0000 0.0000 0.0000 13.8398 0.0000
# 6 0.0000 0.0000 0.0000 0.0000 0.0000 38.5695
#
#
#
# Elastic Compliance Matrix: (Units=1/GPa)
#
#
# Indices 1 2 3 4 5 6 
#
# 1 0.010580 -0.003976 0.002240 0.000000 0.000000 0.000000
# 2 -0.003976 0.019812 -0.014264 0.000000 0.000000 0.000000
# 3 0.002240 -0.014264 0.023183 0.000000 0.000000 0.000000
# 4 0.000000 0.000000 0.000000 0.022380 0.000000 0.000000
# 5 0.000000 0.000000 0.000000 0.000000 0.072256 0.000000
# 6 0.000000 0.000000 0.000000 0.000000 0.000000 0.025927
#
#
# Mechanical properties :
#
#
# Convention : Reuss Voigt Hill
#
# Bulk Modulus (GPa) = 46.34681 49.83090 48.08886
# Shear Modulus (GPa) = 23.43792 32.11935 27.77864
#
# Velocity S-wave (km/s) = 3.34847 3.91986 3.64538
# Velocity P-wave (km/s) = 6.09271 6.65772 6.38147
#
# Compressibility (1/GPa) = 0.02157646
#
# Stress axis : x y z
#
# Youngs Moduli (GPa) = 94.51422 50.47337 43.13552
#
# Poissons Ratio (x) = 0.20066 -0.09662
# Poissons Ratio (y) = 0.37576 0.61527
# Poissons Ratio (z) = -0.21170 0.71994
#
# Static dielectric constant tensor:
#      x y z
#    x 4.094760 0.000000 0.000000 
#    y 0.000000 3.634470 0.000000 
#    z 0.000000 0.000000 3.689650 
# 
# 
# High freq. dielectric constant tensor:
#      x y z
#    x 1.844870 0.000000 0.000000 
#    y 0.000000 1.808340 0.000000 
#    z 0.000000 0.000000 1.814250 
# 
# From -- ./inp_files/22867.got.cif
#   From: 2010.03.12/outbox.cif.g09.slc.cpg/sg56_12_cif.got.tgz:22867.got - 2010.04.16 15:33:40.
