data_PCOD8228744
_publ_section_title
;
Structure prediction by ZEFSAII (Michael W. Deem and Ramdas Pophale) SiO2 
 PCOD8228744
Probable space group: P C C N
;
_chemical_formula_sum "Si O2"
_cell_formula_units_Z 48
_cell_length_a 9.124553
_cell_length_b 28.774919
_cell_length_c 9.405637
_cell_angle_alpha 90.000000
_cell_angle_beta 90.000000
_cell_angle_gamma 90.000000
_cell_volume 2469.527812
_symmetry_space_group_name_H-M "P C C N"
_symmetry_group_IT_number 56
_symmetry_cell_setting 'orthorhombic'
loop_
_space_group_symop_operation_xyz
x,y,z
1/2-x,1/2-y,z
1/2+x,-y,1/2-z
-x,1/2+y,1/2-z
-x,-y,-z
1/2+x,1/2+y,-z
1/2-x,y,1/2+z
x,1/2-y,1/2+z
loop_
_atom_site_type_symbol
_atom_site_label
_atom_site_fract_x
_atom_site_fract_y
_atom_site_fract_z
Si Si1 0.419351 0.485179 0.639944
Si Si2 0.916081 0.619093 0.798422
Si Si3 0.856660 0.630597 0.481157
Si Si4 0.580541 0.287674 0.039797
Si Si5 0.623172 0.298052 0.706766
Si Si6 0.076937 0.030589 0.115654
O O1 0.500000 0.500000 0.500000
O O2 0.470008 0.433608 0.683894
O O3 0.479954 0.523849 0.745689
O O4 0.243833 0.486725 0.631936
O O5 0.834204 0.625282 0.648936
O O6 0.805465 0.635678 0.919890
O O7 0.058657 0.650733 0.806316
O O8 0.934284 0.584778 0.420112
O O9 0.951309 0.675463 0.440518
O O10 0.715485 0.302235 0.140774
O O11 0.529885 0.238266 0.108569
O O12 0.625725 0.282651 0.873526
O O13 0.000000 0.000000 0.000000
#
# Coordination Sequence:
#
# PCOD8228744 Si02
#       6
#     8   8   8   8   8   8
#     4  11  24  40  62  91 120 165 203 251 307 354
#     4  10  23  41  60  86 120 155 199 241 298 354
#     4  10  23  40  61  86 119 157 195 246 294 354
#     4  10  21  39  60  89 119 153 196 244 298 350
#     4  10  21  39  61  88 120 153 195 246 294 356
#     4  11  22  42  62  87 126 157 206 251 297 363
#
# _framework density 19.436913000000001
#
# number of rings (size 3 to 8) (size 9 to 14) (size 15 to 20)
#    0.000    1.667    1.667    3.000    7.000    6.000 
#    0.000    3.333    0.000    0.000    0.000    0.000 
#    0.000    0.000    0.000    0.000    0.000    0.000 
#
# Total GULP energy -595008.709604 kJ/mol
# GULP energy per Si atom -12396.014783 kJ/mol
# Density = 1.939267 g / cm^3
# Si number density = 19.436913 Si / 1000 Ang^3
#
#
#
# Elastic Constant Matrix: (Units=GPa)
#
#
# Indices 1 2 3 4 5 6 
#
# 1 47.2843 20.8877 12.9101 0.0000 0.0000 0.0000
# 2 20.8877 71.9365 14.5050 0.0000 0.0000 0.0000
# 3 12.9101 14.5050 112.0895 0.0000 0.0000 0.0000
# 4 0.0000 0.0000 0.0000 31.3370 0.0000 0.0000
# 5 0.0000 0.0000 0.0000 0.0000 37.4785 0.0000
# 6 0.0000 0.0000 0.0000 0.0000 0.0000 37.3283
#
#
#
# Elastic Compliance Matrix: (Units=1/GPa)
#
#
# Indices 1 2 3 4 5 6 
#
# 1 0.024675 -0.006768 -0.001966 0.000000 0.000000 0.000000
# 2 -0.006768 0.016130 -0.001308 0.000000 0.000000 0.000000
# 3 -0.001966 -0.001308 0.009317 0.000000 0.000000 0.000000
# 4 0.000000 0.000000 0.000000 0.031911 0.000000 0.000000
# 5 0.000000 0.000000 0.000000 0.000000 0.026682 0.000000
# 6 0.000000 0.000000 0.000000 0.000000 0.000000 0.026789
#
#
# Mechanical properties :
#
#
# Convention : Reuss Voigt Hill
#
# Bulk Modulus (GPa) = 33.29109 36.43508 34.86308
# Shear Modulus (GPa) = 30.19281 33.42927 31.81104
#
# Velocity S-wave (km/s) = 3.94556 4.15165 4.04992
# Velocity P-wave (km/s) = 6.15805 6.46278 6.31226
#
# Compressibility (1/GPa) = 0.03003806
#
# Stress axis : x y z
#
# Youngs Moduli (GPa) = 40.52621 61.99581 107.32914
#
# Poissons Ratio (x) = 0.41961 0.21103
# Poissons Ratio (y) = 0.27430 0.14036
# Poissons Ratio (z) = 0.07968 0.08108
#
# Static dielectric constant tensor:
#      x y z
#    x 3.329430 0.000000 0.000000 
#    y 0.000000 3.719960 0.000000 
#    z 0.000000 0.000000 3.790150 
# 
# 
# High freq. dielectric constant tensor:
#      x y z
#    x 1.747080 0.000000 0.000000 
#    y 0.000000 1.766760 0.000000 
#    z 0.000000 0.000000 1.778630 
# 
# From -- ./inp_files/2224.got.cif
#   From: 2010.03.12/outbox.cif.g09.slc.cpg/sg56_2_cif.got.tgz:2224.got - 2010.04.16 15:33:40.
