data_PCOD8228152
_publ_section_title
;
Structure prediction by ZEFSAII (Michael W. Deem and Ramdas Pophale) SiO2 
 PCOD8228152
Probable space group: P C C N
;
_chemical_formula_sum "Si O2"
_cell_formula_units_Z 40
_cell_length_a 15.148580
_cell_length_b 6.178806
_cell_length_c 17.427634
_cell_angle_alpha 90.000000
_cell_angle_beta 90.000000
_cell_angle_gamma 90.000000
_cell_volume 1631.228930
_symmetry_space_group_name_H-M "P C C N"
_symmetry_group_IT_number 56
_symmetry_cell_setting 'orthorhombic'
loop_
_space_group_symop_operation_xyz
x,y,z
1/2-x,1/2-y,z
1/2+x,-y,1/2-z
-x,1/2+y,1/2-z
-x,-y,-z
1/2+x,1/2+y,-z
1/2-x,y,1/2+z
x,1/2-y,1/2+z
loop_
_atom_site_type_symbol
_atom_site_label
_atom_site_fract_x
_atom_site_fract_y
_atom_site_fract_z
Si Si1 0.820304 0.039672 0.772921
Si Si2 0.971460 0.393714 0.167103
Si Si3 0.924606 0.704031 0.575893
Si Si4 0.087827 0.048364 0.080285
Si Si5 0.630876 0.950034 0.731339
O O1 0.835785 0.045438 0.864671
O O2 0.715986 0.093500 0.759629
O O3 0.844174 0.799593 0.745724
O O4 0.889274 0.192607 0.722066
O O5 0.022700 0.204796 0.126213
O O6 0.041393 0.516913 0.222484
O O7 0.925119 0.549703 0.104821
O O8 0.871449 0.667540 0.495428
O O9 0.884627 0.539323 0.639507
O O10 0.026986 0.653084 0.555390
#
# Coordination Sequence:
#
# PCOD8228152 Si02
#       5
#     8   8   8   8   8
#     4   9  18  34  57  83 108 146 192 223 270 334
#     4  10  19  36  57  78 110 148 188 224 269 334
#     4  10  20  35  56  82 112 145 180 230 278 320
#     4  10  20  35  56  82 112 145 180 230 278 320
#     4   9  18  34  57  83 108 146 192 223 270 334
#
# _framework density 24.521388999999999
#
# number of rings (size 3 to 8) (size 9 to 14) (size 15 to 20)
#    0.000    2.400    2.000    0.600    0.000    0.000 
#    0.000   22.000    0.000    4.800    0.000    0.000 
#    0.000    0.000    0.000    0.000    0.000    0.000 
#
# Total GULP energy -495875.283872 kJ/mol
# GULP energy per Si atom -12396.882097 kJ/mol
# Density = 2.446558 g / cm^3
# Si number density = 24.521389 Si / 1000 Ang^3
#
#
#
# Elastic Constant Matrix: (Units=GPa)
#
#
# Indices 1 2 3 4 5 6 
#
# 1 135.6649 25.0066 64.1884 0.0000 0.0000 0.0000
# 2 25.0066 48.9835 25.8406 0.0000 0.0000 0.0000
# 3 64.1884 25.8406 182.2772 0.0000 0.0000 0.0000
# 4 0.0000 0.0000 0.0000 34.9985 0.0000 0.0000
# 5 0.0000 0.0000 0.0000 0.0000 27.5207 0.0000
# 6 0.0000 0.0000 0.0000 0.0000 0.0000 40.3682
#
#
#
# Elastic Compliance Matrix: (Units=1/GPa)
#
#
# Indices 1 2 3 4 5 6 
#
# 1 0.009304 -0.003266 -0.002813 0.000000 0.000000 0.000000
# 2 -0.003266 0.023211 -0.002141 0.000000 0.000000 0.000000
# 3 -0.002813 -0.002141 0.006780 0.000000 0.000000 0.000000
# 4 0.000000 0.000000 0.000000 0.028573 0.000000 0.000000
# 5 0.000000 0.000000 0.000000 0.000000 0.036336 0.000000
# 6 0.000000 0.000000 0.000000 0.000000 0.000000 0.024772
#
#
# Mechanical properties :
#
#
# Convention : Reuss Voigt Hill
#
# Bulk Modulus (GPa) = 43.75120 66.33298 55.04209
# Shear Modulus (GPa) = 32.67221 37.37016 35.02118
#
# Velocity S-wave (km/s) = 3.65416 3.90806 3.78324
# Velocity P-wave (km/s) = 5.97366 6.89011 6.44819
#
# Compressibility (1/GPa) = 0.02285651
#
# Stress axis : x y z
#
# Youngs Moduli (GPa) = 107.47800 43.08221 147.48450
#
# Poissons Ratio (x) = 0.14069 0.41495
# Poissons Ratio (y) = 0.35099 0.31570
# Poissons Ratio (z) = 0.30239 0.09222
#
# Static dielectric constant tensor:
#      x y z
#    x 4.772160 0.000000 0.000000 
#    y 0.000000 4.714320 0.000000 
#    z 0.000000 0.000000 4.696790 
# 
# 
# High freq. dielectric constant tensor:
#      x y z
#    x 1.959520 0.000000 0.000000 
#    y 0.000000 2.017340 0.000000 
#    z 0.000000 0.000000 1.972000 
# 
# From -- ./inp_files/14622.got.cif
#   From: 2010.03.12/outbox.cif.g09.slc.cpg/sg56_8_cif.got.tgz:14622.got - 2010.04.16 15:33:40.
