data_PCOD8228277
_publ_section_title
;
Structure prediction by ZEFSAII (Michael W. Deem and Ramdas Pophale) SiO2 
 PCOD8228277
Probable space group: P C C N
;
_chemical_formula_sum "Si O2"
_cell_formula_units_Z 60
_cell_length_a 17.626860
_cell_length_b 17.078506
_cell_length_c 9.170637
_cell_angle_alpha 90.000000
_cell_angle_beta 90.000000
_cell_angle_gamma 90.000000
_cell_volume 2760.732545
_symmetry_space_group_name_H-M "P C C N"
_symmetry_group_IT_number 56
_symmetry_cell_setting 'orthorhombic'
loop_
_space_group_symop_operation_xyz
x,y,z
1/2-x,1/2-y,z
1/2+x,-y,1/2-z
-x,1/2+y,1/2-z
-x,-y,-z
1/2+x,1/2+y,-z
1/2-x,y,1/2+z
x,1/2-y,1/2+z
loop_
_atom_site_type_symbol
_atom_site_label
_atom_site_fract_x
_atom_site_fract_y
_atom_site_fract_z
Si Si1 0.750000 0.750000 0.401575
Si Si2 0.436698 0.755701 0.424216
Si Si3 0.963651 0.807818 0.682560
Si Si4 0.159931 0.876256 0.329826
Si Si5 0.699361 0.133013 0.488558
Si Si6 0.845535 0.552901 0.178196
Si Si7 0.342787 0.181555 0.340827
Si Si8 0.306347 0.041692 0.486200
O O1 0.781797 0.816439 0.290592
O O2 0.685195 0.785198 0.502949
O O3 0.479039 0.710110 0.552606
O O4 0.489737 0.815494 0.333696
O O5 0.408951 0.684851 0.319865
O O6 0.364933 0.804779 0.477275
O O7 0.913909 0.885477 0.651376
O O8 0.914011 0.730820 0.709991
O O9 0.209280 0.875235 0.183603
O O10 0.217174 0.844784 0.454621
O O11 0.127076 0.963932 0.356064
O O12 0.678390 0.048065 0.555855
O O13 0.777676 0.571898 0.064708
O O14 0.817253 0.559480 0.344029
O O15 0.363886 0.091889 0.382932
#
# Coordination Sequence:
#
# PCOD8228277 Si02
#       8
#     4   8   8   8   8   8   8   8
#     4  10  20  32  62  86 126 164 216 268 298 364
#     4  12  25  44  62  92 131 177 212 254 321 389
#     4  12  26  40  61  90 138 174 210 249 319 404
#     4  10  23  44  72  95 122 160 220 277 319 368
#     4  10  23  43  69  98 119 159 219 278 318 362
#     4  10  22  42  64  99 127 166 213 268 322 372
#     4  11  20  36  57  92 122 170 209 256 313 368
#     4  10  20  39  67  94 126 159 218 275 312 364
#
# _framework density 21.733360999999999
#
# number of rings (size 3 to 8) (size 9 to 14) (size 15 to 20)
#    0.000    1.333    1.333    5.200    1.867    2.667 
#    2.400    2.000    0.000    0.000    0.000    0.000 
#    0.000    0.000    0.000    0.000    0.000    0.000 
#
# Total GULP energy -743667.424161 kJ/mol
# GULP energy per Si atom -12394.457069 kJ/mol
# Density = 2.168390 g / cm^3
# Si number density = 21.733361 Si / 1000 Ang^3
#
#
#
# Elastic Constant Matrix: (Units=GPa)
#
#
# Indices 1 2 3 4 5 6 
#
# 1 76.6178 60.3826 18.5863 0.0000 0.0000 0.0000
# 2 60.3826 109.0805 24.8965 0.0000 0.0000 0.0000
# 3 18.5863 24.8965 82.5121 0.0000 0.0000 0.0000
# 4 0.0000 0.0000 0.0000 27.4314 0.0000 0.0000
# 5 0.0000 0.0000 0.0000 0.0000 32.9666 0.0000
# 6 0.0000 0.0000 0.0000 0.0000 0.0000 37.5157
#
#
#
# Elastic Compliance Matrix: (Units=1/GPa)
#
#
# Indices 1 2 3 4 5 6 
#
# 1 0.023314 -0.012573 -0.001458 0.000000 0.000000 0.000000
# 2 -0.012573 0.016626 -0.002184 0.000000 0.000000 0.000000
# 3 -0.001458 -0.002184 0.013107 0.000000 0.000000 0.000000
# 4 0.000000 0.000000 0.000000 0.036455 0.000000 0.000000
# 5 0.000000 0.000000 0.000000 0.000000 0.030334 0.000000
# 6 0.000000 0.000000 0.000000 0.000000 0.000000 0.026655
#
#
# Mechanical properties :
#
#
# Convention : Reuss Voigt Hill
#
# Bulk Modulus (GPa) = 48.50527 52.88236 50.69382
# Shear Modulus (GPa) = 26.91144 30.53906 28.72525
#
# Velocity S-wave (km/s) = 3.52270 3.75263 3.63948
# Velocity P-wave (km/s) = 6.23800 6.56974 6.40602
#
# Compressibility (1/GPa) = 0.02061632
#
# Stress axis : x y z
#
# Youngs Moduli (GPa) = 42.89197 60.14633 76.29525
#
# Poissons Ratio (x) = 0.75623 0.11124
# Poissons Ratio (y) = 0.53929 0.16666
# Poissons Ratio (z) = 0.06254 0.13139
#
# Static dielectric constant tensor:
#      x y z
#    x 3.705790 0.000000 0.000000 
#    y 0.000000 4.248120 0.000000 
#    z 0.000000 0.000000 3.998340 
# 
# 
# High freq. dielectric constant tensor:
#      x y z
#    x 1.826320 0.000000 0.000000 
#    y 0.000000 1.867460 0.000000 
#    z 0.000000 0.000000 1.866440 
# 
# From -- ./inp_files/4137.got.cif
#   From: 2010.03.12/outbox.cif.g09.slc.cpg/sg56_3_cif.got.tgz:4137.got - 2010.04.16 15:33:40.
