data_PCOD8228544
_publ_section_title
;
Structure prediction by ZEFSAII (Michael W. Deem and Ramdas Pophale) SiO2 
 PCOD8228544
Probable space group: P C C N
;
_chemical_formula_sum "Si O2"
_cell_formula_units_Z 44
_cell_length_a 27.271128
_cell_length_b 8.005085
_cell_length_c 9.551419
_cell_angle_alpha 90.000000
_cell_angle_beta 90.000000
_cell_angle_gamma 90.000000
_cell_volume 2085.148292
_symmetry_space_group_name_H-M "P C C N"
_symmetry_group_IT_number 56
_symmetry_cell_setting 'orthorhombic'
loop_
_space_group_symop_operation_xyz
x,y,z
1/2-x,1/2-y,z
1/2+x,-y,1/2-z
-x,1/2+y,1/2-z
-x,-y,-z
1/2+x,1/2+y,-z
1/2-x,y,1/2+z
x,1/2-y,1/2+z
loop_
_atom_site_type_symbol
_atom_site_label
_atom_site_fract_x
_atom_site_fract_y
_atom_site_fract_z
Si Si1 0.986797 0.864570 0.611586
Si Si2 0.459712 0.951213 0.610124
Si Si3 0.750000 0.250000 0.532136
Si Si4 0.270656 0.975030 0.715590
Si Si5 0.889619 0.817545 0.014449
Si Si6 0.173521 0.319242 0.217566
O O1 0.939831 0.760900 0.565641
O O2 0.035085 0.747785 0.633944
O O3 0.973515 0.952110 0.752470
O O4 0.000000 0.000000 0.500000
O O5 0.500000 0.000000 0.500000
O O6 0.404869 0.008468 0.563531
O O7 0.720505 0.371031 0.640128
O O8 0.782531 0.364222 0.424261
O O9 0.305768 0.132113 0.724899
O O10 0.214703 0.039593 0.698564
O O11 0.863571 0.682513 0.913011
O O12 0.854061 0.865429 0.140513
#
# Coordination Sequence:
#
# PCOD8228544 Si02
#       6
#     8   8   4   8   8   8
#     4  11  23  42  66  92 125 170 211 260 323 376
#     4  10  21  39  64  90 123 168 205 260 316 374
#     4  10  20  40  62  92 124 160 222 262 310 366
#     4  10  22  40  68  91 128 178 209 260 321 382
#     4  11  22  39  64  94 130 161 217 269 303 385
#     4  11  22  41  66  94 127 173 218 252 322 385
#
# _framework density 21.101616
#
# number of rings (size 3 to 8) (size 9 to 14) (size 15 to 20)
#    0.000    1.455    1.818    4.364    2.545    2.909 
#    0.000   10.909    4.000    0.000    0.000    0.000 
#    0.000    0.000    0.000    0.000    0.000    0.000 
#
# Total GULP energy -545262.914688 kJ/mol
# GULP energy per Si atom -12392.338970 kJ/mol
# Density = 2.105359 g / cm^3
# Si number density = 21.101616 Si / 1000 Ang^3
#
#
#
# Elastic Constant Matrix: (Units=GPa)
#
#
# Indices 1 2 3 4 5 6 
#
# 1 66.2009 44.2429 46.1841 0.0000 0.0000 0.0000
# 2 44.2429 108.6443 28.1220 0.0000 0.0000 0.0000
# 3 46.1841 28.1220 138.2407 0.0000 0.0000 0.0000
# 4 0.0000 0.0000 0.0000 32.3412 0.0000 0.0000
# 5 0.0000 0.0000 0.0000 0.0000 39.1908 0.0000
# 6 0.0000 0.0000 0.0000 0.0000 0.0000 21.1487
#
#
#
# Elastic Compliance Matrix: (Units=1/GPa)
#
#
# Indices 1 2 3 4 5 6 
#
# 1 0.025659 -0.008688 -0.006805 0.000000 0.000000 0.000000
# 2 -0.008688 0.012657 0.000328 0.000000 0.000000 0.000000
# 3 -0.006805 0.000328 0.009441 0.000000 0.000000 0.000000
# 4 0.000000 0.000000 0.000000 0.030920 0.000000 0.000000
# 5 0.000000 0.000000 0.000000 0.000000 0.025516 0.000000
# 6 0.000000 0.000000 0.000000 0.000000 0.000000 0.047284
#
#
# Mechanical properties :
#
#
# Convention : Reuss Voigt Hill
#
# Bulk Modulus (GPa) = 57.38273 61.13154 59.25713
# Shear Modulus (GPa) = 26.65011 31.50528 29.07769
#
# Velocity S-wave (km/s) = 3.55764 3.86816 3.71615
# Velocity P-wave (km/s) = 6.64292 6.99880 6.82318
#
# Compressibility (1/GPa) = 0.01742685
#
# Stress axis : x y z
#
# Youngs Moduli (GPa) = 38.97284 79.00532 105.92589
#
# Poissons Ratio (x) = 0.68636 0.72082
# Poissons Ratio (y) = 0.33858 -0.03469
# Poissons Ratio (z) = 0.26521 -0.02588
#
# Static dielectric constant tensor:
#      x y z
#    x 3.904040 0.000000 0.000000 
#    y 0.000000 4.419940 0.000000 
#    z 0.000000 0.000000 4.117320 
# 
# 
# High freq. dielectric constant tensor:
#      x y z
#    x 1.804850 0.000000 0.000000 
#    y 0.000000 1.832610 0.000000 
#    z 0.000000 0.000000 1.851600 
# 
# From -- ./inp_files/2197.got.cif
#   From: 2010.03.12/outbox.cif.g09.slc.cpg/sg56_2_cif.got.tgz:2197.got - 2010.04.16 15:33:40.
