data_PCOD8228732
_publ_section_title
;
Structure prediction by ZEFSAII (Michael W. Deem and Ramdas Pophale) SiO2 
 PCOD8228732
Probable space group: P C C N
;
_chemical_formula_sum "Si O2"
_cell_formula_units_Z 48
_cell_length_a 26.661318
_cell_length_b 8.959124
_cell_length_c 9.289136
_cell_angle_alpha 90.000000
_cell_angle_beta 90.000000
_cell_angle_gamma 90.000000
_cell_volume 2218.822105
_symmetry_space_group_name_H-M "P C C N"
_symmetry_group_IT_number 56
_symmetry_cell_setting 'orthorhombic'
loop_
_space_group_symop_operation_xyz
x,y,z
1/2-x,1/2-y,z
1/2+x,-y,1/2-z
-x,1/2+y,1/2-z
-x,-y,-z
1/2+x,1/2+y,-z
1/2-x,y,1/2+z
x,1/2-y,1/2+z
loop_
_atom_site_type_symbol
_atom_site_label
_atom_site_fract_x
_atom_site_fract_y
_atom_site_fract_z
Si Si1 0.991213 0.208338 0.058826
Si Si2 0.783330 0.400068 0.403827
Si Si3 0.136315 0.951221 0.709983
Si Si4 0.237079 0.077734 0.824911
Si Si5 0.623120 0.237564 0.525144
Si Si6 0.968530 0.920386 0.213657
O O1 0.004025 0.358852 0.144154
O O2 0.997421 0.071981 0.170992
O O3 0.935193 0.207638 0.994152
O O4 0.028333 0.191704 0.922818
O O5 0.750000 0.250000 0.418065
O O6 0.763878 0.528299 0.510786
O O7 0.779239 0.471775 0.246393
O O8 0.841851 0.374535 0.434542
O O9 0.134888 0.902538 0.540858
O O10 0.185407 0.047280 0.739354
O O11 0.089525 0.054019 0.751383
O O12 0.135595 0.796155 0.806393
O O13 0.250000 0.250000 0.813171
#
# Coordination Sequence:
#
# PCOD8228732 Si02
#       6
#     8   8   8   8   8   8
#     4  10  21  41  63  92 127 167 204 266 304 378
#     4  11  22  41  68  93 120 167 214 260 307 380
#     4  10  22  41  63  95 124 162 210 259 313 379
#     4  11  24  43  61  94 133 159 202 266 328 373
#     4  10  21  38  67  91 121 160 220 258 299 370
#     4  10  22  41  62  90 128 162 210 252 315 367
#
# _framework density 21.633102000000001
#
# number of rings (size 3 to 8) (size 9 to 14) (size 15 to 20)
#    0.000    1.667    1.667    3.000    2.333    2.667 
#   15.000    0.000    0.000    0.000    0.000    0.000 
#    0.000    0.000    0.000    0.000    0.000    0.000 
#
# Total GULP energy -594919.360929 kJ/mol
# GULP energy per Si atom -12394.153353 kJ/mol
# Density = 2.158386 g / cm^3
# Si number density = 21.633102 Si / 1000 Ang^3
#
#
#
# Elastic Constant Matrix: (Units=GPa)
#
#
# Indices 1 2 3 4 5 6 
#
# 1 63.2653 38.0092 30.6083 0.0000 0.0000 0.0000
# 2 38.0092 105.6522 39.6485 0.0000 0.0000 0.0000
# 3 30.6083 39.6485 69.5259 0.0000 0.0000 0.0000
# 4 0.0000 0.0000 0.0000 43.8861 0.0000 0.0000
# 5 0.0000 0.0000 0.0000 0.0000 24.4635 0.0000
# 6 0.0000 0.0000 0.0000 0.0000 0.0000 24.0091
#
#
#
# Elastic Compliance Matrix: (Units=1/GPa)
#
#
# Indices 1 2 3 4 5 6 
#
# 1 0.022370 -0.005537 -0.006691 0.000000 0.000000 0.000000
# 2 -0.005537 0.013413 -0.005211 0.000000 0.000000 0.000000
# 3 -0.006691 -0.005211 0.020300 0.000000 0.000000 0.000000
# 4 0.000000 0.000000 0.000000 0.022786 0.000000 0.000000
# 5 0.000000 0.000000 0.000000 0.000000 0.040877 0.000000
# 6 0.000000 0.000000 0.000000 0.000000 0.000000 0.041651
#
#
# Mechanical properties :
#
#
# Convention : Reuss Voigt Hill
#
# Bulk Modulus (GPa) = 47.15782 50.55283 48.85533
# Shear Modulus (GPa) = 24.58892 27.15022 25.86957
#
# Velocity S-wave (km/s) = 3.37506 3.54649 3.46183
# Velocity P-wave (km/s) = 6.08558 6.33949 6.21383
#
# Compressibility (1/GPa) = 0.02120539
#
# Stress axis : x y z
#
# Youngs Moduli (GPa) = 44.70269 74.55672 49.25999
#
# Poissons Ratio (x) = 0.41282 0.32958
# Poissons Ratio (y) = 0.24752 0.25670
# Poissons Ratio (z) = 0.29909 0.38853
#
# Static dielectric constant tensor:
#      x y z
#    x 3.907690 0.000000 0.000000 
#    y 0.000000 3.735770 0.000000 
#    z 0.000000 0.000000 4.141990 
# 
# 
# High freq. dielectric constant tensor:
#      x y z
#    x 1.851280 0.000000 0.000000 
#    y 0.000000 1.827970 0.000000 
#    z 0.000000 0.000000 1.859720 
# 
# From -- ./inp_files/5125.got.cif
#   From: 2010.03.12/outbox.cif.g09.slc.cpg/sg56_3_cif.got.tgz:5125.got - 2010.04.16 15:33:40.
