data_PCOD8228748
_publ_section_title
;
Structure prediction by ZEFSAII (Michael W. Deem and Ramdas Pophale) SiO2 
 PCOD8228748
Probable space group: P C C N
;
_chemical_formula_sum "Si O2"
_cell_formula_units_Z 36
_cell_length_a 27.191841
_cell_length_b 6.465734
_cell_length_c 9.794893
_cell_angle_alpha 90.000000
_cell_angle_beta 90.000000
_cell_angle_gamma 90.000000
_cell_volume 1722.091178
_symmetry_space_group_name_H-M "P C C N"
_symmetry_group_IT_number 56
_symmetry_cell_setting 'orthorhombic'
loop_
_space_group_symop_operation_xyz
x,y,z
1/2-x,1/2-y,z
1/2+x,-y,1/2-z
-x,1/2+y,1/2-z
-x,-y,-z
1/2+x,1/2+y,-z
1/2-x,y,1/2+z
x,1/2-y,1/2+z
loop_
_atom_site_type_symbol
_atom_site_label
_atom_site_fract_x
_atom_site_fract_y
_atom_site_fract_z
Si Si1 0.938996 0.017162 0.648459
Si Si2 0.481154 0.804802 0.581736
Si Si3 0.250000 0.250000 0.319756
Si Si4 0.798026 0.129053 0.307041
Si Si5 0.831467 0.446340 0.087887
O O1 0.946935 0.132841 0.791665
O O2 0.950261 0.162811 0.519944
O O3 0.882087 0.948695 0.637607
O O4 0.971730 0.812101 0.643711
O O5 0.500000 0.000000 0.500000
O O6 0.215322 0.393560 0.228108
O O7 0.286182 0.392677 0.409242
O O8 0.750000 0.250000 0.358874
O O9 0.821775 0.243559 0.178328
O O10 0.836627 0.127504 0.431505
#
# Coordination Sequence:
#
# PCOD8228748 Si02
#       5
#     8   8   4   8   8
#     4  11  24  41  66  94 124 170 211 266 325 379
#     4  11  23  43  65  91 131 161 215 268 317 387
#     4  10  22  38  62  92 128 164 206 254 308 376
#     4  10  21  39  61  87 126 160 206 258 304 370
#     4  11  23  40  64  93 123 166 211 257 317 375
#
# _framework density 20.904817999999999
#
# number of rings (size 3 to 8) (size 9 to 14) (size 15 to 20)
#    0.000    1.333    2.222    4.000    0.000    5.333 
#    0.000    0.000    0.000    0.000    0.000    0.000 
#    0.000    0.000    0.000    0.000    0.000    0.000 
#
# Total GULP energy -446511.350109 kJ/mol
# GULP energy per Si atom -12403.093059 kJ/mol
# Density = 2.085724 g / cm^3
# Si number density = 20.904818 Si / 1000 Ang^3
#
#
#
# Elastic Constant Matrix: (Units=GPa)
#
#
# Indices 1 2 3 4 5 6 
#
# 1 91.0330 18.7447 23.6503 0.0000 0.0000 0.0000
# 2 18.7447 96.5302 37.1585 0.0000 0.0000 0.0000
# 3 23.6503 37.1585 125.2335 0.0000 0.0000 0.0000
# 4 0.0000 0.0000 0.0000 26.8142 0.0000 0.0000
# 5 0.0000 0.0000 0.0000 0.0000 22.6528 0.0000
# 6 0.0000 0.0000 0.0000 0.0000 0.0000 22.4275
#
#
#
# Elastic Compliance Matrix: (Units=1/GPa)
#
#
# Indices 1 2 3 4 5 6 
#
# 1 0.011770 -0.001614 -0.001744 0.000000 0.000000 0.000000
# 2 -0.001614 0.011917 -0.003231 0.000000 0.000000 0.000000
# 3 -0.001744 -0.003231 0.009273 0.000000 0.000000 0.000000
# 4 0.000000 0.000000 0.000000 0.037294 0.000000 0.000000
# 5 0.000000 0.000000 0.000000 0.000000 0.044145 0.000000
# 6 0.000000 0.000000 0.000000 0.000000 0.000000 0.044588
#
#
# Mechanical properties :
#
#
# Convention : Reuss Voigt Hill
#
# Bulk Modulus (GPa) = 50.55133 52.43374 51.49254
# Shear Modulus (GPa) = 27.97062 29.92845 28.94954
#
# Velocity S-wave (km/s) = 3.66184 3.78782 3.72536
# Velocity P-wave (km/s) = 6.48944 6.65333 6.57190
#
# Compressibility (1/GPa) = 0.01978187
#
# Stress axis : x y z
#
# Youngs Moduli (GPa) = 84.95824 83.91605 107.83900
#
# Poissons Ratio (x) = 0.13547 0.18805
# Poissons Ratio (y) = 0.13715 0.34842
# Poissons Ratio (z) = 0.14815 0.27113
#
# Static dielectric constant tensor:
#      x y z
#    x 3.770970 0.000000 0.000000 
#    y 0.000000 3.846220 0.000000 
#    z 0.000000 0.000000 3.830880 
# 
# 
# High freq. dielectric constant tensor:
#      x y z
#    x 1.813420 0.000000 0.000000 
#    y 0.000000 1.818690 0.000000 
#    z 0.000000 0.000000 1.833360 
# 
# From -- ./inp_files/5551.got.cif
#   From: 2010.03.12/outbox.cif.g09.slc.cpg/sg56_3_cif.got.tgz:5551.got - 2010.04.16 15:33:40.
