data_PCOD8228857
_publ_section_title
;
Structure prediction by ZEFSAII (Michael W. Deem and Ramdas Pophale) SiO2 
 PCOD8228857
Probable space group: P C C N
;
_chemical_formula_sum "Si O2"
_cell_formula_units_Z 60
_cell_length_a 11.795103
_cell_length_b 19.724969
_cell_length_c 12.360198
_cell_angle_alpha 90.000000
_cell_angle_beta 90.000000
_cell_angle_gamma 90.000000
_cell_volume 2875.699453
_symmetry_space_group_name_H-M "P C C N"
_symmetry_group_IT_number 56
_symmetry_cell_setting 'orthorhombic'
loop_
_space_group_symop_operation_xyz
x,y,z
1/2-x,1/2-y,z
1/2+x,-y,1/2-z
-x,1/2+y,1/2-z
-x,-y,-z
1/2+x,1/2+y,-z
1/2-x,y,1/2+z
x,1/2-y,1/2+z
loop_
_atom_site_type_symbol
_atom_site_label
_atom_site_fract_x
_atom_site_fract_y
_atom_site_fract_z
Si Si1 0.436304 0.182629 0.845184
Si Si2 0.908912 0.109957 0.021550
Si Si3 0.282701 0.518924 0.136740
Si Si4 0.750000 0.750000 0.013959
Si Si5 0.649379 0.628957 0.877027
Si Si6 0.559511 0.068626 0.968887
Si Si7 0.803792 0.388849 0.169069
Si Si8 0.364548 0.718100 0.154597
O O1 0.357389 0.231937 0.913849
O O2 0.369418 0.160864 0.739445
O O3 0.467879 0.115857 0.911758
O O4 0.548422 0.223477 0.811901
O O5 0.875169 0.043684 0.951693
O O6 0.913676 0.174045 0.942561
O O7 0.821878 0.119732 0.120570
O O8 0.033391 0.102578 0.070164
O O9 0.272251 0.437804 0.134260
O O10 0.162842 0.553754 0.111553
O O11 0.314245 0.543579 0.257360
O O12 0.717508 0.684355 0.944557
O O13 0.603945 0.106633 0.074954
O O14 0.500000 0.000000 0.000000
O O15 0.835602 0.323311 0.237925
O O16 0.250000 0.750000 0.107565
#
# Coordination Sequence:
#
# PCOD8228857 Si02
#       8
#     8   8   8   4   8   8   8   8
#     4  12  26  44  67  99 134 175 232 273 332 423
#     4  10  21  41  65  96 131 174 215 279 333 399
#     4  10  22  41  64 102 127 171 232 272 339 403
#     4  12  28  48  62  96 134 186 224 266 344 408
#     4  12  24  44  68  89 137 180 220 276 330 395
#     4  11  23  43  66  94 131 175 226 284 336 392
#     4  10  22  38  66  99 132 164 220 278 348 392
#     4  11  22  39  65 101 134 170 220 272 340 411
#
# _framework density 20.864488999999999
#
# number of rings (size 3 to 8) (size 9 to 14) (size 15 to 20)
#    0.000    1.067    1.333    6.400    1.867    3.733 
#    2.400    2.667    0.000    0.000    0.000    0.000 
#    0.000    0.000    0.000    0.000    0.000    0.000 
#
# Total GULP energy -744336.559680 kJ/mol
# GULP energy per Si atom -12405.609328 kJ/mol
# Density = 2.081700 g / cm^3
# Si number density = 20.864489 Si / 1000 Ang^3
#
#
#
# Elastic Constant Matrix: (Units=GPa)
#
#
# Indices 1 2 3 4 5 6 
#
# 1 69.8887 19.3917 18.4204 0.0000 0.0000 0.0000
# 2 19.3917 120.8754 27.2334 0.0000 0.0000 0.0000
# 3 18.4204 27.2334 99.3880 0.0000 0.0000 0.0000
# 4 0.0000 0.0000 0.0000 21.9493 0.0000 0.0000
# 5 0.0000 0.0000 0.0000 0.0000 22.4068 0.0000
# 6 0.0000 0.0000 0.0000 0.0000 0.0000 40.1356
#
#
#
# Elastic Compliance Matrix: (Units=1/GPa)
#
#
# Indices 1 2 3 4 5 6 
#
# 1 0.015465 -0.001956 -0.002330 0.000000 0.000000 0.000000
# 2 -0.001956 0.009065 -0.002121 0.000000 0.000000 0.000000
# 3 -0.002330 -0.002121 0.011075 0.000000 0.000000 0.000000
# 4 0.000000 0.000000 0.000000 0.045560 0.000000 0.000000
# 5 0.000000 0.000000 0.000000 0.000000 0.044629 0.000000
# 6 0.000000 0.000000 0.000000 0.000000 0.000000 0.024916
#
#
# Mechanical properties :
#
#
# Convention : Reuss Voigt Hill
#
# Bulk Modulus (GPa) = 43.87991 46.69368 45.28679
# Shear Modulus (GPa) = 29.21906 31.90543 30.56224
#
# Velocity S-wave (km/s) = 3.74628 3.91471 3.83142
# Velocity P-wave (km/s) = 6.30788 6.54686 6.42848
#
# Compressibility (1/GPa) = 0.02278947
#
# Stress axis : x y z
#
# Youngs Moduli (GPa) = 64.66046 110.31783 90.29557
#
# Poissons Ratio (x) = 0.21579 0.21042
# Poissons Ratio (y) = 0.12648 0.19154
# Poissons Ratio (z) = 0.15068 0.23402
#
# Static dielectric constant tensor:
#      x y z
#    x 3.827260 0.000000 0.000000 
#    y 0.000000 3.784760 0.000000 
#    z 0.000000 0.000000 3.856710 
# 
# 
# High freq. dielectric constant tensor:
#      x y z
#    x 1.817570 0.000000 0.000000 
#    y 0.000000 1.828520 0.000000 
#    z 0.000000 0.000000 1.828590 
# 
# From -- ./inp_files/7320.got.cif
#   From: 2010.03.12/outbox.cif.g09.slc.cpg/sg56_4_cif.got.tgz:7320.got - 2010.04.16 15:33:40.
