data_PCOD8228514
_publ_section_title
;
Structure prediction by ZEFSAII (Michael W. Deem and Ramdas Pophale) SiO2 
 PCOD8228514
Probable space group: P C C N
;
_chemical_formula_sum "Si O2"
_cell_formula_units_Z 40
_cell_length_a 11.103903
_cell_length_b 8.284144
_cell_length_c 19.228916
_cell_angle_alpha 90.000000
_cell_angle_beta 90.000000
_cell_angle_gamma 90.000000
_cell_volume 1768.797440
_symmetry_space_group_name_H-M "P C C N"
_symmetry_group_IT_number 56
_symmetry_cell_setting 'orthorhombic'
loop_
_space_group_symop_operation_xyz
x,y,z
1/2-x,1/2-y,z
1/2+x,-y,1/2-z
-x,1/2+y,1/2-z
-x,-y,-z
1/2+x,1/2+y,-z
1/2-x,y,1/2+z
x,1/2-y,1/2+z
loop_
_atom_site_type_symbol
_atom_site_label
_atom_site_fract_x
_atom_site_fract_y
_atom_site_fract_z
Si Si1 0.455716 0.042865 0.633982
Si Si2 0.221803 0.433071 0.389717
Si Si3 0.752585 0.436583 0.462981
Si Si4 0.864367 0.633383 0.854670
Si Si5 0.728521 0.437293 0.752736
O O1 0.582071 0.956292 0.627123
O O2 0.378639 0.012086 0.563793
O O3 0.387339 0.965751 0.699564
O O4 0.475759 0.239052 0.645130
O O5 0.250000 0.250000 0.409135
O O6 0.261259 0.541355 0.454848
O O7 0.298856 0.485197 0.322515
O O8 0.750000 0.250000 0.442989
O O9 0.639620 0.521916 0.423750
O O10 0.750000 0.750000 0.854842
O O11 0.849399 0.519654 0.786464
O O12 0.750000 0.250000 0.743042
#
# Coordination Sequence:
#
# PCOD8228514 Si02
#       5
#     8   8   8   8   8
#     4  10  21  40  64  86 119 168 204 249 322 379
#     4  12  24  39  60  91 125 161 212 266 308 372
#     4  10  20  39  62  91 123 156 204 260 315 382
#     4   8  16  36  61  82 113 159 200 241 304 380
#     4  10  21  38  59  90 122 158 205 256 311 379
#
# _framework density 22.614232999999999
#
# number of rings (size 3 to 8) (size 9 to 14) (size 15 to 20)
#    0.000    2.400    0.000    7.200    0.000    3.200 
#    0.000    8.000    0.000    0.000    0.000    0.000 
#    0.000    0.000    0.000    0.000    0.000    0.000 
#
# Total GULP energy -495812.472599 kJ/mol
# GULP energy per Si atom -12395.311815 kJ/mol
# Density = 2.256276 g / cm^3
# Si number density = 22.614233 Si / 1000 Ang^3
#
#
#
# Elastic Constant Matrix: (Units=GPa)
#
#
# Indices 1 2 3 4 5 6 
#
# 1 37.4779 11.6271 -5.9203 0.0000 0.0000 0.0000
# 2 11.6271 130.0447 2.6075 0.0000 0.0000 0.0000
# 3 -5.9203 2.6075 135.1113 0.0000 0.0000 0.0000
# 4 0.0000 0.0000 0.0000 69.1203 0.0000 0.0000
# 5 0.0000 0.0000 0.0000 0.0000 14.2663 0.0000
# 6 0.0000 0.0000 0.0000 0.0000 0.0000 31.5646
#
#
#
# Elastic Compliance Matrix: (Units=1/GPa)
#
#
# Indices 1 2 3 4 5 6 
#
# 1 0.027656 -0.002498 0.001260 0.000000 0.000000 0.000000
# 2 -0.002498 0.007918 -0.000262 0.000000 0.000000 0.000000
# 3 0.001260 -0.000262 0.007462 0.000000 0.000000 0.000000
# 4 0.000000 0.000000 0.000000 0.014468 0.000000 0.000000
# 5 0.000000 0.000000 0.000000 0.000000 0.070095 0.000000
# 6 0.000000 0.000000 0.000000 0.000000 0.000000 0.031681
#
#
# Mechanical properties :
#
#
# Convention : Reuss Voigt Hill
#
# Bulk Modulus (GPa) = 24.97759 35.47361 30.22560
# Shear Modulus (GPa) = 28.46964 42.61156 35.54060
#
# Velocity S-wave (km/s) = 3.55198 4.34554 3.96865
# Velocity P-wave (km/s) = 5.28121 6.39521 5.86472
#
# Compressibility (1/GPa) = 0.04003589
#
# Stress axis : x y z
#
# Youngs Moduli (GPa) = 36.15794 126.29030 134.01986
#
# Poissons Ratio (x) = 0.31547 -0.16887
# Poissons Ratio (y) = 0.09032 0.03515
# Poissons Ratio (z) = -0.04556 0.03312
#
# Static dielectric constant tensor:
#      x y z
#    x 3.849550 0.000000 0.000000 
#    y 0.000000 4.842360 0.000000 
#    z 0.000000 0.000000 4.196960 
# 
# 
# High freq. dielectric constant tensor:
#      x y z
#    x 1.844540 0.000000 0.000000 
#    y 0.000000 1.913600 0.000000 
#    z 0.000000 0.000000 1.903310 
# 
# From -- ./inp_files/15392.got.cif
#   From: 2010.03.12/outbox.cif.g09.slc.cpg/sg56_8_cif.got.tgz:15392.got - 2010.04.16 15:33:40.
