data_PCOD8228912
_publ_section_title
;
Structure prediction by ZEFSAII (Michael W. Deem and Ramdas Pophale) SiO2 
 PCOD8228912
Probable space group: P C C N
;
_chemical_formula_sum "Si O2"
_cell_formula_units_Z 48
_cell_length_a 8.830157
_cell_length_b 18.064538
_cell_length_c 13.744897
_cell_angle_alpha 90.000000
_cell_angle_beta 90.000000
_cell_angle_gamma 90.000000
_cell_volume 2192.485723
_symmetry_space_group_name_H-M "P C C N"
_symmetry_group_IT_number 56
_symmetry_cell_setting 'orthorhombic'
loop_
_space_group_symop_operation_xyz
x,y,z
1/2-x,1/2-y,z
1/2+x,-y,1/2-z
-x,1/2+y,1/2-z
-x,-y,-z
1/2+x,1/2+y,-z
1/2-x,y,1/2+z
x,1/2-y,1/2+z
loop_
_atom_site_type_symbol
_atom_site_label
_atom_site_fract_x
_atom_site_fract_y
_atom_site_fract_z
Si Si1 0.632051 0.814815 0.563677
Si Si2 0.347404 0.817687 0.448218
Si Si3 0.655979 0.583252 0.450815
Si Si4 0.451996 0.415320 0.760724
Si Si5 0.691020 0.431630 0.219816
Si Si6 0.364212 0.587025 0.567059
O O1 0.750000 0.750000 0.588204
O O2 0.499717 0.783427 0.494151
O O3 0.698586 0.879290 0.496611
O O4 0.566544 0.847544 0.664567
O O5 0.250000 0.750000 0.406329
O O6 0.368057 0.875506 0.361251
O O7 0.270399 0.858753 0.538823
O O8 0.634262 0.606172 0.338556
O O9 0.513794 0.612245 0.511984
O O10 0.680634 0.495919 0.463065
O O11 0.370241 0.486918 0.807971
O O12 0.627212 0.432338 0.734043
O O13 0.607950 0.406374 0.318273
#
# Coordination Sequence:
#
# PCOD8228912 Si02
#       6
#     8   8   8   8   8   8
#     4  12  28  46  69 100 142 187 233 282 342 415
#     4  12  26  46  67  98 141 185 233 275 345 414
#     4  10  23  43  72 100 140 176 225 297 343 405
#     4  11  25  46  70 109 135 177 235 287 352 402
#     4  11  25  44  74 107 135 181 229 292 345 412
#     4  10  21  43  71 100 135 178 226 284 348 404
#
# _framework density 21.892959000000001
#
# number of rings (size 3 to 8) (size 9 to 14) (size 15 to 20)
#    0.000    1.000    3.333    2.000    9.333    2.667 
#    3.000    0.000    0.000    0.000    0.000    0.000 
#    0.000    0.000    0.000    0.000    0.000    0.000 
#
# Total GULP energy -595297.498720 kJ/mol
# GULP energy per Si atom -12402.031223 kJ/mol
# Density = 2.184313 g / cm^3
# Si number density = 21.892959 Si / 1000 Ang^3
#
#
#
# Elastic Constant Matrix: (Units=GPa)
#
#
# Indices 1 2 3 4 5 6 
#
# 1 87.9462 29.6917 23.5670 0.0000 0.0000 0.0000
# 2 29.6917 76.3502 33.9201 0.0000 0.0000 0.0000
# 3 23.5670 33.9201 88.4415 0.0000 0.0000 0.0000
# 4 0.0000 0.0000 0.0000 8.4682 0.0000 0.0000
# 5 0.0000 0.0000 0.0000 0.0000 33.5829 0.0000
# 6 0.0000 0.0000 0.0000 0.0000 0.0000 32.9583
#
#
#
# Elastic Compliance Matrix: (Units=1/GPa)
#
#
# Indices 1 2 3 4 5 6 
#
# 1 0.013345 -0.004351 -0.001887 0.000000 0.000000 0.000000
# 2 -0.004351 0.017206 -0.005440 0.000000 0.000000 0.000000
# 3 -0.001887 -0.005440 0.013896 0.000000 0.000000 0.000000
# 4 0.000000 0.000000 0.000000 0.118090 0.000000 0.000000
# 5 0.000000 0.000000 0.000000 0.000000 0.029777 0.000000
# 6 0.000000 0.000000 0.000000 0.000000 0.000000 0.030341
#
#
# Mechanical properties :
#
#
# Convention : Reuss Voigt Hill
#
# Bulk Modulus (GPa) = 47.41306 47.45506 47.43406
# Shear Modulus (GPa) = 19.75949 26.03915 22.89932
#
# Velocity S-wave (km/s) = 3.00751 3.45249 3.23765
# Velocity P-wave (km/s) = 5.81067 6.13318 5.97410
#
# Compressibility (1/GPa) = 0.02109124
#
# Stress axis : x y z
#
# Youngs Moduli (GPa) = 74.93212 58.11771 71.96268
#
# Poissons Ratio (x) = 0.25290 0.13581
# Poissons Ratio (y) = 0.32606 0.39145
# Poissons Ratio (z) = 0.14141 0.31614
#
# Static dielectric constant tensor:
#      x y z
#    x 4.114300 0.000000 0.000000 
#    y 0.000000 4.178960 0.000000 
#    z 0.000000 0.000000 4.067140 
# 
# 
# High freq. dielectric constant tensor:
#      x y z
#    x 1.865000 0.000000 0.000000 
#    y 0.000000 1.856070 0.000000 
#    z 0.000000 0.000000 1.871250 
# 
# From -- ./inp_files/10687.got.cif
#   From: 2010.03.12/outbox.cif.g09.slc.cpg/sg56_6_cif.got.tgz:10687.got - 2010.04.16 15:33:40.
