data_PCOD8228269
_publ_section_title
;
Structure prediction by ZEFSAII (Michael W. Deem and Ramdas Pophale) SiO2 
 PCOD8228269
Probable space group: P C C N
;
_chemical_formula_sum "Si O2"
_cell_formula_units_Z 56
_cell_length_a 5.041442
_cell_length_b 23.841694
_cell_length_c 25.966001
_cell_angle_alpha 90.000000
_cell_angle_beta 90.000000
_cell_angle_gamma 90.000000
_cell_volume 3121.022893
_symmetry_space_group_name_H-M "P C C N"
_symmetry_group_IT_number 56
_symmetry_cell_setting 'orthorhombic'
loop_
_space_group_symop_operation_xyz
x,y,z
1/2-x,1/2-y,z
1/2+x,-y,1/2-z
-x,1/2+y,1/2-z
-x,-y,-z
1/2+x,1/2+y,-z
1/2-x,y,1/2+z
x,1/2-y,1/2+z
loop_
_atom_site_type_symbol
_atom_site_label
_atom_site_fract_x
_atom_site_fract_y
_atom_site_fract_z
Si Si1 0.737980 0.032802 0.811160
Si Si2 0.810173 0.378420 0.605539
Si Si3 0.304634 0.381564 0.474255
Si Si4 0.387950 0.032668 0.547025
Si Si5 0.762075 0.042387 0.194303
Si Si6 0.701824 0.814600 0.932063
Si Si7 0.205859 0.917830 0.087549
O O1 0.455794 0.003737 0.820564
O O2 0.956280 0.984679 0.819377
O O3 0.760211 0.059073 0.754236
O O4 0.776425 0.086112 0.850274
O O5 0.729646 0.399565 0.662556
O O6 0.590804 0.336430 0.582913
O O7 0.862690 0.435092 0.572484
O O8 0.089589 0.346232 0.604590
O O9 0.328241 0.424525 0.523146
O O10 0.258622 0.323594 0.505627
O O11 0.571688 0.381654 0.441259
O O12 0.070335 0.395550 0.434615
O O13 0.500000 0.000000 0.500000
O O14 0.250822 0.985612 0.582502
O O15 0.750000 0.750000 0.920369
#
# Coordination Sequence:
#
# PCOD8228269 Si02
#       7
#     8   8   8   8   8   8   8
#     4  10  20  32  51  73 111 143 174 198 245 301
#     4  11  21  34  55  76 105 138 177 213 262 312
#     4  10  21  32  47  74 101 135 174 206 258 300
#     4   9  18  28  45  70 106 135 163 196 239 300
#     4  10  20  34  49  77 104 144 175 207 245 302
#     4  11  23  39  55  75 100 133 177 228 269 313
#     4  11  19  31  49  74 107 141 167 204 237 314
#
# _framework density 17.942837000000001
#
# number of rings (size 3 to 8) (size 9 to 14) (size 15 to 20)
#    0.000    1.714    1.429    5.143    4.000    0.000 
#    0.000    0.000    0.000    0.000    0.000    6.000 
#    0.000    0.000    0.000    0.000    0.000    0.000 
#
# Total GULP energy -693934.785609 kJ/mol
# GULP energy per Si atom -12391.692600 kJ/mol
# Density = 1.790200 g / cm^3
# Si number density = 17.942837 Si / 1000 Ang^3
#
#
#
# Elastic Constant Matrix: (Units=GPa)
#
#
# Indices 1 2 3 4 5 6 
#
# 1 78.2651 17.2088 22.3787 0.0000 0.0000 0.0000
# 2 17.2088 65.3675 33.3261 0.0000 0.0000 0.0000
# 3 22.3787 33.3261 105.0602 0.0000 0.0000 0.0000
# 4 0.0000 0.0000 0.0000 16.4784 0.0000 0.0000
# 5 0.0000 0.0000 0.0000 0.0000 26.5193 0.0000
# 6 0.0000 0.0000 0.0000 0.0000 0.0000 15.2105
#
#
#
# Elastic Compliance Matrix: (Units=1/GPa)
#
#
# Indices 1 2 3 4 5 6 
#
# 1 0.013960 -0.002576 -0.002157 0.000000 0.000000 0.000000
# 2 -0.002576 0.018725 -0.005391 0.000000 0.000000 0.000000
# 3 -0.002157 -0.005391 0.011688 0.000000 0.000000 0.000000
# 4 0.000000 0.000000 0.000000 0.060686 0.000000 0.000000
# 5 0.000000 0.000000 0.000000 0.000000 0.037708 0.000000
# 6 0.000000 0.000000 0.000000 0.000000 0.000000 0.065744
#
#
# Mechanical properties :
#
#
# Convention : Reuss Voigt Hill
#
# Bulk Modulus (GPa) = 41.44901 43.83554 42.64228
# Shear Modulus (GPa) = 21.11491 23.36022 22.23757
#
# Velocity S-wave (km/s) = 3.43416 3.61213 3.52427
# Velocity P-wave (km/s) = 6.23501 6.47151 6.35436
#
# Compressibility (1/GPa) = 0.02412603
#
# Stress axis : x y z
#
# Youngs Moduli (GPa) = 71.63290 53.40538 85.55922
#
# Poissons Ratio (x) = 0.13755 0.18451
# Poissons Ratio (y) = 0.18450 0.46125
# Poissons Ratio (z) = 0.15448 0.28791
#
# Static dielectric constant tensor:
#      x y z
#    x 4.993760 0.000000 0.000000 
#    y 0.000000 1.823060 0.000000 
#    z 0.000000 0.000000 3.066160 
# 
# 
# High freq. dielectric constant tensor:
#      x y z
#    x 1.709250 0.000000 0.000000 
#    y 0.000000 1.641720 0.000000 
#    z 0.000000 0.000000 1.697760 
# 
# From -- ./inp_files/20176.got.cif
#   From: 2010.03.12/outbox.cif.g09.slc.cpg/sg56_11_cif.got.tgz:20176.got - 2010.04.16 15:33:40.
