data_PCOD8228950
_publ_section_title
;
Structure prediction by ZEFSAII (Michael W. Deem and Ramdas Pophale) SiO2 
 PCOD8228950
Probable space group: P C C N
;
_chemical_formula_sum "Si O2"
_cell_formula_units_Z 48
_cell_length_a 29.350564
_cell_length_b 5.188461
_cell_length_c 13.345520
_cell_angle_alpha 90.000000
_cell_angle_beta 90.000000
_cell_angle_gamma 90.000000
_cell_volume 2032.312593
_symmetry_space_group_name_H-M "P C C N"
_symmetry_group_IT_number 56
_symmetry_cell_setting 'orthorhombic'
loop_
_space_group_symop_operation_xyz
x,y,z
1/2-x,1/2-y,z
1/2+x,-y,1/2-z
-x,1/2+y,1/2-z
-x,-y,-z
1/2+x,1/2+y,-z
1/2-x,y,1/2+z
x,1/2-y,1/2+z
loop_
_atom_site_type_symbol
_atom_site_label
_atom_site_fract_x
_atom_site_fract_y
_atom_site_fract_z
Si Si1 0.494952 0.769910 0.407277
Si Si2 0.344324 0.118740 0.709807
Si Si3 0.665700 0.115168 0.918158
Si Si4 0.933664 0.363815 0.936945
Si Si5 0.442904 0.959555 0.739564
Si Si6 0.221070 0.992784 0.388416
O O1 0.462984 0.865879 0.502154
O O2 0.538101 0.622664 0.453283
O O3 0.457625 0.579654 0.353741
O O4 0.511162 0.958178 0.320179
O O5 0.327977 0.390998 0.664722
O O6 0.320209 0.057556 0.814252
O O7 0.330727 0.895974 0.631635
O O8 0.398853 0.144378 0.730415
O O9 0.617278 0.094469 0.976913
O O10 0.703862 0.089264 0.002127
O O11 0.928755 0.302125 0.818733
O O12 0.250000 0.250000 0.399837
O O13 0.250000 0.750000 0.345792
#
# Coordination Sequence:
#
# PCOD8228950 Si02
#       6
#     8   8   8   8   8   8
#     4  11  20  36  58  88 125 169 218 260 306 368
#     4  11  25  44  71  98 139 174 222 274 339 398
#     4  11  24  46  68 101 134 178 216 278 335 400
#     4  10  22  37  58  87 127 167 216 258 313 372
#     4  11  21  38  59  92 128 172 219 264 317 379
#     4  12  27  47  72 104 130 169 223 277 347 415
#
# _framework density 23.618413
#
# number of rings (size 3 to 8) (size 9 to 14) (size 15 to 20)
#    0.000    1.000    3.333    3.500    0.000    4.000 
#    0.000    1.667    0.000    0.000    0.000    0.000 
#    0.000    0.000    0.000    0.000    0.000    0.000 
#
# Total GULP energy -594882.986540 kJ/mol
# GULP energy per Si atom -12393.395553 kJ/mol
# Density = 2.356466 g / cm^3
# Si number density = 23.618413 Si / 1000 Ang^3
#
#
#
# Elastic Constant Matrix: (Units=GPa)
#
#
# Indices 1 2 3 4 5 6 
#
# 1 89.8810 18.7787 35.9454 0.0000 0.0000 0.0000
# 2 18.7787 72.6726 -20.0258 0.0000 0.0000 0.0000
# 3 35.9454 -20.0258 51.7014 0.0000 0.0000 0.0000
# 4 0.0000 0.0000 0.0000 30.9596 0.0000 0.0000
# 5 0.0000 0.0000 0.0000 0.0000 26.6007 0.0000
# 6 0.0000 0.0000 0.0000 0.0000 0.0000 33.1114
#
#
#
# Elastic Compliance Matrix: (Units=1/GPa)
#
#
# Indices 1 2 3 4 5 6 
#
# 1 0.020654 -0.010405 -0.018390 0.000000 0.000000 0.000000
# 2 -0.010405 0.020646 0.015231 0.000000 0.000000 0.000000
# 3 -0.018390 0.015231 0.038027 0.000000 0.000000 0.000000
# 4 0.000000 0.000000 0.000000 0.032300 0.000000 0.000000
# 5 0.000000 0.000000 0.000000 0.000000 0.037593 0.000000
# 6 0.000000 0.000000 0.000000 0.000000 0.000000 0.030201
#
#
# Mechanical properties :
#
#
# Convention : Reuss Voigt Hill
#
# Bulk Modulus (GPa) = 19.15729 31.51683 25.33706
# Shear Modulus (GPa) = 22.32653 30.10479 26.21566
#
# Velocity S-wave (km/s) = 3.07791 3.57407 3.33523
# Velocity P-wave (km/s) = 4.55633 5.51409 5.05793
#
# Compressibility (1/GPa) = 0.05219944
#
# Stress axis : x y z
#
# Youngs Moduli (GPa) = 48.41623 48.43563 26.29713
#
# Poissons Ratio (x) = 0.50396 0.48360
# Poissons Ratio (y) = 0.50375 -0.40053
# Poissons Ratio (z) = 0.89037 -0.73771
#
# Static dielectric constant tensor:
#      x y z
#    x 4.574880 0.000000 0.000000 
#    y 0.000000 4.191360 0.000000 
#    z 0.000000 0.000000 4.370240 
# 
# 
# High freq. dielectric constant tensor:
#      x y z
#    x 1.942410 0.000000 0.000000 
#    y 0.000000 1.928740 0.000000 
#    z 0.000000 0.000000 1.942510 
# 
# From -- ./inp_files/13365.got.cif
#   From: 2010.03.12/outbox.cif.g09.slc.cpg/sg56_7_cif.got.tgz:13365.got - 2010.04.16 15:33:40.
