data_PCOD8228237
_publ_section_title
;
Structure prediction by ZEFSAII (Michael W. Deem and Ramdas Pophale) SiO2 
 PCOD8228237
Probable space group: P C C N
;
_chemical_formula_sum "Si O2"
_cell_formula_units_Z 48
_cell_length_a 9.431615
_cell_length_b 16.393134
_cell_length_c 15.287784
_cell_angle_alpha 90.000000
_cell_angle_beta 90.000000
_cell_angle_gamma 90.000000
_cell_volume 2363.701285
_symmetry_space_group_name_H-M "P C C N"
_symmetry_group_IT_number 56
_symmetry_cell_setting 'orthorhombic'
loop_
_space_group_symop_operation_xyz
x,y,z
1/2-x,1/2-y,z
1/2+x,-y,1/2-z
-x,1/2+y,1/2-z
-x,-y,-z
1/2+x,1/2+y,-z
1/2-x,y,1/2+z
x,1/2-y,1/2+z
loop_
_atom_site_type_symbol
_atom_site_label
_atom_site_fract_x
_atom_site_fract_y
_atom_site_fract_z
Si Si1 0.341299 0.415496 0.046717
Si Si2 0.446880 0.020215 0.094917
Si Si3 0.904427 0.715455 0.323480
Si Si4 0.456023 0.043166 0.368887
Si Si5 0.605699 0.096248 0.759112
Si Si6 0.590833 0.136778 0.219653
O O1 0.181862 0.416461 0.083189
O O2 0.404027 0.329625 0.081953
O O3 0.416554 0.496208 0.083585
O O4 0.350189 0.418297 0.941295
O O5 0.569911 0.060958 0.153330
O O6 0.395726 0.936785 0.141783
O O7 0.500000 0.000000 0.000000
O O8 0.750000 0.750000 0.295717
O O9 0.960268 0.647046 0.254828
O O10 0.022193 0.785281 0.326626
O O11 0.515034 0.118329 0.312072
O O12 0.375429 0.980772 0.305610
O O13 0.743303 0.151985 0.739592
#
# Coordination Sequence:
#
# PCOD8228237 Si02
#       6
#     8   8   8   8   8   8
#     4  10  19  40  60  93 125 160 213 262 313 369
#     4  11  22  37  66  96 126 161 220 267 308 369
#     4  11  23  40  63  89 131 169 199 263 324 381
#     4   9  20  36  68  88 122 169 208 262 311 367
#     4  10  22  40  65  94 124 168 218 257 312 385
#     4  11  21  40  64  94 129 169 208 258 323 380
#
# _framework density 20.307134999999999
#
# number of rings (size 3 to 8) (size 9 to 14) (size 15 to 20)
#    0.000    1.667    3.333    1.500    0.000    1.333 
#    3.000    0.833    0.000    0.000    0.000    0.000 
#    0.000    0.000    0.000    0.000    0.000    0.000 
#
# Total GULP energy -595089.668662 kJ/mol
# GULP energy per Si atom -12397.701430 kJ/mol
# Density = 2.026091 g / cm^3
# Si number density = 20.307135 Si / 1000 Ang^3
#
#
#
# Elastic Constant Matrix: (Units=GPa)
#
#
# Indices 1 2 3 4 5 6 
#
# 1 104.0408 39.6819 43.8369 0.0000 0.0000 0.0000
# 2 39.6819 94.3952 43.3180 0.0000 0.0000 0.0000
# 3 43.8369 43.3180 136.3110 0.0000 0.0000 0.0000
# 4 0.0000 0.0000 0.0000 16.5406 0.0000 0.0000
# 5 0.0000 0.0000 0.0000 0.0000 27.0109 0.0000
# 6 0.0000 0.0000 0.0000 0.0000 0.0000 38.0337
#
#
#
# Elastic Compliance Matrix: (Units=1/GPa)
#
#
# Indices 1 2 3 4 5 6 
#
# 1 0.012237 -0.003908 -0.002693 0.000000 0.000000 0.000000
# 2 -0.003908 0.013651 -0.003081 0.000000 0.000000 0.000000
# 3 -0.002693 -0.003081 0.009181 0.000000 0.000000 0.000000
# 4 0.000000 0.000000 0.000000 0.060457 0.000000 0.000000
# 5 0.000000 0.000000 0.000000 0.000000 0.037022 0.000000
# 6 0.000000 0.000000 0.000000 0.000000 0.000000 0.026292
#
#
# Mechanical properties :
#
#
# Convention : Reuss Voigt Hill
#
# Bulk Modulus (GPa) = 63.67930 65.38004 64.52967
# Shear Modulus (GPa) = 27.25671 30.17773 28.71722
#
# Velocity S-wave (km/s) = 3.66761 3.85913 3.76459
# Velocity P-wave (km/s) = 7.02576 7.21961 7.12334
#
# Compressibility (1/GPa) = 0.01570369
#
# Stress axis : x y z
#
# Youngs Moduli (GPa) = 81.71883 73.25665 108.91469
#
# Poissons Ratio (x) = 0.28630 0.29335
# Poissons Ratio (y) = 0.31938 0.33558
# Poissons Ratio (z) = 0.22010 0.22571
#
# Static dielectric constant tensor:
#      x y z
#    x 3.789500 0.000000 0.000000 
#    y 0.000000 3.547110 0.000000 
#    z 0.000000 0.000000 3.680120 
# 
# 
# High freq. dielectric constant tensor:
#      x y z
#    x 1.795260 0.000000 0.000000 
#    y 0.000000 1.780050 0.000000 
#    z 0.000000 0.000000 1.785260 
# 
# From -- ./inp_files/10648.got.cif
#   From: 2010.03.12/outbox.cif.g09.slc.cpg/sg56_6_cif.got.tgz:10648.got - 2010.04.16 15:33:40.
