data_PCOD8228287
_publ_section_title
;
Structure prediction by ZEFSAII (Michael W. Deem and Ramdas Pophale) SiO2 
 PCOD8228287
Probable space group: P C C N
;
_chemical_formula_sum "Si O2"
_cell_formula_units_Z 44
_cell_length_a 8.487153
_cell_length_b 20.383112
_cell_length_c 12.399721
_cell_angle_alpha 90.000000
_cell_angle_beta 90.000000
_cell_angle_gamma 90.000000
_cell_volume 2145.084652
_symmetry_space_group_name_H-M "P C C N"
_symmetry_group_IT_number 56
_symmetry_cell_setting 'orthorhombic'
loop_
_space_group_symop_operation_xyz
x,y,z
1/2-x,1/2-y,z
1/2+x,-y,1/2-z
-x,1/2+y,1/2-z
-x,-y,-z
1/2+x,1/2+y,-z
1/2-x,y,1/2+z
x,1/2-y,1/2+z
loop_
_atom_site_type_symbol
_atom_site_label
_atom_site_fract_x
_atom_site_fract_y
_atom_site_fract_z
Si Si1 0.807885 0.559084 0.361409
Si Si2 0.208583 0.543347 0.987927
Si Si3 0.290495 0.631196 0.670560
Si Si4 0.937307 0.150663 0.107281
Si Si5 0.973507 0.450959 0.228565
Si Si6 0.250000 0.750000 0.516478
O O1 0.772362 0.528162 0.479395
O O2 0.942408 0.516089 0.299435
O O3 0.659164 0.564725 0.279888
O O4 0.877565 0.631000 0.392163
O O5 0.137352 0.569829 0.103055
O O6 0.347597 0.593142 0.956693
O O7 0.080611 0.538420 0.895009
O O8 0.397291 0.652162 0.768021
O O9 0.116678 0.610812 0.716005
O O10 0.304767 0.691590 0.590411
O O11 0.894884 0.222114 0.057408
#
# Coordination Sequence:
#
# PCOD8228287 Si02
#       6
#     8   8   8   8   8   4
#     4  11  20  33  54  86 121 148 178 225 287 348
#     4   9  18  33  54  84 119 150 177 217 281 351
#     4   9  19  36  56  80 107 146 192 234 280 331
#     4  10  20  34  56  81 107 145 191 233 276 330
#     4  10  20  33  54  85 121 149 177 226 286 348
#     4  10  20  36  60  76  98 144 202 244 268 320
#
# _framework density 20.51201
#
# number of rings (size 3 to 8) (size 9 to 14) (size 15 to 20)
#    0.000    2.182    0.000    4.909    0.000    2.909 
#    0.000    0.000    0.000   24.000    0.000    0.000 
#    0.000    0.000    0.000    0.000    0.000    0.000 
#
# Total GULP energy -545123.023762 kJ/mol
# GULP energy per Si atom -12389.159631 kJ/mol
# Density = 2.046532 g / cm^3
# Si number density = 20.512010 Si / 1000 Ang^3
#
#
#
# Elastic Constant Matrix: (Units=GPa)
#
#
# Indices 1 2 3 4 5 6 
#
# 1 102.5769 52.3869 31.0310 0.0000 0.0000 0.0000
# 2 52.3869 97.2745 45.9101 0.0000 0.0000 0.0000
# 3 31.0310 45.9101 125.8524 0.0000 0.0000 0.0000
# 4 0.0000 0.0000 0.0000 25.2163 0.0000 0.0000
# 5 0.0000 0.0000 0.0000 0.0000 9.6804 0.0000
# 6 0.0000 0.0000 0.0000 0.0000 0.0000 26.0342
#
#
#
# Elastic Compliance Matrix: (Units=1/GPa)
#
#
# Indices 1 2 3 4 5 6 
#
# 1 0.013517 -0.006893 -0.000818 0.000000 0.000000 0.000000
# 2 -0.006893 0.015934 -0.004113 0.000000 0.000000 0.000000
# 3 -0.000818 -0.004113 0.009648 0.000000 0.000000 0.000000
# 4 0.000000 0.000000 0.000000 0.039657 0.000000 0.000000
# 5 0.000000 0.000000 0.000000 0.000000 0.103302 0.000000
# 6 0.000000 0.000000 0.000000 0.000000 0.000000 0.038411
#
#
# Mechanical properties :
#
#
# Convention : Reuss Voigt Hill
#
# Bulk Modulus (GPa) = 64.72597 64.92887 64.82742
# Shear Modulus (GPa) = 20.05886 25.27790 22.66838
#
# Velocity S-wave (km/s) = 3.13054 3.51429 3.32795
# Velocity P-wave (km/s) = 6.68511 6.94188 6.81471
#
# Compressibility (1/GPa) = 0.01544975
#
# Stress axis : x y z
#
# Youngs Moduli (GPa) = 73.98245 62.76028 103.64968
#
# Poissons Ratio (x) = 0.43262 0.08480
# Poissons Ratio (y) = 0.50998 0.42630
# Poissons Ratio (z) = 0.06053 0.25812
#
# Static dielectric constant tensor:
#      x y z
#    x 3.560090 0.000000 0.000000 
#    y 0.000000 4.113030 0.000000 
#    z 0.000000 0.000000 4.204640 
# 
# 
# High freq. dielectric constant tensor:
#      x y z
#    x 1.769830 0.000000 0.000000 
#    y 0.000000 1.776630 0.000000 
#    z 0.000000 0.000000 1.832220 
# 
# From -- ./inp_files/6359.got.cif
#   From: 2010.03.12/outbox.cif.g09.slc.cpg/sg56_4_cif.got.tgz:6359.got - 2010.04.16 15:33:40.
