data_PCOD8228087
_publ_section_title
;
Structure prediction by ZEFSAII (Michael W. Deem and Ramdas Pophale) SiO2 
 PCOD8228087
Probable space group: P C C N
;
_chemical_formula_sum "Si O2"
_cell_formula_units_Z 40
_cell_length_a 4.919194
_cell_length_b 17.974705
_cell_length_c 21.250211
_cell_angle_alpha 90.000000
_cell_angle_beta 90.000000
_cell_angle_gamma 90.000000
_cell_volume 1878.966203
_symmetry_space_group_name_H-M "P C C N"
_symmetry_group_IT_number 56
_symmetry_cell_setting 'orthorhombic'
loop_
_space_group_symop_operation_xyz
x,y,z
1/2-x,1/2-y,z
1/2+x,-y,1/2-z
-x,1/2+y,1/2-z
-x,-y,-z
1/2+x,1/2+y,-z
1/2-x,y,1/2+z
x,1/2-y,1/2+z
loop_
_atom_site_type_symbol
_atom_site_label
_atom_site_fract_x
_atom_site_fract_y
_atom_site_fract_z
Si Si1 0.007202 0.802853 0.179752
Si Si2 0.273437 0.420915 0.529594
Si Si3 0.243944 0.985018 0.914513
Si Si4 0.500312 0.297539 0.958927
Si Si5 0.602355 0.534581 0.220159
O O1 0.750000 0.750000 0.185170
O O2 0.081085 0.834117 0.108727
O O3 0.966573 0.877211 0.221991
O O4 0.250000 0.750000 0.204784
O O5 0.551135 0.414592 0.571227
O O6 0.359761 0.450222 0.460218
O O7 0.104354 0.346147 0.517450
O O8 0.069213 0.473845 0.567355
O O9 0.259159 0.010607 0.843235
O O10 0.250000 0.250000 0.935834
O O11 0.750000 0.250000 0.986436
O O12 0.325686 0.486601 0.226856
#
# Coordination Sequence:
#
# PCOD8228087 Si02
#       5
#     8   8   8   8   8
#     4  10  21  38  60  88 123 158 205 264 320 366
#     4  10  19  35  57  82 122 150 192 248 305 391
#     4  10  21  35  56  85 116 158 193 245 319 356
#     4  10  19  32  56  87 119 154 195 249 310 371
#     4  12  24  40  63  92 126 164 218 270 307 371
#
# _framework density 21.288301000000001
#
# number of rings (size 3 to 8) (size 9 to 14) (size 15 to 20)
#    0.000    1.600    2.000    3.600    0.000    0.000 
#    0.000    0.000    0.000   18.000    0.000    0.000 
#    0.000    0.000    0.000    0.000    0.000    0.000 
#
# Total GULP energy -495528.532757 kJ/mol
# GULP energy per Si atom -12388.213319 kJ/mol
# Density = 2.123985 g / cm^3
# Si number density = 21.288301 Si / 1000 Ang^3
#
#
#
# Elastic Constant Matrix: (Units=GPa)
#
#
# Indices 1 2 3 4 5 6 
#
# 1 151.4243 53.0636 29.8330 0.0000 0.0000 0.0000
# 2 53.0636 118.2927 39.9309 0.0000 0.0000 0.0000
# 3 29.8330 39.9309 62.9975 0.0000 0.0000 0.0000
# 4 0.0000 0.0000 0.0000 29.8141 0.0000 0.0000
# 5 0.0000 0.0000 0.0000 0.0000 29.9800 0.0000
# 6 0.0000 0.0000 0.0000 0.0000 0.0000 43.9737
#
#
#
# Elastic Compliance Matrix: (Units=1/GPa)
#
#
# Indices 1 2 3 4 5 6 
#
# 1 0.008016 -0.002944 -0.001930 0.000000 0.000000 0.000000
# 2 -0.002944 0.011836 -0.006108 0.000000 0.000000 0.000000
# 3 -0.001930 -0.006108 0.020659 0.000000 0.000000 0.000000
# 4 0.000000 0.000000 0.000000 0.033541 0.000000 0.000000
# 5 0.000000 0.000000 0.000000 0.000000 0.033356 0.000000
# 6 0.000000 0.000000 0.000000 0.000000 0.000000 0.022741
#
#
# Mechanical properties :
#
#
# Convention : Reuss Voigt Hill
#
# Bulk Modulus (GPa) = 53.91730 64.26328 59.09029
# Shear Modulus (GPa) = 31.58649 34.74601 33.16625
#
# Velocity S-wave (km/s) = 3.85612 4.04439 3.95138
# Velocity P-wave (km/s) = 6.72372 7.21541 6.97390
#
# Compressibility (1/GPa) = 0.01854692
#
# Stress axis : x y z
#
# Youngs Moduli (GPa) = 124.75127 84.48631 48.40492
#
# Poissons Ratio (x) = 0.24876 0.09341
# Poissons Ratio (y) = 0.36732 0.29566
# Poissons Ratio (z) = 0.24073 0.51605
#
# Static dielectric constant tensor:
#      x y z
#    x 4.193140 0.000000 0.000000 
#    y 0.000000 3.731260 0.000000 
#    z 0.000000 0.000000 3.609690 
# 
# 
# High freq. dielectric constant tensor:
#      x y z
#    x 1.863140 0.000000 0.000000 
#    y 0.000000 1.808810 0.000000 
#    z 0.000000 0.000000 1.800560 
# 
# From -- ./inp_files/13828.got.cif
#   From: 2010.03.12/outbox.cif.g09.slc.cpg/sg56_7_cif.got.tgz:13828.got - 2010.04.16 15:33:40.
