data_PCOD8228385
_publ_section_title
;
Structure prediction by ZEFSAII (Michael W. Deem and Ramdas Pophale) SiO2 
 PCOD8228385
Probable space group: P C C N
;
_chemical_formula_sum "Si O2"
_cell_formula_units_Z 60
_cell_length_a 27.167306
_cell_length_b 11.471204
_cell_length_c 8.912719
_cell_angle_alpha 90.000000
_cell_angle_beta 90.000000
_cell_angle_gamma 90.000000
_cell_volume 2777.574983
_symmetry_space_group_name_H-M "P C C N"
_symmetry_group_IT_number 56
_symmetry_cell_setting 'orthorhombic'
loop_
_space_group_symop_operation_xyz
x,y,z
1/2-x,1/2-y,z
1/2+x,-y,1/2-z
-x,1/2+y,1/2-z
-x,-y,-z
1/2+x,1/2+y,-z
1/2-x,y,1/2+z
x,1/2-y,1/2+z
loop_
_atom_site_type_symbol
_atom_site_label
_atom_site_fract_x
_atom_site_fract_y
_atom_site_fract_z
Si Si1 0.364122 0.998669 0.271126
Si Si2 0.726043 0.089964 0.855717
Si Si3 0.072818 0.181374 0.605312
Si Si4 0.905231 0.228633 0.369991
Si Si5 0.660114 0.048214 0.396231
Si Si6 0.961709 0.369363 0.147591
Si Si7 0.250000 0.750000 0.897104
Si Si8 0.410618 0.402401 0.289133
O O1 0.314575 0.011073 0.166044
O O2 0.388308 0.873526 0.240707
O O3 0.352155 0.012818 0.446210
O O4 0.400734 0.102201 0.229324
O O5 0.781484 0.045120 0.868604
O O6 0.716828 0.166747 0.705158
O O7 0.713840 0.171589 0.999027
O O8 0.099235 0.166374 0.444295
O O9 0.074486 0.314895 0.656543
O O10 0.016462 0.143910 0.588020
O O11 0.860733 0.320438 0.392457
O O12 0.952422 0.293598 0.297552
O O13 0.921606 0.171384 0.525794
O O14 0.638124 0.971872 0.260803
O O15 0.954574 0.505399 0.186309
#
# Coordination Sequence:
#
# PCOD8228385 Si02
#       8
#     8   8   8   8   8   8   4   8
#     4  12  25  41  65  98 142 181 229 285 342 416
#     4  11  23  37  64  98 141 180 227 278 356 418
#     4  12  26  45  71  96 138 185 240 285 350 407
#     4  11  22  40  67 103 140 176 222 281 351 421
#     4  11  25  43  66 102 140 183 228 285 351 420
#     4  11  24  43  71 102 142 181 226 290 351 421
#     4  10  20  36  62  96 136 180 214 278 352 422
#     4  11  26  45  70  97 134 181 235 287 342 411
#
# _framework density 21.601576999999999
#
# number of rings (size 3 to 8) (size 9 to 14) (size 15 to 20)
#    0.000    0.800    4.000    3.600    3.733    0.000 
#    0.000    4.000    0.000    3.200    0.000    0.000 
#    0.000    0.000    0.000    0.000    0.000    0.000 
#
# Total GULP energy -744048.448457 kJ/mol
# GULP energy per Si atom -12400.807474 kJ/mol
# Density = 2.155241 g / cm^3
# Si number density = 21.601577 Si / 1000 Ang^3
#
#
#
# Elastic Constant Matrix: (Units=GPa)
#
#
# Indices 1 2 3 4 5 6 
#
# 1 109.0446 39.7245 25.0397 0.0000 0.0000 0.0000
# 2 39.7245 113.0564 44.8335 0.0000 0.0000 0.0000
# 3 25.0397 44.8335 115.1321 0.0000 0.0000 0.0000
# 4 0.0000 0.0000 0.0000 33.8875 0.0000 0.0000
# 5 0.0000 0.0000 0.0000 0.0000 22.4291 0.0000
# 6 0.0000 0.0000 0.0000 0.0000 0.0000 20.5457
#
#
#
# Elastic Compliance Matrix: (Units=1/GPa)
#
#
# Indices 1 2 3 4 5 6 
#
# 1 0.010616 -0.003328 -0.001013 0.000000 0.000000 0.000000
# 2 -0.003328 0.011504 -0.003756 0.000000 0.000000 0.000000
# 3 -0.001013 -0.003756 0.010368 0.000000 0.000000 0.000000
# 4 0.000000 0.000000 0.000000 0.029509 0.000000 0.000000
# 5 0.000000 0.000000 0.000000 0.000000 0.044585 0.000000
# 6 0.000000 0.000000 0.000000 0.000000 0.000000 0.048672
#
#
# Mechanical properties :
#
#
# Convention : Reuss Voigt Hill
#
# Bulk Modulus (GPa) = 61.37130 61.82538 61.59834
# Shear Modulus (GPa) = 28.26776 30.54815 29.40796
#
# Velocity S-wave (km/s) = 3.62138 3.76462 3.69369
# Velocity P-wave (km/s) = 6.77924 6.89778 6.83877
#
# Compressibility (1/GPa) = 0.01629426
#
# Stress axis : x y z
#
# Youngs Moduli (GPa) = 94.20078 86.92565 96.44607
#
# Poissons Ratio (x) = 0.28933 0.09766
# Poissons Ratio (y) = 0.31354 0.36224
# Poissons Ratio (z) = 0.09539 0.32648
#
# Static dielectric constant tensor:
#      x y z
#    x 3.715920 0.000000 0.000000 
#    y 0.000000 3.819880 0.000000 
#    z 0.000000 0.000000 4.115860 
# 
# 
# High freq. dielectric constant tensor:
#      x y z
#    x 1.841280 0.000000 0.000000 
#    y 0.000000 1.831300 0.000000 
#    z 0.000000 0.000000 1.867980 
# 
# From -- ./inp_files/4971.got.cif
#   From: 2010.03.12/outbox.cif.g09.slc.cpg/sg56_3_cif.got.tgz:4971.got - 2010.04.16 15:33:40.
