data_PCOD8228534
_publ_section_title
;
Structure prediction by ZEFSAII (Michael W. Deem and Ramdas Pophale) SiO2 
 PCOD8228534
Probable space group: P C C N
;
_chemical_formula_sum "Si O2"
_cell_formula_units_Z 48
_cell_length_a 13.942843
_cell_length_b 10.619193
_cell_length_c 17.689275
_cell_angle_alpha 90.000000
_cell_angle_beta 90.000000
_cell_angle_gamma 90.000000
_cell_volume 2619.104850
_symmetry_space_group_name_H-M "P C C N"
_symmetry_group_IT_number 56
_symmetry_cell_setting 'orthorhombic'
loop_
_space_group_symop_operation_xyz
x,y,z
1/2-x,1/2-y,z
1/2+x,-y,1/2-z
-x,1/2+y,1/2-z
-x,-y,-z
1/2+x,1/2+y,-z
1/2-x,y,1/2+z
x,1/2-y,1/2+z
loop_
_atom_site_type_symbol
_atom_site_label
_atom_site_fract_x
_atom_site_fract_y
_atom_site_fract_z
Si Si1 0.353232 0.976985 0.148857
Si Si2 0.978647 0.708827 0.870766
Si Si3 0.614547 0.330795 0.498006
Si Si4 0.812368 0.871127 0.924194
Si Si5 0.656236 0.167181 0.695845
Si Si6 0.308114 0.569227 0.958825
O O1 0.423471 0.092341 0.166270
O O2 0.248791 0.029252 0.125165
O O3 0.399918 0.884756 0.086193
O O4 0.340565 0.899071 0.224483
O O5 0.907538 0.828298 0.879964
O O6 0.062485 0.745430 0.812611
O O7 0.016866 0.664486 0.953241
O O8 0.692738 0.418140 0.540514
O O9 0.648566 0.186245 0.493875
O O10 0.750000 0.750000 0.945988
O O11 0.842074 0.939941 0.002073
O O12 0.750000 0.250000 0.683972
O O13 0.653824 0.066471 0.627174
#
# Coordination Sequence:
#
# PCOD8228534 Si02
#       6
#     8   8   8   8   8   8
#     4  10  22  36  58  84 116 151 184 235 288 341
#     4  10  20  40  56  84 114 146 191 239 281 335
#     4   9  17  34  60  81 105 144 196 227 274 332
#     4   9  20  37  59  81 113 149 191 237 286 337
#     4  11  22  37  57  84 119 151 185 232 290 333
#     4   9  17  36  56  83 109 146 187 234 274 337
#
# _framework density 18.326872999999999
#
# number of rings (size 3 to 8) (size 9 to 14) (size 15 to 20)
#    0.000    2.333    3.333    0.500    4.667    4.000 
#    3.000    2.500    0.000    0.000    0.000    0.000 
#    0.000    0.000    0.000    0.000    0.000    0.000 
#
# Total GULP energy -595140.307024 kJ/mol
# GULP energy per Si atom -12398.756396 kJ/mol
# Density = 1.828516 g / cm^3
# Si number density = 18.326873 Si / 1000 Ang^3
#
#
#
# Elastic Constant Matrix: (Units=GPa)
#
#
# Indices 1 2 3 4 5 6 
#
# 1 78.9810 13.6703 12.2239 0.0000 0.0000 0.0000
# 2 13.6703 55.8862 37.5181 0.0000 0.0000 0.0000
# 3 12.2239 37.5181 102.8666 0.0000 0.0000 0.0000
# 4 0.0000 0.0000 0.0000 26.4632 0.0000 0.0000
# 5 0.0000 0.0000 0.0000 0.0000 13.8554 0.0000
# 6 0.0000 0.0000 0.0000 0.0000 0.0000 16.7882
#
#
#
# Elastic Compliance Matrix: (Units=1/GPa)
#
#
# Indices 1 2 3 4 5 6 
#
# 1 0.013242 -0.002890 -0.000519 0.000000 0.000000 0.000000
# 2 -0.002890 0.024326 -0.008529 0.000000 0.000000 0.000000
# 3 -0.000519 -0.008529 0.012894 0.000000 0.000000 0.000000
# 4 0.000000 0.000000 0.000000 0.037788 0.000000 0.000000
# 5 0.000000 0.000000 0.000000 0.000000 0.072174 0.000000
# 6 0.000000 0.000000 0.000000 0.000000 0.000000 0.059566
#
#
# Mechanical properties :
#
#
# Convention : Reuss Voigt Hill
#
# Bulk Modulus (GPa) = 37.61593 40.50651 39.06122
# Shear Modulus (GPa) = 19.78403 23.04279 21.41341
#
# Velocity S-wave (km/s) = 3.28915 3.54972 3.42192
# Velocity P-wave (km/s) = 5.91560 6.24107 6.08051
#
# Compressibility (1/GPa) = 0.02658448
#
# Stress axis : x y z
#
# Youngs Moduli (GPa) = 75.51764 41.10784 77.55691
#
# Poissons Ratio (x) = 0.11882 0.04028
# Poissons Ratio (y) = 0.21828 0.66148
# Poissons Ratio (z) = 0.03922 0.35061
#
# Static dielectric constant tensor:
#      x y z
#    x 3.495080 0.000000 0.000000 
#    y 0.000000 3.359580 0.000000 
#    z 0.000000 0.000000 3.242200 
# 
# 
# High freq. dielectric constant tensor:
#      x y z
#    x 1.714430 0.000000 0.000000 
#    y 0.000000 1.706140 0.000000 
#    z 0.000000 0.000000 1.692110 
# 
# From -- ./inp_files/16251.got.cif
#   From: 2010.03.12/outbox.cif.g09.slc.cpg/sg56_9_cif.got.tgz:16251.got - 2010.04.16 15:33:40.
