data_PCOD8228323
_publ_section_title
;
Structure prediction by ZEFSAII (Michael W. Deem and Ramdas Pophale) SiO2 
 PCOD8228323
Probable space group: P C C N
;
_chemical_formula_sum "Si O2"
_cell_formula_units_Z 60
_cell_length_a 14.603464
_cell_length_b 22.506204
_cell_length_c 9.253798
_cell_angle_alpha 90.000000
_cell_angle_beta 90.000000
_cell_angle_gamma 90.000000
_cell_volume 3041.432277
_symmetry_space_group_name_H-M "P C C N"
_symmetry_group_IT_number 56
_symmetry_cell_setting 'orthorhombic'
loop_
_space_group_symop_operation_xyz
x,y,z
1/2-x,1/2-y,z
1/2+x,-y,1/2-z
-x,1/2+y,1/2-z
-x,-y,-z
1/2+x,1/2+y,-z
1/2-x,y,1/2+z
x,1/2-y,1/2+z
loop_
_atom_site_type_symbol
_atom_site_label
_atom_site_fract_x
_atom_site_fract_y
_atom_site_fract_z
Si Si1 0.188799 0.455723 0.392553
Si Si2 0.860773 0.403518 0.290861
Si Si3 0.250000 0.250000 0.560516
Si Si4 0.141053 0.461035 0.715693
Si Si5 0.498763 0.362455 0.184732
Si Si6 0.313728 0.907609 0.380362
Si Si7 0.951674 0.854075 0.144078
Si Si8 0.373939 0.273038 0.307940
O O1 0.192552 0.452329 0.564349
O O2 0.288972 0.436818 0.336458
O O3 0.169726 0.523213 0.340225
O O4 0.111222 0.411905 0.330316
O O5 0.888933 0.471289 0.260706
O O6 0.783881 0.383548 0.176048
O O7 0.817513 0.396901 0.449308
O O8 0.951984 0.363833 0.272547
O O9 0.317165 0.287650 0.454408
O O10 0.188675 0.290750 0.667918
O O11 0.047484 0.424859 0.723924
O O12 0.607442 0.369897 0.199899
O O13 0.465058 0.312843 0.299329
O O14 0.472166 0.342996 0.023585
O O15 0.899972 0.796320 0.204355
#
# Coordination Sequence:
#
# PCOD8228323 Si02
#       8
#     8   8   4   8   8   8   8   8
#     4   9  18  31  53  80 107 138 173 212 264 319
#     4   9  18  36  56  78 105 138 176 221 267 311
#     4  10  24  38  56  74 114 142 176 214 260 304
#     4   9  18  31  53  80 107 138 173 212 264 319
#     4  10  20  35  56  78 106 142 181 216 259 317
#     4   9  18  36  56  78 105 138 176 221 267 311
#     4  10  20  35  56  78 106 142 181 216 259 317
#     4  11  22  38  55  80 108 142 177 214 259 314
#
# _framework density 19.727547999999999
#
# number of rings (size 3 to 8) (size 9 to 14) (size 15 to 20)
#    0.000    2.400    1.333    0.800    3.733    3.200 
#    2.400    0.667    0.000    9.600    0.000    0.000 
#    0.000    0.000    0.000    0.000    0.000    0.000 
#
# Total GULP energy -743824.184911 kJ/mol
# GULP energy per Si atom -12397.069749 kJ/mol
# Density = 1.968265 g / cm^3
# Si number density = 19.727548 Si / 1000 Ang^3
#
#
#
# Elastic Constant Matrix: (Units=GPa)
#
#
# Indices 1 2 3 4 5 6 
#
# 1 79.0679 27.0350 17.9341 0.0000 0.0000 0.0000
# 2 27.0350 53.4893 15.8412 0.0000 0.0000 0.0000
# 3 17.9341 15.8412 48.4004 0.0000 0.0000 0.0000
# 4 0.0000 0.0000 0.0000 18.8653 0.0000 0.0000
# 5 0.0000 0.0000 0.0000 0.0000 33.1860 0.0000
# 6 0.0000 0.0000 0.0000 0.0000 0.0000 25.9051
#
#
#
# Elastic Compliance Matrix: (Units=1/GPa)
#
#
# Indices 1 2 3 4 5 6 
#
# 1 0.015836 -0.006939 -0.003597 0.000000 0.000000 0.000000
# 2 -0.006939 0.023742 -0.005200 0.000000 0.000000 0.000000
# 3 -0.003597 -0.005200 0.023696 0.000000 0.000000 0.000000
# 4 0.000000 0.000000 0.000000 0.053007 0.000000 0.000000
# 5 0.000000 0.000000 0.000000 0.000000 0.030133 0.000000
# 6 0.000000 0.000000 0.000000 0.000000 0.000000 0.038602
#
#
# Mechanical properties :
#
#
# Convention : Reuss Voigt Hill
#
# Bulk Modulus (GPa) = 31.44319 33.61978 32.53148
# Shear Modulus (GPa) = 22.01796 23.60111 22.80953
#
# Velocity S-wave (km/s) = 3.34444 3.46259 3.40402
# Velocity P-wave (km/s) = 5.55761 5.75022 5.65473
#
# Compressibility (1/GPa) = 0.03180339
#
# Stress axis : x y z
#
# Youngs Moduli (GPa) = 63.14882 42.11905 42.20210
#
# Poissons Ratio (x) = 0.29225 0.15179
# Poissons Ratio (y) = 0.43816 0.21944
# Poissons Ratio (z) = 0.22713 0.21901
#
# Static dielectric constant tensor:
#      x y z
#    x 3.683360 0.000000 0.000000 
#    y 0.000000 3.373110 0.000000 
#    z 0.000000 0.000000 3.531960 
# 
# 
# High freq. dielectric constant tensor:
#      x y z
#    x 1.771740 0.000000 0.000000 
#    y 0.000000 1.745300 0.000000 
#    z 0.000000 0.000000 1.754510 
# 
# From -- ./inp_files/3681.got.cif
#   From: 2010.03.12/outbox.cif.g09.slc.cpg/sg56_2_cif.got.tgz:3681.got - 2010.04.16 15:33:40.
