data_PCOD8228743
_publ_section_title
;
Structure prediction by ZEFSAII (Michael W. Deem and Ramdas Pophale) SiO2 
 PCOD8228743
Probable space group: P C C N
;
_chemical_formula_sum "Si O2"
_cell_formula_units_Z 64
_cell_length_a 8.422988
_cell_length_b 20.869337
_cell_length_c 17.151688
_cell_angle_alpha 90.000000
_cell_angle_beta 90.000000
_cell_angle_gamma 90.000000
_cell_volume 3014.961024
_symmetry_space_group_name_H-M "P C C N"
_symmetry_group_IT_number 56
_symmetry_cell_setting 'orthorhombic'
loop_
_space_group_symop_operation_xyz
x,y,z
1/2-x,1/2-y,z
1/2+x,-y,1/2-z
-x,1/2+y,1/2-z
-x,-y,-z
1/2+x,1/2+y,-z
1/2-x,y,1/2+z
x,1/2-y,1/2+z
loop_
_atom_site_type_symbol
_atom_site_label
_atom_site_fract_x
_atom_site_fract_y
_atom_site_fract_z
Si Si1 0.174513 0.939014 0.690723
Si Si2 0.691133 0.065558 0.468370
Si Si3 0.138109 0.191436 0.267693
Si Si4 0.308871 0.053999 0.773819
Si Si5 0.357611 0.311248 0.449235
Si Si6 0.706499 0.184403 0.719539
Si Si7 0.324744 0.685257 0.452958
Si Si8 0.669488 0.940623 0.564619
O O1 0.178709 0.925764 0.599091
O O2 0.258108 0.879402 0.734640
O O3 0.996061 0.946817 0.716331
O O4 0.268018 0.004846 0.705668
O O5 0.720832 0.122797 0.528060
O O6 0.516830 0.072675 0.432976
O O7 0.716393 0.995798 0.504463
O O8 0.250000 0.250000 0.243753
O O9 0.241694 0.126935 0.253235
O O10 0.082767 0.194648 0.359068
O O11 0.985515 0.187338 0.210855
O O12 0.219626 0.031959 0.851585
O O13 0.250000 0.250000 0.470957
O O14 0.498316 0.317817 0.512202
O O15 0.255631 0.375421 0.459030
O O16 0.750000 0.250000 0.766483
O O17 0.811421 0.187349 0.640725
O O18 0.250000 0.750000 0.488909
#
# Coordination Sequence:
#
# PCOD8228743 Si02
#       8
#     8   8   8   8   8   8   8   8
#     4  11  23  38  62  88 117 158 203 251 299 360
#     4  11  23  39  62  89 119 160 202 248 303 360
#     4   9  20  39  64  90 119 155 199 251 300 357
#     4  10  21  39  60  88 122 155 198 250 304 360
#     4  10  21  40  66  94 122 158 205 254 305 364
#     4  10  23  40  58  87 122 155 195 244 302 364
#     4  11  23  40  61  88 123 160 197 247 307 364
#     4  10  22  39  59  87 124 158 197 248 302 361
#
# _framework density 21.227471999999999
#
# number of rings (size 3 to 8) (size 9 to 14) (size 15 to 20)
#    0.000    1.750    0.000    4.500    0.000   12.000 
#    0.000    6.250    0.000    0.000    0.000    0.000 
#    0.000    0.000    0.000    0.000    0.000    0.000 
#
# Total GULP energy -793454.948415 kJ/mol
# GULP energy per Si atom -12397.733569 kJ/mol
# Density = 2.117916 g / cm^3
# Si number density = 21.227472 Si / 1000 Ang^3
#
#
#
# Elastic Constant Matrix: (Units=GPa)
#
#
# Indices 1 2 3 4 5 6 
#
# 1 51.5066 41.9566 15.7715 0.0000 0.0000 0.0000
# 2 41.9566 155.9953 29.6214 0.0000 0.0000 0.0000
# 3 15.7715 29.6214 55.3145 0.0000 0.0000 0.0000
# 4 0.0000 0.0000 0.0000 18.6885 0.0000 0.0000
# 5 0.0000 0.0000 0.0000 0.0000 34.0123 0.0000
# 6 0.0000 0.0000 0.0000 0.0000 0.0000 36.7825
#
#
#
# Elastic Compliance Matrix: (Units=1/GPa)
#
#
# Indices 1 2 3 4 5 6 
#
# 1 0.025644 -0.006132 -0.004028 0.000000 0.000000 0.000000
# 2 -0.006132 0.008603 -0.002858 0.000000 0.000000 0.000000
# 3 -0.004028 -0.002858 0.020757 0.000000 0.000000 0.000000
# 4 0.000000 0.000000 0.000000 0.053509 0.000000 0.000000
# 5 0.000000 0.000000 0.000000 0.000000 0.029401 0.000000
# 6 0.000000 0.000000 0.000000 0.000000 0.000000 0.027187
#
#
# Mechanical properties :
#
#
# Convention : Reuss Voigt Hill
#
# Bulk Modulus (GPa) = 34.52198 48.61281 41.56740
# Shear Modulus (GPa) = 24.90131 29.59446 27.24788
#
# Velocity S-wave (km/s) = 3.42873 3.73789 3.58664
# Velocity P-wave (km/s) = 5.65447 6.44824 6.06436
#
# Compressibility (1/GPa) = 0.02896705
#
# Stress axis : x y z
#
# Youngs Moduli (GPa) = 38.99608 116.24463 48.17542
#
# Poissons Ratio (x) = 0.71285 0.19404
# Poissons Ratio (y) = 0.23914 0.13770
# Poissons Ratio (z) = 0.15706 0.33226
#
# Static dielectric constant tensor:
#      x y z
#    x 3.690850 0.000000 0.000000 
#    y 0.000000 4.605450 0.000000 
#    z 0.000000 0.000000 3.628610 
# 
# 
# High freq. dielectric constant tensor:
#      x y z
#    x 1.828080 0.000000 0.000000 
#    y 0.000000 1.862610 0.000000 
#    z 0.000000 0.000000 1.814270 
# 
# From -- ./inp_files/15221.got.cif
#   From: 2010.03.12/outbox.cif.g09.slc.cpg/sg56_8_cif.got.tgz:15221.got - 2010.04.16 15:33:40.
