data_PCOD8228958
_publ_section_title
;
Structure prediction by ZEFSAII (Michael W. Deem and Ramdas Pophale) SiO2 
 PCOD8228958
Probable space group: P C C N
;
_chemical_formula_sum "Si O2"
_cell_formula_units_Z 48
_cell_length_a 8.414250
_cell_length_b 14.520812
_cell_length_c 18.309320
_cell_angle_alpha 90.000000
_cell_angle_beta 90.000000
_cell_angle_gamma 90.000000
_cell_volume 2237.064619
_symmetry_space_group_name_H-M "P C C N"
_symmetry_group_IT_number 56
_symmetry_cell_setting 'orthorhombic'
loop_
_space_group_symop_operation_xyz
x,y,z
1/2-x,1/2-y,z
1/2+x,-y,1/2-z
-x,1/2+y,1/2-z
-x,-y,-z
1/2+x,1/2+y,-z
1/2-x,y,1/2+z
x,1/2-y,1/2+z
loop_
_atom_site_type_symbol
_atom_site_label
_atom_site_fract_x
_atom_site_fract_y
_atom_site_fract_z
Si Si1 0.191737 0.654581 0.134161
Si Si2 0.204423 0.345358 0.129666
Si Si3 0.061628 0.996796 0.121206
Si Si4 0.710434 0.005971 0.079482
Si Si5 0.495842 0.861436 0.997895
Si Si6 0.493033 0.499392 0.709243
O O1 0.250000 0.750000 0.171102
O O2 0.329681 0.590538 0.098638
O O3 0.104356 0.593761 0.195418
O O4 0.073374 0.689594 0.069190
O O5 0.250000 0.250000 0.171230
O O6 0.354614 0.406067 0.103225
O O7 0.104009 0.306105 0.059861
O O8 0.103523 0.409796 0.183370
O O9 0.899367 0.991976 0.074889
O O10 0.031837 0.989382 0.207115
O O11 0.656692 0.104679 0.048851
O O12 0.656976 0.994027 0.163848
O O13 0.616575 0.939039 0.025810
#
# Coordination Sequence:
#
# PCOD8228958 Si02
#       6
#     8   8   8   8   8   8
#     4  10  22  38  58  84 113 149 188 231 283 335
#     4  10  22  38  58  84 113 149 188 231 283 335
#     4  11  21  35  60  83 106 150 197 229 276 343
#     4   9  17  34  57  78 109 151 186 229 285 331
#     4   9  20  36  52  79 120 148 180 239 286 325
#     4   9  20  40  57  81 119 146 181 239 283 325
#
# _framework density 21.456689999999998
#
# number of rings (size 3 to 8) (size 9 to 14) (size 15 to 20)
#    0.000    2.333    0.000    5.000    0.000    6.667 
#    0.000    5.000    0.000    0.000    0.000    0.000 
#    0.000    0.000    0.000    0.000    0.000    0.000 
#
# Total GULP energy -594673.375701 kJ/mol
# GULP energy per Si atom -12389.028660 kJ/mol
# Density = 2.140785 g / cm^3
# Si number density = 21.456690 Si / 1000 Ang^3
#
#
#
# Elastic Constant Matrix: (Units=GPa)
#
#
# Indices 1 2 3 4 5 6 
#
# 1 114.5163 23.8927 16.0310 0.0000 0.0000 0.0000
# 2 23.8927 125.3797 6.3261 0.0000 0.0000 0.0000
# 3 16.0310 6.3261 75.6578 0.0000 0.0000 0.0000
# 4 0.0000 0.0000 0.0000 4.3123 0.0000 0.0000
# 5 0.0000 0.0000 0.0000 0.0000 26.6642 0.0000
# 6 0.0000 0.0000 0.0000 0.0000 0.0000 3.3660
#
#
#
# Elastic Compliance Matrix: (Units=1/GPa)
#
#
# Indices 1 2 3 4 5 6 
#
# 1 0.009342 -0.001687 -0.001838 0.000000 0.000000 0.000000
# 2 -0.001687 0.008314 -0.000338 0.000000 0.000000 0.000000
# 3 -0.001838 -0.000338 0.013635 0.000000 0.000000 0.000000
# 4 0.000000 0.000000 0.000000 0.231894 0.000000 0.000000
# 5 0.000000 0.000000 0.000000 0.000000 0.037503 0.000000
# 6 0.000000 0.000000 0.000000 0.000000 0.000000 0.297093
#
#
# Mechanical properties :
#
#
# Convention : Reuss Voigt Hill
#
# Bulk Modulus (GPa) = 42.43675 45.33927 43.88801
# Shear Modulus (GPa) = 8.15178 24.82210 16.48694
#
# Velocity S-wave (km/s) = 1.95126 3.40493 2.77498
# Velocity P-wave (km/s) = 4.98973 6.05265 5.54671
#
# Compressibility (1/GPa) = 0.02356448
#
# Stress axis : x y z
#
# Youngs Moduli (GPa) = 107.04579 120.27363 73.33985
#
# Poissons Ratio (x) = 0.20296 0.13482
# Poissons Ratio (y) = 0.18063 0.02476
# Poissons Ratio (z) = 0.19678 0.04061
#
# Static dielectric constant tensor:
#      x y z
#    x 4.213470 0.000000 0.000000 
#    y 0.000000 3.559270 0.000000 
#    z 0.000000 0.000000 3.710130 
# 
# 
# High freq. dielectric constant tensor:
#      x y z
#    x 1.853720 0.000000 0.000000 
#    y 0.000000 1.810690 0.000000 
#    z 0.000000 0.000000 1.837360 
# 
# From -- ./inp_files/18076.got.cif
#   From: 2010.03.12/outbox.cif.g09.slc.cpg/sg56_10_cif.got.tgz:18076.got - 2010.04.16 15:33:40.
