data_PCOD8228201
_publ_section_title
;
Structure prediction by ZEFSAII (Michael W. Deem and Ramdas Pophale) SiO2 
 PCOD8228201
Probable space group: P C C N
;
_chemical_formula_sum "Si O2"
_cell_formula_units_Z 56
_cell_length_a 16.918671
_cell_length_b 9.168476
_cell_length_c 18.199347
_cell_angle_alpha 90.000000
_cell_angle_beta 90.000000
_cell_angle_gamma 90.000000
_cell_volume 2823.054116
_symmetry_space_group_name_H-M "P C C N"
_symmetry_group_IT_number 56
_symmetry_cell_setting 'orthorhombic'
loop_
_space_group_symop_operation_xyz
x,y,z
1/2-x,1/2-y,z
1/2+x,-y,1/2-z
-x,1/2+y,1/2-z
-x,-y,-z
1/2+x,1/2+y,-z
1/2-x,y,1/2+z
x,1/2-y,1/2+z
loop_
_atom_site_type_symbol
_atom_site_label
_atom_site_fract_x
_atom_site_fract_y
_atom_site_fract_z
Si Si1 0.990142 0.166131 0.815295
Si Si2 0.104684 0.415910 0.624777
Si Si3 0.043021 0.776096 0.344645
Si Si4 0.644335 0.004440 0.662338
Si Si5 0.334406 0.304836 0.974257
Si Si6 0.213094 0.093874 0.259679
Si Si7 0.578518 0.916788 0.120875
O O1 0.002978 0.326122 0.849580
O O2 0.943139 0.174658 0.739301
O O3 0.074090 0.087921 0.800524
O O4 0.938131 0.072458 0.872139
O O5 0.125132 0.389310 0.540677
O O6 0.182904 0.417776 0.675833
O O7 0.044594 0.290128 0.650633
O O8 0.112098 0.661446 0.364022
O O9 0.050939 0.917802 0.397774
O O10 0.676618 0.918877 0.591498
O O11 0.716311 0.021099 0.721025
O O12 0.250000 0.250000 0.001382
O O13 0.386686 0.164658 0.950468
O O14 0.250000 0.250000 0.275834
O O15 0.141259 0.069657 0.314198
#
# Coordination Sequence:
#
# PCOD8228201 Si02
#       7
#     8   8   8   8   8   8   8
#     4  10  19  38  58  90 120 155 203 256 290 355
#     4  11  24  37  64  90 122 155 208 257 308 358
#     4  11  21  37  60  96 118 157 206 258 299 357
#     4  10  21  36  66  87 120 162 207 243 304 371
#     4  11  22  42  59  88 121 165 200 253 307 377
#     4  12  18  37  62  92 111 162 207 246 299 363
#     4  11  20  36  65  82 124 157 201 247 305 363
#
# _framework density 19.836673000000001
#
# number of rings (size 3 to 8) (size 9 to 14) (size 15 to 20)
#    0.000    1.143    7.143    1.286    0.000    6.286 
#    0.000    0.000    0.000    1.714    0.000    0.000 
#    0.000    0.000    0.000    0.000    0.000    0.000 
#
# Total GULP energy -694428.857078 kJ/mol
# GULP energy per Si atom -12400.515305 kJ/mol
# Density = 1.979152 g / cm^3
# Si number density = 19.836673 Si / 1000 Ang^3
#
#
#
# Elastic Constant Matrix: (Units=GPa)
#
#
# Indices 1 2 3 4 5 6 
#
# 1 86.9352 50.5856 36.6345 0.0000 0.0000 0.0000
# 2 50.5856 133.3164 23.2532 0.0000 0.0000 0.0000
# 3 36.6345 23.2532 77.3568 0.0000 0.0000 0.0000
# 4 0.0000 0.0000 0.0000 17.4946 0.0000 0.0000
# 5 0.0000 0.0000 0.0000 0.0000 27.5564 0.0000
# 6 0.0000 0.0000 0.0000 0.0000 0.0000 22.7864
#
#
#
# Elastic Compliance Matrix: (Units=1/GPa)
#
#
# Indices 1 2 3 4 5 6 
#
# 1 0.017486 -0.005478 -0.006634 0.000000 0.000000 0.000000
# 2 -0.005478 0.009632 -0.000301 0.000000 0.000000 0.000000
# 3 -0.006634 -0.000301 0.016160 0.000000 0.000000 0.000000
# 4 0.000000 0.000000 0.000000 0.057161 0.000000 0.000000
# 5 0.000000 0.000000 0.000000 0.000000 0.036289 0.000000
# 6 0.000000 0.000000 0.000000 0.000000 0.000000 0.043886
#
#
# Mechanical properties :
#
#
# Convention : Reuss Voigt Hill
#
# Bulk Modulus (GPa) = 54.19804 57.61723 55.90763
# Shear Modulus (GPa) = 23.63064 26.04315 24.83690
#
# Velocity S-wave (km/s) = 3.45521 3.62730 3.54230
# Velocity P-wave (km/s) = 6.58023 6.83022 6.70639
#
# Compressibility (1/GPa) = 0.01845085
#
# Stress axis : x y z
#
# Youngs Moduli (GPa) = 57.18900 103.82118 61.88288
#
# Poissons Ratio (x) = 0.56870 0.41055
# Poissons Ratio (y) = 0.31326 0.01864
# Poissons Ratio (z) = 0.37941 0.03127
#
# Static dielectric constant tensor:
#      x y z
#    x 3.815500 0.000000 0.000000 
#    y 0.000000 3.821020 0.000000 
#    z 0.000000 0.000000 3.356320 
# 
# 
# High freq. dielectric constant tensor:
#      x y z
#    x 1.773720 0.000000 0.000000 
#    y 0.000000 1.773360 0.000000 
#    z 0.000000 0.000000 1.748560 
# 
# From -- ./inp_files/19277.got.cif
#   From: 2010.03.12/outbox.cif.g09.slc.cpg/sg56_10_cif.got.tgz:19277.got - 2010.04.16 15:33:40.
