data_PCOD8228654
_publ_section_title
;
Structure prediction by ZEFSAII (Michael W. Deem and Ramdas Pophale) SiO2 
 PCOD8228654
Probable space group: P C C N
;
_chemical_formula_sum "Si O2"
_cell_formula_units_Z 64
_cell_length_a 14.074894
_cell_length_b 19.292263
_cell_length_c 11.987613
_cell_angle_alpha 90.000000
_cell_angle_beta 90.000000
_cell_angle_gamma 90.000000
_cell_volume 3255.075158
_symmetry_space_group_name_H-M "P C C N"
_symmetry_group_IT_number 56
_symmetry_cell_setting 'orthorhombic'
loop_
_space_group_symop_operation_xyz
x,y,z
1/2-x,1/2-y,z
1/2+x,-y,1/2-z
-x,1/2+y,1/2-z
-x,-y,-z
1/2+x,1/2+y,-z
1/2-x,y,1/2+z
x,1/2-y,1/2+z
loop_
_atom_site_type_symbol
_atom_site_label
_atom_site_fract_x
_atom_site_fract_y
_atom_site_fract_z
Si Si1 0.430070 0.386349 0.299336
Si Si2 0.639591 0.744857 0.283780
Si Si3 0.089081 0.506071 0.248621
Si Si4 0.904464 0.959793 0.014250
Si Si5 0.297673 0.003565 0.706499
Si Si6 0.433588 0.606854 0.285614
Si Si7 0.468173 0.181173 0.404797
Si Si8 0.481156 0.183199 0.026260
O O1 0.413926 0.318807 0.222899
O O2 0.526851 0.423380 0.254315
O O3 0.335872 0.434405 0.286498
O O4 0.443378 0.368347 0.429955
O O5 0.750000 0.750000 0.304256
O O6 0.622676 0.706508 0.166385
O O7 0.602549 0.698689 0.386118
O O8 0.134847 0.486887 0.368339
O O9 0.186446 0.507050 0.179364
O O10 0.021685 0.445804 0.203737
O O11 0.927632 0.877834 0.013414
O O12 0.835790 0.980728 0.916052
O O13 0.000000 0.000000 0.000000
O O14 0.335510 0.932450 0.762008
O O15 0.449735 0.656389 0.179476
O O16 0.431722 0.648734 0.403239
O O17 0.515176 0.243955 0.474119
#
# Coordination Sequence:
#
# PCOD8228654 Si02
#       8
#     8   8   8   8   8   8   8   8
#     4  10  22  39  58  88 126 152 202 249 302 367
#     4  10  22  37  56  88 122 159 199 246 306 382
#     4  10  23  38  59  91 118 156 204 254 296 362
#     4  11  19  39  65  85 116 168 203 248 310 363
#     4  11  22  37  64  88 119 158 205 254 294 370
#     4   9  20  39  56  86 120 152 202 248 297 360
#     4   9  19  37  56  84 115 154 203 239 298 365
#     4  10  21  35  60  82 121 161 180 257 314 349
#
# _framework density 19.661605000000002
#
# number of rings (size 3 to 8) (size 9 to 14) (size 15 to 20)
#    0.000    2.000    3.750    0.750    5.250    6.000 
#    2.250    0.000    0.000    8.250    0.000    0.000 
#    0.000    0.000    0.000    0.000    0.000    0.000 
#
# Total GULP energy -793132.441234 kJ/mol
# GULP energy per Si atom -12392.694394 kJ/mol
# Density = 1.961685 g / cm^3
# Si number density = 19.661605 Si / 1000 Ang^3
#
#
#
# Elastic Constant Matrix: (Units=GPa)
#
#
# Indices 1 2 3 4 5 6 
#
# 1 89.1057 39.8444 11.8406 0.0000 0.0000 0.0000
# 2 39.8444 116.9631 46.0913 0.0000 0.0000 0.0000
# 3 11.8406 46.0913 91.7858 0.0000 0.0000 0.0000
# 4 0.0000 0.0000 0.0000 39.3248 0.0000 0.0000
# 5 0.0000 0.0000 0.0000 0.0000 18.5967 0.0000
# 6 0.0000 0.0000 0.0000 0.0000 0.0000 19.2266
#
#
#
# Elastic Compliance Matrix: (Units=1/GPa)
#
#
# Indices 1 2 3 4 5 6 
#
# 1 0.013275 -0.004797 0.000696 0.000000 0.000000 0.000000
# 2 -0.004797 0.012392 -0.005604 0.000000 0.000000 0.000000
# 3 0.000696 -0.005604 0.013619 0.000000 0.000000 0.000000
# 4 0.000000 0.000000 0.000000 0.025429 0.000000 0.000000
# 5 0.000000 0.000000 0.000000 0.000000 0.053773 0.000000
# 6 0.000000 0.000000 0.000000 0.000000 0.000000 0.052011
#
#
# Mechanical properties :
#
#
# Convention : Reuss Voigt Hill
#
# Bulk Modulus (GPa) = 50.30850 54.82302 52.56576
# Shear Modulus (GPa) = 25.44083 28.76817 27.10450
#
# Velocity S-wave (km/s) = 3.60103 3.82928 3.71691
# Velocity P-wave (km/s) = 6.55230 6.89166 6.72412
#
# Compressibility (1/GPa) = 0.01987736
#
# Stress axis : x y z
#
# Youngs Moduli (GPa) = 75.32995 80.69694 73.42540
#
# Poissons Ratio (x) = 0.38706 -0.05111
# Poissons Ratio (y) = 0.36132 0.41148
# Poissons Ratio (z) = -0.05244 0.45223
#
# Static dielectric constant tensor:
#      x y z
#    x 3.257010 0.000000 0.000000 
#    y 0.000000 3.913540 0.000000 
#    z 0.000000 0.000000 3.563100 
# 
# 
# High freq. dielectric constant tensor:
#      x y z
#    x 1.726570 0.000000 0.000000 
#    y 0.000000 1.778490 0.000000 
#    z 0.000000 0.000000 1.778560 
# 
# From -- ./inp_files/8044.got.cif
#   From: 2010.03.12/outbox.cif.g09.slc.cpg/sg56_5_cif.got.tgz:8044.got - 2010.04.16 15:33:40.
