data_PCOD8228753
_publ_section_title
;
Structure prediction by ZEFSAII (Michael W. Deem and Ramdas Pophale) SiO2 
 PCOD8228753
Probable space group: P C C N
;
_chemical_formula_sum "Si O2"
_cell_formula_units_Z 40
_cell_length_a 11.207993
_cell_length_b 16.175310
_cell_length_c 10.809491
_cell_angle_alpha 90.000000
_cell_angle_beta 90.000000
_cell_angle_gamma 90.000000
_cell_volume 1959.682471
_symmetry_space_group_name_H-M "P C C N"
_symmetry_group_IT_number 56
_symmetry_cell_setting 'orthorhombic'
loop_
_space_group_symop_operation_xyz
x,y,z
1/2-x,1/2-y,z
1/2+x,-y,1/2-z
-x,1/2+y,1/2-z
-x,-y,-z
1/2+x,1/2+y,-z
1/2-x,y,1/2+z
x,1/2-y,1/2+z
loop_
_atom_site_type_symbol
_atom_site_label
_atom_site_fract_x
_atom_site_fract_y
_atom_site_fract_z
Si Si1 0.483520 0.251157 0.564561
Si Si2 0.358829 0.412102 0.049344
Si Si3 0.516428 0.044875 0.317074
Si Si4 0.882461 0.216826 0.810832
Si Si5 0.090095 0.062206 0.566260
O O1 0.371542 0.186875 0.568359
O O2 0.548227 0.239475 0.697119
O O3 0.567516 0.234289 0.447387
O O4 0.439852 0.343038 0.543172
O O5 0.409750 0.459806 0.170130
O O6 0.226243 0.445588 0.022159
O O7 0.439967 0.437380 0.936530
O O8 0.611506 0.118079 0.289641
O O9 0.419138 0.038600 0.209410
O O10 0.750000 0.250000 0.805690
O O11 0.000000 0.000000 0.500000
#
# Coordination Sequence:
#
# PCOD8228753 Si02
#       5
#     8   8   8   8   8
#     4  10  23  40  61  93 122 168 211 250 325 370
#     4  10  22  43  65  84 130 166 200 262 311 379
#     4   9  23  41  60  95 120 164 208 248 325 367
#     4  10  21  39  62  91 128 162 210 261 306 378
#     4  11  25  39  63  97 120 161 217 258 310 376
#
# _framework density 20.411470999999999
#
# number of rings (size 3 to 8) (size 9 to 14) (size 15 to 20)
#    0.000    2.000    0.000    1.200    8.400    0.000 
#    7.200    6.000    0.000    0.000    0.000    0.000 
#    0.000    0.000    0.000    0.000    0.000    0.000 
#
# Total GULP energy -495695.328445 kJ/mol
# GULP energy per Si atom -12392.383211 kJ/mol
# Density = 2.036501 g / cm^3
# Si number density = 20.411471 Si / 1000 Ang^3
#
#
#
# Elastic Constant Matrix: (Units=GPa)
#
#
# Indices 1 2 3 4 5 6 
#
# 1 133.5847 61.1747 19.3183 0.0000 0.0000 0.0000
# 2 61.1747 130.7260 35.8633 0.0000 0.0000 0.0000
# 3 19.3183 35.8633 86.2483 0.0000 0.0000 0.0000
# 4 0.0000 0.0000 0.0000 25.4393 0.0000 0.0000
# 5 0.0000 0.0000 0.0000 0.0000 4.5271 0.0000
# 6 0.0000 0.0000 0.0000 0.0000 0.0000 26.4916
#
#
#
# Elastic Compliance Matrix: (Units=1/GPa)
#
#
# Indices 1 2 3 4 5 6 
#
# 1 0.009535 -0.004375 -0.000316 0.000000 0.000000 0.000000
# 2 -0.004375 0.010642 -0.003445 0.000000 0.000000 0.000000
# 3 -0.000316 -0.003445 0.013098 0.000000 0.000000 0.000000
# 4 0.000000 0.000000 0.000000 0.039309 0.000000 0.000000
# 5 0.000000 0.000000 0.000000 0.000000 0.220891 0.000000
# 6 0.000000 0.000000 0.000000 0.000000 0.000000 0.037748
#
#
# Mechanical properties :
#
#
# Convention : Reuss Voigt Hill
#
# Bulk Modulus (GPa) = 58.81836 64.80794 61.81315
# Shear Modulus (GPa) = 14.15769 26.90512 20.53140
#
# Velocity S-wave (km/s) = 2.63651 3.63455 3.17499
# Velocity P-wave (km/s) = 6.17634 7.03086 6.61741
#
# Compressibility (1/GPa) = 0.01700150
#
# Stress axis : x y z
#
# Youngs Moduli (GPa) = 104.87315 93.96523 76.34830
#
# Poissons Ratio (x) = 0.41113 0.02416
# Poissons Ratio (y) = 0.45886 0.26303
# Poissons Ratio (z) = 0.03319 0.32373
#
# Static dielectric constant tensor:
#      x y z
#    x 3.947480 0.000000 0.000000 
#    y 0.000000 4.186440 0.000000 
#    z 0.000000 0.000000 4.064700 
# 
# 
# High freq. dielectric constant tensor:
#      x y z
#    x 1.787180 0.000000 0.000000 
#    y 0.000000 1.810980 0.000000 
#    z 0.000000 0.000000 1.808870 
# 
# From -- ./inp_files/7008.got.cif
#   From: 2010.03.12/outbox.cif.g09.slc.cpg/sg56_4_cif.got.tgz:7008.got - 2010.04.16 15:33:40.
