data_PCOD8228754
_publ_section_title
;
Structure prediction by ZEFSAII (Michael W. Deem and Ramdas Pophale) SiO2 
 PCOD8228754
Probable space group: P C C N
;
_chemical_formula_sum "Si O2"
_cell_formula_units_Z 56
_cell_length_a 7.807404
_cell_length_b 14.515746
_cell_length_c 23.010111
_cell_angle_alpha 90.000000
_cell_angle_beta 90.000000
_cell_angle_gamma 90.000000
_cell_volume 2607.742630
_symmetry_space_group_name_H-M "P C C N"
_symmetry_group_IT_number 56
_symmetry_cell_setting 'orthorhombic'
loop_
_space_group_symop_operation_xyz
x,y,z
1/2-x,1/2-y,z
1/2+x,-y,1/2-z
-x,1/2+y,1/2-z
-x,-y,-z
1/2+x,1/2+y,-z
1/2-x,y,1/2+z
x,1/2-y,1/2+z
loop_
_atom_site_type_symbol
_atom_site_label
_atom_site_fract_x
_atom_site_fract_y
_atom_site_fract_z
Si Si1 0.438044 0.269413 0.635208
Si Si2 0.605062 0.615205 0.695320
Si Si3 0.346950 0.454766 0.428869
Si Si4 0.824553 0.931285 0.443981
Si Si5 0.070430 0.789952 0.241797
Si Si6 0.535449 0.073015 0.608863
Si Si7 0.063893 0.021110 0.770293
O O1 0.250000 0.250000 0.661230
O O2 0.416554 0.346723 0.587101
O O3 0.555066 0.299976 0.688742
O O4 0.527728 0.183270 0.603501
O O5 0.657797 0.611859 0.627404
O O6 0.568908 0.721001 0.712779
O O7 0.455630 0.541212 0.711841
O O8 0.756817 0.575007 0.735742
O O9 0.542777 0.485726 0.436577
O O10 0.297605 0.402400 0.488383
O O11 0.205768 0.536154 0.422804
O O12 0.642065 0.964932 0.418333
O O13 0.250000 0.750000 0.222543
O O14 0.068660 0.894844 0.219172
O O15 0.549223 0.048902 0.676566
#
# Coordination Sequence:
#
# PCOD8228754 Si02
#       7
#     8   8   8   8   8   8   8
#     4  10  21  39  62  93 121 163 214 267 313 384
#     4  11  23  41  62  92 133 161 216 258 327 391
#     4  10  23  40  63  92 125 173 207 265 321 381
#     4  10  22  40  65  89 127 167 217 262 317 374
#     4  12  25  37  61  96 129 166 209 264 329 390
#     4  10  22  40  65  94 124 165 219 260 323 380
#     4  11  23  38  62  93 126 174 200 269 324 382
#
# _framework density 21.474509999999999
#
# number of rings (size 3 to 8) (size 9 to 14) (size 15 to 20)
#    0.000    1.429    1.429    3.429   10.000    0.000 
#    0.000   10.000    0.000    0.000    0.000    0.000 
#    0.000    0.000    0.000    0.000    0.000    0.000 
#
# Total GULP energy -694131.989632 kJ/mol
# GULP energy per Si atom -12395.214101 kJ/mol
# Density = 2.142563 g / cm^3
# Si number density = 21.474510 Si / 1000 Ang^3
#
#
#
# Elastic Constant Matrix: (Units=GPa)
#
#
# Indices 1 2 3 4 5 6 
#
# 1 66.0547 -18.4208 15.1098 0.0000 0.0000 0.0000
# 2 -18.4208 58.6589 12.6814 0.0000 0.0000 0.0000
# 3 15.1098 12.6814 89.2545 0.0000 0.0000 0.0000
# 4 0.0000 0.0000 0.0000 21.5637 0.0000 0.0000
# 5 0.0000 0.0000 0.0000 0.0000 26.0140 0.0000
# 6 0.0000 0.0000 0.0000 0.0000 0.0000 28.1630
#
#
#
# Elastic Compliance Matrix: (Units=1/GPa)
#
#
# Indices 1 2 3 4 5 6 
#
# 1 0.017839 0.006453 -0.003937 0.000000 0.000000 0.000000
# 2 0.006453 0.019922 -0.003923 0.000000 0.000000 0.000000
# 3 -0.003937 -0.003923 0.012428 0.000000 0.000000 0.000000
# 4 0.000000 0.000000 0.000000 0.046374 0.000000 0.000000
# 5 0.000000 0.000000 0.000000 0.000000 0.038441 0.000000
# 6 0.000000 0.000000 0.000000 0.000000 0.000000 0.035508
#
#
# Mechanical properties :
#
#
# Convention : Reuss Voigt Hill
#
# Bulk Modulus (GPa) = 21.10782 25.85653 23.48218
# Shear Modulus (GPa) = 26.43862 28.78799 27.61331
#
# Velocity S-wave (km/s) = 3.51260 3.66535 3.58979
# Velocity P-wave (km/s) = 5.12852 5.47537 5.30478
#
# Compressibility (1/GPa) = 0.04737581
#
# Stress axis : x y z
#
# Youngs Moduli (GPa) = 56.05660 50.19492 80.46500
#
# Poissons Ratio (x) = -0.32392 0.31678
# Poissons Ratio (y) = -0.36174 0.31567
# Poissons Ratio (z) = 0.22069 0.19692
#
# Static dielectric constant tensor:
#      x y z
#    x 4.149340 0.000000 0.000000 
#    y 0.000000 3.892580 0.000000 
#    z 0.000000 0.000000 3.858290 
# 
# 
# High freq. dielectric constant tensor:
#      x y z
#    x 1.858290 0.000000 0.000000 
#    y 0.000000 1.832330 0.000000 
#    z 0.000000 0.000000 1.830400 
# 
# From -- ./inp_files/18201.got.cif
#   From: 2010.03.12/outbox.cif.g09.slc.cpg/sg56_10_cif.got.tgz:18201.got - 2010.04.16 15:33:40.
