data_PCOD8228957
_publ_section_title
;
Structure prediction by ZEFSAII (Michael W. Deem and Ramdas Pophale) SiO2 
 PCOD8228957
Probable space group: P C C N
;
_chemical_formula_sum "Si O2"
_cell_formula_units_Z 48
_cell_length_a 8.415449
_cell_length_b 26.659260
_cell_length_c 9.473123
_cell_angle_alpha 90.000000
_cell_angle_beta 90.000000
_cell_angle_gamma 90.000000
_cell_volume 2125.291762
_symmetry_space_group_name_H-M "P C C N"
_symmetry_group_IT_number 56
_symmetry_cell_setting 'orthorhombic'
loop_
_space_group_symop_operation_xyz
x,y,z
1/2-x,1/2-y,z
1/2+x,-y,1/2-z
-x,1/2+y,1/2-z
-x,-y,-z
1/2+x,1/2+y,-z
1/2-x,y,1/2+z
x,1/2-y,1/2+z
loop_
_atom_site_type_symbol
_atom_site_label
_atom_site_fract_x
_atom_site_fract_y
_atom_site_fract_z
Si Si1 0.564750 0.704135 0.248368
Si Si2 0.351556 0.471311 0.850569
Si Si3 0.433135 0.059678 0.655065
Si Si4 0.250000 0.750000 0.321982
Si Si5 0.347621 0.857845 0.424767
Si Si6 0.085805 0.891951 0.228896
Si Si7 0.250000 0.250000 0.999489
O O1 0.390483 0.728432 0.224460
O O2 0.560926 0.644705 0.265178
O O3 0.627924 0.722799 0.398139
O O4 0.663228 0.712006 0.105800
O O5 0.187187 0.451879 0.783015
O O6 0.397614 0.529730 0.827249
O O7 0.510516 0.446359 0.784821
O O8 0.339575 0.458092 0.015518
O O9 0.485754 0.118851 0.640026
O O10 0.326282 0.797483 0.408183
O O11 0.208495 0.889851 0.354952
O O12 0.330896 0.871152 0.588041
#
# Coordination Sequence:
#
# PCOD8228957 Si02
#       7
#     8   8   8   4   8   8   4
#     4  10  22  38  58  83 117 156 202 253 311 371
#     4  10  22  39  61  90 124 160 203 253 308 371
#     4  10  22  40  62  90 124 160 204 256 312 374
#     4  10  22  40  62  88 120 162 210 260 310 376
#     4  10  22  39  60  87 119 156 204 253 307 368
#     4  10  22  38  58  86 117 155 201 250 303 365
#     4  10  22  38  56  82 118 156 198 254 312 370
#
# _framework density 22.585134
#
# number of rings (size 3 to 8) (size 9 to 14) (size 15 to 20)
#    0.000    2.000    0.000    2.000    0.000   16.000 
#    0.000    0.000    0.000    0.000    0.000    0.000 
#    0.000    0.000    0.000    0.000    0.000    0.000 
#
# Total GULP energy -594644.949009 kJ/mol
# GULP energy per Si atom -12388.436438 kJ/mol
# Density = 2.253373 g / cm^3
# Si number density = 22.585134 Si / 1000 Ang^3
#
#
#
# Elastic Constant Matrix: (Units=GPa)
#
#
# Indices 1 2 3 4 5 6 
#
# 1 83.8421 26.8675 33.7736 0.0000 0.0000 0.0000
# 2 26.8675 110.9113 21.4608 0.0000 0.0000 0.0000
# 3 33.7736 21.4608 73.6335 0.0000 0.0000 0.0000
# 4 0.0000 0.0000 0.0000 -5.6606 0.0000 0.0000
# 5 0.0000 0.0000 0.0000 0.0000 72.0626 0.0000
# 6 0.0000 0.0000 0.0000 0.0000 0.0000 40.6153
#
#
#
# Elastic Compliance Matrix: (Units=1/GPa)
#
#
# Indices 1 2 3 4 5 6 
#
# 1 0.015248 -0.002480 -0.006271 0.000000 0.000000 0.000000
# 2 -0.002480 0.009959 -0.001765 0.000000 0.000000 0.000000
# 3 -0.006271 -0.001765 0.016971 0.000000 0.000000 0.000000
# 4 0.000000 0.000000 0.000000 -0.176659 0.000000 0.000000
# 5 0.000000 0.000000 0.000000 0.000000 0.013877 0.000000
# 6 0.000000 0.000000 0.000000 0.000000 0.000000 0.024621
#
#
# Mechanical properties :
#
#
# Convention : Reuss Voigt Hill
#
# Bulk Modulus (GPa) = 47.29055 48.06565 47.67810
# Shear Modulus (GPa) = -73.63556 33.82247 -19.90655
#
# Velocity S-wave (km/s) = -5.71615 3.87402 -2.97206
# Velocity P-wave (km/s) = 4.75200 6.42954 3.06247
#
# Compressibility (1/GPa) = 0.02114587
#
# Stress axis : x y z
#
# Youngs Moduli (GPa) = 65.58179 100.41637 58.92249
#
# Poissons Ratio (x) = 0.24907 0.36950
# Poissons Ratio (y) = 0.16267 0.10399
# Poissons Ratio (z) = 0.41126 0.17721
#
# Static dielectric constant tensor:
#      x y z
#    x 3.780570 0.000000 0.000000 
#    y 0.000000 4.380070 0.000000 
#    z 0.000000 0.000000 3.901580 
# 
# 
# High freq. dielectric constant tensor:
#      x y z
#    x 1.884320 0.000000 0.000000 
#    y 0.000000 1.902720 0.000000 
#    z 0.000000 0.000000 1.886810 
# 
# From -- ./inp_files/2258.got.cif
#   From: 2010.03.12/outbox.cif.g09.slc.cpg/sg56_2_cif.got.tgz:2258.got - 2010.04.16 15:33:40.
