data_PCOD8228873
_publ_section_title
;
Structure prediction by ZEFSAII (Michael W. Deem and Ramdas Pophale) SiO2 
 PCOD8228873
Probable space group: P C C N
;
_chemical_formula_sum "Si O2"
_cell_formula_units_Z 32
_cell_length_a 16.974432
_cell_length_b 5.193053
_cell_length_c 14.037577
_cell_angle_alpha 90.000000
_cell_angle_beta 90.000000
_cell_angle_gamma 90.000000
_cell_volume 1237.400130
_symmetry_space_group_name_H-M "P C C N"
_symmetry_group_IT_number 56
_symmetry_cell_setting 'orthorhombic'
loop_
_space_group_symop_operation_xyz
x,y,z
1/2-x,1/2-y,z
1/2+x,-y,1/2-z
-x,1/2+y,1/2-z
-x,-y,-z
1/2+x,1/2+y,-z
1/2-x,y,1/2+z
x,1/2-y,1/2+z
loop_
_atom_site_type_symbol
_atom_site_label
_atom_site_fract_x
_atom_site_fract_y
_atom_site_fract_z
Si Si1 0.662425 0.169009 0.700759
Si Si2 0.529048 0.977162 0.201747
Si Si3 0.092969 0.469691 0.484308
Si Si4 0.388920 0.542609 0.590173
O O1 0.750000 0.250000 0.673885
O O2 0.619606 0.447465 0.692916
O O3 0.619565 0.967853 0.627345
O O4 0.653753 0.048854 0.806309
O O5 0.481806 0.242342 0.227176
O O6 0.484782 0.912604 0.102484
O O7 0.129574 0.219125 0.534796
O O8 0.000000 0.500000 0.500000
O O9 0.139465 0.713960 0.528878
#
# Coordination Sequence:
#
# PCOD8228873 Si02
#       4
#     8   8   8   8
#     4  11  27  48  76 113 160 199 255 322 400 454
#     4  10  21  41  73 102 136 193 253 298 366 459
#     4  12  26  45  80 112 143 201 266 317 375 469
#     4  11  25  47  77 106 150 197 261 315 380 460
#
# _framework density 25.860672000000001
#
# number of rings (size 3 to 8) (size 9 to 14) (size 15 to 20)
#    0.000    1.000    2.500    3.750    7.000    3.000 
#    0.000   25.000    0.000    0.000    0.000    0.000 
#    0.000    0.000    0.000    0.000    0.000    0.000 
#
# Total GULP energy -396534.748546 kJ/mol
# GULP energy per Si atom -12391.710892 kJ/mol
# Density = 2.580181 g / cm^3
# Si number density = 25.860672 Si / 1000 Ang^3
#
#
#
# Elastic Constant Matrix: (Units=GPa)
#
#
# Indices 1 2 3 4 5 6 
#
# 1 127.6819 9.9812 28.3708 0.0000 0.0000 0.0000
# 2 9.9812 167.5365 68.9566 0.0000 0.0000 0.0000
# 3 28.3708 68.9566 170.3525 0.0000 0.0000 0.0000
# 4 0.0000 0.0000 0.0000 53.9257 0.0000 0.0000
# 5 0.0000 0.0000 0.0000 0.0000 25.1583 0.0000
# 6 0.0000 0.0000 0.0000 0.0000 0.0000 25.4968
#
#
#
# Elastic Compliance Matrix: (Units=1/GPa)
#
#
# Indices 1 2 3 4 5 6 
#
# 1 0.008134 0.000088 -0.001390 0.000000 0.000000 0.000000
# 2 0.000088 0.007163 -0.002914 0.000000 0.000000 0.000000
# 3 -0.001390 -0.002914 0.007281 0.000000 0.000000 0.000000
# 4 0.000000 0.000000 0.000000 0.018544 0.000000 0.000000
# 5 0.000000 0.000000 0.000000 0.000000 0.039748 0.000000
# 6 0.000000 0.000000 0.000000 0.000000 0.000000 0.039221
#
#
# Mechanical properties :
#
#
# Convention : Reuss Voigt Hill
#
# Bulk Modulus (GPa) = 70.69603 75.57644 73.13624
# Shear Modulus (GPa) = 37.52636 44.80030 41.16333
#
# Velocity S-wave (km/s) = 3.81346 4.16669 3.99398
# Velocity P-wave (km/s) = 6.84007 7.24129 7.04354
#
# Compressibility (1/GPa) = 0.01414507
#
# Stress axis : x y z
#
# Youngs Moduli (GPa) = 122.94085 139.60534 137.33848
#
# Poissons Ratio (x) = -0.01222 0.19091
# Poissons Ratio (y) = -0.01076 0.40022
# Poissons Ratio (z) = 0.17090 0.40682
#
# Static dielectric constant tensor:
#      x y z
#    x 4.300880 0.000000 0.000000 
#    y 0.000000 5.401390 0.000000 
#    z 0.000000 0.000000 4.926050 
# 
# 
# High freq. dielectric constant tensor:
#      x y z
#    x 1.988120 0.000000 0.000000 
#    y 0.000000 2.062830 0.000000 
#    z 0.000000 0.000000 2.049840 
# 
# From -- ./inp_files/12481.got.cif
#   From: 2010.03.12/outbox.cif.g09.slc.cpg/sg56_7_cif.got.tgz:12481.got - 2010.04.16 15:33:40.
