data_PCOD8228226
_publ_section_title
;
Structure prediction by ZEFSAII (Michael W. Deem and Ramdas Pophale) SiO2 
 PCOD8228226
Probable space group: P C C N
;
_chemical_formula_sum "Si O2"
_cell_formula_units_Z 52
_cell_length_a 11.661135
_cell_length_b 14.948488
_cell_length_c 13.167036
_cell_angle_alpha 90.000000
_cell_angle_beta 90.000000
_cell_angle_gamma 90.000000
_cell_volume 2295.229480
_symmetry_space_group_name_H-M "P C C N"
_symmetry_group_IT_number 56
_symmetry_cell_setting 'orthorhombic'
loop_
_space_group_symop_operation_xyz
x,y,z
1/2-x,1/2-y,z
1/2+x,-y,1/2-z
-x,1/2+y,1/2-z
-x,-y,-z
1/2+x,1/2+y,-z
1/2-x,y,1/2+z
x,1/2-y,1/2+z
loop_
_atom_site_type_symbol
_atom_site_label
_atom_site_fract_x
_atom_site_fract_y
_atom_site_fract_z
Si Si1 0.705492 0.660470 0.659445
Si Si2 0.750000 0.250000 0.018643
Si Si3 0.497407 0.940375 0.155693
Si Si4 0.097496 0.483414 0.351571
Si Si5 0.445626 0.873509 0.517405
Si Si6 0.370909 0.263972 0.553716
Si Si7 0.571590 0.383773 0.561843
O O1 0.750000 0.750000 0.716829
O O2 0.586790 0.627547 0.710935
O O3 0.795852 0.581587 0.654925
O O4 0.671832 0.685520 0.545915
O O5 0.849117 0.200178 0.952416
O O6 0.816506 0.323635 0.087723
O O7 0.409795 0.972082 0.240930
O O8 0.578307 0.020922 0.115082
O O9 0.430641 0.895583 0.061354
O O10 0.112932 0.559768 0.436491
O O11 0.983061 0.426667 0.381236
O O12 0.560482 0.827651 0.470661
O O13 0.250000 0.250000 0.616425
O O14 0.458514 0.333295 0.606877
#
# Coordination Sequence:
#
# PCOD8228226 Si02
#       7
#     8   4   8   8   8   8   8
#     4  10  19  39  63  80 122 161 187 255 299 336
#     4  10  20  40  64  90 120 158 198 242 314 344
#     4  10  22  40  59  88 121 157 203 240 302 355
#     4  11  22  39  61  90 120 159 205 242 303 356
#     4  10  21  38  62  88 121 157 196 249 293 363
#     4   9  16  36  61  85 114 159 194 238 298 340
#     4   9  20  39  62  86 121 159 193 249 295 358
#
# _framework density 22.655687
#
# number of rings (size 3 to 8) (size 9 to 14) (size 15 to 20)
#    0.000    2.154    3.077    0.923    0.000    1.231 
#    8.308    1.538    0.000    0.000    0.000    0.000 
#    0.000    0.000    0.000    0.000    0.000    0.000 
#
# Total GULP energy -644201.529085 kJ/mol
# GULP energy per Si atom -12388.490944 kJ/mol
# Density = 2.260412 g / cm^3
# Si number density = 22.655687 Si / 1000 Ang^3
#
#
#
# Elastic Constant Matrix: (Units=GPa)
#
#
# Indices 1 2 3 4 5 6 
#
# 1 119.9895 54.0860 8.1638 0.0000 0.0000 0.0000
# 2 54.0860 109.0299 8.3768 0.0000 0.0000 0.0000
# 3 8.1638 8.3768 49.0674 0.0000 0.0000 0.0000
# 4 0.0000 0.0000 0.0000 131.9932 0.0000 0.0000
# 5 0.0000 0.0000 0.0000 0.0000 36.7906 0.0000
# 6 0.0000 0.0000 0.0000 0.0000 0.0000 65.3222
#
#
#
# Elastic Compliance Matrix: (Units=1/GPa)
#
#
# Indices 1 2 3 4 5 6 
#
# 1 0.010773 -0.005275 -0.000892 0.000000 0.000000 0.000000
# 2 -0.005275 0.011877 -0.001150 0.000000 0.000000 0.000000
# 3 -0.000892 -0.001150 0.020725 0.000000 0.000000 0.000000
# 4 0.000000 0.000000 0.000000 0.007576 0.000000 0.000000
# 5 0.000000 0.000000 0.000000 0.000000 0.027181 0.000000
# 6 0.000000 0.000000 0.000000 0.000000 0.000000 0.015309
#
#
# Mechanical properties :
#
#
# Convention : Reuss Voigt Hill
#
# Bulk Modulus (GPa) = 34.79425 46.59333 40.69379
# Shear Modulus (GPa) = 42.49725 60.65188 51.57456
#
# Velocity S-wave (km/s) = 4.33573 5.17970 4.77639
# Velocity P-wave (km/s) = 6.36050 7.50885 6.95841
#
# Compressibility (1/GPa) = 0.02874038
#
# Stress axis : x y z
#
# Youngs Moduli (GPa) = 92.82755 84.19558 48.25133
#
# Poissons Ratio (x) = 0.44417 0.04303
# Poissons Ratio (y) = 0.48971 0.05549
# Poissons Ratio (z) = 0.08278 0.09682
#
# Static dielectric constant tensor:
#      x y z
#    x 5.442210 0.000000 0.000000 
#    y 0.000000 5.039460 0.000000 
#    z 0.000000 0.000000 3.441050 
# 
# 
# High freq. dielectric constant tensor:
#      x y z
#    x 1.901340 0.000000 0.000000 
#    y 0.000000 1.920890 0.000000 
#    z 0.000000 0.000000 1.836290 
# 
# From -- ./inp_files/11786.got.cif
#   From: 2010.03.12/outbox.cif.g09.slc.cpg/sg56_6_cif.got.tgz:11786.got - 2010.04.16 15:33:40.
