data_PCOD8228129
_publ_section_title
;
Structure prediction by ZEFSAII (Michael W. Deem and Ramdas Pophale) SiO2 
 PCOD8228129
Probable space group: P C C N
;
_chemical_formula_sum "Si O2"
_cell_formula_units_Z 64
_cell_length_a 16.544750
_cell_length_b 9.401959
_cell_length_c 23.611384
_cell_angle_alpha 90.000000
_cell_angle_beta 90.000000
_cell_angle_gamma 90.000000
_cell_volume 3672.823060
_symmetry_space_group_name_H-M "P C C N"
_symmetry_group_IT_number 56
_symmetry_cell_setting 'orthorhombic'
loop_
_space_group_symop_operation_xyz
x,y,z
1/2-x,1/2-y,z
1/2+x,-y,1/2-z
-x,1/2+y,1/2-z
-x,-y,-z
1/2+x,1/2+y,-z
1/2-x,y,1/2+z
x,1/2-y,1/2+z
loop_
_atom_site_type_symbol
_atom_site_label
_atom_site_fract_x
_atom_site_fract_y
_atom_site_fract_z
Si Si1 0.607285 0.192537 0.539754
Si Si2 0.442112 0.654539 0.738037
Si Si3 0.836961 0.510716 0.446190
Si Si4 0.067750 0.289374 0.067565
Si Si5 0.502528 0.130259 0.183941
Si Si6 0.842608 0.267393 0.362296
Si Si7 0.654335 0.058659 0.963156
Si Si8 0.343297 0.717958 0.837483
O O1 0.617105 0.057070 0.499616
O O2 0.512534 0.222305 0.542248
O O3 0.651546 0.334783 0.516619
O O4 0.645425 0.149897 0.600394
O O5 0.511963 0.751422 0.766976
O O6 0.484273 0.522746 0.708966
O O7 0.397992 0.753846 0.692348
O O8 0.376600 0.612387 0.787589
O O9 0.862044 0.672636 0.436345
O O10 0.857651 0.421963 0.389597
O O11 0.742559 0.507620 0.459233
O O12 0.091901 0.428021 0.030787
O O13 0.057654 0.336534 0.132613
O O14 0.597785 0.140989 0.164624
O O15 0.750000 0.250000 0.343821
O O16 0.867384 0.146968 0.407189
O O17 0.250000 0.750000 0.825551
#
# Coordination Sequence:
#
# PCOD8228129 Si02
#       8
#     8   8   8   8   8   8   8   8
#     4  10  20  36  56  80 110 144 184 218 269 336
#     4  10  19  36  54  78 110 142 185 225 272 317
#     4  10  21  33  56  83 112 141 178 229 276 323
#     4  11  20  35  52  85 110 140 182 226 276 317
#     4   9  22  33  56  78 110 140 180 228 271 318
#     4   9  18  32  55  79 105 143 184 220 266 331
#     4  10  19  35  55  79 112 143 179 223 275 325
#     4   9  19  34  61  80 106 146 189 220 261 331
#
# _framework density 17.425288999999999
#
# number of rings (size 3 to 8) (size 9 to 14) (size 15 to 20)
#    0.750    1.500    1.250    3.375    1.750    0.000 
#    0.000    0.000    0.000    0.000    0.000    0.000 
#    0.000    0.000    0.000    0.000    0.000    0.000 
#
# Total GULP energy -793196.650366 kJ/mol
# GULP energy per Si atom -12393.697662 kJ/mol
# Density = 1.738563 g / cm^3
# Si number density = 17.425289 Si / 1000 Ang^3
#
#
#
# Elastic Constant Matrix: (Units=GPa)
#
#
# Indices 1 2 3 4 5 6 
#
# 1 50.7828 10.0589 16.1799 0.0000 0.0000 0.0000
# 2 10.0589 61.2779 15.8765 0.0000 0.0000 0.0000
# 3 16.1799 15.8765 92.3546 0.0000 0.0000 0.0000
# 4 0.0000 0.0000 0.0000 21.9923 0.0000 0.0000
# 5 0.0000 0.0000 0.0000 0.0000 18.2377 0.0000
# 6 0.0000 0.0000 0.0000 0.0000 0.0000 26.3631
#
#
#
# Elastic Compliance Matrix: (Units=1/GPa)
#
#
# Indices 1 2 3 4 5 6 
#
# 1 0.021257 -0.002642 -0.003270 0.000000 0.000000 0.000000
# 2 -0.002642 0.017408 -0.002530 0.000000 0.000000 0.000000
# 3 -0.003270 -0.002530 0.011836 0.000000 0.000000 0.000000
# 4 0.000000 0.000000 0.000000 0.045470 0.000000 0.000000
# 5 0.000000 0.000000 0.000000 0.000000 0.054831 0.000000
# 6 0.000000 0.000000 0.000000 0.000000 0.000000 0.037932
#
#
# Mechanical properties :
#
#
# Convention : Reuss Voigt Hill
#
# Bulk Modulus (GPa) = 29.74671 32.07177 30.90924
# Shear Modulus (GPa) = 23.06022 24.13861 23.59942
#
# Velocity S-wave (km/s) = 3.64177 3.72595 3.68410
# Velocity P-wave (km/s) = 5.89842 6.07911 5.98945
#
# Compressibility (1/GPa) = 0.03361716
#
# Stress axis : x y z
#
# Youngs Moduli (GPa) = 47.04365 57.44406 84.49107
#
# Poissons Ratio (x) = 0.15178 0.27627
# Poissons Ratio (y) = 0.12430 0.21374
# Poissons Ratio (z) = 0.15382 0.14532
#
# Static dielectric constant tensor:
#      x y z
#    x 3.153980 0.000000 0.000000 
#    y 0.000000 3.018820 0.000000 
#    z 0.000000 0.000000 3.354530 
# 
# 
# High freq. dielectric constant tensor:
#      x y z
#    x 1.670080 0.000000 0.000000 
#    y 0.000000 1.652110 0.000000 
#    z 0.000000 0.000000 1.680910 
# 
# From -- ./inp_files/21272.got.cif
#   From: 2010.03.12/outbox.cif.g09.slc.cpg/sg56_11_cif.got.tgz:21272.got - 2010.04.16 15:33:40.
