data_PCOD8228781
_publ_section_title
;
Structure prediction by ZEFSAII (Michael W. Deem and Ramdas Pophale) SiO2 
 PCOD8228781
Probable space group: P C C N
;
_chemical_formula_sum "Si O2"
_cell_formula_units_Z 36
_cell_length_a 16.979511
_cell_length_b 7.775481
_cell_length_c 14.093585
_cell_angle_alpha 90.000000
_cell_angle_beta 90.000000
_cell_angle_gamma 90.000000
_cell_volume 1860.689566
_symmetry_space_group_name_H-M "P C C N"
_symmetry_group_IT_number 56
_symmetry_cell_setting 'orthorhombic'
loop_
_space_group_symop_operation_xyz
x,y,z
1/2-x,1/2-y,z
1/2+x,-y,1/2-z
-x,1/2+y,1/2-z
-x,-y,-z
1/2+x,1/2+y,-z
1/2-x,y,1/2+z
x,1/2-y,1/2+z
loop_
_atom_site_type_symbol
_atom_site_label
_atom_site_fract_x
_atom_site_fract_y
_atom_site_fract_z
Si Si1 0.814106 0.604018 0.867182
Si Si2 0.078945 0.423226 0.956490
Si Si3 0.101238 0.620691 0.783796
Si Si4 0.434340 0.253113 0.267038
Si Si5 0.750000 0.250000 0.316790
O O1 0.750000 0.750000 0.852800
O O2 0.874093 0.611476 0.776542
O O3 0.770748 0.419511 0.877663
O O4 0.862141 0.640388 0.962887
O O5 0.115459 0.580508 0.895381
O O6 0.064853 0.261918 0.883221
O O7 0.000000 0.500000 0.000000
O O8 0.092616 0.439865 0.726880
O O9 0.174978 0.725798 0.748953
O O10 0.022149 0.728566 0.770235
#
# Coordination Sequence:
#
# PCOD8228781 Si02
#       5
#     8   8   8   8   4
#     4  12  23  44  66  97 138 171 221 275 334 392
#     4  10  21  39  68  94 132 171 222 274 322 404
#     4  10  21  39  67  94 126 176 214 270 328 386
#     4  10  21  42  67  91 135 176 211 275 329 390
#     4  12  24  40  68  96 134 178 218 274 336 386
#
# _framework density 19.347666
#
# number of rings (size 3 to 8) (size 9 to 14) (size 15 to 20)
#    1.333    0.000    4.444    2.667    0.000    3.556 
#    0.000    3.333    0.000    0.000    0.000    0.000 
#    0.000    0.000    0.000    0.000    0.000    0.000 
#
# Total GULP energy -445986.741047 kJ/mol
# GULP energy per Si atom -12388.520585 kJ/mol
# Density = 1.930363 g / cm^3
# Si number density = 19.347666 Si / 1000 Ang^3
#
#
#
# Elastic Constant Matrix: (Units=GPa)
#
#
# Indices 1 2 3 4 5 6 
#
# 1 130.9275 34.0528 36.8781 0.0000 0.0000 0.0000
# 2 34.0528 83.2995 18.9772 0.0000 0.0000 0.0000
# 3 36.8781 18.9772 107.0564 0.0000 0.0000 0.0000
# 4 0.0000 0.0000 0.0000 19.3146 0.0000 0.0000
# 5 0.0000 0.0000 0.0000 0.0000 20.7038 0.0000
# 6 0.0000 0.0000 0.0000 0.0000 0.0000 37.4539
#
#
#
# Elastic Compliance Matrix: (Units=1/GPa)
#
#
# Indices 1 2 3 4 5 6 
#
# 1 0.009195 -0.003165 -0.002606 0.000000 0.000000 0.000000
# 2 -0.003165 0.013600 -0.001320 0.000000 0.000000 0.000000
# 3 -0.002606 -0.001320 0.010473 0.000000 0.000000 0.000000
# 4 0.000000 0.000000 0.000000 0.051774 0.000000 0.000000
# 5 0.000000 0.000000 0.000000 0.000000 0.048300 0.000000
# 6 0.000000 0.000000 0.000000 0.000000 0.000000 0.026700
#
#
# Mechanical properties :
#
#
# Convention : Reuss Voigt Hill
#
# Bulk Modulus (GPa) = 52.40114 55.67773 54.03944
# Shear Modulus (GPa) = 27.68750 30.91948 29.30349
#
# Velocity S-wave (km/s) = 3.78703 4.00196 3.89598
# Velocity P-wave (km/s) = 6.80183 7.08479 6.94475
#
# Compressibility (1/GPa) = 0.01908355
#
# Stress axis : x y z
#
# Youngs Moduli (GPa) = 108.75240 73.53146 95.48576
#
# Poissons Ratio (x) = 0.23274 0.24888
# Poissons Ratio (y) = 0.34422 0.12608
# Poissons Ratio (z) = 0.28345 0.09709
#
# Static dielectric constant tensor:
#      x y z
#    x 3.017850 0.000000 0.000000 
#    y 0.000000 3.442640 0.000000 
#    z 0.000000 0.000000 3.561070 
# 
# 
# High freq. dielectric constant tensor:
#      x y z
#    x 1.766170 0.000000 0.000000 
#    y 0.000000 1.745390 0.000000 
#    z 0.000000 0.000000 1.736460 
# 
# From -- ./inp_files/10477.got.cif
#   From: 2010.03.12/outbox.cif.g09.slc.cpg/sg56_6_cif.got.tgz:10477.got - 2010.04.16 15:33:40.
