data_PCOD8228219
_publ_section_title
;
Structure prediction by ZEFSAII (Michael W. Deem and Ramdas Pophale) SiO2 
 PCOD8228219
Probable space group: P C C N
;
_chemical_formula_sum "Si O2"
_cell_formula_units_Z 64
_cell_length_a 10.994725
_cell_length_b 18.199446
_cell_length_c 17.153559
_cell_angle_alpha 90.000000
_cell_angle_beta 90.000000
_cell_angle_gamma 90.000000
_cell_volume 3432.391201
_symmetry_space_group_name_H-M "P C C N"
_symmetry_group_IT_number 56
_symmetry_cell_setting 'orthorhombic'
loop_
_space_group_symop_operation_xyz
x,y,z
1/2-x,1/2-y,z
1/2+x,-y,1/2-z
-x,1/2+y,1/2-z
-x,-y,-z
1/2+x,1/2+y,-z
1/2-x,y,1/2+z
x,1/2-y,1/2+z
loop_
_atom_site_type_symbol
_atom_site_label
_atom_site_fract_x
_atom_site_fract_y
_atom_site_fract_z
Si Si1 0.880878 0.946611 0.868717
Si Si2 0.549451 0.346156 0.384672
Si Si3 0.288865 0.600738 0.166472
Si Si4 0.473688 0.187074 0.331984
Si Si5 0.631147 0.842718 0.504805
Si Si6 0.569651 0.041393 0.762015
Si Si7 0.595124 0.680606 0.470815
Si Si8 0.137911 0.383302 0.192347
O O1 0.910889 0.911587 0.952547
O O2 0.779958 0.897800 0.823617
O O3 0.005098 0.945432 0.819915
O O4 0.833490 0.029467 0.882017
O O5 0.697650 0.349249 0.386269
O O6 0.494874 0.272509 0.346932
O O7 0.501145 0.413954 0.331490
O O8 0.506406 0.354867 0.473374
O O9 0.399867 0.650171 0.194563
O O10 0.210337 0.570777 0.241272
O O11 0.422602 0.146815 0.408920
O O12 0.377340 0.176219 0.261775
O O13 0.579769 0.768426 0.465658
O O14 0.776472 0.840054 0.509640
O O15 0.564734 0.955745 0.782560
O O16 0.576018 0.647993 0.385465
#
# Coordination Sequence:
#
# PCOD8228219 Si02
#       8
#     8   8   8   8   8   8   8   8
#     4  10  19  39  54  83 117 144 187 226 287 328
#     4   9  21  36  58  78 110 152 185 231 271 336
#     4   9  20  36  56  80 113 149 185 228 271 333
#     4  11  20  37  57  83 111 147 191 226 286 327
#     4   9  21  35  56  80 116 142 176 240 274 342
#     4   9  20  36  56  81 110 148 185 229 271 334
#     4   9  19  39  52  83 110 140 191 223 284 328
#     4  10  21  35  59  81 111 147 182 239 274 331
#
# _framework density 18.645892
#
# number of rings (size 3 to 8) (size 9 to 14) (size 15 to 20)
#    0.750    1.750    1.250    0.375    3.500    1.000 
#    0.000    1.250    0.000    1.500    0.000    0.000 
#    0.000    0.000    0.000    0.000    0.000    0.000 
#
# Total GULP energy -793244.889071 kJ/mol
# GULP energy per Si atom -12394.451392 kJ/mol
# Density = 1.860345 g / cm^3
# Si number density = 18.645892 Si / 1000 Ang^3
#
#
#
# Elastic Constant Matrix: (Units=GPa)
#
#
# Indices 1 2 3 4 5 6 
#
# 1 56.0585 12.8075 34.1799 0.0000 0.0000 0.0000
# 2 12.8075 57.2493 30.1925 0.0000 0.0000 0.0000
# 3 34.1799 30.1925 98.0251 0.0000 0.0000 0.0000
# 4 0.0000 0.0000 0.0000 27.7422 0.0000 0.0000
# 5 0.0000 0.0000 0.0000 0.0000 28.7234 0.0000
# 6 0.0000 0.0000 0.0000 0.0000 0.0000 25.3044
#
#
#
# Elastic Compliance Matrix: (Units=1/GPa)
#
#
# Indices 1 2 3 4 5 6 
#
# 1 0.022711 -0.001080 -0.007586 0.000000 0.000000 0.000000
# 2 -0.001080 0.020907 -0.006063 0.000000 0.000000 0.000000
# 3 -0.007586 -0.006063 0.014714 0.000000 0.000000 0.000000
# 4 0.000000 0.000000 0.000000 0.036046 0.000000 0.000000
# 5 0.000000 0.000000 0.000000 0.000000 0.034815 0.000000
# 6 0.000000 0.000000 0.000000 0.000000 0.000000 0.039519
#
#
# Mechanical properties :
#
#
# Convention : Reuss Voigt Hill
#
# Bulk Modulus (GPa) = 34.63396 40.63253 37.63324
# Shear Modulus (GPa) = 24.06234 25.29753 24.67993
#
# Velocity S-wave (km/s) = 3.59624 3.68738 3.64210
# Velocity P-wave (km/s) = 5.98822 6.32203 6.15739
#
# Compressibility (1/GPa) = 0.02887339
#
# Stress axis : x y z
#
# Youngs Moduli (GPa) = 44.03202 47.83198 67.96192
#
# Poissons Ratio (x) = 0.05165 0.51558
# Poissons Ratio (y) = 0.04755 0.41204
# Poissons Ratio (z) = 0.33404 0.29000
#
# Static dielectric constant tensor:
#      x y z
#    x 3.324200 0.000000 0.000000 
#    y 0.000000 3.491840 0.000000 
#    z 0.000000 0.000000 3.211850 
# 
# 
# High freq. dielectric constant tensor:
#      x y z
#    x 1.713220 0.000000 0.000000 
#    y 0.000000 1.731070 0.000000 
#    z 0.000000 0.000000 1.703590 
# 
# From -- ./inp_files/15892.got.cif
#   From: 2010.03.12/outbox.cif.g09.slc.cpg/sg56_8_cif.got.tgz:15892.got - 2010.04.16 15:33:40.
