data_PCOD8228581
_publ_section_title
;
Structure prediction by ZEFSAII (Michael W. Deem and Ramdas Pophale) SiO2 
 PCOD8228581
Probable space group: P C C N
;
_chemical_formula_sum "Si O2"
_cell_formula_units_Z 36
_cell_length_a 13.155720
_cell_length_b 9.291832
_cell_length_c 15.031082
_cell_angle_alpha 90.000000
_cell_angle_beta 90.000000
_cell_angle_gamma 90.000000
_cell_volume 1837.410588
_symmetry_space_group_name_H-M "P C C N"
_symmetry_group_IT_number 56
_symmetry_cell_setting 'orthorhombic'
loop_
_space_group_symop_operation_xyz
x,y,z
1/2-x,1/2-y,z
1/2+x,-y,1/2-z
-x,1/2+y,1/2-z
-x,-y,-z
1/2+x,1/2+y,-z
1/2-x,y,1/2+z
x,1/2-y,1/2+z
loop_
_atom_site_type_symbol
_atom_site_label
_atom_site_fract_x
_atom_site_fract_y
_atom_site_fract_z
Si Si1 0.214900 0.014275 0.780443
Si Si2 0.404439 0.203824 0.785247
Si Si3 0.043004 0.694168 0.565575
Si Si4 0.750000 0.250000 0.348633
Si Si5 0.966086 0.103302 0.122058
O O1 0.324538 0.077536 0.806631
O O2 0.146845 0.149841 0.747551
O O3 0.238129 0.894633 0.707828
O O4 0.152063 0.942521 0.862046
O O5 0.457175 0.219930 0.880898
O O6 0.490322 0.166989 0.713241
O O7 0.153993 0.748363 0.587967
O O8 0.028638 0.716648 0.459289
O O9 0.037340 0.527677 0.592998
#
# Coordination Sequence:
#
# PCOD8228581 Si02
#       5
#     8   8   8   4   8
#     4  10  22  37  65  89 121 161 207 253 311 371
#     4  10  20  42  62  90 122 164 204 254 319 372
#     4  10  22  37  62  89 124 160 203 254 317 368
#     4  12  20  38  60  90 116 158 206 254 304 372
#     4  10  20  41  62  88 124 162 202 262 309 367
#
# _framework density 19.592790000000001
#
# number of rings (size 3 to 8) (size 9 to 14) (size 15 to 20)
#    0.000    1.778    4.444    0.000    0.000    0.889 
#    4.000    3.333    0.000    0.000    0.000    0.000 
#    0.000    0.000    0.000    0.000    0.000    0.000 
#
# Total GULP energy -446173.494249 kJ/mol
# GULP energy per Si atom -12393.708174 kJ/mol
# Density = 1.954820 g / cm^3
# Si number density = 19.592790 Si / 1000 Ang^3
#
#
#
# Elastic Constant Matrix: (Units=GPa)
#
#
# Indices 1 2 3 4 5 6 
#
# 1 141.8128 54.7331 65.8446 0.0000 0.0000 0.0000
# 2 54.7331 71.6763 48.8998 0.0000 0.0000 0.0000
# 3 65.8446 48.8998 133.5950 0.0000 0.0000 0.0000
# 4 0.0000 0.0000 0.0000 28.5809 0.0000 0.0000
# 5 0.0000 0.0000 0.0000 0.0000 19.6247 0.0000
# 6 0.0000 0.0000 0.0000 0.0000 0.0000 26.4195
#
#
#
# Elastic Compliance Matrix: (Units=1/GPa)
#
#
# Indices 1 2 3 4 5 6 
#
# 1 0.010880 -0.006197 -0.003094 0.000000 0.000000 0.000000
# 2 -0.006197 0.022125 -0.005044 0.000000 0.000000 0.000000
# 3 -0.003094 -0.005044 0.010856 0.000000 0.000000 0.000000
# 4 0.000000 0.000000 0.000000 0.034988 0.000000 0.000000
# 5 0.000000 0.000000 0.000000 0.000000 0.050956 0.000000
# 6 0.000000 0.000000 0.000000 0.000000 0.000000 0.037851
#
#
# Mechanical properties :
#
#
# Convention : Reuss Voigt Hill
#
# Bulk Modulus (GPa) = 65.82843 76.22657 71.02750
# Shear Modulus (GPa) = 24.82729 26.76547 25.79638
#
# Velocity S-wave (km/s) = 3.56359 3.70007 3.63247
# Velocity P-wave (km/s) = 7.11361 7.56597 7.34327
#
# Compressibility (1/GPa) = 0.01519101
#
# Stress axis : x y z
#
# Youngs Moduli (GPa) = 91.91203 45.19738 92.11075
#
# Poissons Ratio (x) = 0.28010 0.28499
# Poissons Ratio (y) = 0.56961 0.46461
# Poissons Ratio (z) = 0.28437 0.22798
#
# Static dielectric constant tensor:
#      x y z
#    x 3.786580 0.000000 0.000000 
#    y 0.000000 3.695490 0.000000 
#    z 0.000000 0.000000 3.539870 
# 
# 
# High freq. dielectric constant tensor:
#      x y z
#    x 1.779730 0.000000 0.000000 
#    y 0.000000 1.760050 0.000000 
#    z 0.000000 0.000000 1.746050 
# 
# From -- ./inp_files/7600.got.cif
#   From: 2010.03.12/outbox.cif.g09.slc.cpg/sg56_4_cif.got.tgz:7600.got - 2010.04.16 15:33:40.
