data_PCOD8228104
_publ_section_title
;
Structure prediction by ZEFSAII (Michael W. Deem and Ramdas Pophale) SiO2 
 PCOD8228104
Probable space group: P C C N
;
_chemical_formula_sum "Si O2"
_cell_formula_units_Z 52
_cell_length_a 15.426377
_cell_length_b 7.924854
_cell_length_c 19.080496
_cell_angle_alpha 90.000000
_cell_angle_beta 90.000000
_cell_angle_gamma 90.000000
_cell_volume 2332.624704
_symmetry_space_group_name_H-M "P C C N"
_symmetry_group_IT_number 56
_symmetry_cell_setting 'orthorhombic'
loop_
_space_group_symop_operation_xyz
x,y,z
1/2-x,1/2-y,z
1/2+x,-y,1/2-z
-x,1/2+y,1/2-z
-x,-y,-z
1/2+x,1/2+y,-z
1/2-x,y,1/2+z
x,1/2-y,1/2+z
loop_
_atom_site_type_symbol
_atom_site_label
_atom_site_fract_x
_atom_site_fract_y
_atom_site_fract_z
Si Si1 0.654521 0.454461 0.621810
Si Si2 0.284245 0.426416 0.986557
Si Si3 0.938778 0.485907 0.433691
Si Si4 0.088271 0.562196 0.239282
Si Si5 0.508959 0.780134 0.842183
Si Si6 0.086783 0.316804 0.365223
Si Si7 0.750000 0.250000 0.232345
O O1 0.704301 0.469507 0.547384
O O2 0.580605 0.311352 0.614900
O O3 0.606484 0.622499 0.648106
O O4 0.719231 0.403331 0.683381
O O5 0.250000 0.250000 0.019990
O O6 0.351708 0.379832 0.926576
O O7 0.337791 0.540834 0.043289
O O8 0.933924 0.661893 0.391149
O O9 0.000000 0.500000 0.500000
O O10 0.983473 0.342033 0.384658
O O11 0.057637 0.457432 0.171411
O O12 0.112275 0.427377 0.298747
O O13 0.173022 0.673938 0.219627
O O14 0.013366 0.689685 0.267472
#
# Coordination Sequence:
#
# PCOD8228104 Si02
#       7
#     8   8   8   8   8   8   4
#     4  10  19  33  59  91 117 155 210 262 299 367
#     4   9  17  33  59  82 115 155 208 263 306 366
#     4   9  19  36  58  85 120 157 202 265 309 371
#     4  10  19  35  57  89 128 162 201 259 312 383
#     4  10  21  35  60  88 128 160 206 253 323 380
#     4   9  17  33  57  87 117 156 207 248 313 374
#     4  10  20  32  58  92 130 156 218 262 300 366
#
# _framework density 22.292484000000002
#
# number of rings (size 3 to 8) (size 9 to 14) (size 15 to 20)
#    0.000    2.462    1.538    0.923    2.154    0.000 
#    0.000    6.923   20.308    0.000    0.000    0.000 
#    0.000    0.000    0.000    0.000    0.000    0.000 
#
# Total GULP energy -644322.614453 kJ/mol
# GULP energy per Si atom -12390.819509 kJ/mol
# Density = 2.224175 g / cm^3
# Si number density = 22.292484 Si / 1000 Ang^3
#
#
#
# Elastic Constant Matrix: (Units=GPa)
#
#
# Indices 1 2 3 4 5 6 
#
# 1 108.7276 46.4357 35.7576 0.0000 0.0000 0.0000
# 2 46.4357 96.8502 20.2606 0.0000 0.0000 0.0000
# 3 35.7576 20.2606 34.4639 0.0000 0.0000 0.0000
# 4 0.0000 0.0000 0.0000 23.5782 0.0000 0.0000
# 5 0.0000 0.0000 0.0000 0.0000 28.2346 0.0000
# 6 0.0000 0.0000 0.0000 0.0000 0.0000 37.5046
#
#
#
# Elastic Compliance Matrix: (Units=1/GPa)
#
#
# Indices 1 2 3 4 5 6 
#
# 1 0.015619 -0.004673 -0.013458 0.000000 0.000000 0.000000
# 2 -0.004673 0.013171 -0.002894 0.000000 0.000000 0.000000
# 3 -0.013458 -0.002894 0.044681 0.000000 0.000000 0.000000
# 4 0.000000 0.000000 0.000000 0.042412 0.000000 0.000000
# 5 0.000000 0.000000 0.000000 0.000000 0.035418 0.000000
# 6 0.000000 0.000000 0.000000 0.000000 0.000000 0.026663
#
#
# Mechanical properties :
#
#
# Convention : Reuss Voigt Hill
#
# Bulk Modulus (GPa) = 31.82730 49.43884 40.63307
# Shear Modulus (GPa) = 21.69295 27.03599 24.36447
#
# Velocity S-wave (km/s) = 3.12285 3.48628 3.30956
# Velocity P-wave (km/s) = 5.22600 6.19928 5.73333
#
# Compressibility (1/GPa) = 0.03141957
#
# Stress axis : x y z
#
# Youngs Moduli (GPa) = 64.02352 75.92198 22.38096
#
# Poissons Ratio (x) = 0.35481 0.30121
# Poissons Ratio (y) = 0.29921 0.06478
# Poissons Ratio (z) = 0.86164 0.21975
#
# Static dielectric constant tensor:
#      x y z
#    x 4.411760 0.000000 0.000000 
#    y 0.000000 4.164230 0.000000 
#    z 0.000000 0.000000 3.741400 
# 
# 
# High freq. dielectric constant tensor:
#      x y z
#    x 1.878150 0.000000 0.000000 
#    y 0.000000 1.877710 0.000000 
#    z 0.000000 0.000000 1.837210 
# 
# From -- ./inp_files/19052.got.cif
#   From: 2010.03.12/outbox.cif.g09.slc.cpg/sg56_10_cif.got.tgz:19052.got - 2010.04.16 15:33:40.
