data_PCOD8228012
_publ_section_title
;
Structure prediction by ZEFSAII (Michael W. Deem and Ramdas Pophale) SiO2 
 PCOD8228012
Probable space group: P C C N
;
_chemical_formula_sum "Si O2"
_cell_formula_units_Z 48
_cell_length_a 23.571091
_cell_length_b 4.910308
_cell_length_c 17.198936
_cell_angle_alpha 90.000000
_cell_angle_beta 90.000000
_cell_angle_gamma 90.000000
_cell_volume 1990.627499
_symmetry_space_group_name_H-M "P C C N"
_symmetry_group_IT_number 56
_symmetry_cell_setting 'orthorhombic'
loop_
_space_group_symop_operation_xyz
x,y,z
1/2-x,1/2-y,z
1/2+x,-y,1/2-z
-x,1/2+y,1/2-z
-x,-y,-z
1/2+x,1/2+y,-z
1/2-x,y,1/2+z
x,1/2-y,1/2+z
loop_
_atom_site_type_symbol
_atom_site_label
_atom_site_fract_x
_atom_site_fract_y
_atom_site_fract_z
Si Si1 0.626466 0.831785 0.466461
Si Si2 0.079385 0.967663 0.752337
Si Si3 0.750000 0.750000 0.443124
Si Si4 0.537949 0.447211 0.079446
Si Si5 0.641530 0.973762 0.292919
Si Si6 0.750000 0.250000 0.836813
Si Si7 0.465055 0.947037 0.086337
O O1 0.692960 0.808387 0.492818
O O2 0.596579 0.998475 0.535011
O O3 0.594238 0.542193 0.453324
O O4 0.625186 0.997494 0.384635
O O5 0.046343 0.029401 0.830919
O O6 0.133988 0.168470 0.739737
O O7 0.037539 0.993624 0.679085
O O8 0.099453 0.657184 0.757358
O O9 0.727800 0.497248 0.390711
O O10 0.518567 0.137718 0.062264
O O11 0.482840 0.640072 0.057654
O O12 0.703324 0.106828 0.281793
#
# Coordination Sequence:
#
# PCOD8228012 Si02
#       7
#     8   8   4   8   8   4   8
#     4  10  23  41  63  91 120 156 206 249 299 353
#     4  11  22  39  58  87 125 159 194 242 305 357
#     4  10  22  38  62  88 118 152 194 256 302 348
#     4  12  24  38  61  91 126 159 194 248 305 359
#     4  10  21  38  61  85 117 157 202 250 288 356
#     4  10  18  36  62  88 108 154 214 250 288 340
#     4  11  22  38  61  88 121 160 202 244 289 357
#
# _framework density 24.113
#
# number of rings (size 3 to 8) (size 9 to 14) (size 15 to 20)
#    0.000    1.333    0.000    8.000    0.000    6.667 
#    0.000    1.667    0.000    1.000    0.000    0.000 
#    0.000    0.000    0.000    0.000    0.000    0.000 
#
# Total GULP energy -595022.754429 kJ/mol
# GULP energy per Si atom -12396.307384 kJ/mol
# Density = 2.405812 g / cm^3
# Si number density = 24.113000 Si / 1000 Ang^3
#
#
#
# Elastic Constant Matrix: (Units=GPa)
#
#
# Indices 1 2 3 4 5 6 
#
# 1 152.1489 31.7909 22.0429 0.0000 0.0000 0.0000
# 2 31.7909 124.1226 9.7620 0.0000 0.0000 0.0000
# 3 22.0429 9.7620 60.1845 0.0000 0.0000 0.0000
# 4 0.0000 0.0000 0.0000 18.6588 0.0000 0.0000
# 5 0.0000 0.0000 0.0000 0.0000 -84.8576 0.0000
# 6 0.0000 0.0000 0.0000 0.0000 0.0000 40.2021
#
#
#
# Elastic Compliance Matrix: (Units=1/GPa)
#
#
# Indices 1 2 3 4 5 6 
#
# 1 0.007269 -0.001674 -0.002391 0.000000 0.000000 0.000000
# 2 -0.001674 0.008546 -0.000773 0.000000 0.000000 0.000000
# 3 -0.002391 -0.000773 0.017617 0.000000 0.000000 0.000000
# 4 0.000000 0.000000 0.000000 0.053594 0.000000 0.000000
# 5 0.000000 0.000000 0.000000 0.000000 -0.011784 0.000000
# 6 0.000000 0.000000 0.000000 0.000000 0.000000 0.024874
#
#
# Mechanical properties :
#
#
# Convention : Reuss Voigt Hill
#
# Bulk Modulus (GPa) = 42.09438 51.51639 46.80539
# Shear Modulus (GPa) = 42.47772 12.99135 27.73454
#
# Velocity S-wave (km/s) = 4.20171 2.32366 3.39512
# Velocity P-wave (km/s) = 6.40579 5.34884 5.90103
#
# Compressibility (1/GPa) = 0.02375614
#
# Stress axis : x y z
#
# Youngs Moduli (GPa) = 137.57869 117.01354 56.76469
#
# Poissons Ratio (x) = 0.19584 0.13571
# Poissons Ratio (y) = 0.23026 0.04389
# Poissons Ratio (z) = 0.32891 0.09047
#
# Static dielectric constant tensor:
#      x y z
#    x 4.272770 0.000000 0.000000 
#    y 0.000000 7.342460 0.000000 
#    z 0.000000 0.000000 4.243030 
# 
# 
# High freq. dielectric constant tensor:
#      x y z
#    x 1.952650 0.000000 0.000000 
#    y 0.000000 1.977520 0.000000 
#    z 0.000000 0.000000 1.936390 
# 
# From -- ./inp_files/16949.got.cif
#   From: 2010.03.12/outbox.cif.g09.slc.cpg/sg56_9_cif.got.tgz:16949.got - 2010.04.16 15:33:40.
