data_PCOD8228752
_publ_section_title
;
Structure prediction by ZEFSAII (Michael W. Deem and Ramdas Pophale) SiO2 
 PCOD8228752
Probable space group: P C C N
;
_chemical_formula_sum "Si O2"
_cell_formula_units_Z 48
_cell_length_a 16.067464
_cell_length_b 16.500789
_cell_length_c 9.453245
_cell_angle_alpha 90.000000
_cell_angle_beta 90.000000
_cell_angle_gamma 90.000000
_cell_volume 2506.299457
_symmetry_space_group_name_H-M "P C C N"
_symmetry_group_IT_number 56
_symmetry_cell_setting 'orthorhombic'
loop_
_space_group_symop_operation_xyz
x,y,z
1/2-x,1/2-y,z
1/2+x,-y,1/2-z
-x,1/2+y,1/2-z
-x,-y,-z
1/2+x,1/2+y,-z
1/2-x,y,1/2+z
x,1/2-y,1/2+z
loop_
_atom_site_type_symbol
_atom_site_label
_atom_site_fract_x
_atom_site_fract_y
_atom_site_fract_z
Si Si1 0.268359 0.555774 0.318617
Si Si2 0.403353 0.166315 0.134615
Si Si3 0.754710 0.554507 0.928576
Si Si4 0.832453 0.797762 0.064849
Si Si5 0.667723 0.302223 0.300588
Si Si6 0.906943 0.173325 0.607575
O O1 0.253371 0.526738 0.478314
O O2 0.191591 0.611767 0.269234
O O3 0.353906 0.605085 0.312140
O O4 0.275235 0.474088 0.225829
O O5 0.386882 0.183754 0.298554
O O6 0.498836 0.142713 0.114364
O O7 0.347093 0.092208 0.079598
O O8 0.386128 0.246611 0.044895
O O9 0.689355 0.619426 0.985356
O O10 0.750000 0.750000 0.114135
O O11 0.750000 0.250000 0.331756
O O12 0.620046 0.316363 0.446028
O O13 0.606336 0.257831 0.190334
#
# Coordination Sequence:
#
# PCOD8228752 Si02
#       6
#     8   8   8   8   8   8
#     4  11  22  40  62  87 117 158 202 238 290 359
#     4  11  23  39  61  90 121 152 198 248 297 341
#     4  11  22  40  63  85 118 157 203 239 288 361
#     4  10  21  39  62  85 114 161 201 237 287 362
#     4  10  21  39  62  85 115 160 201 235 286 361
#     4  11  23  39  61  90 121 153 196 250 295 341
#
# _framework density 19.151741999999999
#
# number of rings (size 3 to 8) (size 9 to 14) (size 15 to 20)
#    0.000    1.333    3.333    4.000    4.667    0.667 
#    0.000    0.833    0.000    0.000    0.000    0.000 
#    0.000    0.000    0.000    0.000    0.000    0.000 
#
# Total GULP energy -595445.128226 kJ/mol
# GULP energy per Si atom -12405.106838 kJ/mol
# Density = 1.910815 g / cm^3
# Si number density = 19.151742 Si / 1000 Ang^3
#
#
#
# Elastic Constant Matrix: (Units=GPa)
#
#
# Indices 1 2 3 4 5 6 
#
# 1 105.1706 32.1210 42.6362 0.0000 0.0000 0.0000
# 2 32.1210 91.9304 35.1620 0.0000 0.0000 0.0000
# 3 42.6362 35.1620 96.4105 0.0000 0.0000 0.0000
# 4 0.0000 0.0000 0.0000 42.2510 0.0000 0.0000
# 5 0.0000 0.0000 0.0000 0.0000 25.8455 0.0000
# 6 0.0000 0.0000 0.0000 0.0000 0.0000 14.9534
#
#
#
# Elastic Compliance Matrix: (Units=1/GPa)
#
#
# Indices 1 2 3 4 5 6 
#
# 1 0.012071 -0.002529 -0.004416 0.000000 0.000000 0.000000
# 2 -0.002529 0.013171 -0.003685 0.000000 0.000000 0.000000
# 3 -0.004416 -0.003685 0.013669 0.000000 0.000000 0.000000
# 4 0.000000 0.000000 0.000000 0.023668 0.000000 0.000000
# 5 0.000000 0.000000 0.000000 0.000000 0.038691 0.000000
# 6 0.000000 0.000000 0.000000 0.000000 0.000000 0.066874
#
#
# Mechanical properties :
#
#
# Convention : Reuss Voigt Hill
#
# Bulk Modulus (GPa) = 56.65316 57.03887 56.84602
# Shear Modulus (GPa) = 25.60314 28.84947 27.22631
#
# Velocity S-wave (km/s) = 3.66027 3.88540 3.77451
# Velocity P-wave (km/s) = 6.89267 7.06935 6.98157
#
# Compressibility (1/GPa) = 0.01765127
#
# Stress axis : x y z
#
# Youngs Moduli (GPa) = 82.84402 75.92505 73.15660
#
# Poissons Ratio (x) = 0.19198 0.32306
# Poissons Ratio (y) = 0.20948 0.26961
# Poissons Ratio (z) = 0.36584 0.27981
#
# Static dielectric constant tensor:
#      x y z
#    x 3.305400 0.000000 0.000000 
#    y 0.000000 3.631760 0.000000 
#    z 0.000000 0.000000 3.594650 
# 
# 
# High freq. dielectric constant tensor:
#      x y z
#    x 1.724060 0.000000 0.000000 
#    y 0.000000 1.751950 0.000000 
#    z 0.000000 0.000000 1.764040 
# 
# From -- ./inp_files/3395.got.cif
#   From: 2010.03.12/outbox.cif.g09.slc.cpg/sg56_2_cif.got.tgz:3395.got - 2010.04.16 15:33:40.
