data_PCOD8228082
_publ_section_title
;
Structure prediction by ZEFSAII (Michael W. Deem and Ramdas Pophale) SiO2 
 PCOD8228082
Probable space group: P C C N
;
_chemical_formula_sum "Si O2"
_cell_formula_units_Z 64
_cell_length_a 22.497930
_cell_length_b 5.445229
_cell_length_c 26.620673
_cell_angle_alpha 90.000000
_cell_angle_beta 90.000000
_cell_angle_gamma 90.000000
_cell_volume 3261.202306
_symmetry_space_group_name_H-M "P C C N"
_symmetry_group_IT_number 56
_symmetry_cell_setting 'orthorhombic'
loop_
_space_group_symop_operation_xyz
x,y,z
1/2-x,1/2-y,z
1/2+x,-y,1/2-z
-x,1/2+y,1/2-z
-x,-y,-z
1/2+x,1/2+y,-z
1/2-x,y,1/2+z
x,1/2-y,1/2+z
loop_
_atom_site_type_symbol
_atom_site_label
_atom_site_fract_x
_atom_site_fract_y
_atom_site_fract_z
Si Si1 0.429660 0.529625 0.495179
Si Si2 0.587940 0.503485 0.394402
Si Si3 0.182803 0.255484 0.671131
Si Si4 0.912732 0.373840 0.310988
Si Si5 0.492004 0.849512 0.361838
Si Si6 0.817280 0.695176 0.715116
Si Si7 0.115724 0.790364 0.297999
Si Si8 0.448162 0.028277 0.458803
O O1 0.500000 0.500000 0.500000
O O2 0.398818 0.581654 0.549073
O O3 0.411678 0.768655 0.461776
O O4 0.407662 0.269623 0.470915
O O5 0.647644 0.617162 0.372004
O O6 0.567937 0.292957 0.356953
O O7 0.531422 0.680739 0.398251
O O8 0.250000 0.250000 0.651941
O O9 0.153880 0.524421 0.678338
O O10 0.179239 0.128189 0.725742
O O11 0.913649 0.245873 0.256865
O O12 0.965767 0.574263 0.314661
O O13 0.436133 0.705504 0.338927
O O14 0.470765 0.060737 0.401132
O O15 0.750000 0.750000 0.698182
O O16 0.841626 0.444341 0.689245
O O17 0.853854 0.940764 0.700656
O O18 0.500000 0.000000 0.500000
#
# Coordination Sequence:
#
# PCOD8228082 Si02
#       8
#     8   8   8   8   8   8   8   8
#     4  10  19  32  55  75 110 140 192 224 279 337
#     4  11  20  34  54  82 113 158 182 238 295 348
#     4   9  20  36  54  79 110 152 202 243 282 340
#     4  10  22  34  52  79 124 160 185 229 291 351
#     4  11  24  33  56  81 127 151 191 231 287 359
#     4  10  21  42  61  80 112 153 203 251 282 330
#     4  11  24  37  56  89 115 159 196 228 293 351
#     4  10  19  36  51  78 107 151 189 231 269 333
#
# _framework density 19.624665
#
# number of rings (size 3 to 8) (size 9 to 14) (size 15 to 20)
#    0.000    1.750    3.750    1.875    5.250    0.500 
#    0.000    0.000    0.000    0.000    0.000    5.250 
#    0.000    0.000    0.000    0.000    0.000    0.000 
#
# Total GULP energy -792854.577927 kJ/mol
# GULP energy per Si atom -12388.352780 kJ/mol
# Density = 1.958000 g / cm^3
# Si number density = 19.624665 Si / 1000 Ang^3
#
#
#
# Elastic Constant Matrix: (Units=GPa)
#
#
# Indices 1 2 3 4 5 6 
#
# 1 85.8419 18.6902 42.6039 0.0000 0.0000 0.0000
# 2 18.6902 109.7412 16.8853 0.0000 0.0000 0.0000
# 3 42.6039 16.8853 64.3940 0.0000 0.0000 0.0000
# 4 0.0000 0.0000 0.0000 26.6903 0.0000 0.0000
# 5 0.0000 0.0000 0.0000 0.0000 16.6077 0.0000
# 6 0.0000 0.0000 0.0000 0.0000 0.0000 11.5300
#
#
#
# Elastic Compliance Matrix: (Units=1/GPa)
#
#
# Indices 1 2 3 4 5 6 
#
# 1 0.017508 -0.001250 -0.011256 0.000000 0.000000 0.000000
# 2 -0.001250 0.009585 -0.001686 0.000000 0.000000 0.000000
# 3 -0.011256 -0.001686 0.023418 0.000000 0.000000 0.000000
# 4 0.000000 0.000000 0.000000 0.037467 0.000000 0.000000
# 5 0.000000 0.000000 0.000000 0.000000 0.060213 0.000000
# 6 0.000000 0.000000 0.000000 0.000000 0.000000 0.086731
#
#
# Mechanical properties :
#
#
# Convention : Reuss Voigt Hill
#
# Bulk Modulus (GPa) = 45.19331 46.25955 45.72643
# Shear Modulus (GPa) = 18.47197 23.08544 20.77871
#
# Velocity S-wave (km/s) = 3.07133 3.43351 3.25746
# Velocity P-wave (km/s) = 5.97129 6.27232 6.12365
#
# Compressibility (1/GPa) = 0.02212717
#
# Stress axis : x y z
#
# Youngs Moduli (GPa) = 57.11784 104.33305 42.70151
#
# Poissons Ratio (x) = 0.13041 0.48063
# Poissons Ratio (y) = 0.07139 0.07201
# Poissons Ratio (z) = 0.64289 0.17594
#
# Static dielectric constant tensor:
#      x y z
#    x 3.250770 0.000000 0.000000 
#    y 0.000000 3.652160 0.000000 
#    z 0.000000 0.000000 3.260640 
# 
# 
# High freq. dielectric constant tensor:
#      x y z
#    x 1.718850 0.000000 0.000000 
#    y 0.000000 1.777550 0.000000 
#    z 0.000000 0.000000 1.752360 
# 
# From -- ./inp_files/22605.got.cif
#   From: 2010.03.12/outbox.cif.g09.slc.cpg/sg56_12_cif.got.tgz:22605.got - 2010.04.16 15:33:40.
