data_PCOD8228789
_publ_section_title
;
Structure prediction by ZEFSAII (Michael W. Deem and Ramdas Pophale) SiO2 
 PCOD8228789
Probable space group: P C C N
;
_chemical_formula_sum "Si O2"
_cell_formula_units_Z 32
_cell_length_a 15.727288
_cell_length_b 17.445810
_cell_length_c 5.283575
_cell_angle_alpha 90.000000
_cell_angle_beta 90.000000
_cell_angle_gamma 90.000000
_cell_volume 1449.682361
_symmetry_space_group_name_H-M "P C C N"
_symmetry_group_IT_number 56
_symmetry_cell_setting 'orthorhombic'
loop_
_space_group_symop_operation_xyz
x,y,z
1/2-x,1/2-y,z
1/2+x,-y,1/2-z
-x,1/2+y,1/2-z
-x,-y,-z
1/2+x,1/2+y,-z
1/2-x,y,1/2+z
x,1/2-y,1/2+z
loop_
_atom_site_type_symbol
_atom_site_label
_atom_site_fract_x
_atom_site_fract_y
_atom_site_fract_z
Si Si1 0.040474 0.905704 0.732578
Si Si2 0.064036 0.422164 0.268487
Si Si3 0.213974 0.836166 0.777004
Si Si4 0.844764 0.718780 0.846335
O O1 0.111639 0.839904 0.764483
O O2 0.001955 0.898980 0.452431
O O3 0.087022 0.988559 0.758407
O O4 0.971713 0.898585 0.956121
O O5 0.149327 0.371799 0.218434
O O6 0.250000 0.750000 0.789018
O O7 0.253460 0.878598 0.531324
O O8 0.750000 0.750000 0.893691
O O9 0.891127 0.764366 0.615503
#
# Coordination Sequence:
#
# PCOD8228789 Si02
#       4
#     8   8   8   8
#     4  10  21  40  64  89 123 156 203 250 298 356
#     4  10  21  40  63  92 119 158 203 248 300 352
#     4  10  21  40  57  87 124 157 199 241 297 360
#     4  10  21  40  58  88 126 157 201 243 297 360
#
# _framework density 22.073803000000002
#
# number of rings (size 3 to 8) (size 9 to 14) (size 15 to 20)
#    0.000    2.000    0.000    3.000    0.000    0.000 
#   36.000    0.000    0.000    0.000    0.000    0.000 
#    0.000    0.000    0.000    0.000    0.000    0.000 
#
# Total GULP energy -396456.937424 kJ/mol
# GULP energy per Si atom -12389.279294 kJ/mol
# Density = 2.202356 g / cm^3
# Si number density = 22.073803 Si / 1000 Ang^3
#
#
#
# Elastic Constant Matrix: (Units=GPa)
#
#
# Indices 1 2 3 4 5 6 
#
# 1 58.5967 24.8047 -0.8189 0.0000 0.0000 0.0000
# 2 24.8047 70.1879 -1.0987 0.0000 0.0000 0.0000
# 3 -0.8189 -1.0987 184.7533 0.0000 0.0000 0.0000
# 4 0.0000 0.0000 0.0000 19.9805 0.0000 0.0000
# 5 0.0000 0.0000 0.0000 0.0000 15.4457 0.0000
# 6 0.0000 0.0000 0.0000 0.0000 0.0000 44.1392
#
#
#
# Elastic Compliance Matrix: (Units=1/GPa)
#
#
# Indices 1 2 3 4 5 6 
#
# 1 0.020068 -0.007092 0.000047 0.000000 0.000000 0.000000
# 2 -0.007092 0.016755 0.000068 0.000000 0.000000 0.000000
# 3 0.000047 0.000068 0.005413 0.000000 0.000000 0.000000
# 4 0.000000 0.000000 0.000000 0.050049 0.000000 0.000000
# 5 0.000000 0.000000 0.000000 0.000000 0.064743 0.000000
# 6 0.000000 0.000000 0.000000 0.000000 0.000000 0.022656
#
#
# Mechanical properties :
#
#
# Convention : Reuss Voigt Hill
#
# Bulk Modulus (GPa) = 35.35657 39.92354 37.64005
# Shear Modulus (GPa) = 24.62272 35.28979 29.95626
#
# Velocity S-wave (km/s) = 3.34349 4.00274 3.68787
# Velocity P-wave (km/s) = 5.56394 6.28396 5.93488
#
# Compressibility (1/GPa) = 0.02828328
#
# Stress axis : x y z
#
# Youngs Moduli (GPa) = 49.82957 59.68465 184.73233
#
# Poissons Ratio (x) = 0.42326 -0.00864
# Poissons Ratio (y) = 0.35337 -0.01260
# Poissons Ratio (z) = -0.00233 -0.00407
#
# Static dielectric constant tensor:
#      x y z
#    x 3.515900 0.000000 0.000000 
#    y 0.000000 3.902650 0.000000 
#    z 0.000000 0.000000 5.959880 
# 
# 
# High freq. dielectric constant tensor:
#      x y z
#    x 1.827100 0.000000 0.000000 
#    y 0.000000 1.847610 0.000000 
#    z 0.000000 0.000000 1.917890 
# 
# From -- ./inp_files/376.got.cif
#   From: 2010.03.12/outbox.cif.g09.slc.cpg/sg56_1_cif.got.tgz:376.got - 2010.04.16 15:33:40.
