data_PCOD8228117
_publ_section_title
;
Structure prediction by ZEFSAII (Michael W. Deem and Ramdas Pophale) SiO2 
 PCOD8228117
Probable space group: P C C N
;
_chemical_formula_sum "Si O2"
_cell_formula_units_Z 40
_cell_length_a 4.928228
_cell_length_b 15.960589
_cell_length_c 23.346261
_cell_angle_alpha 90.000000
_cell_angle_beta 90.000000
_cell_angle_gamma 90.000000
_cell_volume 1836.356694
_symmetry_space_group_name_H-M "P C C N"
_symmetry_group_IT_number 56
_symmetry_cell_setting 'orthorhombic'
loop_
_space_group_symop_operation_xyz
x,y,z
1/2-x,1/2-y,z
1/2+x,-y,1/2-z
-x,1/2+y,1/2-z
-x,-y,-z
1/2+x,1/2+y,-z
1/2-x,y,1/2+z
x,1/2-y,1/2+z
loop_
_atom_site_type_symbol
_atom_site_label
_atom_site_fract_x
_atom_site_fract_y
_atom_site_fract_z
Si Si1 0.995127 0.804577 0.145727
Si Si2 0.760900 0.150468 0.744536
Si Si3 0.790324 0.566958 0.558191
Si Si4 0.701639 0.544734 0.433767
Si Si5 0.244813 0.349612 0.675017
O O1 0.750000 0.750000 0.175751
O O2 0.824839 0.850057 0.096036
O O3 0.250000 0.750000 0.121584
O O4 0.127998 0.871656 0.191452
O O5 0.750000 0.250000 0.746455
O O6 0.469195 0.117926 0.723356
O O7 0.967890 0.117092 0.696996
O O8 0.679972 0.592969 0.494910
O O9 0.581589 0.498734 0.584728
O O10 0.089104 0.529609 0.556092
O O11 0.809241 0.609232 0.386353
O O12 0.250000 0.250000 0.666638
#
# Coordination Sequence:
#
# PCOD8228117 Si02
#       5
#     8   8   8   8   8
#     4  11  21  37  61  85 112 149 196 242 286 347
#     4   9  18  33  54  81 111 143 179 231 292 333
#     4  10  22  39  58  82 117 156 190 233 295 347
#     4  10  21  39  58  81 118 156 187 233 295 347
#     4  10  19  34  58  83 109 145 189 232 278 339
#
# _framework density 21.782261999999999
#
# number of rings (size 3 to 8) (size 9 to 14) (size 15 to 20)
#    0.000    2.000    0.000    5.400    0.000    0.800 
#    0.000    7.000    0.000    0.000    0.000    0.000 
#    0.000    0.000    0.000    0.000    0.000    0.000 
#
# Total GULP energy -495567.968288 kJ/mol
# GULP energy per Si atom -12389.199207 kJ/mol
# Density = 2.173268 g / cm^3
# Si number density = 21.782262 Si / 1000 Ang^3
#
#
#
# Elastic Constant Matrix: (Units=GPa)
#
#
# Indices 1 2 3 4 5 6 
#
# 1 109.0850 21.1638 33.3355 0.0000 0.0000 0.0000
# 2 21.1638 39.5417 46.9278 0.0000 0.0000 0.0000
# 3 33.3355 46.9278 118.7834 0.0000 0.0000 0.0000
# 4 0.0000 0.0000 0.0000 27.0949 0.0000 0.0000
# 5 0.0000 0.0000 0.0000 0.0000 34.2262 0.0000
# 6 0.0000 0.0000 0.0000 0.0000 0.0000 26.9828
#
#
#
# Elastic Compliance Matrix: (Units=1/GPa)
#
#
# Indices 1 2 3 4 5 6 
#
# 1 0.010343 -0.003937 -0.001347 0.000000 0.000000 0.000000
# 2 -0.003937 0.049113 -0.018298 0.000000 0.000000 0.000000
# 3 -0.001347 -0.018298 0.016026 0.000000 0.000000 0.000000
# 4 0.000000 0.000000 0.000000 0.036907 0.000000 0.000000
# 5 0.000000 0.000000 0.000000 0.000000 0.029217 0.000000
# 6 0.000000 0.000000 0.000000 0.000000 0.000000 0.037061
#
#
# Mechanical properties :
#
#
# Convention : Reuss Voigt Hill
#
# Bulk Modulus (GPa) = 35.31447 52.25157 43.78302
# Shear Modulus (GPa) = 21.25214 28.72633 24.98923
#
# Velocity S-wave (km/s) = 3.12695 3.63546 3.39075
# Velocity P-wave (km/s) = 5.41154 6.45463 5.95597
#
# Compressibility (1/GPa) = 0.02831701
#
# Stress axis : x y z
#
# Youngs Moduli (GPa) = 96.68697 20.36118 62.39898
#
# Poissons Ratio (x) = 0.08016 0.08407
# Poissons Ratio (y) = 0.38063 1.14180
# Poissons Ratio (z) = 0.13027 0.37258
#
# Static dielectric constant tensor:
#      x y z
#    x 4.345430 0.000000 0.000000 
#    y 0.000000 3.392650 0.000000 
#    z 0.000000 0.000000 4.322980 
# 
# 
# High freq. dielectric constant tensor:
#      x y z
#    x 1.883030 0.000000 0.000000 
#    y 0.000000 1.804450 0.000000 
#    z 0.000000 0.000000 1.857770 
# 
# From -- ./inp_files/19993.got.cif
#   From: 2010.03.12/outbox.cif.g09.slc.cpg/sg56_10_cif.got.tgz:19993.got - 2010.04.16 15:33:40.
