data_PCOD8228703
_publ_section_title
;
Structure prediction by ZEFSAII (Michael W. Deem and Ramdas Pophale) SiO2 
 PCOD8228703
Probable space group: P C C N
;
_chemical_formula_sum "Si O2"
_cell_formula_units_Z 40
_cell_length_a 7.870313
_cell_length_b 11.253017
_cell_length_c 20.631252
_cell_angle_alpha 90.000000
_cell_angle_beta 90.000000
_cell_angle_gamma 90.000000
_cell_volume 1827.202005
_symmetry_space_group_name_H-M "P C C N"
_symmetry_group_IT_number 56
_symmetry_cell_setting 'orthorhombic'
loop_
_space_group_symop_operation_xyz
x,y,z
1/2-x,1/2-y,z
1/2+x,-y,1/2-z
-x,1/2+y,1/2-z
-x,-y,-z
1/2+x,1/2+y,-z
1/2-x,y,1/2+z
x,1/2-y,1/2+z
loop_
_atom_site_type_symbol
_atom_site_label
_atom_site_fract_x
_atom_site_fract_y
_atom_site_fract_z
Si Si1 0.646034 0.491666 0.567754
Si Si2 0.881110 0.094933 0.180121
Si Si3 0.733262 0.019918 0.306945
Si Si4 0.672799 0.375536 0.440232
Si Si5 0.919084 0.815051 0.366562
O O1 0.783655 0.480940 0.624721
O O2 0.729133 0.467988 0.497336
O O3 0.535044 0.614969 0.569475
O O4 0.502359 0.388178 0.575015
O O5 0.044058 0.023472 0.201508
O O6 0.932705 0.227337 0.158326
O O7 0.768761 0.102786 0.244989
O O8 0.861613 0.906576 0.309909
O O9 0.738041 0.093938 0.372930
O O10 0.750000 0.250000 0.462136
O O11 0.750000 0.750000 0.393203
#
# Coordination Sequence:
#
# PCOD8228703 Si02
#       5
#     8   8   8   8   8
#     4  10  21  38  60  84 113 155 198 234 293 363
#     4  11  21  38  60  83 117 154 195 241 291 357
#     4  10  22  36  57  89 117 149 196 244 295 352
#     4  10  21  38  58  85 119 151 191 245 296 346
#     4   9  19  36  59  82 110 152 196 239 292 357
#
# _framework density 21.891393999999998
#
# number of rings (size 3 to 8) (size 9 to 14) (size 15 to 20)
#    0.000    2.000    0.000    4.200    0.000    4.000 
#    0.000    7.000    0.000    3.600    0.000    0.000 
#    0.000    0.000    0.000    0.000    0.000    0.000 
#
# Total GULP energy -495625.715338 kJ/mol
# GULP energy per Si atom -12390.642883 kJ/mol
# Density = 2.184157 g / cm^3
# Si number density = 21.891394 Si / 1000 Ang^3
#
#
#
# Elastic Constant Matrix: (Units=GPa)
#
#
# Indices 1 2 3 4 5 6 
#
# 1 79.3431 39.6157 26.4183 0.0000 0.0000 0.0000
# 2 39.6157 76.6475 9.4250 0.0000 0.0000 0.0000
# 3 26.4183 9.4250 126.0981 0.0000 0.0000 0.0000
# 4 0.0000 0.0000 0.0000 2.5662 0.0000 0.0000
# 5 0.0000 0.0000 0.0000 0.0000 29.4198 0.0000
# 6 0.0000 0.0000 0.0000 0.0000 0.0000 50.4813
#
#
#
# Elastic Compliance Matrix: (Units=1/GPa)
#
#
# Indices 1 2 3 4 5 6 
#
# 1 0.018132 -0.008987 -0.003127 0.000000 0.000000 0.000000
# 2 -0.008987 0.017622 0.000566 0.000000 0.000000 0.000000
# 3 -0.003127 0.000566 0.008543 0.000000 0.000000 0.000000
# 4 0.000000 0.000000 0.000000 0.389681 0.000000 0.000000
# 5 0.000000 0.000000 0.000000 0.000000 0.033991 0.000000
# 6 0.000000 0.000000 0.000000 0.000000 0.000000 0.019809
#
#
# Mechanical properties :
#
#
# Convention : Reuss Voigt Hill
#
# Bulk Modulus (GPa) = 47.16868 48.11187 47.64027
# Shear Modulus (GPa) = 9.65359 30.26877 19.96118
#
# Velocity S-wave (km/s) = 2.10222 3.72247 3.02292
# Velocity P-wave (km/s) = 5.24270 6.36404 5.83039
#
# Compressibility (1/GPa) = 0.02120051
#
# Stress axis : x y z
#
# Youngs Moduli (GPa) = 55.15154 56.74667 117.05247
#
# Poissons Ratio (x) = 0.50998 0.36602
# Poissons Ratio (y) = 0.49565 -0.06622
# Poissons Ratio (z) = 0.17246 -0.03210
#
# Static dielectric constant tensor:
#      x y z
#    x 4.154390 0.000000 0.000000 
#    y 0.000000 3.913080 0.000000 
#    z 0.000000 0.000000 3.791760 
# 
# 
# High freq. dielectric constant tensor:
#      x y z
#    x 1.866780 0.000000 0.000000 
#    y 0.000000 1.839350 0.000000 
#    z 0.000000 0.000000 1.864720 
# 
# From -- ./inp_files/15393.got.cif
#   From: 2010.03.12/outbox.cif.g09.slc.cpg/sg56_8_cif.got.tgz:15393.got - 2010.04.16 15:33:40.
