data_PCOD8228123
_publ_section_title
;
Structure prediction by ZEFSAII (Michael W. Deem and Ramdas Pophale) SiO2 
 PCOD8228123
Probable space group: P C C N
;
_chemical_formula_sum "Si O2"
_cell_formula_units_Z 48
_cell_length_a 22.319546
_cell_length_b 5.108761
_cell_length_c 21.031899
_cell_angle_alpha 90.000000
_cell_angle_beta 90.000000
_cell_angle_gamma 90.000000
_cell_volume 2398.167040
_symmetry_space_group_name_H-M "P C C N"
_symmetry_group_IT_number 56
_symmetry_cell_setting 'orthorhombic'
loop_
_space_group_symop_operation_xyz
x,y,z
1/2-x,1/2-y,z
1/2+x,-y,1/2-z
-x,1/2+y,1/2-z
-x,-y,-z
1/2+x,1/2+y,-z
1/2-x,y,1/2+z
x,1/2-y,1/2+z
loop_
_atom_site_type_symbol
_atom_site_label
_atom_site_fract_x
_atom_site_fract_y
_atom_site_fract_z
Si Si1 0.081139 0.386906 0.985993
Si Si2 0.185608 0.654154 0.602364
Si Si3 0.565387 0.115914 0.584025
Si Si4 0.683248 0.269921 0.541625
Si Si5 0.114585 0.340945 0.124378
Si Si6 0.992212 0.793736 0.790613
O O1 0.075716 0.304382 0.059721
O O2 0.954185 0.344070 0.033172
O O3 0.153039 0.440204 0.970280
O O4 0.048932 0.166404 0.943765
O O5 0.250000 0.750000 0.627140
O O6 0.184484 0.625114 0.526385
O O7 0.168844 0.368002 0.628904
O O8 0.137670 0.863215 0.627665
O O9 0.638392 0.118830 0.589490
O O10 0.538691 0.154988 0.653029
O O11 0.750000 0.250000 0.571109
O O12 0.072033 0.295123 0.183976
O O13 0.017904 0.561866 0.747364
#
# Coordination Sequence:
#
# PCOD8228123 Si02
#       6
#     8   8   8   8   8   8
#     4   9  18  33  56  92 117 145 180 234 311 343
#     4  10  19  34  59  95 128 148 180 231 309 378
#     4  10  20  37  56  86 120 149 194 240 288 356
#     4   8  17  31  55  89 125 149 174 226 299 372
#     4  11  20  38  59  90 122 156 191 244 297 359
#     4  12  27  43  61  80 112 170 212 251 287 340
#
# _framework density 20.015288000000002
#
# number of rings (size 3 to 8) (size 9 to 14) (size 15 to 20)
#    1.000    1.000    1.667    2.500    0.000    2.000 
#    0.000    0.000    0.000    6.000    0.000    0.000 
#    0.000    0.000    0.000    0.000    0.000    0.000 
#
# Total GULP energy -594792.757434 kJ/mol
# GULP energy per Si atom -12391.515780 kJ/mol
# Density = 1.996973 g / cm^3
# Si number density = 20.015288 Si / 1000 Ang^3
#
#
#
# Elastic Constant Matrix: (Units=GPa)
#
#
# Indices 1 2 3 4 5 6 
#
# 1 45.7120 -3.7750 18.8849 0.0000 0.0000 0.0000
# 2 -3.7750 102.9843 18.9924 0.0000 0.0000 0.0000
# 3 18.8849 18.9924 66.7777 0.0000 0.0000 0.0000
# 4 0.0000 0.0000 0.0000 17.8425 0.0000 0.0000
# 5 0.0000 0.0000 0.0000 0.0000 1.4575 0.0000
# 6 0.0000 0.0000 0.0000 0.0000 0.0000 27.1269
#
#
#
# Elastic Compliance Matrix: (Units=1/GPa)
#
#
# Indices 1 2 3 4 5 6 
#
# 1 0.025307 0.002372 -0.007832 0.000000 0.000000 0.000000
# 2 0.002372 0.010470 -0.003649 0.000000 0.000000 0.000000
# 3 -0.007832 -0.003649 0.018228 0.000000 0.000000 0.000000
# 4 0.000000 0.000000 0.000000 0.056046 0.000000 0.000000
# 5 0.000000 0.000000 0.000000 0.000000 0.686095 0.000000
# 6 0.000000 0.000000 0.000000 0.000000 0.000000 0.036864
#
#
# Mechanical properties :
#
#
# Convention : Reuss Voigt Hill
#
# Bulk Modulus (GPa) = 27.94190 31.51984 29.73087
# Shear Modulus (GPa) = 5.79270 21.37682 13.58476
#
# Velocity S-wave (km/s) = 1.70306 3.27161 2.60805
# Velocity P-wave (km/s) = 4.22585 5.48209 4.89444
#
# Compressibility (1/GPa) = 0.03578855
#
# Stress axis : x y z
#
# Youngs Moduli (GPa) = 39.51402 95.51060 54.86194
#
# Poissons Ratio (x) = -0.22655 0.42966
# Poissons Ratio (y) = -0.09373 0.20017
# Poissons Ratio (z) = 0.30946 0.34848
#
# Static dielectric constant tensor:
#      x y z
#    x 3.686510 0.000000 0.000000 
#    y 0.000000 3.675210 0.000000 
#    z 0.000000 0.000000 3.223060 
# 
# 
# High freq. dielectric constant tensor:
#      x y z
#    x 1.781750 0.000000 0.000000 
#    y 0.000000 1.793660 0.000000 
#    z 0.000000 0.000000 1.731090 
# 
# From -- ./inp_files/19431.got.cif
#   From: 2010.03.12/outbox.cif.g09.slc.cpg/sg56_10_cif.got.tgz:19431.got - 2010.04.16 15:33:40.
