data_PCOD8228472
_publ_section_title
;
Structure prediction by ZEFSAII (Michael W. Deem and Ramdas Pophale) SiO2 
 PCOD8228472
Probable space group: P C C N
;
_chemical_formula_sum "Si O2"
_cell_formula_units_Z 56
_cell_length_a 34.163284
_cell_length_b 4.931883
_cell_length_c 15.550774
_cell_angle_alpha 90.000000
_cell_angle_beta 90.000000
_cell_angle_gamma 90.000000
_cell_volume 2620.139330
_symmetry_space_group_name_H-M "P C C N"
_symmetry_group_IT_number 56
_symmetry_cell_setting 'orthorhombic'
loop_
_space_group_symop_operation_xyz
x,y,z
1/2-x,1/2-y,z
1/2+x,-y,1/2-z
-x,1/2+y,1/2-z
-x,-y,-z
1/2+x,1/2+y,-z
1/2-x,y,1/2+z
x,1/2-y,1/2+z
loop_
_atom_site_type_symbol
_atom_site_label
_atom_site_fract_x
_atom_site_fract_y
_atom_site_fract_z
Si Si1 0.417934 0.178611 0.813227
Si Si2 0.643662 0.054183 0.431822
Si Si3 0.223053 0.512367 0.668424
Si Si4 0.499325 0.799885 0.694399
Si Si5 0.583046 0.184340 0.802758
Si Si6 0.776732 0.005281 0.637880
Si Si7 0.643919 0.941443 0.043271
O O1 0.459631 0.264799 0.857768
O O2 0.406710 0.385708 0.734524
O O3 0.383914 0.166238 0.882225
O O4 0.422578 0.874431 0.779691
O O5 0.616442 0.186328 0.360266
O O6 0.639247 0.246780 0.515305
O O7 0.686788 0.017549 0.395261
O O8 0.633277 0.750014 0.461890
O O9 0.250000 0.250000 0.660074
O O10 0.207632 0.571095 0.765725
O O11 0.250000 0.750000 0.634714
O O12 0.505143 0.614953 0.780500
O O13 0.459460 0.692199 0.647368
O O14 0.750000 0.750000 0.647164
O O15 0.811567 0.921267 0.574886
O O16 0.750000 0.250000 0.601299
#
# Coordination Sequence:
#
# PCOD8228472 Si02
#       7
#     8   8   8   8   8   8   8
#     4  10  20  38  62  85 114 154 199 240 282 339
#     4  12  25  38  56  87 122 151 185 233 293 347
#     4  10  22  40  61  82 107 147 197 240 282 338
#     4   8  16  32  58  86 108 144 198 244 278 326
#     4  10  20  38  62  85 114 154 199 240 282 339
#     4  10  22  40  61  82 107 147 197 240 282 338
#     4  12  25  38  56  87 122 151 185 233 293 347
#
# _framework density 21.372910999999998
#
# number of rings (size 3 to 8) (size 9 to 14) (size 15 to 20)
#    0.000    1.714    0.000    4.286    0.000    6.857 
#    0.000    1.429    0.000    0.000    0.000    0.000 
#    0.000    0.000    0.000    0.000    0.000    0.000 
#
# Total GULP energy -693807.846557 kJ/mol
# GULP energy per Si atom -12389.425831 kJ/mol
# Density = 2.132426 g / cm^3
# Si number density = 21.372911 Si / 1000 Ang^3
#
#
#
# Elastic Constant Matrix: (Units=GPa)
#
#
# Indices 1 2 3 4 5 6 
#
# 1 118.9657 17.8619 31.0332 0.0000 0.0000 0.0000
# 2 17.8619 94.3875 9.7050 0.0000 0.0000 0.0000
# 3 31.0332 9.7050 42.0473 0.0000 0.0000 0.0000
# 4 0.0000 0.0000 0.0000 31.5732 0.0000 0.0000
# 5 0.0000 0.0000 0.0000 0.0000 -10.9570 0.0000
# 6 0.0000 0.0000 0.0000 0.0000 0.0000 29.1718
#
#
#
# Elastic Compliance Matrix: (Units=1/GPa)
#
#
# Indices 1 2 3 4 5 6 
#
# 1 0.010546 -0.001225 -0.007501 0.000000 0.000000 0.000000
# 2 -0.001225 0.010994 -0.001634 0.000000 0.000000 0.000000
# 3 -0.007501 -0.001634 0.029696 0.000000 0.000000 0.000000
# 4 0.000000 0.000000 0.000000 0.031672 0.000000 0.000000
# 5 0.000000 0.000000 0.000000 0.000000 -0.091266 0.000000
# 6 0.000000 0.000000 0.000000 0.000000 0.000000 0.034280
#
#
# Mechanical properties :
#
#
# Convention : Reuss Voigt Hill
#
# Bulk Modulus (GPa) = 32.76779 41.40007 37.08393
# Shear Modulus (GPa) = 88.00546 23.07762 55.54154
#
# Velocity S-wave (km/s) = 6.42383 3.28954 5.10326
# Velocity P-wave (km/s) = 8.38961 5.81726 7.21893
#
# Compressibility (1/GPa) = 0.03051777
#
# Stress axis : x y z
#
# Youngs Moduli (GPa) = 94.81921 90.95581 33.67439
#
# Poissons Ratio (x) = 0.11138 0.25260
# Poissons Ratio (y) = 0.11611 0.05502
# Poissons Ratio (z) = 0.71126 0.14861
#
# Static dielectric constant tensor:
#      x y z
#    x 4.148140 0.000000 0.000000 
#    y 0.000000 4.121410 0.000000 
#    z 0.000000 0.000000 3.624820 
# 
# 
# High freq. dielectric constant tensor:
#      x y z
#    x 1.855670 0.000000 0.000000 
#    y 0.000000 1.862920 0.000000 
#    z 0.000000 0.000000 1.792090 
# 
# From -- ./inp_files/13462.got.cif
#   From: 2010.03.12/outbox.cif.g09.slc.cpg/sg56_7_cif.got.tgz:13462.got - 2010.04.16 15:33:40.
