data_PCOD8228463
_publ_section_title
;
Structure prediction by ZEFSAII (Michael W. Deem and Ramdas Pophale) SiO2 
 PCOD8228463
Probable space group: P C C N
;
_chemical_formula_sum "Si O2"
_cell_formula_units_Z 36
_cell_length_a 7.383328
_cell_length_b 20.756506
_cell_length_c 12.635875
_cell_angle_alpha 90.000000
_cell_angle_beta 90.000000
_cell_angle_gamma 90.000000
_cell_volume 1936.474277
_symmetry_space_group_name_H-M "P C C N"
_symmetry_group_IT_number 56
_symmetry_cell_setting 'orthorhombic'
loop_
_space_group_symop_operation_xyz
x,y,z
1/2-x,1/2-y,z
1/2+x,-y,1/2-z
-x,1/2+y,1/2-z
-x,-y,-z
1/2+x,1/2+y,-z
1/2-x,y,1/2+z
x,1/2-y,1/2+z
loop_
_atom_site_type_symbol
_atom_site_label
_atom_site_fract_x
_atom_site_fract_y
_atom_site_fract_z
Si Si1 0.428186 0.363208 0.101188
Si Si2 0.762537 0.414877 0.223919
Si Si3 0.354588 0.449955 0.698599
Si Si4 0.250000 0.250000 0.231415
Si Si5 0.462078 0.351366 0.854252
O O1 0.624691 0.379947 0.146571
O O2 0.292440 0.423835 0.114905
O O3 0.351588 0.300278 0.156973
O O4 0.451556 0.347992 0.979027
O O5 0.669153 0.474789 0.282140
O O6 0.939281 0.438448 0.156404
O O7 0.831331 0.365205 0.315132
O O8 0.333603 0.409247 0.808724
O O9 0.102171 0.283637 0.306046
#
# Coordination Sequence:
#
# PCOD8228463 Si02
#       5
#     8   8   8   4   8
#     4  11  20  42  63  81 125 154 196 249 288 348
#     4  10  20  38  60  92 120 151 193 241 292 358
#     4   9  20  37  60  90 121 151 190 242 294 349
#     4  10  22  42  64  80 120 156 200 256 286 332
#     4   9  22  39  59  91 113 161 199 235 299 348
#
# _framework density 18.590487
#
# number of rings (size 3 to 8) (size 9 to 14) (size 15 to 20)
#    1.333    0.889    2.222    0.667    0.000    4.444 
#    8.000    4.444    0.000    0.000    0.000    0.000 
#    0.000    0.000    0.000    0.000    0.000    0.000 
#
# Total GULP energy -446119.306367 kJ/mol
# GULP energy per Si atom -12392.202955 kJ/mol
# Density = 1.854817 g / cm^3
# Si number density = 18.590487 Si / 1000 Ang^3
#
#
#
# Elastic Constant Matrix: (Units=GPa)
#
#
# Indices 1 2 3 4 5 6 
#
# 1 119.1104 33.4985 44.8012 0.0000 0.0000 0.0000
# 2 33.4985 98.2660 36.2919 0.0000 0.0000 0.0000
# 3 44.8012 36.2919 103.3842 0.0000 0.0000 0.0000
# 4 0.0000 0.0000 0.0000 11.9172 0.0000 0.0000
# 5 0.0000 0.0000 0.0000 0.0000 25.9142 0.0000
# 6 0.0000 0.0000 0.0000 0.0000 0.0000 41.5491
#
#
#
# Elastic Compliance Matrix: (Units=1/GPa)
#
#
# Indices 1 2 3 4 5 6 
#
# 1 0.010416 -0.002164 -0.003754 0.000000 0.000000 0.000000
# 2 -0.002164 0.012142 -0.003324 0.000000 0.000000 0.000000
# 3 -0.003754 -0.003324 0.012466 0.000000 0.000000 0.000000
# 4 0.000000 0.000000 0.000000 0.083912 0.000000 0.000000
# 5 0.000000 0.000000 0.000000 0.000000 0.038589 0.000000
# 6 0.000000 0.000000 0.000000 0.000000 0.000000 0.024068
#
#
# Mechanical properties :
#
#
# Convention : Reuss Voigt Hill
#
# Bulk Modulus (GPa) = 60.46287 61.10485 60.78386
# Shear Modulus (GPa) = 24.31995 29.62072 26.97033
#
# Velocity S-wave (km/s) = 3.62082 3.99598 3.81302
# Velocity P-wave (km/s) = 7.07634 7.36415 7.22168
#
# Compressibility (1/GPa) = 0.01653908
#
# Stress axis : x y z
#
# Youngs Moduli (GPa) = 96.00323 82.35829 80.21515
#
# Poissons Ratio (x) = 0.17826 0.30113
# Poissons Ratio (y) = 0.20779 0.26667
# Poissons Ratio (z) = 0.36040 0.27379
#
# Static dielectric constant tensor:
#      x y z
#    x 3.613570 0.000000 0.000000 
#    y 0.000000 3.426530 0.000000 
#    z 0.000000 0.000000 3.076200 
# 
# 
# High freq. dielectric constant tensor:
#      x y z
#    x 1.726020 0.000000 0.000000 
#    y 0.000000 1.727360 0.000000 
#    z 0.000000 0.000000 1.694420 
# 
# From -- ./inp_files/6269.got.cif
#   From: 2010.03.12/outbox.cif.g09.slc.cpg/sg56_4_cif.got.tgz:6269.got - 2010.04.16 15:33:40.
