data_PCOD8228788
_publ_section_title
;
Structure prediction by ZEFSAII (Michael W. Deem and Ramdas Pophale) SiO2 
 PCOD8228788
Probable space group: P C C N
;
_chemical_formula_sum "Si O2"
_cell_formula_units_Z 48
_cell_length_a 15.160448
_cell_length_b 26.711648
_cell_length_c 5.181405
_cell_angle_alpha 90.000000
_cell_angle_beta 90.000000
_cell_angle_gamma 90.000000
_cell_volume 2098.264621
_symmetry_space_group_name_H-M "P C C N"
_symmetry_group_IT_number 56
_symmetry_cell_setting 'orthorhombic'
loop_
_space_group_symop_operation_xyz
x,y,z
1/2-x,1/2-y,z
1/2+x,-y,1/2-z
-x,1/2+y,1/2-z
-x,-y,-z
1/2+x,1/2+y,-z
1/2-x,y,1/2+z
x,1/2-y,1/2+z
loop_
_atom_site_type_symbol
_atom_site_label
_atom_site_fract_x
_atom_site_fract_y
_atom_site_fract_z
Si Si1 0.942216 0.367075 0.779231
Si Si2 0.549610 0.851891 0.720575
Si Si3 0.805936 0.563097 0.701923
Si Si4 0.054702 0.516155 0.250862
Si Si5 0.151711 0.727927 0.316754
Si Si6 0.287682 0.304550 0.635110
O O1 0.922733 0.425072 0.738675
O O2 0.855211 0.332059 0.731589
O O3 0.014694 0.348797 0.570973
O O4 0.971912 0.357869 0.072738
O O5 0.617085 0.897481 0.756727
O O6 0.608705 0.802927 0.791749
O O7 0.771423 0.568750 0.410784
O O8 0.849582 0.508820 0.743408
O O9 0.000000 0.500000 0.500000
O O10 0.000000 0.500000 0.000000
O O11 0.250000 0.750000 0.357414
O O12 0.102667 0.742532 0.583962
O O13 0.250000 0.250000 0.565208
O O14 0.267238 0.333073 0.363630
#
# Coordination Sequence:
#
# PCOD8228788 Si02
#       6
#     8   8   8   8   8   8
#     4  12  24  44  72 104 131 190 226 282 363 410
#     4  12  23  41  68  97 140 180 225 277 342 427
#     4  12  24  41  67 101 143 184 229 282 354 427
#     4  12  23  46  70 103 145 179 232 296 349 430
#     4  10  23  48  72  97 137 180 231 301 353 407
#     4  10  21  40  57  86 127 177 220 276 327 386
#
# _framework density 22.876048000000001
#
# number of rings (size 3 to 8) (size 9 to 14) (size 15 to 20)
#    0.000    0.667    3.333    5.000    0.000    0.000 
#   24.000    0.000    0.000    0.000    0.000    0.000 
#    0.000    0.000    0.000    0.000    0.000    0.000 
#
# Total GULP energy -594918.829312 kJ/mol
# GULP energy per Si atom -12394.142277 kJ/mol
# Density = 2.282398 g / cm^3
# Si number density = 22.876048 Si / 1000 Ang^3
#
#
#
# Elastic Constant Matrix: (Units=GPa)
#
#
# Indices 1 2 3 4 5 6 
#
# 1 62.2498 20.6283 7.3047 0.0000 0.0000 0.0000
# 2 20.6283 120.5955 4.1568 0.0000 0.0000 0.0000
# 3 7.3047 4.1568 164.4016 0.0000 0.0000 0.0000
# 4 0.0000 0.0000 0.0000 24.1668 0.0000 0.0000
# 5 0.0000 0.0000 0.0000 0.0000 24.1704 0.0000
# 6 0.0000 0.0000 0.0000 0.0000 0.0000 52.8298
#
#
#
# Elastic Compliance Matrix: (Units=1/GPa)
#
#
# Indices 1 2 3 4 5 6 
#
# 1 0.017107 -0.002902 -0.000687 0.000000 0.000000 0.000000
# 2 -0.002902 0.008792 -0.000093 0.000000 0.000000 0.000000
# 3 -0.000687 -0.000093 0.006116 0.000000 0.000000 0.000000
# 4 0.000000 0.000000 0.000000 0.041379 0.000000 0.000000
# 5 0.000000 0.000000 0.000000 0.000000 0.041373 0.000000
# 6 0.000000 0.000000 0.000000 0.000000 0.000000 0.018929
#
#
# Mechanical properties :
#
#
# Convention : Reuss Voigt Hill
#
# Bulk Modulus (GPa) = 40.56946 45.71405 43.14175
# Shear Modulus (GPa) = 33.49495 41.24387 37.36941
#
# Velocity S-wave (km/s) = 3.83063 4.25070 4.04612
# Velocity P-wave (km/s) = 6.11048 6.64214 6.38185
#
# Compressibility (1/GPa) = 0.02464909
#
# Stress axis : x y z
#
# Youngs Moduli (GPa) = 58.45658 113.74130 163.51794
#
# Poissons Ratio (x) = 0.33013 0.11229
# Poissons Ratio (y) = 0.16967 0.01526
# Poissons Ratio (z) = 0.04014 0.01062
#
# Static dielectric constant tensor:
#      x y z
#    x 4.154710 0.000000 0.000000 
#    y 0.000000 4.578700 0.000000 
#    z 0.000000 0.000000 5.048330 
# 
# 
# High freq. dielectric constant tensor:
#      x y z
#    x 1.873890 0.000000 0.000000 
#    y 0.000000 1.906420 0.000000 
#    z 0.000000 0.000000 1.942610 
# 
# From -- ./inp_files/525.got.cif
#   From: 2010.03.12/outbox.cif.g09.slc.cpg/sg56_1_cif.got.tgz:525.got - 2010.04.16 15:33:40.
