data_PCOD8228686
_publ_section_title
;
Structure prediction by ZEFSAII (Michael W. Deem and Ramdas Pophale) SiO2 
 PCOD8228686
Probable space group: P C C N
;
_chemical_formula_sum "Si O2"
_cell_formula_units_Z 48
_cell_length_a 5.215337
_cell_length_b 16.992427
_cell_length_c 23.958829
_cell_angle_alpha 90.000000
_cell_angle_beta 90.000000
_cell_angle_gamma 90.000000
_cell_volume 2123.260973
_symmetry_space_group_name_H-M "P C C N"
_symmetry_group_IT_number 56
_symmetry_cell_setting 'orthorhombic'
loop_
_space_group_symop_operation_xyz
x,y,z
1/2-x,1/2-y,z
1/2+x,-y,1/2-z
-x,1/2+y,1/2-z
-x,-y,-z
1/2+x,1/2+y,-z
1/2-x,y,1/2+z
x,1/2-y,1/2+z
loop_
_atom_site_type_symbol
_atom_site_label
_atom_site_fract_x
_atom_site_fract_y
_atom_site_fract_z
Si Si1 0.466772 0.034662 0.940250
Si Si2 0.023187 0.903753 0.227379
Si Si3 0.474026 0.088918 0.711976
Si Si4 0.508918 0.200451 0.375970
Si Si5 0.955048 0.949545 0.909707
Si Si6 0.327311 0.164663 0.487722
O O1 0.411718 0.127412 0.951388
O O2 0.721156 0.013203 0.904947
O O3 0.219992 0.996216 0.911225
O O4 0.500000 0.000000 0.000000
O O5 0.274761 0.872102 0.260043
O O6 0.000919 0.874721 0.164135
O O7 0.777210 0.871679 0.261239
O O8 0.024574 0.996983 0.224825
O O9 0.462720 0.104298 0.645412
O O10 0.750000 0.250000 0.355842
O O11 0.548472 0.173497 0.440760
O O12 0.250000 0.250000 0.370254
O O13 0.923923 0.892646 0.963394
O O14 0.250000 0.250000 0.512665
#
# Coordination Sequence:
#
# PCOD8228686 Si02
#       6
#     8   8   8   8   8   8
#     4  10  21  37  59  86 120 160 198 242 296 360
#     4  10  21  39  60  89 116 149 201 247 292 349
#     4  10  21  37  64  89 116 152 194 252 301 346
#     4  11  24  40  61  86 120 160 197 244 297 355
#     4  11  22  40  62  91 124 158 201 248 308 369
#     4  10  23  39  60  91 123 159 202 249 302 359
#
# _framework density 22.606736000000001
#
# number of rings (size 3 to 8) (size 9 to 14) (size 15 to 20)
#    0.000    1.667    0.000    5.000    0.000   13.333 
#    0.000    2.500    0.000    2.000    0.000    0.000 
#    0.000    0.000    0.000    0.000    0.000    0.000 
#
# Total GULP energy -594935.446667 kJ/mol
# GULP energy per Si atom -12394.488472 kJ/mol
# Density = 2.255528 g / cm^3
# Si number density = 22.606736 Si / 1000 Ang^3
#
#
#
# Elastic Constant Matrix: (Units=GPa)
#
#
# Indices 1 2 3 4 5 6 
#
# 1 168.9820 23.3774 46.7148 0.0000 0.0000 0.0000
# 2 23.3774 60.6743 11.0129 0.0000 0.0000 0.0000
# 3 46.7148 11.0129 127.9660 0.0000 0.0000 0.0000
# 4 0.0000 0.0000 0.0000 48.2794 0.0000 0.0000
# 5 0.0000 0.0000 0.0000 0.0000 -41.4198 0.0000
# 6 0.0000 0.0000 0.0000 0.0000 0.0000 17.1594
#
#
#
# Elastic Compliance Matrix: (Units=1/GPa)
#
#
# Indices 1 2 3 4 5 6 
#
# 1 0.006866 -0.002225 -0.002315 0.000000 0.000000 0.000000
# 2 -0.002225 0.017464 -0.000691 0.000000 0.000000 0.000000
# 3 -0.002315 -0.000691 0.008719 0.000000 0.000000 0.000000
# 4 0.000000 0.000000 0.000000 0.020713 0.000000 0.000000
# 5 0.000000 0.000000 0.000000 0.000000 -0.024143 0.000000
# 6 0.000000 0.000000 0.000000 0.000000 0.000000 0.058277
#
#
# Mechanical properties :
#
#
# Convention : Reuss Voigt Hill
#
# Bulk Modulus (GPa) = 44.27223 57.75915 51.01569
# Shear Modulus (GPa) = 47.22065 23.23829 35.22947
#
# Velocity S-wave (km/s) = 4.57528 3.20962 3.95189
# Velocity P-wave (km/s) = 6.89472 6.27221 6.59081
#
# Compressibility (1/GPa) = 0.02258752
#
# Stress axis : x y z
#
# Youngs Moduli (GPa) = 145.65490 57.26022 114.69135
#
# Poissons Ratio (x) = 0.12741 0.26549
# Poissons Ratio (y) = 0.32410 0.07922
# Poissons Ratio (z) = 0.33716 0.03955
#
# Static dielectric constant tensor:
#      x y z
#    x -2.099630 0.000000 0.000000 
#    y 0.000000 3.613420 0.000000 
#    z 0.000000 0.000000 4.182790 
# 
# 
# High freq. dielectric constant tensor:
#      x y z
#    x 1.904270 0.000000 0.000000 
#    y 0.000000 1.865820 0.000000 
#    z 0.000000 0.000000 1.894780 
# 
# From -- ./inp_files/20065.got.cif
#   From: 2010.03.12/outbox.cif.g09.slc.cpg/sg56_11_cif.got.tgz:20065.got - 2010.04.16 15:33:40.
