data_PCOD8228566
_publ_section_title
;
Structure prediction by ZEFSAII (Michael W. Deem and Ramdas Pophale) SiO2 
 PCOD8228566
Probable space group: P C C N
;
_chemical_formula_sum "Si O2"
_cell_formula_units_Z 56
_cell_length_a 8.696472
_cell_length_b 14.717928
_cell_length_c 21.289650
_cell_angle_alpha 90.000000
_cell_angle_beta 90.000000
_cell_angle_gamma 90.000000
_cell_volume 2724.948500
_symmetry_space_group_name_H-M "P C C N"
_symmetry_group_IT_number 56
_symmetry_cell_setting 'orthorhombic'
loop_
_space_group_symop_operation_xyz
x,y,z
1/2-x,1/2-y,z
1/2+x,-y,1/2-z
-x,1/2+y,1/2-z
-x,-y,-z
1/2+x,1/2+y,-z
1/2-x,y,1/2+z
x,1/2-y,1/2+z
loop_
_atom_site_type_symbol
_atom_site_label
_atom_site_fract_x
_atom_site_fract_y
_atom_site_fract_z
Si Si1 0.873739 0.977067 0.816475
Si Si2 0.250000 0.750000 0.201009
Si Si3 0.719240 0.856208 0.909045
Si Si4 0.250000 0.750000 0.500777
Si Si5 0.790462 0.417842 0.713512
Si Si6 0.650922 0.548501 0.028234
Si Si7 0.628536 0.103348 0.085381
Si Si8 0.577887 0.356618 0.895474
O O1 0.804143 0.886106 0.845187
O O2 0.053875 0.964134 0.808096
O O3 0.803689 0.003516 0.749260
O O4 0.837211 0.054288 0.868535
O O5 0.182149 0.668613 0.242067
O O6 0.397938 0.720596 0.158035
O O7 0.750000 0.750000 0.908311
O O8 0.552814 0.903913 0.904657
O O9 0.788073 0.888147 0.974206
O O10 0.137530 0.806375 0.456476
O O11 0.156701 0.676754 0.540810
O O12 0.700428 0.381263 0.653443
O O13 0.786709 0.481940 0.052063
O O14 0.597055 0.614213 0.086507
O O15 0.500000 0.500000 0.000000
#
# Coordination Sequence:
#
# PCOD8228566 Si02
#       8
#     8   4   8   4   8   8   8   8
#     4  11  23  45  66  92 131 179 226 275 332 405
#     4   9  23  38  68 100 135 173 230 278 332 407
#     4  12  27  41  63 103 139 170 227 289 334 402
#     4  11  21  36  68  98 129 169 214 272 342 401
#     4  11  23  43  70  96 131 182 231 273 337 404
#     4  12  21  43  68  94 134 178 219 274 347 414
#     4  12  24  38  68  99 132 176 226 273 345 401
#     4  10  20  40  67  93 128 175 216 272 334 409
#
# _framework density 20.550847999999998
#
# number of rings (size 3 to 8) (size 9 to 14) (size 15 to 20)
#    0.000    0.857    4.286    2.571    4.000    0.000 
#    0.000    4.286    0.000    0.000    0.000    0.000 
#    0.000    0.000    0.000    0.000    0.000    0.000 
#
# Total GULP energy -694020.841016 kJ/mol
# GULP energy per Si atom -12393.229304 kJ/mol
# Density = 2.050407 g / cm^3
# Si number density = 20.550848 Si / 1000 Ang^3
#
#
#
# Elastic Constant Matrix: (Units=GPa)
#
#
# Indices 1 2 3 4 5 6 
#
# 1 126.7083 51.7368 48.6364 0.0000 0.0000 0.0000
# 2 51.7368 110.9646 62.7021 0.0000 0.0000 0.0000
# 3 48.6364 62.7021 132.7097 0.0000 0.0000 0.0000
# 4 0.0000 0.0000 0.0000 39.4626 0.0000 0.0000
# 5 0.0000 0.0000 0.0000 0.0000 42.1714 0.0000
# 6 0.0000 0.0000 0.0000 0.0000 0.0000 32.0059
#
#
#
# Elastic Compliance Matrix: (Units=1/GPa)
#
#
# Indices 1 2 3 4 5 6 
#
# 1 0.010130 -0.003581 -0.002020 0.000000 0.000000 0.000000
# 2 -0.003581 0.013560 -0.005094 0.000000 0.000000 0.000000
# 3 -0.002020 -0.005094 0.010683 0.000000 0.000000 0.000000
# 4 0.000000 0.000000 0.000000 0.025340 0.000000 0.000000
# 5 0.000000 0.000000 0.000000 0.000000 0.023713 0.000000
# 6 0.000000 0.000000 0.000000 0.000000 0.000000 0.031244
#
#
# Mechanical properties :
#
#
# Convention : Reuss Voigt Hill
#
# Bulk Modulus (GPa) = 77.03786 77.39257 77.21522
# Shear Modulus (GPa) = 35.61514 36.54848 36.08181
#
# Velocity S-wave (km/s) = 4.16748 4.22173 4.19469
# Velocity P-wave (km/s) = 7.79263 7.84250 7.81760
#
# Compressibility (1/GPa) = 0.01298063
#
# Stress axis : x y z
#
# Youngs Moduli (GPa) = 98.71661 73.74434 93.60970
#
# Poissons Ratio (x) = 0.26411 0.18913
# Poissons Ratio (y) = 0.35355 0.47688
# Poissons Ratio (z) = 0.19944 0.37568
#
# Static dielectric constant tensor:
#      x y z
#    x 3.834210 0.000000 0.000000 
#    y 0.000000 3.819300 0.000000 
#    z 0.000000 0.000000 3.537210 
# 
# 
# High freq. dielectric constant tensor:
#      x y z
#    x 1.789120 0.000000 0.000000 
#    y 0.000000 1.810870 0.000000 
#    z 0.000000 0.000000 1.826390 
# 
# From -- ./inp_files/18267.got.cif
#   From: 2010.03.12/outbox.cif.g09.slc.cpg/sg56_10_cif.got.tgz:18267.got - 2010.04.16 15:33:40.
