data_PCOD8228917
_publ_section_title
;
Structure prediction by ZEFSAII (Michael W. Deem and Ramdas Pophale) SiO2 
 PCOD8228917
Probable space group: P C C N
;
_chemical_formula_sum "Si O2"
_cell_formula_units_Z 56
_cell_length_a 22.060968
_cell_length_b 7.833190
_cell_length_c 14.664005
_cell_angle_alpha 90.000000
_cell_angle_beta 90.000000
_cell_angle_gamma 90.000000
_cell_volume 2534.053768
_symmetry_space_group_name_H-M "P C C N"
_symmetry_group_IT_number 56
_symmetry_cell_setting 'orthorhombic'
loop_
_space_group_symop_operation_xyz
x,y,z
1/2-x,1/2-y,z
1/2+x,-y,1/2-z
-x,1/2+y,1/2-z
-x,-y,-z
1/2+x,1/2+y,-z
1/2-x,y,1/2+z
x,1/2-y,1/2+z
loop_
_atom_site_type_symbol
_atom_site_label
_atom_site_fract_x
_atom_site_fract_y
_atom_site_fract_z
Si Si1 0.299831 0.387963 0.698217
Si Si2 0.998729 0.223747 0.080598
Si Si3 0.926929 0.612952 0.573540
Si Si4 0.814479 0.422838 0.621851
Si Si5 0.283525 0.071662 0.991078
Si Si6 0.581394 0.799344 0.252759
Si Si7 0.113289 0.928156 0.381833
O O1 0.250000 0.250000 0.726375
O O2 0.296861 0.536137 0.773592
O O3 0.286462 0.466694 0.598710
O O4 0.365494 0.300857 0.695594
O O5 0.025866 0.180129 0.178997
O O6 0.954765 0.389282 0.081389
O O7 0.053114 0.243800 0.006854
O O8 0.957488 0.066261 0.052082
O O9 0.855136 0.574893 0.577816
O O10 0.946986 0.693907 0.669005
O O11 0.754600 0.420486 0.558779
O O12 0.848420 0.243807 0.626471
O O13 0.250000 0.250000 0.970219
O O14 0.351649 0.062531 0.948331
O O15 0.606363 0.982015 0.217024
#
# Coordination Sequence:
#
# PCOD8228917 Si02
#       7
#     8   8   8   8   8   8   8
#     4  10  23  41  66  97 122 173 217 265 329 395
#     4  10  22  41  62  96 128 171 223 262 330 385
#     4   9  21  41  62  90 131 173 208 274 320 392
#     4  10  21  44  66  93 139 165 217 274 333 393
#     4  11  23  42  68  95 131 170 220 271 336 395
#     4  11  22  39  65  91 132 171 220 264 327 392
#     4  11  24  42  65 101 132 175 216 279 329 394
#
# _framework density 22.098977999999999
#
# number of rings (size 3 to 8) (size 9 to 14) (size 15 to 20)
#    0.000    1.714    0.000    4.286    6.000    0.571 
#   15.429    4.286    0.000    0.000    0.000    0.000 
#    0.000    0.000    0.000    0.000    0.000    0.000 
#
# Total GULP energy -694229.735871 kJ/mol
# GULP energy per Si atom -12396.959569 kJ/mol
# Density = 2.204868 g / cm^3
# Si number density = 22.098978 Si / 1000 Ang^3
#
#
#
# Elastic Constant Matrix: (Units=GPa)
#
#
# Indices 1 2 3 4 5 6 
#
# 1 98.6335 32.6012 72.1442 0.0000 0.0000 0.0000
# 2 32.6012 77.6142 33.8388 0.0000 0.0000 0.0000
# 3 72.1442 33.8388 133.1274 0.0000 0.0000 0.0000
# 4 0.0000 0.0000 0.0000 14.2460 0.0000 0.0000
# 5 0.0000 0.0000 0.0000 0.0000 39.5510 0.0000
# 6 0.0000 0.0000 0.0000 0.0000 0.0000 30.3030
#
#
#
# Elastic Compliance Matrix: (Units=1/GPa)
#
#
# Indices 1 2 3 4 5 6 
#
# 1 0.017671 -0.003652 -0.008648 0.000000 0.000000 0.000000
# 2 -0.003652 0.015245 -0.001896 0.000000 0.000000 0.000000
# 3 -0.008648 -0.001896 0.012680 0.000000 0.000000 0.000000
# 4 0.000000 0.000000 0.000000 0.070195 0.000000 0.000000
# 5 0.000000 0.000000 0.000000 0.000000 0.025284 0.000000
# 6 0.000000 0.000000 0.000000 0.000000 0.000000 0.033000
#
#
# Mechanical properties :
#
#
# Convention : Reuss Voigt Hill
#
# Bulk Modulus (GPa) = 58.12597 65.17150 61.64874
# Shear Modulus (GPa) = 24.01517 28.20607 26.11062
#
# Velocity S-wave (km/s) = 3.30010 3.57648 3.44107
# Velocity P-wave (km/s) = 6.39379 6.82713 6.61401
#
# Compressibility (1/GPa) = 0.01720401
#
# Stress axis : x y z
#
# Youngs Moduli (GPa) = 56.58939 65.59589 78.86446
#
# Poissons Ratio (x) = 0.23957 0.68202
# Poissons Ratio (y) = 0.20668 0.14951
# Poissons Ratio (z) = 0.48938 0.12436
#
# Static dielectric constant tensor:
#      x y z
#    x 4.338330 0.000000 0.000000 
#    y 0.000000 3.880680 0.000000 
#    z 0.000000 0.000000 3.880760 
# 
# 
# High freq. dielectric constant tensor:
#      x y z
#    x 1.886280 0.000000 0.000000 
#    y 0.000000 1.864960 0.000000 
#    z 0.000000 0.000000 1.862760 
# 
# From -- ./inp_files/13090.got.cif
#   From: 2010.03.12/outbox.cif.g09.slc.cpg/sg56_7_cif.got.tgz:13090.got - 2010.04.16 15:33:40.
