data_PCOD8228233
_publ_section_title
;
Structure prediction by ZEFSAII (Michael W. Deem and Ramdas Pophale) SiO2 
 PCOD8228233
Probable space group: P C C N
;
_chemical_formula_sum "Si O2"
_cell_formula_units_Z 40
_cell_length_a 9.564593
_cell_length_b 11.927232
_cell_length_c 14.688158
_cell_angle_alpha 90.000000
_cell_angle_beta 90.000000
_cell_angle_gamma 90.000000
_cell_volume 1675.612135
_symmetry_space_group_name_H-M "P C C N"
_symmetry_group_IT_number 56
_symmetry_cell_setting 'orthorhombic'
loop_
_space_group_symop_operation_xyz
x,y,z
1/2-x,1/2-y,z
1/2+x,-y,1/2-z
-x,1/2+y,1/2-z
-x,-y,-z
1/2+x,1/2+y,-z
1/2-x,y,1/2+z
x,1/2-y,1/2+z
loop_
_atom_site_type_symbol
_atom_site_label
_atom_site_fract_x
_atom_site_fract_y
_atom_site_fract_z
Si Si1 0.600269 0.058096 0.668578
Si Si2 0.060001 0.902120 0.628782
Si Si3 0.596219 0.749967 0.370422
Si Si4 0.366523 0.911652 0.935127
Si Si5 0.892333 0.694602 0.666704
O O1 0.632542 0.060890 0.776796
O O2 0.456481 0.122935 0.646525
O O3 0.725821 0.123096 0.616999
O O4 0.587783 0.931760 0.629843
O O5 0.163641 0.926146 0.543530
O O6 0.021963 0.770325 0.634005
O O7 0.918791 0.973928 0.612294
O O8 0.750000 0.750000 0.417664
O O9 0.486412 0.683285 0.431888
O O10 0.610208 0.684991 0.275537
O O11 0.750000 0.750000 0.629693
#
# Coordination Sequence:
#
# PCOD8228233 Si02
#       5
#     8   8   8   8   8
#     4  11  22  43  76 101 141 186 240 291 357 431
#     4  10  23  40  71 103 143 185 228 299 356 422
#     4  10  23  41  68  98 139 185 235 288 350 420
#     4  11  22  44  69 105 142 182 235 290 363 420
#     4  10  19  39  67 102 137 183 230 283 362 423
#
# _framework density 23.871870999999999
#
# number of rings (size 3 to 8) (size 9 to 14) (size 15 to 20)
#    0.000    1.600    4.000    0.600    0.000    0.800 
#    0.000    9.000    4.400    0.000    0.000    0.000 
#    0.000    0.000    0.000    0.000    0.000    0.000 
#
# Total GULP energy -495996.085161 kJ/mol
# GULP energy per Si atom -12399.902129 kJ/mol
# Density = 2.381754 g / cm^3
# Si number density = 23.871871 Si / 1000 Ang^3
#
#
#
# Elastic Constant Matrix: (Units=GPa)
#
#
# Indices 1 2 3 4 5 6 
#
# 1 114.0104 50.6290 47.3681 0.0000 0.0000 0.0000
# 2 50.6290 156.4559 14.8548 0.0000 0.0000 0.0000
# 3 47.3681 14.8548 115.3298 0.0000 0.0000 0.0000
# 4 0.0000 0.0000 0.0000 14.7899 0.0000 0.0000
# 5 0.0000 0.0000 0.0000 0.0000 25.3798 0.0000
# 6 0.0000 0.0000 0.0000 0.0000 0.0000 33.1219
#
#
#
# Elastic Compliance Matrix: (Units=1/GPa)
#
#
# Indices 1 2 3 4 5 6 
#
# 1 0.012236 -0.003526 -0.004571 0.000000 0.000000 0.000000
# 2 -0.003526 0.007487 0.000484 0.000000 0.000000 0.000000
# 3 -0.004571 0.000484 0.010486 0.000000 0.000000 0.000000
# 4 0.000000 0.000000 0.000000 0.067614 0.000000 0.000000
# 5 0.000000 0.000000 0.000000 0.000000 0.039401 0.000000
# 6 0.000000 0.000000 0.000000 0.000000 0.000000 0.030192
#
#
# Mechanical properties :
#
#
# Convention : Reuss Voigt Hill
#
# Bulk Modulus (GPa) = 66.74656 67.94446 67.34551
# Shear Modulus (GPa) = 26.64734 32.85459 29.75096
#
# Velocity S-wave (km/s) = 3.34468 3.71386 3.53409
# Velocity P-wave (km/s) = 6.55262 6.84940 6.70265
#
# Compressibility (1/GPa) = 0.01498205
#
# Stress axis : x y z
#
# Youngs Moduli (GPa) = 81.72572 133.57355 95.36459
#
# Poissons Ratio (x) = 0.47092 0.43596
# Poissons Ratio (y) = 0.28813 -0.04613
# Poissons Ratio (z) = 0.37361 -0.06461
#
# Static dielectric constant tensor:
#      x y z
#    x 3.958730 0.000000 0.000000 
#    y 0.000000 4.212520 0.000000 
#    z 0.000000 0.000000 4.108700 
# 
# 
# High freq. dielectric constant tensor:
#      x y z
#    x 1.916710 0.000000 0.000000 
#    y 0.000000 1.955440 0.000000 
#    z 0.000000 0.000000 1.937640 
# 
# From -- ./inp_files/14472.got.cif
#   From: 2010.03.12/outbox.cif.g09.slc.cpg/sg56_8_cif.got.tgz:14472.got - 2010.04.16 15:33:40.
