data_PCOD8228457
_publ_section_title
;
Structure prediction by ZEFSAII (Michael W. Deem and Ramdas Pophale) SiO2 
 PCOD8228457
Probable space group: P C C N
;
_chemical_formula_sum "Si O2"
_cell_formula_units_Z 60
_cell_length_a 30.958062
_cell_length_b 8.790464
_cell_length_c 10.502068
_cell_angle_alpha 90.000000
_cell_angle_beta 90.000000
_cell_angle_gamma 90.000000
_cell_volume 2857.987937
_symmetry_space_group_name_H-M "P C C N"
_symmetry_group_IT_number 56
_symmetry_cell_setting 'orthorhombic'
loop_
_space_group_symop_operation_xyz
x,y,z
1/2-x,1/2-y,z
1/2+x,-y,1/2-z
-x,1/2+y,1/2-z
-x,-y,-z
1/2+x,1/2+y,-z
1/2-x,y,1/2+z
x,1/2-y,1/2+z
loop_
_atom_site_type_symbol
_atom_site_label
_atom_site_fract_x
_atom_site_fract_y
_atom_site_fract_z
Si Si1 0.453428 0.917310 0.146037
Si Si2 0.178663 0.058266 0.855165
Si Si3 0.909642 0.098164 0.850917
Si Si4 0.815173 0.164202 0.913792
Si Si5 0.773209 0.040816 0.380334
Si Si6 0.750000 0.750000 0.533759
Si Si7 0.553660 0.925532 0.112638
Si Si8 0.416417 0.411983 0.887754
O O1 0.442847 0.738440 0.145709
O O2 0.503928 0.952952 0.144335
O O3 0.436905 0.985908 0.277968
O O4 0.432354 0.994003 0.020113
O O5 0.211920 0.194084 0.876601
O O6 0.131648 0.130508 0.841168
O O7 0.193618 0.966282 0.734166
O O8 0.177211 0.935294 0.963914
O O9 0.860522 0.163245 0.837634
O O10 0.917918 0.993900 0.727428
O O11 0.917391 0.000257 0.978165
O O12 0.775218 0.088419 0.834585
O O13 0.797693 0.328561 0.962247
O O14 0.771335 0.881607 0.451008
O O15 0.558981 0.745662 0.096306
#
# Coordination Sequence:
#
# PCOD8228457 Si02
#       8
#     8   8   8   8   8   4   8   8
#     4  11  24  43  64  93 125 162 208 258 318 384
#     4  10  22  39  58  86 120 157 200 248 302 357
#     4  11  23  42  66  93 126 165 210 261 314 380
#     4   9  22  39  59  87 116 156 208 248 297 358
#     4  10  20  38  60  83 120 160 198 247 297 355
#     4  10  22  36  56  88 120 158 202 244 298 362
#     4  11  25  42  65  92 125 165 206 257 322 384
#     4  11  24  41  64  94 128 162 208 264 317 377
#
# _framework density 20.993790000000001
#
# number of rings (size 3 to 8) (size 9 to 14) (size 15 to 20)
#    0.000    1.600    0.000    3.600    0.000   16.000 
#    0.000    1.333    0.000    0.000    0.000    0.000 
#    0.000    0.000    0.000    0.000    0.000    0.000 
#
# Total GULP energy -743797.386368 kJ/mol
# GULP energy per Si atom -12396.623106 kJ/mol
# Density = 2.094601 g / cm^3
# Si number density = 20.993790 Si / 1000 Ang^3
#
#
#
# Elastic Constant Matrix: (Units=GPa)
#
#
# Indices 1 2 3 4 5 6 
#
# 1 88.9865 24.6919 30.9037 0.0000 0.0000 0.0000
# 2 24.6919 121.3308 32.5045 0.0000 0.0000 0.0000
# 3 30.9037 32.5045 91.0132 0.0000 0.0000 0.0000
# 4 0.0000 0.0000 0.0000 24.3751 0.0000 0.0000
# 5 0.0000 0.0000 0.0000 0.0000 27.8391 0.0000
# 6 0.0000 0.0000 0.0000 0.0000 0.0000 38.0630
#
#
#
# Elastic Compliance Matrix: (Units=1/GPa)
#
#
# Indices 1 2 3 4 5 6 
#
# 1 0.013022 -0.001621 -0.003843 0.000000 0.000000 0.000000
# 2 -0.001621 0.009316 -0.002777 0.000000 0.000000 0.000000
# 3 -0.003843 -0.002777 0.013284 0.000000 0.000000 0.000000
# 4 0.000000 0.000000 0.000000 0.041025 0.000000 0.000000
# 5 0.000000 0.000000 0.000000 0.000000 0.035921 0.000000
# 6 0.000000 0.000000 0.000000 0.000000 0.000000 0.026272
#
#
# Mechanical properties :
#
#
# Convention : Reuss Voigt Hill
#
# Bulk Modulus (GPa) = 52.24333 53.05895 52.65114
# Shear Modulus (GPa) = 30.92139 32.27082 31.59611
#
# Velocity S-wave (km/s) = 3.84198 3.92492 3.88367
# Velocity P-wave (km/s) = 6.67984 6.77263 6.72639
#
# Compressibility (1/GPa) = 0.01914120
#
# Stress axis : x y z
#
# Youngs Moduli (GPa) = 76.79372 107.34666 75.27892
#
# Poissons Ratio (x) = 0.17396 0.28928
# Poissons Ratio (y) = 0.12445 0.20903
# Poissons Ratio (z) = 0.29511 0.29807
#
# Static dielectric constant tensor:
#      x y z
#    x 4.170790 0.000000 0.000000 
#    y 0.000000 1.423630 0.000000 
#    z 0.000000 0.000000 3.790080 
# 
# 
# High freq. dielectric constant tensor:
#      x y z
#    x 1.837130 0.000000 0.000000 
#    y 0.000000 1.837080 0.000000 
#    z 0.000000 0.000000 1.816030 
# 
# From -- ./inp_files/9069.got.cif
#   From: 2010.03.12/outbox.cif.g09.slc.cpg/sg56_5_cif.got.tgz:9069.got - 2010.04.16 15:33:40.
