data_PCOD8228109
_publ_section_title
;
Structure prediction by ZEFSAII (Michael W. Deem and Ramdas Pophale) SiO2 
 PCOD8228109
Probable space group: P C C N
;
_chemical_formula_sum "Si O2"
_cell_formula_units_Z 64
_cell_length_a 28.895641
_cell_length_b 14.177099
_cell_length_c 8.665639
_cell_angle_alpha 90.000000
_cell_angle_beta 90.000000
_cell_angle_gamma 90.000000
_cell_volume 3549.934157
_symmetry_space_group_name_H-M "P C C N"
_symmetry_group_IT_number 56
_symmetry_cell_setting 'orthorhombic'
loop_
_space_group_symop_operation_xyz
x,y,z
1/2-x,1/2-y,z
1/2+x,-y,1/2-z
-x,1/2+y,1/2-z
-x,-y,-z
1/2+x,1/2+y,-z
1/2-x,y,1/2+z
x,1/2-y,1/2+z
loop_
_atom_site_type_symbol
_atom_site_label
_atom_site_fract_x
_atom_site_fract_y
_atom_site_fract_z
Si Si1 0.979021 0.661458 0.126980
Si Si2 0.688703 0.411011 0.068132
Si Si3 0.142450 0.785508 0.389930
Si Si4 0.402100 0.995049 0.390726
Si Si5 0.461287 0.148022 0.224487
Si Si6 0.031490 0.985411 0.148400
Si Si7 0.768434 0.147883 0.774875
Si Si8 0.583752 0.177166 0.830674
O O1 0.954031 0.745928 0.217098
O O2 0.971980 0.568527 0.227831
O O3 0.032380 0.692903 0.104250
O O4 0.955687 0.644761 0.960478
O O5 0.657863 0.317048 0.051368
O O6 0.653885 0.497820 0.101243
O O7 0.725470 0.406684 0.203783
O O8 0.716847 0.421518 0.911004
O O9 0.188219 0.841751 0.340058
O O10 0.118394 0.844593 0.527054
O O11 0.104278 0.770049 0.255056
O O12 0.419836 0.909638 0.285551
O O13 0.421078 0.089041 0.309892
O O14 0.417812 0.979193 0.570612
O O15 0.512627 0.108706 0.267731
O O16 0.000000 0.000000 0.000000
O O17 0.750000 0.250000 0.834944
#
# Coordination Sequence:
#
# PCOD8228109 Si02
#       8
#     8   8   8   8   8   8   8   8
#     4  12  23  37  62  82 112 165 195 238 304 341
#     4  10  21  33  52  76 107 155 184 245 280 342
#     4  10  20  31  49  75 112 150 197 229 266 338
#     4  10  23  38  52  76 118 149 192 252 287 329
#     4  11  23  38  57  82 115 151 201 249 286 355
#     4  10  20  39  55  80 115 149 196 250 286 337
#     4  10  19  34  52  76 109 150 196 230 291 347
#     4  11  21  33  50  82 112 155 200 230 276 337
#
# _framework density 18.028504000000002
#
# number of rings (size 3 to 8) (size 9 to 14) (size 15 to 20)
#    0.000    1.500    3.750    3.750    7.000    1.000 
#    0.000    0.000    0.000    0.000    0.000    0.000 
#    0.000   12.000    0.000    0.000    0.000    0.000 
#
# Total GULP energy -793244.108173 kJ/mol
# GULP energy per Si atom -12394.439190 kJ/mol
# Density = 1.798747 g / cm^3
# Si number density = 18.028504 Si / 1000 Ang^3
#
#
#
# Elastic Constant Matrix: (Units=GPa)
#
#
# Indices 1 2 3 4 5 6 
#
# 1 100.3012 13.9627 31.3243 0.0000 0.0000 0.0000
# 2 13.9627 44.0059 22.0506 0.0000 0.0000 0.0000
# 3 31.3243 22.0506 109.4751 0.0000 0.0000 0.0000
# 4 0.0000 0.0000 0.0000 28.5412 0.0000 0.0000
# 5 0.0000 0.0000 0.0000 0.0000 31.0269 0.0000
# 6 0.0000 0.0000 0.0000 0.0000 0.0000 24.4957
#
#
#
# Elastic Compliance Matrix: (Units=1/GPa)
#
#
# Indices 1 2 3 4 5 6 
#
# 1 0.011129 -0.002153 -0.002751 0.000000 0.000000 0.000000
# 2 -0.002153 0.025692 -0.004559 0.000000 0.000000 0.000000
# 3 -0.002751 -0.004559 0.010840 0.000000 0.000000 0.000000
# 4 0.000000 0.000000 0.000000 0.035037 0.000000 0.000000
# 5 0.000000 0.000000 0.000000 0.000000 0.032230 0.000000
# 6 0.000000 0.000000 0.000000 0.000000 0.000000 0.040823
#
#
# Mechanical properties :
#
#
# Convention : Reuss Voigt Hill
#
# Bulk Modulus (GPa) = 34.80004 43.16194 38.98099
# Shear Modulus (GPa) = 27.13646 29.24239 28.18943
#
# Velocity S-wave (km/s) = 3.88390 4.03179 3.95853
# Velocity P-wave (km/s) = 6.28153 6.75771 6.52396
#
# Compressibility (1/GPa) = 0.02873560
#
# Stress axis : x y z
#
# Youngs Moduli (GPa) = 89.85785 38.92313 92.25259
#
# Poissons Ratio (x) = 0.08379 0.25376
# Poissons Ratio (y) = 0.19344 0.42057
# Poissons Ratio (z) = 0.24717 0.17745
#
# Static dielectric constant tensor:
#      x y z
#    x 3.650690 0.000000 0.000000 
#    y 0.000000 3.000840 0.000000 
#    z 0.000000 0.000000 3.726720 
# 
# 
# High freq. dielectric constant tensor:
#      x y z
#    x 1.689970 0.000000 0.000000 
#    y 0.000000 1.647440 0.000000 
#    z 0.000000 0.000000 1.718530 
# 
# From -- ./inp_files/5236.got.cif
#   From: 2010.03.12/outbox.cif.g09.slc.cpg/sg56_3_cif.got.tgz:5236.got - 2010.04.16 15:33:40.
