data_PCOD8228293
_publ_section_title
;
Structure prediction by ZEFSAII (Michael W. Deem and Ramdas Pophale) SiO2 
 PCOD8228293
Probable space group: P C C N
;
_chemical_formula_sum "Si O2"
_cell_formula_units_Z 48
_cell_length_a 9.768127
_cell_length_b 11.079272
_cell_length_c 21.287378
_cell_angle_alpha 90.000000
_cell_angle_beta 90.000000
_cell_angle_gamma 90.000000
_cell_volume 2303.799576
_symmetry_space_group_name_H-M "P C C N"
_symmetry_group_IT_number 56
_symmetry_cell_setting 'orthorhombic'
loop_
_space_group_symop_operation_xyz
x,y,z
1/2-x,1/2-y,z
1/2+x,-y,1/2-z
-x,1/2+y,1/2-z
-x,-y,-z
1/2+x,1/2+y,-z
1/2-x,y,1/2+z
x,1/2-y,1/2+z
loop_
_atom_site_type_symbol
_atom_site_label
_atom_site_fract_x
_atom_site_fract_y
_atom_site_fract_z
Si Si1 0.480187 0.173481 0.139038
Si Si2 0.012800 0.949943 0.888699
Si Si3 0.527161 0.026941 0.257728
Si Si4 0.279741 0.001018 0.078215
Si Si5 0.698016 0.117746 0.794561
Si Si6 0.783276 0.386723 0.048744
O O1 0.490526 0.316144 0.138775
O O2 0.475355 0.133545 0.211934
O O3 0.609970 0.110073 0.105685
O O4 0.346976 0.126876 0.101098
O O5 0.148804 0.958702 0.929454
O O6 0.023102 0.043283 0.830011
O O7 0.882855 0.982202 0.931714
O O8 0.693610 0.023715 0.261670
O O9 0.454943 0.904139 0.232275
O O10 0.307628 0.899034 0.130634
O O11 0.342603 0.955350 0.012345
O O12 0.750000 0.250000 0.776478
O O13 0.750000 0.250000 0.029050
#
# Coordination Sequence:
#
# PCOD8228293 Si02
#       6
#     8   8   8   8   8   8
#     4  10  20  34  54  78 106 140 176 220 269 320
#     4  10  20  34  54  78 106 140 176 220 269 320
#     4  10  20  34  56  82 108 142 182 224 276 330
#     4  10  20  34  53  77 105 140 179 217 265 323
#     4  10  20  35  54  78 111 144 180 229 274 322
#     4  10  20  35  55  77 102 136 177 218 265 319
#
# _framework density 20.835144
#
# number of rings (size 3 to 8) (size 9 to 14) (size 15 to 20)
#    0.000    2.000    0.000    4.000    0.000    1.333 
#    0.000    2.500    0.000    6.000    0.000    0.000 
#    0.000    0.000    0.000    0.000    0.000    0.000 
#
# Total GULP energy -594892.074515 kJ/mol
# GULP energy per Si atom -12393.584886 kJ/mol
# Density = 2.078772 g / cm^3
# Si number density = 20.835144 Si / 1000 Ang^3
#
#
#
# Elastic Constant Matrix: (Units=GPa)
#
#
# Indices 1 2 3 4 5 6 
#
# 1 96.7659 15.6991 30.8666 0.0000 0.0000 0.0000
# 2 15.6991 55.3775 29.5421 0.0000 0.0000 0.0000
# 3 30.8666 29.5421 106.6561 0.0000 0.0000 0.0000
# 4 0.0000 0.0000 0.0000 21.6776 0.0000 0.0000
# 5 0.0000 0.0000 0.0000 0.0000 24.3811 0.0000
# 6 0.0000 0.0000 0.0000 0.0000 0.0000 25.9690
#
#
#
# Elastic Compliance Matrix: (Units=1/GPa)
#
#
# Indices 1 2 3 4 5 6 
#
# 1 0.011527 -0.001746 -0.002852 0.000000 0.000000 0.000000
# 2 -0.001746 0.021453 -0.005437 0.000000 0.000000 0.000000
# 3 -0.002852 -0.005437 0.011707 0.000000 0.000000 0.000000
# 4 0.000000 0.000000 0.000000 0.046131 0.000000 0.000000
# 5 0.000000 0.000000 0.000000 0.000000 0.041015 0.000000
# 6 0.000000 0.000000 0.000000 0.000000 0.000000 0.038507
#
#
# Mechanical properties :
#
#
# Convention : Reuss Voigt Hill
#
# Bulk Modulus (GPa) = 40.62230 45.66835 43.14533
# Shear Modulus (GPa) = 25.17395 26.58499 25.87947
#
# Velocity S-wave (km/s) = 3.47975 3.57595 3.52818
# Velocity P-wave (km/s) = 5.97363 6.24631 6.11149
#
# Compressibility (1/GPa) = 0.02461702
#
# Stress axis : x y z
#
# Youngs Moduli (GPa) = 86.74993 46.61288 85.41649
#
# Poissons Ratio (x) = 0.08140 0.24364
# Poissons Ratio (y) = 0.15149 0.46440
# Poissons Ratio (z) = 0.24744 0.25343
#
# Static dielectric constant tensor:
#      x y z
#    x 3.939840 0.000000 0.000000 
#    y 0.000000 3.486100 0.000000 
#    z 0.000000 0.000000 3.711620 
# 
# 
# High freq. dielectric constant tensor:
#      x y z
#    x 1.819490 0.000000 0.000000 
#    y 0.000000 1.783980 0.000000 
#    z 0.000000 0.000000 1.822510 
# 
# From -- ./inp_files/15602.got.cif
#   From: 2010.03.12/outbox.cif.g09.slc.cpg/sg56_8_cif.got.tgz:15602.got - 2010.04.16 15:33:40.
