data_PCOD8228932
_publ_section_title
;
Structure prediction by ZEFSAII (Michael W. Deem and Ramdas Pophale) SiO2 
 PCOD8228932
Probable space group: P C C N
;
_chemical_formula_sum "Si O2"
_cell_formula_units_Z 56
_cell_length_a 14.963518
_cell_length_b 12.899500
_cell_length_c 13.955005
_cell_angle_alpha 90.000000
_cell_angle_beta 90.000000
_cell_angle_gamma 90.000000
_cell_volume 2693.621586
_symmetry_space_group_name_H-M "P C C N"
_symmetry_group_IT_number 56
_symmetry_cell_setting 'orthorhombic'
loop_
_space_group_symop_operation_xyz
x,y,z
1/2-x,1/2-y,z
1/2+x,-y,1/2-z
-x,1/2+y,1/2-z
-x,-y,-z
1/2+x,1/2+y,-z
1/2-x,y,1/2+z
x,1/2-y,1/2+z
loop_
_atom_site_type_symbol
_atom_site_label
_atom_site_fract_x
_atom_site_fract_y
_atom_site_fract_z
Si Si1 0.250000 0.750000 0.603029
Si Si2 0.438041 0.710238 0.691297
Si Si3 0.689766 0.959309 0.662689
Si Si4 0.688787 0.082989 0.025278
Si Si5 0.574399 0.812476 0.559272
Si Si6 0.524447 0.209015 0.108153
Si Si7 0.250000 0.250000 0.874406
Si Si8 0.094328 0.010256 0.642944
O O1 0.337077 0.742094 0.668232
O O2 0.259566 0.851359 0.536256
O O3 0.507126 0.789909 0.645656
O O4 0.446393 0.717849 0.805229
O O5 0.463737 0.595997 0.649530
O O6 0.611916 0.929700 0.583394
O O7 0.740931 0.852477 0.691138
O O8 0.655561 0.003237 0.762743
O O9 0.760743 0.038638 0.617527
O O10 0.609381 0.160959 0.054869
O O11 0.650294 0.991798 0.956466
O O12 0.526700 0.792256 0.458512
O O13 0.661206 0.737024 0.560244
O O14 0.463760 0.113704 0.144849
#
# Coordination Sequence:
#
# PCOD8228932 Si02
#       8
#     4   8   8   8   8   8   4   8
#     4  10  24  46  64  96 142 172 234 282 330 402
#     4  11  25  44  64  99 133 180 223 279 330 408
#     4  10  23  43  65 101 134 167 221 288 331 407
#     4  11  25  41  71 100 130 181 231 276 341 406
#     4  10  21  46  64 100 137 170 225 276 340 407
#     4  12  23  43  74  95 137 185 220 281 345 403
#     4   8  20  40  68  88 138 164 208 276 338 390
#     4  11  24  43  68  98 132 174 232 268 339 411
#
# _framework density 20.789854999999999
#
# number of rings (size 3 to 8) (size 9 to 14) (size 15 to 20)
#    0.857    0.571    4.286    1.286    8.000    0.000 
#    7.714    2.143    0.000    0.000    0.000    0.000 
#    0.000    0.000    0.000    0.000    0.000    0.000 
#
# Total GULP energy -693838.721802 kJ/mol
# GULP energy per Si atom -12389.977175 kJ/mol
# Density = 2.074254 g / cm^3
# Si number density = 20.789855 Si / 1000 Ang^3
#
#
#
# Elastic Constant Matrix: (Units=GPa)
#
#
# Indices 1 2 3 4 5 6 
#
# 1 92.0579 0.3921 34.8866 0.0000 0.0000 0.0000
# 2 0.3921 26.5642 3.4158 0.0000 0.0000 0.0000
# 3 34.8866 3.4158 105.3451 0.0000 0.0000 0.0000
# 4 0.0000 0.0000 0.0000 34.2270 0.0000 0.0000
# 5 0.0000 0.0000 0.0000 0.0000 35.1524 0.0000
# 6 0.0000 0.0000 0.0000 0.0000 0.0000 16.1381
#
#
#
# Elastic Compliance Matrix: (Units=1/GPa)
#
#
# Indices 1 2 3 4 5 6 
#
# 1 0.012425 0.000347 -0.004126 0.000000 0.000000 0.000000
# 2 0.000347 0.037812 -0.001341 0.000000 0.000000 0.000000
# 3 -0.004126 -0.001341 0.010902 0.000000 0.000000 0.000000
# 4 0.000000 0.000000 0.000000 0.029217 0.000000 0.000000
# 5 0.000000 0.000000 0.000000 0.000000 0.028448 0.000000
# 6 0.000000 0.000000 0.000000 0.000000 0.000000 0.061965
#
#
# Mechanical properties :
#
#
# Convention : Reuss Voigt Hill
#
# Bulk Modulus (GPa) = 19.64652 33.48405 26.56528
# Shear Modulus (GPa) = 24.04136 29.45502 26.74819
#
# Velocity S-wave (km/s) = 3.40428 3.76812 3.59081
# Velocity P-wave (km/s) = 4.99226 5.92221 5.47701
#
# Compressibility (1/GPa) = 0.05089959
#
# Stress axis : x y z
#
# Youngs Moduli (GPa) = 80.48410 26.44667 91.72253
#
# Poissons Ratio (x) = -0.00918 0.37844
# Poissons Ratio (y) = -0.02794 0.12300
# Poissons Ratio (z) = 0.33207 0.03547
#
# Static dielectric constant tensor:
#      x y z
#    x 3.784240 0.000000 0.000000 
#    y 0.000000 4.090960 0.000000 
#    z 0.000000 0.000000 3.652260 
# 
# 
# High freq. dielectric constant tensor:
#      x y z
#    x 1.813120 0.000000 0.000000 
#    y 0.000000 1.807860 0.000000 
#    z 0.000000 0.000000 1.812570 
# 
# From -- ./inp_files/12388.got.cif
#   From: 2010.03.12/outbox.cif.g09.slc.cpg/sg56_7_cif.got.tgz:12388.got - 2010.04.16 15:33:40.
