data_PCOD8228172
_publ_section_title
;
Structure prediction by ZEFSAII (Michael W. Deem and Ramdas Pophale) SiO2 
 PCOD8228172
Probable space group: P C C N
;
_chemical_formula_sum "Si O2"
_cell_formula_units_Z 64
_cell_length_a 23.656523
_cell_length_b 8.958464
_cell_length_c 15.281862
_cell_angle_alpha 90.000000
_cell_angle_beta 90.000000
_cell_angle_gamma 90.000000
_cell_volume 3238.625562
_symmetry_space_group_name_H-M "P C C N"
_symmetry_group_IT_number 56
_symmetry_cell_setting 'orthorhombic'
loop_
_space_group_symop_operation_xyz
x,y,z
1/2-x,1/2-y,z
1/2+x,-y,1/2-z
-x,1/2+y,1/2-z
-x,-y,-z
1/2+x,1/2+y,-z
1/2-x,y,1/2+z
x,1/2-y,1/2+z
loop_
_atom_site_type_symbol
_atom_site_label
_atom_site_fract_x
_atom_site_fract_y
_atom_site_fract_z
Si Si1 0.250893 0.926334 0.653407
Si Si2 0.132243 0.923243 0.582086
Si Si3 0.556884 0.077159 0.750638
Si Si4 0.125469 0.421024 0.401923
Si Si5 0.368031 0.074729 0.905457
Si Si6 0.248417 0.080596 0.835418
Si Si7 0.131330 0.926279 0.079737
Si Si8 0.563015 0.073118 0.246719
O O1 0.250000 0.750000 0.654417
O O2 0.194224 0.986114 0.607377
O O3 0.305962 0.986471 0.602800
O O4 0.253958 0.974030 0.753354
O O5 0.090735 0.959739 0.661431
O O6 0.133386 0.748938 0.559172
O O7 0.109996 0.011249 0.497552
O O8 0.553335 0.252251 0.732756
O O9 0.587008 0.998605 0.669936
O O10 0.494683 0.015036 0.763112
O O11 0.112880 0.245678 0.398073
O O12 0.191153 0.458256 0.386399
O O13 0.108083 0.485066 0.496224
O O14 0.300268 0.054232 0.901712
O O15 0.394024 0.981704 0.826589
O O16 0.250000 0.250000 0.800628
O O17 0.089065 0.961741 0.158695
#
# Coordination Sequence:
#
# PCOD8228172 Si02
#       8
#     8   8   8   8   8   8   8   8
#     4  10  19  36  62  91 121 157 199 245 299 358
#     4  10  22  39  62  91 121 157 199 246 300 358
#     4  11  24  43  65  88 119 158 206 256 304 357
#     4  11  23  39  62  92 125 161 199 244 301 361
#     4  11  23  39  62  92 125 161 199 244 301 361
#     4  10  21  36  58  91 127 159 193 239 299 360
#     4  10  22  39  62  91 121 157 199 246 300 358
#     4  11  24  43  65  88 119 158 206 256 304 357
#
# _framework density 19.761469000000002
#
# number of rings (size 3 to 8) (size 9 to 14) (size 15 to 20)
#    0.000    1.500    2.500    2.250    0.000    5.000 
#    0.000    0.000    0.000    0.000    0.000    0.000 
#    0.000    0.000    0.000    0.000    0.000    0.000 
#
# Total GULP energy -793917.661293 kJ/mol
# GULP energy per Si atom -12404.963458 kJ/mol
# Density = 1.971649 g / cm^3
# Si number density = 19.761469 Si / 1000 Ang^3
#
#
#
# Elastic Constant Matrix: (Units=GPa)
#
#
# Indices 1 2 3 4 5 6 
#
# 1 82.5269 24.0348 11.8866 0.0000 0.0000 0.0000
# 2 24.0348 60.7322 42.7183 0.0000 0.0000 0.0000
# 3 11.8866 42.7183 117.0156 0.0000 0.0000 0.0000
# 4 0.0000 0.0000 0.0000 32.3908 0.0000 0.0000
# 5 0.0000 0.0000 0.0000 0.0000 3.7219 0.0000
# 6 0.0000 0.0000 0.0000 0.0000 0.0000 32.6941
#
#
#
# Elastic Compliance Matrix: (Units=1/GPa)
#
#
# Indices 1 2 3 4 5 6 
#
# 1 0.013750 -0.006000 0.000794 0.000000 0.000000 0.000000
# 2 -0.006000 0.024773 -0.008434 0.000000 0.000000 0.000000
# 3 0.000794 -0.008434 0.011544 0.000000 0.000000 0.000000
# 4 0.000000 0.000000 0.000000 0.030873 0.000000 0.000000
# 5 0.000000 0.000000 0.000000 0.000000 0.268677 0.000000
# 6 0.000000 0.000000 0.000000 0.000000 0.000000 0.030587
#
#
# Mechanical properties :
#
#
# Convention : Reuss Voigt Hill
#
# Bulk Modulus (GPa) = 43.88598 46.39492 45.14045
# Shear Modulus (GPa) = 12.04585 25.87035 18.95810
#
# Velocity S-wave (km/s) = 2.47161 3.62212 3.10069
# Velocity P-wave (km/s) = 5.51373 6.40480 5.97589
#
# Compressibility (1/GPa) = 0.02278632
#
# Stress axis : x y z
#
# Youngs Moduli (GPa) = 72.72541 40.36702 86.62298
#
# Poissons Ratio (x) = 0.24220 -0.06874
# Poissons Ratio (y) = 0.43635 0.73059
# Poissons Ratio (z) = -0.05771 0.34046
#
# Static dielectric constant tensor:
#      x y z
#    x 3.766400 0.000000 0.000000 
#    y 0.000000 3.603960 0.000000 
#    z 0.000000 0.000000 3.548720 
# 
# 
# High freq. dielectric constant tensor:
#      x y z
#    x 1.773890 0.000000 0.000000 
#    y 0.000000 1.772380 0.000000 
#    z 0.000000 0.000000 1.778820 
# 
# From -- ./inp_files/13268.got.cif
#   From: 2010.03.12/outbox.cif.g09.slc.cpg/sg56_7_cif.got.tgz:13268.got - 2010.04.16 15:33:40.
