data_PCOD8228972
_publ_section_title
;
Structure prediction by ZEFSAII (Michael W. Deem and Ramdas Pophale) SiO2 
 PCOD8228972
Probable space group: P C C N
;
_chemical_formula_sum "Si O2"
_cell_formula_units_Z 64
_cell_length_a 13.100609
_cell_length_b 8.111532
_cell_length_c 25.424006
_cell_angle_alpha 90.000000
_cell_angle_beta 90.000000
_cell_angle_gamma 90.000000
_cell_volume 2701.707654
_symmetry_space_group_name_H-M "P C C N"
_symmetry_group_IT_number 56
_symmetry_cell_setting 'orthorhombic'
loop_
_space_group_symop_operation_xyz
x,y,z
1/2-x,1/2-y,z
1/2+x,-y,1/2-z
-x,1/2+y,1/2-z
-x,-y,-z
1/2+x,1/2+y,-z
1/2-x,y,1/2+z
x,1/2-y,1/2+z
loop_
_atom_site_type_symbol
_atom_site_label
_atom_site_fract_x
_atom_site_fract_y
_atom_site_fract_z
Si Si1 0.539984 0.111171 0.912459
Si Si2 0.057091 0.795612 0.384702
Si Si3 0.493009 0.237600 0.305553
Si Si4 0.687023 0.915289 0.239089
Si Si5 0.922909 0.145862 0.003932
Si Si6 0.379159 0.612568 0.788219
Si Si7 0.647498 0.849551 0.349696
Si Si8 0.759228 0.428738 0.428004
O O1 0.545054 0.236716 0.862670
O O2 0.528967 0.212341 0.966539
O O3 0.644143 0.000297 0.922503
O O4 0.444833 0.987463 0.902689
O O5 0.085749 0.692843 0.435650
O O6 0.131866 0.735677 0.338324
O O7 0.946724 0.769166 0.358297
O O8 0.402525 0.376324 0.302558
O O9 0.574373 0.278942 0.259468
O O10 0.446326 0.052422 0.300463
O O11 0.750000 0.750000 0.247305
O O12 0.761782 0.064018 0.223533
O O13 0.633584 0.954300 0.295718
O O14 0.807281 0.094653 0.986491
O O15 0.000000 0.000000 0.000000
O O16 0.750000 0.750000 0.345889
O O17 0.653875 0.970257 0.398807
O O18 0.750000 0.250000 0.401012
#
# Coordination Sequence:
#
# PCOD8228972 Si02
#       8
#     8   8   8   8   8   8   8   8
#     4  11  24  42  66 100 137 180 235 297 355 429
#     4  12  23  41  66  97 137 181 230 287 367 425
#     4  11  22  40  66  98 136 177 232 288 349 423
#     4   9  21  39  62  94 136 179 228 279 348 419
#     4  11  23  42  65  95 133 176 235 297 358 427
#     4  11  23  41  66 100 140 187 230 288 349 426
#     4  11  19  37  67  97 130 176 228 283 344 423
#     4  10  22  38  62  96 128 168 226 292 346 409
#
# _framework density 23.688721999999999
#
# number of rings (size 3 to 8) (size 9 to 14) (size 15 to 20)
#    0.000    1.250    3.750    2.625    3.500    0.000 
#    0.000    7.500    0.000    0.000    0.000    0.000 
#    0.000    0.000    0.000    0.000    0.000    0.000 
#
# Total GULP energy -792867.018496 kJ/mol
# GULP energy per Si atom -12388.547164 kJ/mol
# Density = 2.363481 g / cm^3
# Si number density = 23.688722 Si / 1000 Ang^3
#
#
#
# Elastic Constant Matrix: (Units=GPa)
#
#
# Indices 1 2 3 4 5 6 
#
# 1 72.6521 1.7135 34.6126 0.0000 0.0000 0.0000
# 2 1.7135 50.5600 19.6630 0.0000 0.0000 0.0000
# 3 34.6126 19.6630 135.6627 0.0000 0.0000 0.0000
# 4 0.0000 0.0000 0.0000 41.0046 0.0000 0.0000
# 5 0.0000 0.0000 0.0000 0.0000 4.6720 0.0000
# 6 0.0000 0.0000 0.0000 0.0000 0.0000 34.1341
#
#
#
# Elastic Compliance Matrix: (Units=1/GPa)
#
#
# Indices 1 2 3 4 5 6 
#
# 1 0.015725 0.001089 -0.004170 0.000000 0.000000 0.000000
# 2 0.001089 0.021035 -0.003327 0.000000 0.000000 0.000000
# 3 -0.004170 -0.003327 0.008917 0.000000 0.000000 0.000000
# 4 0.000000 0.000000 0.000000 0.024387 0.000000 0.000000
# 5 0.000000 0.000000 0.000000 0.000000 0.214039 0.000000
# 6 0.000000 0.000000 0.000000 0.000000 0.000000 0.029296
#
#
# Mechanical properties :
#
#
# Convention : Reuss Voigt Hill
#
# Bulk Modulus (GPa) = 30.43012 41.20590 35.81801
# Shear Modulus (GPa) = 14.82930 29.48787 22.15859
#
# Velocity S-wave (km/s) = 2.50473 3.53201 3.06176
# Velocity P-wave (km/s) = 4.60853 5.83660 5.25854
#
# Compressibility (1/GPa) = 0.03286218
#
# Stress axis : x y z
#
# Youngs Moduli (GPa) = 63.59242 47.53910 112.14180
#
# Poissons Ratio (x) = -0.05176 0.46762
# Poissons Ratio (y) = -0.06924 0.37306
# Poissons Ratio (z) = 0.26517 0.15815
#
# Static dielectric constant tensor:
#      x y z
#    x 4.417630 0.000000 0.000000 
#    y 0.000000 4.141760 0.000000 
#    z 0.000000 0.000000 4.703990 
# 
# 
# High freq. dielectric constant tensor:
#      x y z
#    x 1.938730 0.000000 0.000000 
#    y 0.000000 1.944160 0.000000 
#    z 0.000000 0.000000 1.936140 
# 
# From -- ./inp_files/21167.got.cif
#   From: 2010.03.12/outbox.cif.g09.slc.cpg/sg56_11_cif.got.tgz:21167.got - 2010.04.16 15:33:40.
