data_PCOD8228931
_publ_section_title
;
Structure prediction by ZEFSAII (Michael W. Deem and Ramdas Pophale) SiO2 
 PCOD8228931
Probable space group: P C C N
;
_chemical_formula_sum "Si O2"
_cell_formula_units_Z 60
_cell_length_a 8.559727
_cell_length_b 16.812506
_cell_length_c 16.940674
_cell_angle_alpha 90.000000
_cell_angle_beta 90.000000
_cell_angle_gamma 90.000000
_cell_volume 2437.940214
_symmetry_space_group_name_H-M "P C C N"
_symmetry_group_IT_number 56
_symmetry_cell_setting 'orthorhombic'
loop_
_space_group_symop_operation_xyz
x,y,z
1/2-x,1/2-y,z
1/2+x,-y,1/2-z
-x,1/2+y,1/2-z
-x,-y,-z
1/2+x,1/2+y,-z
1/2-x,y,1/2+z
x,1/2-y,1/2+z
loop_
_atom_site_type_symbol
_atom_site_label
_atom_site_fract_x
_atom_site_fract_y
_atom_site_fract_z
Si Si1 0.400287 0.404466 0.298841
Si Si2 0.646834 0.172498 0.221109
Si Si3 0.939331 0.160085 0.452251
Si Si4 0.355089 0.531633 0.823468
Si Si5 0.250000 0.250000 0.798980
Si Si6 0.611414 0.117207 0.531019
Si Si7 0.929107 0.767078 0.403962
Si Si8 0.016462 0.675489 0.617620
O O1 0.490506 0.396590 0.382919
O O2 0.508019 0.455847 0.240228
O O3 0.234102 0.449348 0.308355
O O4 0.366329 0.315810 0.258118
O O5 0.750000 0.250000 0.227599
O O6 0.734382 0.104379 0.174613
O O7 0.484411 0.189607 0.176390
O O8 0.611885 0.139799 0.308690
O O9 0.788086 0.125824 0.497151
O O10 0.897240 0.244807 0.412922
O O11 0.068387 0.173512 0.520855
O O12 0.415442 0.539204 0.914338
O O13 0.340732 0.307491 0.858193
O O14 0.546884 0.193833 0.579785
O O15 0.508381 0.109384 0.451227
O O16 0.750000 0.750000 0.384795
#
# Coordination Sequence:
#
# PCOD8228931 Si02
#       8
#     8   8   8   8   4   8   8   8
#     4  11  28  50  79 107 155 201 257 321 388 463
#     4  12  21  42  70 105 146 201 248 303 381 460
#     4  10  21  45  69 103 151 204 252 304 379 454
#     4  12  27  50  71 113 153 193 253 327 385 455
#     4  10  24  48  76 106 140 210 258 300 376 464
#     4  11  22  43  69 105 153 195 254 316 371 454
#     4  11  23  37  69 118 154 193 260 322 363 450
#     4  10  22  35  73 107 139 194 255 303 361 454
#
# _framework density 24.610941
#
# number of rings (size 3 to 8) (size 9 to 14) (size 15 to 20)
#    0.000    1.067    2.667    4.800   11.200    0.533 
#    0.000    0.667    0.000    0.000    0.000    0.000 
#    0.000    0.000    0.000    0.000    0.000    0.000 
#
# Total GULP energy -743342.078651 kJ/mol
# GULP energy per Si atom -12389.034644 kJ/mol
# Density = 2.455493 g / cm^3
# Si number density = 24.610941 Si / 1000 Ang^3
#
#
#
# Elastic Constant Matrix: (Units=GPa)
#
#
# Indices 1 2 3 4 5 6 
#
# 1 90.8597 34.1255 22.6928 0.0000 0.0000 0.0000
# 2 34.1255 97.1318 40.5272 0.0000 0.0000 0.0000
# 3 22.6928 40.5272 140.5453 0.0000 0.0000 0.0000
# 4 0.0000 0.0000 0.0000 12.0153 0.0000 0.0000
# 5 0.0000 0.0000 0.0000 0.0000 33.4758 0.0000
# 6 0.0000 0.0000 0.0000 0.0000 0.0000 33.5628
#
#
#
# Elastic Compliance Matrix: (Units=1/GPa)
#
#
# Indices 1 2 3 4 5 6 
#
# 1 0.012773 -0.004123 -0.000873 0.000000 0.000000 0.000000
# 2 -0.004123 0.013034 -0.003093 0.000000 0.000000 0.000000
# 3 -0.000873 -0.003093 0.008148 0.000000 0.000000 0.000000
# 4 0.000000 0.000000 0.000000 0.083227 0.000000 0.000000
# 5 0.000000 0.000000 0.000000 0.000000 0.029872 0.000000
# 6 0.000000 0.000000 0.000000 0.000000 0.000000 0.029795
#
#
# Mechanical properties :
#
#
# Convention : Reuss Voigt Hill
#
# Bulk Modulus (GPa) = 56.25416 58.13642 57.19529
# Shear Modulus (GPa) = 25.13153 31.22353 28.17753
#
# Velocity S-wave (km/s) = 3.19901 3.56572 3.38734
# Velocity P-wave (km/s) = 6.04582 6.37385 6.21200
#
# Compressibility (1/GPa) = 0.01777646
#
# Stress axis : x y z
#
# Youngs Moduli (GPa) = 78.29226 76.72080 122.72955
#
# Poissons Ratio (x) = 0.31632 0.10719
# Poissons Ratio (y) = 0.32280 0.37958
# Poissons Ratio (z) = 0.06838 0.23728
#
# Static dielectric constant tensor:
#      x y z
#    x 4.415500 0.000000 0.000000 
#    y 0.000000 4.257970 0.000000 
#    z 0.000000 0.000000 4.950130 
# 
# 
# High freq. dielectric constant tensor:
#      x y z
#    x 1.987500 0.000000 0.000000 
#    y 0.000000 1.944510 0.000000 
#    z 0.000000 0.000000 2.003580 
# 
# From -- ./inp_files/15092.got.cif
#   From: 2010.03.12/outbox.cif.g09.slc.cpg/sg56_8_cif.got.tgz:15092.got - 2010.04.16 15:33:40.
