data_PCOD8228989
_publ_section_title
;
Structure prediction by ZEFSAII (Michael W. Deem and Ramdas Pophale) SiO2 
 PCOD8228989
Probable space group: P C C N
;
_chemical_formula_sum "Si O2"
_cell_formula_units_Z 48
_cell_length_a 27.049821
_cell_length_b 5.051883
_cell_length_c 16.146883
_cell_angle_alpha 90.000000
_cell_angle_beta 90.000000
_cell_angle_gamma 90.000000
_cell_volume 2206.512427
_symmetry_space_group_name_H-M "P C C N"
_symmetry_group_IT_number 56
_symmetry_cell_setting 'orthorhombic'
loop_
_space_group_symop_operation_xyz
x,y,z
1/2-x,1/2-y,z
1/2+x,-y,1/2-z
-x,1/2+y,1/2-z
-x,-y,-z
1/2+x,1/2+y,-z
1/2-x,y,1/2+z
x,1/2-y,1/2+z
loop_
_atom_site_type_symbol
_atom_site_label
_atom_site_fract_x
_atom_site_fract_y
_atom_site_fract_z
Si Si1 0.858091 0.693762 0.561063
Si Si2 0.806673 0.200048 0.499100
Si Si3 0.477548 0.258707 0.218954
Si Si4 0.126141 0.149686 0.754627
Si Si5 0.634909 0.348058 0.850227
Si Si6 0.949262 0.577231 0.453520
O O1 0.840456 0.391986 0.553962
O O2 0.852524 0.746439 0.658341
O O3 0.913084 0.722145 0.520076
O O4 0.821285 0.896148 0.515716
O O5 0.750000 0.250000 0.520568
O O6 0.817366 0.274332 0.404141
O O7 0.479470 0.564660 0.249266
O O8 0.432004 0.142775 0.269389
O O9 0.468373 0.231079 0.120240
O O10 0.142206 0.354695 0.683232
O O11 0.137851 0.852224 0.726460
O O12 0.583971 0.346304 0.906878
O O13 0.000000 0.500000 0.500000
#
# Coordination Sequence:
#
# PCOD8228989 Si02
#       6
#     8   8   8   8   8   8
#     4  11  24  41  66  94 126 163 207 261 315 372
#     4  11  23  44  67  92 122 160 205 259 318 377
#     4  11  22  36  55  82 118 162 206 245 292 352
#     4  11  22  41  60  87 126 161 202 257 309 365
#     4  10  22  41  64  89 123 163 206 253 310 376
#     4  10  22  39  61  92 126 167 212 255 308 372
#
# _framework density 21.753786000000002
#
# number of rings (size 3 to 8) (size 9 to 14) (size 15 to 20)
#    0.000    1.333    0.000    7.500    0.000    4.000 
#    0.000   20.000    0.000    0.000    0.000    0.000 
#    0.000    0.000    0.000    0.000    0.000    0.000 
#
# Total GULP energy -594626.364768 kJ/mol
# GULP energy per Si atom -12388.049266 kJ/mol
# Density = 2.170427 g / cm^3
# Si number density = 21.753786 Si / 1000 Ang^3
#
#
#
# Elastic Constant Matrix: (Units=GPa)
#
#
# Indices 1 2 3 4 5 6 
#
# 1 82.7984 7.0122 28.1245 0.0000 0.0000 0.0000
# 2 7.0122 89.6896 24.2572 0.0000 0.0000 0.0000
# 3 28.1245 24.2572 120.1721 0.0000 0.0000 0.0000
# 4 0.0000 0.0000 0.0000 30.4618 0.0000 0.0000
# 5 0.0000 0.0000 0.0000 0.0000 17.6202 0.0000
# 6 0.0000 0.0000 0.0000 0.0000 0.0000 28.2813
#
#
#
# Elastic Compliance Matrix: (Units=1/GPa)
#
#
# Indices 1 2 3 4 5 6 
#
# 1 0.013124 -0.000207 -0.003030 0.000000 0.000000 0.000000
# 2 -0.000207 0.011797 -0.002333 0.000000 0.000000 0.000000
# 3 -0.003030 -0.002333 0.009501 0.000000 0.000000 0.000000
# 4 0.000000 0.000000 0.000000 0.032828 0.000000 0.000000
# 5 0.000000 0.000000 0.000000 0.000000 0.056753 0.000000
# 6 0.000000 0.000000 0.000000 0.000000 0.000000 0.035359
#
#
# Mechanical properties :
#
#
# Convention : Reuss Voigt Hill
#
# Bulk Modulus (GPa) = 42.94867 45.71644 44.33255
# Shear Modulus (GPa) = 28.04862 30.82376 29.43619
#
# Velocity S-wave (km/s) = 3.59467 3.76831 3.68251
# Velocity P-wave (km/s) = 6.08398 6.32412 6.20521
#
# Compressibility (1/GPa) = 0.02328361
#
# Stress axis : x y z
#
# Youngs Moduli (GPa) = 76.19525 84.76979 105.24800
#
# Poissons Ratio (x) = 0.01752 0.31888
# Poissons Ratio (y) = 0.01575 0.24553
# Poissons Ratio (z) = 0.23086 0.19775
#
# Static dielectric constant tensor:
#      x y z
#    x 3.807040 0.000000 0.000000 
#    y 0.000000 3.919320 0.000000 
#    z 0.000000 0.000000 4.059340 
# 
# 
# High freq. dielectric constant tensor:
#      x y z
#    x 1.832580 0.000000 0.000000 
#    y 0.000000 1.853690 0.000000 
#    z 0.000000 0.000000 1.863760 
# 
# From -- ./inp_files/13370.got.cif
#   From: 2010.03.12/outbox.cif.g09.slc.cpg/sg56_7_cif.got.tgz:13370.got - 2010.04.16 15:33:40.
