data_PCOD8228364
_publ_section_title
;
Structure prediction by ZEFSAII (Michael W. Deem and Ramdas Pophale) SiO2 
 PCOD8228364
Probable space group: P C C N
;
_chemical_formula_sum "Si O2"
_cell_formula_units_Z 48
_cell_length_a 8.544231
_cell_length_b 13.165521
_cell_length_c 18.605836
_cell_angle_alpha 90.000000
_cell_angle_beta 90.000000
_cell_angle_gamma 90.000000
_cell_volume 2092.956587
_symmetry_space_group_name_H-M "P C C N"
_symmetry_group_IT_number 56
_symmetry_cell_setting 'orthorhombic'
loop_
_space_group_symop_operation_xyz
x,y,z
1/2-x,1/2-y,z
1/2+x,-y,1/2-z
-x,1/2+y,1/2-z
-x,-y,-z
1/2+x,1/2+y,-z
1/2-x,y,1/2+z
x,1/2-y,1/2+z
loop_
_atom_site_type_symbol
_atom_site_label
_atom_site_fract_x
_atom_site_fract_y
_atom_site_fract_z
Si Si1 0.016883 0.281774 0.312419
Si Si2 0.093351 0.983813 0.114222
Si Si3 0.750000 0.750000 0.070580
Si Si4 0.628800 0.047488 0.160394
Si Si5 0.196419 0.074719 0.724358
Si Si6 0.718301 0.525142 0.031185
Si Si7 0.750000 0.250000 0.719908
O O1 0.919661 0.381155 0.339408
O O2 0.890531 0.209895 0.272739
O O3 0.099101 0.225646 0.378983
O O4 0.148700 0.313994 0.253343
O O5 0.929647 0.014636 0.078238
O O6 0.159570 0.071856 0.167648
O O7 0.215763 0.974767 0.047458
O O8 0.719645 0.648997 0.023679
O O9 0.454990 0.023100 0.187759
O O10 0.676632 0.164667 0.169287
O O11 0.757989 0.983090 0.202903
O O12 0.633491 0.016630 0.075940
#
# Coordination Sequence:
#
# PCOD8228364 Si02
#       7
#     8   8   4   8   8   8   4
#     4  10  21  37  60  93 117 164 206 258 313 362
#     4  10  20  40  61  86 120 163 208 247 322 365
#     4  10  20  36  58  92 118 160 216 246 308 376
#     4  11  21  37  60  89 120 162 202 256 303 365
#     4  11  19  37  62  89 116 157 213 246 309 362
#     4  10  22  39  62  85 128 167 199 261 311 375
#     4  10  22  36  58  90 128 154 204 262 308 356
#
# _framework density 22.934066000000001
#
# number of rings (size 3 to 8) (size 9 to 14) (size 15 to 20)
#    0.000    1.667    6.667    0.000    2.333    2.000 
#    0.000   11.667    0.000    0.000    0.000    0.000 
#    0.000    0.000    0.000    0.000    0.000    0.000 
#
# Total GULP energy -594751.989524 kJ/mol
# GULP energy per Si atom -12390.666448 kJ/mol
# Density = 2.288187 g / cm^3
# Si number density = 22.934066 Si / 1000 Ang^3
#
#
#
# Elastic Constant Matrix: (Units=GPa)
#
#
# Indices 1 2 3 4 5 6 
#
# 1 56.9219 31.9889 12.5035 0.0000 0.0000 0.0000
# 2 31.9889 41.7616 15.4395 0.0000 0.0000 0.0000
# 3 12.5035 15.4395 99.8893 0.0000 0.0000 0.0000
# 4 0.0000 0.0000 0.0000 14.9659 0.0000 0.0000
# 5 0.0000 0.0000 0.0000 0.0000 29.6362 0.0000
# 6 0.0000 0.0000 0.0000 0.0000 0.0000 35.3087
#
#
#
# Elastic Compliance Matrix: (Units=1/GPa)
#
#
# Indices 1 2 3 4 5 6 
#
# 1 0.030851 -0.023549 -0.000222 0.000000 0.000000 0.000000
# 2 -0.023549 0.043373 -0.003756 0.000000 0.000000 0.000000
# 3 -0.000222 -0.003756 0.010619 0.000000 0.000000 0.000000
# 4 0.000000 0.000000 0.000000 0.066818 0.000000 0.000000
# 5 0.000000 0.000000 0.000000 0.000000 0.033742 0.000000
# 6 0.000000 0.000000 0.000000 0.000000 0.000000 0.028322
#
#
# Mechanical properties :
#
#
# Convention : Reuss Voigt Hill
#
# Bulk Modulus (GPa) = 33.57027 35.38183 34.47605
# Shear Modulus (GPa) = 17.93983 25.22490 21.58236
#
# Velocity S-wave (km/s) = 2.79988 3.32005 3.07100
# Velocity P-wave (km/s) = 5.01218 5.49164 5.25738
#
# Compressibility (1/GPa) = 0.02978826
#
# Stress axis : x y z
#
# Youngs Moduli (GPa) = 32.41402 23.05603 94.16710
#
# Poissons Ratio (x) = 0.54295 0.02088
# Poissons Ratio (y) = 0.76333 0.35371
# Poissons Ratio (z) = 0.00719 0.08660
#
# Static dielectric constant tensor:
#      x y z
#    x 4.323030 0.000000 0.000000 
#    y 0.000000 3.697370 0.000000 
#    z 0.000000 0.000000 4.272610 
# 
# 
# High freq. dielectric constant tensor:
#      x y z
#    x 1.914300 0.000000 0.000000 
#    y 0.000000 1.869100 0.000000 
#    z 0.000000 0.000000 1.901040 
# 
# From -- ./inp_files/18095.got.cif
#   From: 2010.03.12/outbox.cif.g09.slc.cpg/sg56_10_cif.got.tgz:18095.got - 2010.04.16 15:33:40.
