data_PCOD8228856
_publ_section_title
;
Structure prediction by ZEFSAII (Michael W. Deem and Ramdas Pophale) SiO2 
 PCOD8228856
Probable space group: P C C N
;
_chemical_formula_sum "Si O2"
_cell_formula_units_Z 60
_cell_length_a 18.411927
_cell_length_b 8.548664
_cell_length_c 17.603733
_cell_angle_alpha 90.000000
_cell_angle_beta 90.000000
_cell_angle_gamma 90.000000
_cell_volume 2770.781409
_symmetry_space_group_name_H-M "P C C N"
_symmetry_group_IT_number 56
_symmetry_cell_setting 'orthorhombic'
loop_
_space_group_symop_operation_xyz
x,y,z
1/2-x,1/2-y,z
1/2+x,-y,1/2-z
-x,1/2+y,1/2-z
-x,-y,-z
1/2+x,1/2+y,-z
1/2-x,y,1/2+z
x,1/2-y,1/2+z
loop_
_atom_site_type_symbol
_atom_site_label
_atom_site_fract_x
_atom_site_fract_y
_atom_site_fract_z
Si Si1 0.722957 0.501810 0.015025
Si Si2 0.147653 0.492486 0.183494
Si Si3 0.876290 0.107356 0.568192
Si Si4 0.374986 0.566254 0.854551
Si Si5 0.859203 0.236188 0.924078
Si Si6 0.521294 0.403512 0.828472
Si Si7 0.516690 0.547001 0.675105
Si Si8 0.750000 0.750000 0.894552
O O1 0.802735 0.489274 0.051227
O O2 0.667516 0.536975 0.083474
O O3 0.705362 0.340341 0.972073
O O4 0.710230 0.632191 0.951356
O O5 0.158611 0.527209 0.272380
O O6 0.175784 0.643822 0.136689
O O7 0.191946 0.338326 0.159147
O O8 0.062675 0.469417 0.164678
O O9 0.864233 0.250096 0.627506
O O10 0.906796 0.168599 0.487008
O O11 0.934159 0.987372 0.602349
O O12 0.459794 0.520669 0.859660
O O13 0.911368 0.106808 0.886211
O O14 0.553140 0.471931 0.749947
O O15 0.488348 0.232373 0.813650
#
# Coordination Sequence:
#
# PCOD8228856 Si02
#       8
#     8   8   8   8   8   8   8   4
#     4  11  26  44  64  96 136 177 218 275 327 411
#     4  10  23  44  65  96 131 175 218 284 325 403
#     4  11  22  42  65  93 131 180 212 275 333 403
#     4  10  23  43  66  96 135 167 233 266 336 401
#     4  10  21  41  65  91 130 170 223 261 339 387
#     4  10  22  40  68  99 124 174 215 289 323 400
#     4  10  22  41  65  94 135 164 228 271 342 395
#     4  12  26  42  66  96 138 170 216 276 342 380
#
# _framework density 21.654543
#
# number of rings (size 3 to 8) (size 9 to 14) (size 15 to 20)
#    0.000    1.600    1.333    4.000    1.867    9.067 
#    9.600    0.000    0.000    0.000    0.000    0.000 
#    0.000    0.000    0.000    0.000    0.000    0.000 
#
# Total GULP energy -743838.229691 kJ/mol
# GULP energy per Si atom -12397.303828 kJ/mol
# Density = 2.160526 g / cm^3
# Si number density = 21.654543 Si / 1000 Ang^3
#
#
#
# Elastic Constant Matrix: (Units=GPa)
#
#
# Indices 1 2 3 4 5 6 
#
# 1 59.9226 19.2137 26.6644 0.0000 0.0000 0.0000
# 2 19.2137 78.0247 37.1610 0.0000 0.0000 0.0000
# 3 26.6644 37.1610 115.3121 0.0000 0.0000 0.0000
# 4 0.0000 0.0000 0.0000 43.3656 0.0000 0.0000
# 5 0.0000 0.0000 0.0000 0.0000 24.4847 0.0000
# 6 0.0000 0.0000 0.0000 0.0000 0.0000 29.4771
#
#
#
# Elastic Compliance Matrix: (Units=1/GPa)
#
#
# Indices 1 2 3 4 5 6 
#
# 1 0.019213 -0.003089 -0.003447 0.000000 0.000000 0.000000
# 2 -0.003089 0.015637 -0.004325 0.000000 0.000000 0.000000
# 3 -0.003447 -0.004325 0.010863 0.000000 0.000000 0.000000
# 4 0.000000 0.000000 0.000000 0.023060 0.000000 0.000000
# 5 0.000000 0.000000 0.000000 0.000000 0.040842 0.000000
# 6 0.000000 0.000000 0.000000 0.000000 0.000000 0.033925
#
#
# Mechanical properties :
#
#
# Convention : Reuss Voigt Hill
#
# Bulk Modulus (GPa) = 41.68407 46.59305 44.13856
# Shear Modulus (GPa) = 28.85867 30.81351 29.83609
#
# Velocity S-wave (km/s) = 3.65456 3.77630 3.71593
# Velocity P-wave (km/s) = 6.09090 6.37002 6.23202
#
# Compressibility (1/GPa) = 0.02398998
#
# Stress axis : x y z
#
# Youngs Moduli (GPa) = 52.04901 63.95078 92.05601
#
# Poissons Ratio (x) = 0.19757 0.31732
# Poissons Ratio (y) = 0.16080 0.39813
# Poissons Ratio (z) = 0.17942 0.27658
#
# Static dielectric constant tensor:
#      x y z
#    x 3.756800 0.000000 0.000000 
#    y 0.000000 4.067170 0.000000 
#    z 0.000000 0.000000 4.236650 
# 
# 
# High freq. dielectric constant tensor:
#      x y z
#    x 1.837350 0.000000 0.000000 
#    y 0.000000 1.847490 0.000000 
#    z 0.000000 0.000000 1.868820 
# 
# From -- ./inp_files/16667.got.cif
#   From: 2010.03.12/outbox.cif.g09.slc.cpg/sg56_9_cif.got.tgz:16667.got - 2010.04.16 15:33:40.
