data_PCOD8228676
_publ_section_title
;
Structure prediction by ZEFSAII (Michael W. Deem and Ramdas Pophale) SiO2 
 PCOD8228676
Probable space group: P C C N
;
_chemical_formula_sum "Si O2"
_cell_formula_units_Z 60
_cell_length_a 6.729593
_cell_length_b 24.483438
_cell_length_c 19.032214
_cell_angle_alpha 90.000000
_cell_angle_beta 90.000000
_cell_angle_gamma 90.000000
_cell_volume 3135.815580
_symmetry_space_group_name_H-M "P C C N"
_symmetry_group_IT_number 56
_symmetry_cell_setting 'orthorhombic'
loop_
_space_group_symop_operation_xyz
x,y,z
1/2-x,1/2-y,z
1/2+x,-y,1/2-z
-x,1/2+y,1/2-z
-x,-y,-z
1/2+x,1/2+y,-z
1/2-x,y,1/2+z
x,1/2-y,1/2+z
loop_
_atom_site_type_symbol
_atom_site_label
_atom_site_fract_x
_atom_site_fract_y
_atom_site_fract_z
Si Si1 0.128065 0.698424 0.764572
Si Si2 0.250000 0.250000 0.169175
Si Si3 0.995351 0.406817 0.495475
Si Si4 0.034886 0.115091 0.840686
Si Si5 0.390850 0.081539 0.756067
Si Si6 0.792901 0.994685 0.464518
Si Si7 0.753331 0.023159 0.813119
Si Si8 0.033473 0.657357 0.365119
O O1 0.250000 0.750000 0.734825
O O2 0.254455 0.673794 0.830282
O O3 0.903255 0.714525 0.784554
O O4 0.109972 0.656094 0.700743
O O5 0.387650 0.290660 0.123487
O O6 0.829837 0.452774 0.488027
O O7 0.926606 0.366879 0.557965
O O8 0.026879 0.371712 0.423971
O O9 0.200623 0.436995 0.512838
O O10 0.259243 0.117253 0.810211
O O11 0.960720 0.052934 0.829908
O O12 0.605030 0.070577 0.788785
O O13 0.419429 0.113693 0.683404
O O14 0.284748 0.023211 0.744897
O O15 0.829039 0.993025 0.381600
O O16 0.000000 0.000000 0.500000
#
# Coordination Sequence:
#
# PCOD8228676 Si02
#       8
#     8   4   8   8   8   8   8   8
#     4  10  22  41  65  88 115 153 208 258 310 362
#     4  10  22  42  66  92 114 154 210 262 312 358
#     4  10  23  38  58  87 126 161 198 244 304 364
#     4  11  22  39  57  88 125 156 196 251 299 365
#     4  12  21  34  59  87 121 159 206 241 291 350
#     4  10  21  37  53  81 127 167 195 234 296 359
#     4  11  22  33  55  90 119 160 203 238 282 361
#     4  11  22  40  65  88 117 162 207 256 303 362
#
# _framework density 19.133779000000001
#
# number of rings (size 3 to 8) (size 9 to 14) (size 15 to 20)
#    0.000    1.333    5.333    0.800    0.000    3.200 
#    0.000    2.667    0.000    0.000    0.000    0.000 
#    0.000    0.000    0.000    0.000    0.000    0.000 
#
# Total GULP energy -743901.771480 kJ/mol
# GULP energy per Si atom -12398.362858 kJ/mol
# Density = 1.909023 g / cm^3
# Si number density = 19.133779 Si / 1000 Ang^3
#
#
#
# Elastic Constant Matrix: (Units=GPa)
#
#
# Indices 1 2 3 4 5 6 
#
# 1 82.5714 22.4980 32.4463 0.0000 0.0000 0.0000
# 2 22.4980 77.2418 45.2862 0.0000 0.0000 0.0000
# 3 32.4463 45.2862 131.7638 0.0000 0.0000 0.0000
# 4 0.0000 0.0000 0.0000 26.1193 0.0000 0.0000
# 5 0.0000 0.0000 0.0000 0.0000 21.4125 0.0000
# 6 0.0000 0.0000 0.0000 0.0000 0.0000 31.5028
#
#
#
# Elastic Compliance Matrix: (Units=1/GPa)
#
#
# Indices 1 2 3 4 5 6 
#
# 1 0.013794 -0.002538 -0.002525 0.000000 0.000000 0.000000
# 2 -0.002538 0.016680 -0.005108 0.000000 0.000000 0.000000
# 3 -0.002525 -0.005108 0.009967 0.000000 0.000000 0.000000
# 4 0.000000 0.000000 0.000000 0.038286 0.000000 0.000000
# 5 0.000000 0.000000 0.000000 0.000000 0.046702 0.000000
# 6 0.000000 0.000000 0.000000 0.000000 0.000000 0.031743
#
#
# Mechanical properties :
#
#
# Convention : Reuss Voigt Hill
#
# Bulk Modulus (GPa) = 49.74982 54.67089 52.21035
# Shear Modulus (GPa) = 27.14258 28.56336 27.85297
#
# Velocity S-wave (km/s) = 3.77048 3.86790 3.81950
# Velocity P-wave (km/s) = 6.70916 6.97012 6.84088
#
# Compressibility (1/GPa) = 0.02010057
#
# Stress axis : x y z
#
# Youngs Moduli (GPa) = 72.49425 59.95111 100.33535
#
# Poissons Ratio (x) = 0.15214 0.25331
# Poissons Ratio (y) = 0.18397 0.51251
# Poissons Ratio (z) = 0.18302 0.30623
#
# Static dielectric constant tensor:
#      x y z
#    x 3.559260 0.000000 0.000000 
#    y 0.000000 3.498530 0.000000 
#    z 0.000000 0.000000 3.275410 
# 
# 
# High freq. dielectric constant tensor:
#      x y z
#    x 1.752690 0.000000 0.000000 
#    y 0.000000 1.738590 0.000000 
#    z 0.000000 0.000000 1.731260 
# 
# From -- ./inp_files/14089.got.cif
#   From: 2010.03.12/outbox.cif.g09.slc.cpg/sg56_8_cif.got.tgz:14089.got - 2010.04.16 15:33:40.
