data_PCOD8228411
_publ_section_title
;
Structure prediction by ZEFSAII (Michael W. Deem and Ramdas Pophale) SiO2 
 PCOD8228411
Probable space group: P C C N
;
_chemical_formula_sum "Si O2"
_cell_formula_units_Z 64
_cell_length_a 8.787352
_cell_length_b 20.654165
_cell_length_c 17.803165
_cell_angle_alpha 90.000000
_cell_angle_beta 90.000000
_cell_angle_gamma 90.000000
_cell_volume 3231.192876
_symmetry_space_group_name_H-M "P C C N"
_symmetry_group_IT_number 56
_symmetry_cell_setting 'orthorhombic'
loop_
_space_group_symop_operation_xyz
x,y,z
1/2-x,1/2-y,z
1/2+x,-y,1/2-z
-x,1/2+y,1/2-z
-x,-y,-z
1/2+x,1/2+y,-z
1/2-x,y,1/2+z
x,1/2-y,1/2+z
loop_
_atom_site_type_symbol
_atom_site_label
_atom_site_fract_x
_atom_site_fract_y
_atom_site_fract_z
Si Si1 0.563054 0.628681 0.090042
Si Si2 0.577782 0.872624 0.076217
Si Si3 0.584627 0.123999 0.572002
Si Si4 0.431153 0.003408 0.829649
Si Si5 0.925750 0.002164 0.169343
Si Si6 0.055198 0.625357 0.913845
Si Si7 0.929694 0.254503 0.667605
Si Si8 0.569428 0.245144 0.837099
O O1 0.743055 0.636441 0.084359
O O2 0.513489 0.564579 0.134881
O O3 0.500247 0.688206 0.136115
O O4 0.486209 0.625700 0.009567
O O5 0.520806 0.938139 0.115869
O O6 0.488484 0.812720 0.111367
O O7 0.541807 0.877303 0.988937
O O8 0.766773 0.126439 0.565939
O O9 0.518193 0.185210 0.617204
O O10 0.527706 0.059341 0.612879
O O11 0.252670 0.999691 0.818809
O O12 0.501839 0.016576 0.749164
O O13 0.491867 0.936542 0.864452
O O14 0.003695 0.688487 0.867127
O O15 0.750000 0.250000 0.669443
O O16 0.988727 0.265857 0.752104
O O17 0.750000 0.250000 0.843215
#
# Coordination Sequence:
#
# PCOD8228411 Si02
#       8
#     8   8   8   8   8   8   8   8
#     4  11  23  38  56  85 119 150 188 239 290 338
#     4  11  23  38  56  85 119 150 188 239 290 338
#     4  10  20  37  59  84 113 151 195 235 279 341
#     4  10  22  38  58  84 117 154 195 239 284 336
#     4  10  22  38  58  84 117 154 195 239 284 336
#     4  10  20  37  59  84 113 151 195 235 279 341
#     4   9  19  35  58  84 108 139 190 241 276 322
#     4  11  22  39  62  84 110 151 192 233 286 346
#
# _framework density 19.806927000000002
#
# number of rings (size 3 to 8) (size 9 to 14) (size 15 to 20)
#    0.000    1.750    0.000    4.125    0.000    6.000 
#    0.000    2.500    0.000    0.000    0.000    0.000 
#    0.000    0.000    0.000    0.000    0.000    0.000 
#
# Total GULP energy -793890.186766 kJ/mol
# GULP energy per Si atom -12404.534168 kJ/mol
# Density = 1.976185 g / cm^3
# Si number density = 19.806927 Si / 1000 Ang^3
#
#
#
# Elastic Constant Matrix: (Units=GPa)
#
#
# Indices 1 2 3 4 5 6 
#
# 1 33.4469 5.8498 3.4115 0.0000 0.0000 0.0000
# 2 5.8498 96.6552 -16.0524 0.0000 0.0000 0.0000
# 3 3.4115 -16.0524 65.2619 0.0000 0.0000 0.0000
# 4 0.0000 0.0000 0.0000 46.0039 0.0000 0.0000
# 5 0.0000 0.0000 0.0000 0.0000 30.8340 0.0000
# 6 0.0000 0.0000 0.0000 0.0000 0.0000 2.5292
#
#
#
# Elastic Compliance Matrix: (Units=1/GPa)
#
#
# Indices 1 2 3 4 5 6 
#
# 1 0.030501 -0.002201 -0.002136 0.000000 0.000000 0.000000
# 2 -0.002201 0.010945 0.002807 0.000000 0.000000 0.000000
# 3 -0.002136 0.002807 0.016125 0.000000 0.000000 0.000000
# 4 0.000000 0.000000 0.000000 0.021737 0.000000 0.000000
# 5 0.000000 0.000000 0.000000 0.000000 0.032432 0.000000
# 6 0.000000 0.000000 0.000000 0.000000 0.000000 0.395384
#
#
# Mechanical properties :
#
#
# Convention : Reuss Voigt Hill
#
# Bulk Modulus (GPa) = 18.34417 20.19797 19.27107
# Shear Modulus (GPa) = 9.46336 29.35043 19.40689
#
# Velocity S-wave (km/s) = 2.18819 3.85363 3.13358
# Velocity P-wave (km/s) = 3.95801 5.47906 4.77943
#
# Compressibility (1/GPa) = 0.05451322
#
# Stress axis : x y z
#
# Youngs Moduli (GPa) = 32.78592 91.36197 62.01538
#
# Poissons Ratio (x) = 0.20106 0.13245
# Poissons Ratio (y) = 0.07215 -0.17410
# Poissons Ratio (z) = 0.07002 -0.25648
#
# Static dielectric constant tensor:
#      x y z
#    x 3.383750 0.000000 0.000000 
#    y 0.000000 4.119770 0.000000 
#    z 0.000000 0.000000 4.256680 
# 
# 
# High freq. dielectric constant tensor:
#      x y z
#    x 1.756140 0.000000 0.000000 
#    y 0.000000 1.794600 0.000000 
#    z 0.000000 0.000000 1.789940 
# 
# From -- ./inp_files/15225.got.cif
#   From: 2010.03.12/outbox.cif.g09.slc.cpg/sg56_8_cif.got.tgz:15225.got - 2010.04.16 15:33:40.
