data_PCOD8228398
_publ_section_title
;
Structure prediction by ZEFSAII (Michael W. Deem and Ramdas Pophale) SiO2 
 PCOD8228398
Probable space group: P C C N
;
_chemical_formula_sum "Si O2"
_cell_formula_units_Z 32
_cell_length_a 22.379397
_cell_length_b 14.905488
_cell_length_c 5.102568
_cell_angle_alpha 90.000000
_cell_angle_beta 90.000000
_cell_angle_gamma 90.000000
_cell_volume 1702.093373
_symmetry_space_group_name_H-M "P C C N"
_symmetry_group_IT_number 56
_symmetry_cell_setting 'orthorhombic'
loop_
_space_group_symop_operation_xyz
x,y,z
1/2-x,1/2-y,z
1/2+x,-y,1/2-z
-x,1/2+y,1/2-z
-x,-y,-z
1/2+x,1/2+y,-z
1/2-x,y,1/2+z
x,1/2-y,1/2+z
loop_
_atom_site_type_symbol
_atom_site_label
_atom_site_fract_x
_atom_site_fract_y
_atom_site_fract_z
Si Si1 0.434812 0.508350 0.121916
Si Si2 0.406874 0.096479 0.150964
Si Si3 0.776575 0.848904 0.431906
Si Si4 0.027636 0.693166 0.766620
O O1 0.428113 0.449067 0.382237
O O2 0.426162 0.611916 0.206461
O O3 0.500000 0.500000 0.000000
O O4 0.391827 0.475430 0.884331
O O5 0.458555 0.162409 0.254485
O O6 0.347641 0.154541 0.102005
O O7 0.750000 0.750000 0.485983
O O8 0.742377 0.900593 0.197395
O O9 0.040070 0.771348 0.557917
#
# Coordination Sequence:
#
# PCOD8228398 Si02
#       4
#     8   8   8   8
#     4  10  20  37  51  76 106 147 192 228 271 345
#     4  11  21  35  56  71 113 159 180 220 288 319
#     4  10  22  35  51  76 113 140 193 230 252 320
#     4  11  21  31  53  79 108 137 189 227 271 329
#
# _framework density 18.800377999999998
#
# number of rings (size 3 to 8) (size 9 to 14) (size 15 to 20)
#    0.000    1.500    0.000    9.000    7.000    0.000 
#    0.000    0.000    0.000    0.000    0.000    0.000 
#    0.000   70.000    0.000    0.000    0.000    0.000 
#
# Total GULP energy -396530.389766 kJ/mol
# GULP energy per Si atom -12391.574680 kJ/mol
# Density = 1.875759 g / cm^3
# Si number density = 18.800378 Si / 1000 Ang^3
#
#
#
# Elastic Constant Matrix: (Units=GPa)
#
#
# Indices 1 2 3 4 5 6 
#
# 1 44.2080 21.9752 10.1232 0.0000 0.0000 0.0000
# 2 21.9752 73.2989 26.2478 0.0000 0.0000 0.0000
# 3 10.1232 26.2478 147.1220 0.0000 0.0000 0.0000
# 4 0.0000 0.0000 0.0000 27.1259 0.0000 0.0000
# 5 0.0000 0.0000 0.0000 0.0000 26.0093 0.0000
# 6 0.0000 0.0000 0.0000 0.0000 0.0000 22.7717
#
#
#
# Elastic Compliance Matrix: (Units=1/GPa)
#
#
# Indices 1 2 3 4 5 6 
#
# 1 0.026608 -0.007821 -0.000435 0.000000 0.000000 0.000000
# 2 -0.007821 0.016873 -0.002472 0.000000 0.000000 0.000000
# 3 -0.000435 -0.002472 0.007268 0.000000 0.000000 0.000000
# 4 0.000000 0.000000 0.000000 0.036865 0.000000 0.000000
# 5 0.000000 0.000000 0.000000 0.000000 0.038448 0.000000
# 6 0.000000 0.000000 0.000000 0.000000 0.000000 0.043914
#
#
# Mechanical properties :
#
#
# Convention : Reuss Voigt Hill
#
# Bulk Modulus (GPa) = 34.13984 42.36904 38.25444
# Shear Modulus (GPa) = 24.85125 28.93354 26.89240
#
# Velocity S-wave (km/s) = 3.63967 3.92725 3.78619
# Velocity P-wave (km/s) = 5.98844 6.56883 6.28534
#
# Compressibility (1/GPa) = 0.02929129
#
# Stress axis : x y z
#
# Youngs Moduli (GPa) = 37.58287 59.26698 137.58773
#
# Poissons Ratio (x) = 0.46354 0.05992
# Poissons Ratio (y) = 0.29394 0.34013
# Poissons Ratio (z) = 0.01637 0.14651
#
# Static dielectric constant tensor:
#      x y z
#    x 3.167810 0.000000 0.000000 
#    y 0.000000 3.654040 0.000000 
#    z 0.000000 0.000000 4.555640 
# 
# 
# High freq. dielectric constant tensor:
#      x y z
#    x 1.681820 0.000000 0.000000 
#    y 0.000000 1.702890 0.000000 
#    z 0.000000 0.000000 1.776100 
# 
# From -- ./inp_files/229.got.cif
#   From: 2010.03.12/outbox.cif.g09.slc.cpg/sg56_1_cif.got.tgz:229.got - 2010.04.16 15:33:40.
