data_PCOD8228381
_publ_section_title
;
Structure prediction by ZEFSAII (Michael W. Deem and Ramdas Pophale) SiO2 
 PCOD8228381
Probable space group: P C C N
;
_chemical_formula_sum "Si O2"
_cell_formula_units_Z 64
_cell_length_a 17.908811
_cell_length_b 19.036949
_cell_length_c 9.173977
_cell_angle_alpha 90.000000
_cell_angle_beta 90.000000
_cell_angle_gamma 90.000000
_cell_volume 3127.675921
_symmetry_space_group_name_H-M "P C C N"
_symmetry_group_IT_number 56
_symmetry_cell_setting 'orthorhombic'
loop_
_space_group_symop_operation_xyz
x,y,z
1/2-x,1/2-y,z
1/2+x,-y,1/2-z
-x,1/2+y,1/2-z
-x,-y,-z
1/2+x,1/2+y,-z
1/2-x,y,1/2+z
x,1/2-y,1/2+z
loop_
_atom_site_type_symbol
_atom_site_label
_atom_site_fract_x
_atom_site_fract_y
_atom_site_fract_z
Si Si1 0.665911 0.928593 0.298125
Si Si2 0.833708 0.309252 0.099514
Si Si3 0.106941 0.917031 0.203502
Si Si4 0.805715 0.547268 0.617714
Si Si5 0.186048 0.611629 0.418922
Si Si6 0.473046 0.398101 0.382610
Si Si7 0.545409 0.954985 0.805305
Si Si8 0.605169 0.188169 0.798013
O O1 0.678682 0.909190 0.468557
O O2 0.740346 0.913528 0.204985
O O3 0.597542 0.887047 0.224577
O O4 0.647696 0.009787 0.294177
O O5 0.873164 0.382161 0.142221
O O6 0.744249 0.323599 0.116141
O O7 0.881213 0.252004 0.188108
O O8 0.841017 0.294660 0.930540
O O9 0.017459 0.923903 0.195169
O O10 0.140847 0.872380 0.068625
O O11 0.780141 0.466889 0.580244
O O12 0.878303 0.546553 0.717637
O O13 0.128534 0.616388 0.284916
O O14 0.446085 0.406534 0.550110
O O15 0.522574 0.466160 0.346190
O O16 0.521343 0.326757 0.357026
#
# Coordination Sequence:
#
# PCOD8228381 Si02
#       8
#     8   8   8   8   8   8   8   8
#     4  10  22  34  59  91 128 156 196 257 321 385
#     4  12  24  41  56  83 115 171 216 262 300 360
#     4  10  21  37  58  87 119 164 211 257 311 369
#     4  11  21  35  59  92 126 161 197 252 320 385
#     4  11  23  35  57  82 126 164 214 254 298 364
#     4  10  21  38  59  87 120 160 209 268 318 378
#     4  10  20  36  62  87 120 161 209 262 327 379
#     4  12  25  40  60  82 119 168 219 261 304 359
#
# _framework density 20.462478999999998
#
# number of rings (size 3 to 8) (size 9 to 14) (size 15 to 20)
#    0.000    1.250    3.750    2.625    3.500    2.500 
#    0.000    0.000    0.000    0.000    0.000    0.875 
#    0.000    0.000    0.000    0.000    0.000    0.000 
#
# Total GULP energy -793083.466563 kJ/mol
# GULP energy per Si atom -12391.929165 kJ/mol
# Density = 2.041591 g / cm^3
# Si number density = 20.462479 Si / 1000 Ang^3
#
#
#
# Elastic Constant Matrix: (Units=GPa)
#
#
# Indices 1 2 3 4 5 6 
#
# 1 128.2741 23.1514 53.7130 0.0000 0.0000 0.0000
# 2 23.1514 28.2760 24.4657 0.0000 0.0000 0.0000
# 3 53.7130 24.4657 126.1114 0.0000 0.0000 0.0000
# 4 0.0000 0.0000 0.0000 16.9138 0.0000 0.0000
# 5 0.0000 0.0000 0.0000 0.0000 38.6873 0.0000
# 6 0.0000 0.0000 0.0000 0.0000 0.0000 30.8689
#
#
#
# Elastic Compliance Matrix: (Units=1/GPa)
#
#
# Indices 1 2 3 4 5 6 
#
# 1 0.010151 -0.005493 -0.003258 0.000000 0.000000 0.000000
# 2 -0.005493 0.045471 -0.006482 0.000000 0.000000 0.000000
# 3 -0.003258 -0.006482 0.010575 0.000000 0.000000 0.000000
# 4 0.000000 0.000000 0.000000 0.059123 0.000000 0.000000
# 5 0.000000 0.000000 0.000000 0.000000 0.025848 0.000000
# 6 0.000000 0.000000 0.000000 0.000000 0.000000 0.032395
#
#
# Mechanical properties :
#
#
# Convention : Reuss Voigt Hill
#
# Bulk Modulus (GPa) = 27.98614 53.92464 40.95539
# Shear Modulus (GPa) = 22.12974 29.38277 25.75625
#
# Velocity S-wave (km/s) = 3.29215 3.79348 3.55167
# Velocity P-wave (km/s) = 5.30637 6.75259 6.07269
#
# Compressibility (1/GPa) = 0.03573198
#
# Stress axis : x y z
#
# Youngs Moduli (GPa) = 98.50846 21.99185 94.56524
#
# Poissons Ratio (x) = 0.12079 0.30810
# Poissons Ratio (y) = 0.54106 0.61298
# Poissons Ratio (z) = 0.32095 0.14255
#
# Static dielectric constant tensor:
#      x y z
#    x 3.743750 0.000000 0.000000 
#    y 0.000000 3.290040 0.000000 
#    z 0.000000 0.000000 4.216380 
# 
# 
# High freq. dielectric constant tensor:
#      x y z
#    x 1.800100 0.000000 0.000000 
#    y 0.000000 1.747480 0.000000 
#    z 0.000000 0.000000 1.819850 
# 
# From -- ./inp_files/4279.got.cif
#   From: 2010.03.12/outbox.cif.g09.slc.cpg/sg56_3_cif.got.tgz:4279.got - 2010.04.16 15:33:40.
