data_PCOD8228846
_publ_section_title
;
Structure prediction by ZEFSAII (Michael W. Deem and Ramdas Pophale) SiO2 
 PCOD8228846
Probable space group: P C C N
;
_chemical_formula_sum "Si O2"
_cell_formula_units_Z 64
_cell_length_a 12.324107
_cell_length_b 17.463379
_cell_length_c 14.719312
_cell_angle_alpha 90.000000
_cell_angle_beta 90.000000
_cell_angle_gamma 90.000000
_cell_volume 3167.898445
_symmetry_space_group_name_H-M "P C C N"
_symmetry_group_IT_number 56
_symmetry_cell_setting 'orthorhombic'
loop_
_space_group_symop_operation_xyz
x,y,z
1/2-x,1/2-y,z
1/2+x,-y,1/2-z
-x,1/2+y,1/2-z
-x,-y,-z
1/2+x,1/2+y,-z
1/2-x,y,1/2+z
x,1/2-y,1/2+z
loop_
_atom_site_type_symbol
_atom_site_label
_atom_site_fract_x
_atom_site_fract_y
_atom_site_fract_z
Si Si1 0.426267 0.572073 0.178327
Si Si2 0.452736 0.806077 0.295763
Si Si3 0.053226 0.771544 0.100963
Si Si4 0.148350 0.405628 0.645720
Si Si5 0.323637 0.079650 0.298057
Si Si6 0.330254 0.184983 0.464716
Si Si7 0.749764 0.415334 0.170154
Si Si8 0.147855 0.795235 0.433384
O O1 0.414971 0.638254 0.101897
O O2 0.404887 0.489347 0.135148
O O3 0.547387 0.575735 0.221881
O O4 0.334519 0.592392 0.249259
O O5 0.447515 0.764474 0.199723
O O6 0.567002 0.849276 0.301936
O O7 0.357470 0.867689 0.306055
O O8 0.450590 0.739126 0.372552
O O9 0.939956 0.767895 0.049271
O O10 0.134214 0.720661 0.040122
O O11 0.260458 0.407128 0.703168
O O12 0.166929 0.378771 0.543072
O O13 0.295974 0.146567 0.369219
O O14 0.283415 0.002332 0.347109
O O15 0.250000 0.250000 0.497390
O O16 0.819062 0.384026 0.083159
O O17 0.250000 0.750000 0.393101
#
# Coordination Sequence:
#
# PCOD8228846 Si02
#       8
#     8   8   8   8   8   8   8   8
#     4  10  22  40  65  94 126 170 218 254 327 377
#     4  11  21  40  63  96 131 166 210 270 322 380
#     4  11  23  38  65  93 129 166 214 266 320 387
#     4  11  23  42  68  92 130 169 212 273 318 385
#     4  10  23  43  65  95 127 172 213 269 319 384
#     4  11  25  43  65  96 124 171 225 261 322 389
#     4  10  21  41  63  92 136 164 213 265 322 393
#     4  10  22  35  59  93 126 167 203 258 324 381
#
# _framework density 20.202667999999999
#
# number of rings (size 3 to 8) (size 9 to 14) (size 15 to 20)
#    0.000    1.500    3.750    0.750    1.750    7.500 
#    2.250    0.000    0.000    3.750    0.000    0.000 
#    0.000    0.000    0.000    0.000    0.000    0.000 
#
# Total GULP energy -793252.953757 kJ/mol
# GULP energy per Si atom -12394.577402 kJ/mol
# Density = 2.015669 g / cm^3
# Si number density = 20.202668 Si / 1000 Ang^3
#
#
#
# Elastic Constant Matrix: (Units=GPa)
#
#
# Indices 1 2 3 4 5 6 
#
# 1 83.6046 14.4089 15.8301 0.0000 0.0000 0.0000
# 2 14.4089 50.8135 9.3659 0.0000 0.0000 0.0000
# 3 15.8301 9.3659 88.2174 0.0000 0.0000 0.0000
# 4 0.0000 0.0000 0.0000 28.7523 0.0000 0.0000
# 5 0.0000 0.0000 0.0000 0.0000 22.1774 0.0000
# 6 0.0000 0.0000 0.0000 0.0000 0.0000 32.4554
#
#
#
# Elastic Compliance Matrix: (Units=1/GPa)
#
#
# Indices 1 2 3 4 5 6 
#
# 1 0.012901 -0.003296 -0.001965 0.000000 0.000000 0.000000
# 2 -0.003296 0.020915 -0.001629 0.000000 0.000000 0.000000
# 3 -0.001965 -0.001629 0.011861 0.000000 0.000000 0.000000
# 4 0.000000 0.000000 0.000000 0.034780 0.000000 0.000000
# 5 0.000000 0.000000 0.000000 0.000000 0.045091 0.000000
# 6 0.000000 0.000000 0.000000 0.000000 0.000000 0.030812
#
#
# Mechanical properties :
#
#
# Convention : Reuss Voigt Hill
#
# Bulk Modulus (GPa) = 31.35121 33.53835 32.44478
# Shear Modulus (GPa) = 27.65914 28.87907 28.26911
#
# Velocity S-wave (km/s) = 3.70413 3.78493 3.74475
# Velocity P-wave (km/s) = 5.81774 5.97812 5.89848
#
# Compressibility (1/GPa) = 0.03189669
#
# Stress axis : x y z
#
# Youngs Moduli (GPa) = 77.51205 47.81321 84.30843
#
# Poissons Ratio (x) = 0.15760 0.16567
# Poissons Ratio (y) = 0.25549 0.13734
# Poissons Ratio (z) = 0.15232 0.07789
#
# Static dielectric constant tensor:
#      x y z
#    x 3.853700 0.000000 0.000000 
#    y 0.000000 3.997670 0.000000 
#    z 0.000000 0.000000 3.421160 
# 
# 
# High freq. dielectric constant tensor:
#      x y z
#    x 1.796650 0.000000 0.000000 
#    y 0.000000 1.796590 0.000000 
#    z 0.000000 0.000000 1.777160 
# 
# From -- ./inp_files/11856.got.cif
#   From: 2010.03.12/outbox.cif.g09.slc.cpg/sg56_6_cif.got.tgz:11856.got - 2010.04.16 15:33:40.
