data_PCOD8228023
_publ_section_title
;
Structure prediction by ZEFSAII (Michael W. Deem and Ramdas Pophale) SiO2 
 PCOD8228023
Probable space group: P C C N
;
_chemical_formula_sum "Si O2"
_cell_formula_units_Z 56
_cell_length_a 14.603747
_cell_length_b 11.306615
_cell_length_c 15.152611
_cell_angle_alpha 90.000000
_cell_angle_beta 90.000000
_cell_angle_gamma 90.000000
_cell_volume 2501.983141
_symmetry_space_group_name_H-M "P C C N"
_symmetry_group_IT_number 56
_symmetry_cell_setting 'orthorhombic'
loop_
_space_group_symop_operation_xyz
x,y,z
1/2-x,1/2-y,z
1/2+x,-y,1/2-z
-x,1/2+y,1/2-z
-x,-y,-z
1/2+x,1/2+y,-z
1/2-x,y,1/2+z
x,1/2-y,1/2+z
loop_
_atom_site_type_symbol
_atom_site_label
_atom_site_fract_x
_atom_site_fract_y
_atom_site_fract_z
Si Si1 0.312422 0.634874 0.889535
Si Si2 0.178038 0.646275 0.580777
Si Si3 0.077849 0.031147 0.432164
Si Si4 0.025935 0.791940 0.356966
Si Si5 0.166494 0.339874 0.077841
Si Si6 0.300754 0.967343 0.211555
Si Si7 0.536057 0.287624 0.331140
O O1 0.250000 0.750000 0.874374
O O2 0.417064 0.675261 0.878221
O O3 0.285192 0.533407 0.817710
O O4 0.310385 0.577909 0.987426
O O5 0.250000 0.750000 0.574103
O O6 0.205140 0.564427 0.663290
O O7 0.075337 0.696512 0.595295
O O8 0.165268 0.071187 0.492246
O O9 0.049521 0.138766 0.368236
O O10 0.089634 0.908924 0.377434
O O11 0.000000 0.000000 0.500000
O O12 0.002293 0.788321 0.252676
O O13 0.933653 0.779584 0.415718
O O14 0.250000 0.250000 0.065770
O O15 0.172789 0.406010 0.172304
O O16 0.380194 0.873831 0.192207
#
# Coordination Sequence:
#
# PCOD8228023 Si02
#       7
#     8   8   8   8   8   8   8
#     4  10  20  35  62  98 123 157 221 279 335 382
#     4   9  18  31  58  92 122 153 204 281 322 382
#     4  10  19  38  70  88 119 178 221 257 331 402
#     4  10  21  38  65  97 122 172 223 273 324 403
#     4  11  24  43  63  90 134 180 223 267 330 413
#     4  10  19  37  59  91 127 167 214 274 329 390
#     4  10  18  37  65  95 122 160 227 276 327 392
#
# _framework density 22.382245000000001
#
# number of rings (size 3 to 8) (size 9 to 14) (size 15 to 20)
#    0.000    2.000    2.857    3.857    4.000    0.000 
#    5.143    2.143    0.000    2.571    0.000    0.000 
#    0.000    0.000    0.000    0.000    0.000    0.000 
#
# Total GULP energy -693781.144297 kJ/mol
# GULP energy per Si atom -12388.949005 kJ/mol
# Density = 2.233130 g / cm^3
# Si number density = 22.382245 Si / 1000 Ang^3
#
#
#
# Elastic Constant Matrix: (Units=GPa)
#
#
# Indices 1 2 3 4 5 6 
#
# 1 76.8289 31.7587 21.4408 0.0000 0.0000 0.0000
# 2 31.7587 67.8306 42.2688 0.0000 0.0000 0.0000
# 3 21.4408 42.2688 147.8588 0.0000 0.0000 0.0000
# 4 0.0000 0.0000 0.0000 38.0949 0.0000 0.0000
# 5 0.0000 0.0000 0.0000 0.0000 22.4288 0.0000
# 6 0.0000 0.0000 0.0000 0.0000 0.0000 31.0549
#
#
#
# Elastic Compliance Matrix: (Units=1/GPa)
#
#
# Indices 1 2 3 4 5 6 
#
# 1 0.016145 -0.007423 -0.000219 0.000000 0.000000 0.000000
# 2 -0.007423 0.021351 -0.005027 0.000000 0.000000 0.000000
# 3 -0.000219 -0.005027 0.008232 0.000000 0.000000 0.000000
# 4 0.000000 0.000000 0.000000 0.026250 0.000000 0.000000
# 5 0.000000 0.000000 0.000000 0.000000 0.044585 0.000000
# 6 0.000000 0.000000 0.000000 0.000000 0.000000 0.032201
#
#
# Mechanical properties :
#
#
# Convention : Reuss Voigt Hill
#
# Bulk Modulus (GPa) = 49.04408 53.71722 51.38065
# Shear Modulus (GPa) = 27.63954 31.45239 29.54597
#
# Velocity S-wave (km/s) = 3.51791 3.75272 3.63721
# Velocity P-wave (km/s) = 6.20165 6.54440 6.37533
#
# Compressibility (1/GPa) = 0.02038982
#
# Stress axis : x y z
#
# Youngs Moduli (GPa) = 61.93681 46.83684 121.47496
#
# Poissons Ratio (x) = 0.34766 0.02663
# Poissons Ratio (y) = 0.45974 0.61068
# Poissons Ratio (z) = 0.01358 0.23546
#
# Static dielectric constant tensor:
#      x y z
#    x 4.057040 0.000000 0.000000 
#    y 0.000000 3.813570 0.000000 
#    z 0.000000 0.000000 4.892130 
# 
# 
# High freq. dielectric constant tensor:
#      x y z
#    x 1.863390 0.000000 0.000000 
#    y 0.000000 1.834160 0.000000 
#    z 0.000000 0.000000 1.896650 
# 
# From -- ./inp_files/12278.got.cif
#   From: 2010.03.12/outbox.cif.g09.slc.cpg/sg56_7_cif.got.tgz:12278.got - 2010.04.16 15:33:40.
