data_PCOD8228468
_publ_section_title
;
Structure prediction by ZEFSAII (Michael W. Deem and Ramdas Pophale) SiO2 
 PCOD8228468
Probable space group: P C C N
;
_chemical_formula_sum "Si O2"
_cell_formula_units_Z 48
_cell_length_a 10.338454
_cell_length_b 26.218118
_cell_length_c 9.130597
_cell_angle_alpha 90.000000
_cell_angle_beta 90.000000
_cell_angle_gamma 90.000000
_cell_volume 2474.892207
_symmetry_space_group_name_H-M "P C C N"
_symmetry_group_IT_number 56
_symmetry_cell_setting 'orthorhombic'
loop_
_space_group_symop_operation_xyz
x,y,z
1/2-x,1/2-y,z
1/2+x,-y,1/2-z
-x,1/2+y,1/2-z
-x,-y,-z
1/2+x,1/2+y,-z
1/2-x,y,1/2+z
x,1/2-y,1/2+z
loop_
_atom_site_type_symbol
_atom_site_label
_atom_site_fract_x
_atom_site_fract_y
_atom_site_fract_z
Si Si1 0.246878 0.030602 0.837957
Si Si2 0.383631 0.300887 0.943990
Si Si3 0.739460 0.041773 0.912829
Si Si4 0.503054 0.590882 0.047343
Si Si5 0.491662 0.405717 0.292951
Si Si6 0.886679 0.701742 0.212972
O O1 0.114150 0.057869 0.878351
O O2 0.365261 0.068927 0.864851
O O3 0.239159 0.012602 0.670394
O O4 0.266410 0.976572 0.919824
O O5 0.476371 0.349269 0.922236
O O6 0.247365 0.312016 0.866491
O O7 0.448069 0.252067 0.862917
O O8 0.361055 0.288919 0.115072
O O9 0.617001 0.076643 0.879610
O O10 0.867391 0.074940 0.880992
O O11 0.500691 0.578042 0.875770
O O12 0.484934 0.344769 0.310314
#
# Coordination Sequence:
#
# PCOD8228468 Si02
#       6
#     8   8   8   8   8   8
#     4  12  22  41  64  86 122 163 205 247 291 353
#     4  10  20  38  62  88 119 151 194 252 298 351
#     4  12  24  41  60  88 126 163 199 249 294 354
#     4  11  23  42  61  89 127 157 199 252 300 351
#     4  11  23  41  62  91 121 160 203 246 300 358
#     4  10  20  38  61  89 119 149 197 249 297 357
#
# _framework density 19.394784999999999
#
# number of rings (size 3 to 8) (size 9 to 14) (size 15 to 20)
#    0.000    1.000    5.000    4.000    0.000    0.000 
#    9.000    0.833    0.000    4.000    0.000    0.000 
#    0.000    0.000    0.000    0.000    0.000    0.000 
#
# Total GULP energy -595285.854409 kJ/mol
# GULP energy per Si atom -12401.788634 kJ/mol
# Density = 1.935064 g / cm^3
# Si number density = 19.394785 Si / 1000 Ang^3
#
#
#
# Elastic Constant Matrix: (Units=GPa)
#
#
# Indices 1 2 3 4 5 6 
#
# 1 91.9252 34.2364 15.3912 0.0000 0.0000 0.0000
# 2 34.2364 106.7033 30.2749 0.0000 0.0000 0.0000
# 3 15.3912 30.2749 67.5020 0.0000 0.0000 0.0000
# 4 0.0000 0.0000 0.0000 35.4093 0.0000 0.0000
# 5 0.0000 0.0000 0.0000 0.0000 22.9482 0.0000
# 6 0.0000 0.0000 0.0000 0.0000 0.0000 18.8453
#
#
#
# Elastic Compliance Matrix: (Units=1/GPa)
#
#
# Indices 1 2 3 4 5 6 
#
# 1 0.012439 -0.003651 -0.001199 0.000000 0.000000 0.000000
# 2 -0.003651 0.011810 -0.004464 0.000000 0.000000 0.000000
# 3 -0.001199 -0.004464 0.017090 0.000000 0.000000 0.000000
# 4 0.000000 0.000000 0.000000 0.028241 0.000000 0.000000
# 5 0.000000 0.000000 0.000000 0.000000 0.043576 0.000000
# 6 0.000000 0.000000 0.000000 0.000000 0.000000 0.053064
#
#
# Mechanical properties :
#
#
# Convention : Reuss Voigt Hill
#
# Bulk Modulus (GPa) = 44.03213 47.32616 45.67915
# Shear Modulus (GPa) = 25.98505 27.85574 26.92040
#
# Velocity S-wave (km/s) = 3.66429 3.79390 3.72966
# Velocity P-wave (km/s) = 6.37613 6.60651 6.49235
#
# Compressibility (1/GPa) = 0.02271069
#
# Stress axis : x y z
#
# Youngs Moduli (GPa) = 80.39307 84.67485 58.51392
#
# Poissons Ratio (x) = 0.30915 0.07014
# Poissons Ratio (y) = 0.29351 0.26122
# Poissons Ratio (z) = 0.09637 0.37801
#
# Static dielectric constant tensor:
#      x y z
#    x 3.325550 0.000000 0.000000 
#    y 0.000000 3.698190 0.000000 
#    z 0.000000 0.000000 3.665960 
# 
# 
# High freq. dielectric constant tensor:
#      x y z
#    x 1.735860 0.000000 0.000000 
#    y 0.000000 1.765670 0.000000 
#    z 0.000000 0.000000 1.765630 
# 
# From -- ./inp_files/2232.got.cif
#   From: 2010.03.12/outbox.cif.g09.slc.cpg/sg56_2_cif.got.tgz:2232.got - 2010.04.16 15:33:40.
