data_PCOD8228413
_publ_section_title
;
Structure prediction by ZEFSAII (Michael W. Deem and Ramdas Pophale) SiO2 
 PCOD8228413
Probable space group: P C C N
;
_chemical_formula_sum "Si O2"
_cell_formula_units_Z 48
_cell_length_a 11.544907
_cell_length_b 17.751663
_cell_length_c 12.822146
_cell_angle_alpha 90.000000
_cell_angle_beta 90.000000
_cell_angle_gamma 90.000000
_cell_volume 2627.787250
_symmetry_space_group_name_H-M "P C C N"
_symmetry_group_IT_number 56
_symmetry_cell_setting 'orthorhombic'
loop_
_space_group_symop_operation_xyz
x,y,z
1/2-x,1/2-y,z
1/2+x,-y,1/2-z
-x,1/2+y,1/2-z
-x,-y,-z
1/2+x,1/2+y,-z
1/2-x,y,1/2+z
x,1/2-y,1/2+z
loop_
_atom_site_type_symbol
_atom_site_label
_atom_site_fract_x
_atom_site_fract_y
_atom_site_fract_z
Si Si1 0.125877 0.220550 0.619210
Si Si2 0.094974 0.520126 0.414283
Si Si3 0.547541 0.869560 0.276662
Si Si4 0.804456 0.927923 0.270346
Si Si5 0.971785 0.880465 0.544715
Si Si6 0.327244 0.988140 0.021690
O O1 0.250000 0.250000 0.579712
O O2 0.060198 0.287162 0.676329
O O3 0.136508 0.150703 0.698367
O O4 0.052300 0.196042 0.518515
O O5 0.134791 0.451851 0.338168
O O6 0.206664 0.544895 0.480520
O O7 0.000000 0.500000 0.500000
O O8 0.046956 0.588154 0.345937
O O9 0.666239 0.916664 0.266552
O O10 0.496997 0.857916 0.161748
O O11 0.826742 0.993689 0.354909
O O12 0.079175 0.924586 0.493869
O O13 0.858375 0.934292 0.538770
#
# Coordination Sequence:
#
# PCOD8228413 Si02
#       6
#     8   8   8   8   8   8
#     4   9  22  37  58  88 123 159 205 251 311 361
#     4  12  23  35  63  95 126 155 212 261 297 368
#     4  11  21  37  60  89 120 159 200 253 306 359
#     4  10  20  38  57  89 122 158 201 249 306 362
#     4  10  20  37  63  81 118 163 199 247 309 369
#     4  10  20  37  59  88 118 160 200 252 306 362
#
# _framework density 18.26632
#
# number of rings (size 3 to 8) (size 9 to 14) (size 15 to 20)
#    0.000    1.667    5.000    0.000    0.000    3.333 
#    0.000    0.833    0.000    2.000    0.000    0.000 
#    0.000    0.000    0.000    0.000    0.000    0.000 
#
# Total GULP energy -595129.167894 kJ/mol
# GULP energy per Si atom -12398.524331 kJ/mol
# Density = 1.822474 g / cm^3
# Si number density = 18.266320 Si / 1000 Ang^3
#
#
#
# Elastic Constant Matrix: (Units=GPa)
#
#
# Indices 1 2 3 4 5 6 
#
# 1 101.0759 44.6174 46.6222 0.0000 0.0000 0.0000
# 2 44.6174 94.6796 51.9240 0.0000 0.0000 0.0000
# 3 46.6222 51.9240 124.2848 0.0000 0.0000 0.0000
# 4 0.0000 0.0000 0.0000 29.6708 0.0000 0.0000
# 5 0.0000 0.0000 0.0000 0.0000 31.6140 0.0000
# 6 0.0000 0.0000 0.0000 0.0000 0.0000 28.7577
#
#
#
# Elastic Compliance Matrix: (Units=1/GPa)
#
#
# Indices 1 2 3 4 5 6 
#
# 1 0.013346 -0.004597 -0.003086 0.000000 0.000000 0.000000
# 2 -0.004597 0.015284 -0.004661 0.000000 0.000000 0.000000
# 3 -0.003086 -0.004661 0.011151 0.000000 0.000000 0.000000
# 4 0.000000 0.000000 0.000000 0.033703 0.000000 0.000000
# 5 0.000000 0.000000 0.000000 0.000000 0.031632 0.000000
# 6 0.000000 0.000000 0.000000 0.000000 0.000000 0.034773
#
#
# Mechanical properties :
#
#
# Convention : Reuss Voigt Hill
#
# Bulk Modulus (GPa) = 66.25344 67.37416 66.81380
# Shear Modulus (GPa) = 29.47956 29.80027 29.63992
#
# Velocity S-wave (km/s) = 4.02166 4.04348 4.03259
# Velocity P-wave (km/s) = 7.61016 7.66577 7.63802
#
# Compressibility (1/GPa) = 0.01509356
#
# Stress axis : x y z
#
# Youngs Moduli (GPa) = 74.92774 65.42577 89.67802
#
# Poissons Ratio (x) = 0.30076 0.27674
# Poissons Ratio (y) = 0.34444 0.41800
# Poissons Ratio (z) = 0.23122 0.30496
#
# Static dielectric constant tensor:
#      x y z
#    x 3.374400 0.000000 0.000000 
#    y 0.000000 3.310170 0.000000 
#    z 0.000000 0.000000 3.502810 
# 
# 
# High freq. dielectric constant tensor:
#      x y z
#    x 1.701910 0.000000 0.000000 
#    y 0.000000 1.690110 0.000000 
#    z 0.000000 0.000000 1.719820 
# 
# From -- ./inp_files/7135.got.cif
#   From: 2010.03.12/outbox.cif.g09.slc.cpg/sg56_4_cif.got.tgz:7135.got - 2010.04.16 15:33:40.
