data_PCOD8228587
_publ_section_title
;
Structure prediction by ZEFSAII (Michael W. Deem and Ramdas Pophale) SiO2 
 PCOD8228587
Probable space group: P C C N
;
_chemical_formula_sum "Si O2"
_cell_formula_units_Z 52
_cell_length_a 13.903527
_cell_length_b 18.047618
_cell_length_c 9.095068
_cell_angle_alpha 90.000000
_cell_angle_beta 90.000000
_cell_angle_gamma 90.000000
_cell_volume 2282.184887
_symmetry_space_group_name_H-M "P C C N"
_symmetry_group_IT_number 56
_symmetry_cell_setting 'orthorhombic'
loop_
_space_group_symop_operation_xyz
x,y,z
1/2-x,1/2-y,z
1/2+x,-y,1/2-z
-x,1/2+y,1/2-z
-x,-y,-z
1/2+x,1/2+y,-z
1/2-x,y,1/2+z
x,1/2-y,1/2+z
loop_
_atom_site_type_symbol
_atom_site_label
_atom_site_fract_x
_atom_site_fract_y
_atom_site_fract_z
Si Si1 0.443993 0.813749 0.438055
Si Si2 0.182373 0.087670 0.656676
Si Si3 0.474636 0.314409 0.752364
Si Si4 0.853026 0.949668 0.665255
Si Si5 0.920777 0.435784 0.789205
Si Si6 0.641663 0.388444 0.600991
Si Si7 0.250000 0.750000 0.429482
O O1 0.516752 0.820840 0.571940
O O2 0.495435 0.766094 0.309552
O O3 0.411537 0.891198 0.364512
O O4 0.348340 0.774962 0.511537
O O5 0.294906 0.088186 0.701943
O O6 0.178377 0.091360 0.482280
O O7 0.134850 0.163540 0.716818
O O8 0.128015 0.016036 0.725468
O O9 0.538536 0.377039 0.674575
O O10 0.966503 0.945680 0.680765
O O11 0.816684 0.034565 0.658784
O O12 0.871556 0.390397 0.923575
O O13 0.715034 0.323760 0.658107
#
# Coordination Sequence:
#
# PCOD8228587 Si02
#       7
#     8   8   8   8   8   8   4
#     4  11  25  38  68  95 136 174 220 279 343 407
#     4  11  24  43  69  96 132 174 228 278 331 406
#     4  11  23  43  64  94 133 178 213 278 342 401
#     4  11  23  41  70  97 133 180 227 275 336 400
#     4  11  22  44  67  98 136 180 216 277 345 399
#     4  10  20  41  64  95 141 174 208 277 342 399
#     4  10  22  38  62 102 132 168 222 268 344 416
#
# _framework density 22.785183
#
# number of rings (size 3 to 8) (size 9 to 14) (size 15 to 20)
#    0.000    1.231    3.077    3.692    2.154    9.846 
#    0.000    0.769    0.000    0.000    0.000    0.000 
#    0.000    0.000    0.000    0.000    0.000    0.000 
#
# Total GULP energy -644420.976590 kJ/mol
# GULP energy per Si atom -12392.711088 kJ/mol
# Density = 2.273332 g / cm^3
# Si number density = 22.785183 Si / 1000 Ang^3
#
#
#
# Elastic Constant Matrix: (Units=GPa)
#
#
# Indices 1 2 3 4 5 6 
#
# 1 77.5425 12.4405 -6.9349 0.0000 0.0000 0.0000
# 2 12.4405 66.0610 6.3893 0.0000 0.0000 0.0000
# 3 -6.9349 6.3893 72.2038 0.0000 0.0000 0.0000
# 4 0.0000 0.0000 0.0000 21.6437 0.0000 0.0000
# 5 0.0000 0.0000 0.0000 0.0000 7.9505 0.0000
# 6 0.0000 0.0000 0.0000 0.0000 0.0000 34.9770
#
#
#
# Elastic Compliance Matrix: (Units=1/GPa)
#
#
# Indices 1 2 3 4 5 6 
#
# 1 0.013464 -0.002683 0.001531 0.000000 0.000000 0.000000
# 2 -0.002683 0.015803 -0.001656 0.000000 0.000000 0.000000
# 3 0.001531 -0.001656 0.014143 0.000000 0.000000 0.000000
# 4 0.000000 0.000000 0.000000 0.046203 0.000000 0.000000
# 5 0.000000 0.000000 0.000000 0.000000 0.125778 0.000000
# 6 0.000000 0.000000 0.000000 0.000000 0.000000 0.028590
#
#
# Mechanical properties :
#
#
# Convention : Reuss Voigt Hill
#
# Bulk Modulus (GPa) = 26.46076 26.62189 26.54133
# Shear Modulus (GPa) = 19.06969 26.50840 22.78905
#
# Velocity S-wave (km/s) = 2.89612 3.41457 3.16598
# Velocity P-wave (km/s) = 4.77721 5.22063 5.00383
#
# Compressibility (1/GPa) = 0.03779180
#
# Stress axis : x y z
#
# Youngs Moduli (GPa) = 74.27455 63.27897 70.70514
#
# Poissons Ratio (x) = 0.16981 -0.10822
# Poissons Ratio (y) = 0.19931 0.11710
# Poissons Ratio (z) = -0.11368 0.10480
#
# Static dielectric constant tensor:
#      x y z
#    x 4.111950 0.000000 0.000000 
#    y 0.000000 4.149940 0.000000 
#    z 0.000000 0.000000 3.754930 
# 
# 
# High freq. dielectric constant tensor:
#      x y z
#    x 1.900290 0.000000 0.000000 
#    y 0.000000 1.897120 0.000000 
#    z 0.000000 0.000000 1.876900 
# 
# From -- ./inp_files/3514.got.cif
#   From: 2010.03.12/outbox.cif.g09.slc.cpg/sg56_2_cif.got.tgz:3514.got - 2010.04.16 15:33:40.
