data_PCOD8228159
_publ_section_title
;
Structure prediction by ZEFSAII (Michael W. Deem and Ramdas Pophale) SiO2 
 PCOD8228159
Probable space group: P C C N
;
_chemical_formula_sum "Si O2"
_cell_formula_units_Z 48
_cell_length_a 8.419618
_cell_length_b 17.819295
_cell_length_c 15.593544
_cell_angle_alpha 90.000000
_cell_angle_beta 90.000000
_cell_angle_gamma 90.000000
_cell_volume 2339.525244
_symmetry_space_group_name_H-M "P C C N"
_symmetry_group_IT_number 56
_symmetry_cell_setting 'orthorhombic'
loop_
_space_group_symop_operation_xyz
x,y,z
1/2-x,1/2-y,z
1/2+x,-y,1/2-z
-x,1/2+y,1/2-z
-x,-y,-z
1/2+x,1/2+y,-z
1/2-x,y,1/2+z
x,1/2-y,1/2+z
loop_
_atom_site_type_symbol
_atom_site_label
_atom_site_fract_x
_atom_site_fract_y
_atom_site_fract_z
Si Si1 0.195490 0.827855 0.386633
Si Si2 0.164936 0.971229 0.816396
Si Si3 0.092443 0.208526 0.511209
Si Si4 0.819494 0.017962 0.856809
Si Si5 0.079419 0.651051 0.543782
Si Si6 0.232327 0.433927 0.475583
O O1 0.250000 0.750000 0.344704
O O2 0.245904 0.891287 0.320264
O O3 0.277604 0.844357 0.477690
O O4 0.008229 0.818088 0.405995
O O5 0.977310 0.970458 0.833650
O O6 0.195827 0.997763 0.719378
O O7 0.250193 0.022989 0.886497
O O8 0.250000 0.250000 0.546567
O O9 0.141917 0.133070 0.462286
O O10 0.994628 0.264579 0.446179
O O11 0.733840 0.987503 0.943097
O O12 0.859315 0.107793 0.870185
O O13 0.944530 0.596429 0.506007
#
# Coordination Sequence:
#
# PCOD8228159 Si02
#       6
#     8   8   8   8   8   8
#     4  10  19  36  59  83 115 157 202 242 304 371
#     4  11  23  38  59  91 120 165 205 249 313 371
#     4   9  20  33  62  89 113 156 207 251 312 361
#     4  11  22  38  62  88 126 158 207 257 309 371
#     4   9  17  39  61  82 116 163 196 246 311 367
#     4  10  19  39  63  85 121 159 199 263 306 361
#
# _framework density 20.516981999999999
#
# number of rings (size 3 to 8) (size 9 to 14) (size 15 to 20)
#    0.000    2.000    3.333    1.000    2.333    2.000 
#    0.000    4.167    0.000    0.000    0.000    0.000 
#    0.000    0.000    0.000    0.000    0.000    0.000 
#
# Total GULP energy -594729.623669 kJ/mol
# GULP energy per Si atom -12390.200493 kJ/mol
# Density = 2.047028 g / cm^3
# Si number density = 20.516982 Si / 1000 Ang^3
#
#
#
# Elastic Constant Matrix: (Units=GPa)
#
#
# Indices 1 2 3 4 5 6 
#
# 1 43.8009 17.4879 11.0656 0.0000 0.0000 0.0000
# 2 17.4879 108.3617 30.9897 0.0000 0.0000 0.0000
# 3 11.0656 30.9897 98.7500 0.0000 0.0000 0.0000
# 4 0.0000 0.0000 0.0000 12.1402 0.0000 0.0000
# 5 0.0000 0.0000 0.0000 0.0000 23.8138 0.0000
# 6 0.0000 0.0000 0.0000 0.0000 0.0000 21.4618
#
#
#
# Elastic Compliance Matrix: (Units=1/GPa)
#
#
# Indices 1 2 3 4 5 6 
#
# 1 0.024649 -0.003502 -0.001663 0.000000 0.000000 0.000000
# 2 -0.003502 0.010636 -0.002945 0.000000 0.000000 0.000000
# 3 -0.001663 -0.002945 0.011237 0.000000 0.000000 0.000000
# 4 0.000000 0.000000 0.000000 0.082371 0.000000 0.000000
# 5 0.000000 0.000000 0.000000 0.000000 0.041992 0.000000
# 6 0.000000 0.000000 0.000000 0.000000 0.000000 0.046594
#
#
# Mechanical properties :
#
#
# Convention : Reuss Voigt Hill
#
# Bulk Modulus (GPa) = 33.00235 41.11100 37.05668
# Shear Modulus (GPa) = 20.50849 24.24113 22.37481
#
# Velocity S-wave (km/s) = 3.16505 3.44105 3.30593
# Velocity P-wave (km/s) = 5.42928 5.98906 5.71602
#
# Compressibility (1/GPa) = 0.03030087
#
# Stress axis : x y z
#
# Youngs Moduli (GPa) = 40.56948 94.02124 88.98998
#
# Poissons Ratio (x) = 0.32930 0.14799
# Poissons Ratio (y) = 0.14209 0.26210
# Poissons Ratio (z) = 0.06747 0.27692
#
# Static dielectric constant tensor:
#      x y z
#    x 3.736750 0.000000 0.000000 
#    y 0.000000 4.283030 0.000000 
#    z 0.000000 0.000000 3.275340 
# 
# 
# High freq. dielectric constant tensor:
#      x y z
#    x 1.804000 0.000000 0.000000 
#    y 0.000000 1.815730 0.000000 
#    z 0.000000 0.000000 1.755500 
# 
# From -- ./inp_files/10620.got.cif
#   From: 2010.03.12/outbox.cif.g09.slc.cpg/sg56_6_cif.got.tgz:10620.got - 2010.04.16 15:33:40.
