data_PCOD8228365
_publ_section_title
;
Structure prediction by ZEFSAII (Michael W. Deem and Ramdas Pophale) SiO2 
 PCOD8228365
Probable space group: P C C N
;
_chemical_formula_sum "Si O2"
_cell_formula_units_Z 44
_cell_length_a 16.321629
_cell_length_b 16.424582
_cell_length_c 8.789004
_cell_angle_alpha 90.000000
_cell_angle_beta 90.000000
_cell_angle_gamma 90.000000
_cell_volume 2356.120455
_symmetry_space_group_name_H-M "P C C N"
_symmetry_group_IT_number 56
_symmetry_cell_setting 'orthorhombic'
loop_
_space_group_symop_operation_xyz
x,y,z
1/2-x,1/2-y,z
1/2+x,-y,1/2-z
-x,1/2+y,1/2-z
-x,-y,-z
1/2+x,1/2+y,-z
1/2-x,y,1/2+z
x,1/2-y,1/2+z
loop_
_atom_site_type_symbol
_atom_site_label
_atom_site_fract_x
_atom_site_fract_y
_atom_site_fract_z
Si Si1 0.266713 0.507222 0.282939
Si Si2 0.814937 0.112322 0.462096
Si Si3 0.131283 0.029592 0.005533
Si Si4 0.081823 0.774252 0.705062
Si Si5 0.971769 0.366388 0.503924
Si Si6 0.750000 0.250000 0.137584
O O1 0.328396 0.541008 0.413897
O O2 0.320655 0.454905 0.164912
O O3 0.194879 0.456159 0.366636
O O4 0.221798 0.580857 0.195971
O O5 0.900438 0.159384 0.429416
O O6 0.744849 0.171520 0.528973
O O7 0.096537 0.937207 0.002857
O O8 0.061309 0.095646 0.988361
O O9 0.035893 0.696250 0.636341
O O10 0.169511 0.743328 0.761302
O O11 0.030434 0.816850 0.838095
#
# Coordination Sequence:
#
# PCOD8228365 Si02
#       6
#     8   8   8   8   8   4
#     4  10  20  36  59  82 114 156 203 234 275 350
#     4  11  19  28  51  88 113 150 184 233 283 346
#     4  10  22  42  59  85 117 163 195 240 292 346
#     4  12  22  33  54  89 122 157 187 232 299 355
#     4  11  24  38  57  87 132 151 185 244 305 353
#     4  12  20  26  52  84 128 146 182 222 284 374
#
# _framework density 18.674768
#
# number of rings (size 3 to 8) (size 9 to 14) (size 15 to 20)
#    0.000    1.091    5.455    2.727    2.545    0.000 
#    0.000    4.545    0.000    3.273    0.000    0.000 
#    0.000    0.000    0.000    0.000    0.000    0.000 
#
# Total GULP energy -545414.586088 kJ/mol
# GULP energy per Si atom -12395.786047 kJ/mol
# Density = 1.863226 g / cm^3
# Si number density = 18.674768 Si / 1000 Ang^3
#
#
#
# Elastic Constant Matrix: (Units=GPa)
#
#
# Indices 1 2 3 4 5 6 
#
# 1 104.3719 53.9124 60.9942 0.0000 0.0000 0.0000
# 2 53.9124 75.5675 48.7892 0.0000 0.0000 0.0000
# 3 60.9942 48.7892 130.4820 0.0000 0.0000 0.0000
# 4 0.0000 0.0000 0.0000 18.6408 0.0000 0.0000
# 5 0.0000 0.0000 0.0000 0.0000 27.6663 0.0000
# 6 0.0000 0.0000 0.0000 0.0000 0.0000 38.0811
#
#
#
# Elastic Compliance Matrix: (Units=1/GPa)
#
#
# Indices 1 2 3 4 5 6 
#
# 1 0.016955 -0.009200 -0.004485 0.000000 0.000000 0.000000
# 2 -0.009200 0.022437 -0.004089 0.000000 0.000000 0.000000
# 3 -0.004485 -0.004089 0.011290 0.000000 0.000000 0.000000
# 4 0.000000 0.000000 0.000000 0.053646 0.000000 0.000000
# 5 0.000000 0.000000 0.000000 0.000000 0.036145 0.000000
# 6 0.000000 0.000000 0.000000 0.000000 0.000000 0.026260
#
#
# Mechanical properties :
#
#
# Convention : Reuss Voigt Hill
#
# Bulk Modulus (GPa) = 66.08426 70.86810 68.47618
# Shear Modulus (GPa) = 24.11684 26.65934 25.38809
#
# Velocity S-wave (km/s) = 3.59752 3.78240 3.69112
# Velocity P-wave (km/s) = 7.26085 7.55688 7.41034
#
# Compressibility (1/GPa) = 0.01513220
#
# Stress axis : x y z
#
# Youngs Moduli (GPa) = 58.98122 44.56978 88.57773
#
# Poissons Ratio (x) = 0.41004 0.39731
# Poissons Ratio (y) = 0.54263 0.36218
# Poissons Ratio (z) = 0.26456 0.18224
#
# Static dielectric constant tensor:
#      x y z
#    x 3.180440 0.000000 0.000000 
#    y 0.000000 3.166450 0.000000 
#    z 0.000000 0.000000 3.770740 
# 
# 
# High freq. dielectric constant tensor:
#      x y z
#    x 1.689810 0.000000 0.000000 
#    y 0.000000 1.690950 0.000000 
#    z 0.000000 0.000000 1.751710 
# 
# From -- ./inp_files/3323.got.cif
#   From: 2010.03.12/outbox.cif.g09.slc.cpg/sg56_2_cif.got.tgz:3323.got - 2010.04.16 15:33:40.
