data_PCOD8228847
_publ_section_title
;
Structure prediction by ZEFSAII (Michael W. Deem and Ramdas Pophale) SiO2 
 PCOD8228847
Probable space group: P C C N
;
_chemical_formula_sum "Si O2"
_cell_formula_units_Z 48
_cell_length_a 8.261751
_cell_length_b 9.249631
_cell_length_c 29.380483
_cell_angle_alpha 90.000000
_cell_angle_beta 90.000000
_cell_angle_gamma 90.000000
_cell_volume 2245.202103
_symmetry_space_group_name_H-M "P C C N"
_symmetry_group_IT_number 56
_symmetry_cell_setting 'orthorhombic'
loop_
_space_group_symop_operation_xyz
x,y,z
1/2-x,1/2-y,z
1/2+x,-y,1/2-z
-x,1/2+y,1/2-z
-x,-y,-z
1/2+x,1/2+y,-z
1/2-x,y,1/2+z
x,1/2-y,1/2+z
loop_
_atom_site_type_symbol
_atom_site_label
_atom_site_fract_x
_atom_site_fract_y
_atom_site_fract_z
Si Si1 0.375112 0.958468 0.282334
Si Si2 0.894436 0.355945 0.113273
Si Si3 0.669850 0.891889 0.626179
Si Si4 0.915361 0.816885 0.962972
Si Si5 0.018816 0.846272 0.289562
Si Si6 0.899986 0.357987 0.445435
O O1 0.193515 0.907100 0.277863
O O2 0.496079 0.822906 0.277247
O O3 0.413702 0.027028 0.331700
O O4 0.391135 0.069901 0.241019
O O5 0.750000 0.250000 0.129008
O O6 0.804159 0.506752 0.100457
O O7 0.013439 0.374542 0.156631
O O8 0.999044 0.290425 0.072643
O O9 0.750000 0.750000 0.647457
O O10 0.540701 0.829686 0.590527
O O11 0.750000 0.750000 0.981696
O O12 0.862992 0.970589 0.941122
O O13 0.042800 0.828847 0.003416
O O14 0.750000 0.250000 0.434633
#
# Coordination Sequence:
#
# PCOD8228847 Si02
#       6
#     8   8   8   8   8   8
#     4  10  22  41  63  92 129 169 218 265 323 390
#     4  11  20  46  69  88 132 180 221 268 330 404
#     4  11  24  43  68  96 130 176 224 277 336 391
#     4  11  25  43  69  96 129 175 220 266 329 402
#     4  10  21  41  63  93 127 173 215 267 323 384
#     4  11  25  44  65  99 134 167 217 278 329 389
#
# _framework density 21.378923
#
# number of rings (size 3 to 8) (size 9 to 14) (size 15 to 20)
#    0.000    1.333    5.000    1.000    9.333    0.667 
#    9.000    0.000    0.000    0.000    0.000    0.000 
#    0.000    0.000    0.000    0.000    0.000    0.000 
#
# Total GULP energy -595051.869396 kJ/mol
# GULP energy per Si atom -12396.913946 kJ/mol
# Density = 2.133026 g / cm^3
# Si number density = 21.378923 Si / 1000 Ang^3
#
#
#
# Elastic Constant Matrix: (Units=GPa)
#
#
# Indices 1 2 3 4 5 6 
#
# 1 60.3991 50.0179 36.3335 0.0000 0.0000 0.0000
# 2 50.0179 142.6694 50.8169 0.0000 0.0000 0.0000
# 3 36.3335 50.8169 117.7882 0.0000 0.0000 0.0000
# 4 0.0000 0.0000 0.0000 37.9306 0.0000 0.0000
# 5 0.0000 0.0000 0.0000 0.0000 21.5718 0.0000
# 6 0.0000 0.0000 0.0000 0.0000 0.0000 44.8203
#
#
#
# Elastic Compliance Matrix: (Units=1/GPa)
#
#
# Indices 1 2 3 4 5 6 
#
# 1 0.025365 -0.007214 -0.004712 0.000000 0.000000 0.000000
# 2 -0.007214 0.010334 -0.002233 0.000000 0.000000 0.000000
# 3 -0.004712 -0.002233 0.010907 0.000000 0.000000 0.000000
# 4 0.000000 0.000000 0.000000 0.026364 0.000000 0.000000
# 5 0.000000 0.000000 0.000000 0.000000 0.046357 0.000000
# 6 0.000000 0.000000 0.000000 0.000000 0.000000 0.022311
#
#
# Mechanical properties :
#
#
# Convention : Reuss Voigt Hill
#
# Bulk Modulus (GPa) = 54.68222 66.13258 60.40740
# Shear Modulus (GPa) = 28.40070 33.11045 30.75557
#
# Velocity S-wave (km/s) = 3.64874 3.93968 3.79699
# Velocity P-wave (km/s) = 6.58667 7.18995 6.89491
#
# Compressibility (1/GPa) = 0.01828748
#
# Stress axis : x y z
#
# Youngs Moduli (GPa) = 39.42371 96.76963 91.68790
#
# Poissons Ratio (x) = 0.69814 0.43202
# Poissons Ratio (y) = 0.28442 0.20473
# Poissons Ratio (z) = 0.18576 0.21607
#
# Static dielectric constant tensor:
#      x y z
#    x 3.689280 0.000000 0.000000 
#    y 0.000000 4.316450 0.000000 
#    z 0.000000 0.000000 3.768880 
# 
# 
# High freq. dielectric constant tensor:
#      x y z
#    x 1.815920 0.000000 0.000000 
#    y 0.000000 1.860610 0.000000 
#    z 0.000000 0.000000 1.838260 
# 
# From -- ./inp_files/23194.got.cif
#   From: 2010.03.12/outbox.cif.g09.slc.cpg/sg56_12_cif.got.tgz:23194.got - 2010.04.16 15:33:40.
