data_PCOD8228733
_publ_section_title
;
Structure prediction by ZEFSAII (Michael W. Deem and Ramdas Pophale) SiO2 
 PCOD8228733
Probable space group: P C C N
;
_chemical_formula_sum "Si O2"
_cell_formula_units_Z 48
_cell_length_a 27.718979
_cell_length_b 8.474730
_cell_length_c 9.387417
_cell_angle_alpha 90.000000
_cell_angle_beta 90.000000
_cell_angle_gamma 90.000000
_cell_volume 2205.206228
_symmetry_space_group_name_H-M "P C C N"
_symmetry_group_IT_number 56
_symmetry_cell_setting 'orthorhombic'
loop_
_space_group_symop_operation_xyz
x,y,z
1/2-x,1/2-y,z
1/2+x,-y,1/2-z
-x,1/2+y,1/2-z
-x,-y,-z
1/2+x,1/2+y,-z
1/2-x,y,1/2+z
x,1/2-y,1/2+z
loop_
_atom_site_type_symbol
_atom_site_label
_atom_site_fract_x
_atom_site_fract_y
_atom_site_fract_z
Si Si1 0.985003 0.250490 0.054807
Si Si2 0.718742 0.400675 0.561089
Si Si3 0.134721 0.965761 0.809283
Si Si4 0.264858 0.420227 0.710814
Si Si5 0.621976 0.279015 0.469110
Si Si6 0.966860 0.919571 0.197946
O O1 0.932763 0.319350 0.011334
O O2 0.010822 0.386063 0.146611
O O3 0.982117 0.093894 0.150453
O O4 0.015309 0.212323 0.913370
O O5 0.750000 0.250000 0.613335
O O6 0.725049 0.541350 0.671616
O O7 0.740690 0.450103 0.410659
O O8 0.661224 0.382201 0.554115
O O9 0.133365 0.899487 0.973159
O O10 0.129426 0.814295 0.699696
O O11 0.182063 0.068906 0.781041
O O12 0.090946 0.087881 0.788132
O O13 0.250000 0.250000 0.650181
#
# Coordination Sequence:
#
# PCOD8228733 Si02
#       6
#     8   8   8   8   8   8
#     4  10  21  41  62  90 126 161 206 262 306 374
#     4  11  22  41  68  91 120 168 214 258 307 376
#     4  10  22  41  63  94 125 162 210 255 315 375
#     4  11  24  43  60  94 134 159 202 266 323 374
#     4  10  21  38  67  92 118 160 219 259 296 369
#     4  10  22  41  62  90 126 163 205 255 313 368
#
# _framework density 21.766670000000001
#
# number of rings (size 3 to 8) (size 9 to 14) (size 15 to 20)
#    0.000    1.667    1.667    3.000    2.333    2.667 
#   12.000    0.000    0.000    0.000    0.000    0.000 
#    0.000    0.000    0.000    0.000    0.000    0.000 
#
# Total GULP energy -594934.675501 kJ/mol
# GULP energy per Si atom -12394.472406 kJ/mol
# Density = 2.171713 g / cm^3
# Si number density = 21.766670 Si / 1000 Ang^3
#
#
#
# Elastic Constant Matrix: (Units=GPa)
#
#
# Indices 1 2 3 4 5 6 
#
# 1 97.7628 53.1079 39.0341 0.0000 0.0000 0.0000
# 2 53.1079 60.2617 22.7320 0.0000 0.0000 0.0000
# 3 39.0341 22.7320 75.6251 0.0000 0.0000 0.0000
# 4 0.0000 0.0000 0.0000 28.3247 0.0000 0.0000
# 5 0.0000 0.0000 0.0000 0.0000 29.0419 0.0000
# 6 0.0000 0.0000 0.0000 0.0000 0.0000 31.5371
#
#
#
# Elastic Compliance Matrix: (Units=1/GPa)
#
#
# Indices 1 2 3 4 5 6 
#
# 1 0.021942 -0.016992 -0.006218 0.000000 0.000000 0.000000
# 2 -0.016992 0.031875 -0.000811 0.000000 0.000000 0.000000
# 3 -0.006218 -0.000811 0.016676 0.000000 0.000000 0.000000
# 4 0.000000 0.000000 0.000000 0.035305 0.000000 0.000000
# 5 0.000000 0.000000 0.000000 0.000000 0.034433 0.000000
# 6 0.000000 0.000000 0.000000 0.000000 0.000000 0.031709
#
#
# Mechanical properties :
#
#
# Convention : Reuss Voigt Hill
#
# Bulk Modulus (GPa) = 44.53938 51.48865 48.01402
# Shear Modulus (GPa) = 21.98150 25.69911 23.84031
#
# Velocity S-wave (km/s) = 3.18129 3.43981 3.31307
# Velocity P-wave (km/s) = 5.83102 6.28351 6.06149
#
# Compressibility (1/GPa) = 0.02245204
#
# Stress axis : x y z
#
# Youngs Moduli (GPa) = 45.57503 31.37290 59.96548
#
# Poissons Ratio (x) = 0.53307 0.37286
# Poissons Ratio (y) = 0.77439 0.04863
# Poissons Ratio (z) = 0.28338 0.02544
#
# Static dielectric constant tensor:
#      x y z
#    x 4.090930 0.000000 0.000000 
#    y 0.000000 3.579150 0.000000 
#    z 0.000000 0.000000 4.049820 
# 
# 
# High freq. dielectric constant tensor:
#      x y z
#    x 1.867250 0.000000 0.000000 
#    y 0.000000 1.824680 0.000000 
#    z 0.000000 0.000000 1.863600 
# 
# From -- ./inp_files/5127.got.cif
#   From: 2010.03.12/outbox.cif.g09.slc.cpg/sg56_3_cif.got.tgz:5127.got - 2010.04.16 15:33:40.
