data_PCOD8228313
_publ_section_title
;
Structure prediction by ZEFSAII (Michael W. Deem and Ramdas Pophale) SiO2 
 PCOD8228313
Probable space group: P C C N
;
_chemical_formula_sum "Si O2"
_cell_formula_units_Z 48
_cell_length_a 18.868329
_cell_length_b 12.609993
_cell_length_c 9.605088
_cell_angle_alpha 90.000000
_cell_angle_beta 90.000000
_cell_angle_gamma 90.000000
_cell_volume 2285.333753
_symmetry_space_group_name_H-M "P C C N"
_symmetry_group_IT_number 56
_symmetry_cell_setting 'orthorhombic'
loop_
_space_group_symop_operation_xyz
x,y,z
1/2-x,1/2-y,z
1/2+x,-y,1/2-z
-x,1/2+y,1/2-z
-x,-y,-z
1/2+x,1/2+y,-z
1/2-x,y,1/2+z
x,1/2-y,1/2+z
loop_
_atom_site_type_symbol
_atom_site_label
_atom_site_fract_x
_atom_site_fract_y
_atom_site_fract_z
Si Si1 0.750000 0.750000 0.206390
Si Si2 0.217025 0.607623 0.644330
Si Si3 0.889535 0.654850 0.084306
Si Si4 0.075614 0.493379 0.672486
Si Si5 0.834714 0.936675 0.315328
Si Si6 0.250000 0.750000 0.391994
Si Si7 0.051457 0.119990 0.896643
O O1 0.810196 0.695596 0.113253
O O2 0.778499 0.841967 0.305698
O O3 0.155331 0.523528 0.635184
O O4 0.293367 0.547637 0.656769
O O5 0.209044 0.672720 0.499442
O O6 0.203414 0.679646 0.783194
O O7 0.922583 0.568277 0.184453
O O8 0.942025 0.753872 0.096174
O O9 0.888948 0.594761 0.937344
O O10 0.046069 0.415364 0.555519
O O11 0.021906 0.592882 0.683342
O O12 0.882108 0.940693 0.175714
#
# Coordination Sequence:
#
# PCOD8228313 Si02
#       7
#     4   8   8   8   8   4   8
#     4  10  20  34  64 102 132 154 196 270 340 378
#     4  11  22  42  65  94 121 171 212 273 309 385
#     4  11  22  38  65 101 125 163 213 264 325 378
#     4  11  23  44  64  89 131 175 208 257 326 386
#     4  11  22  38  68  97 128 157 213 275 323 378
#     4  10  24  42  60  92 126 160 226 256 318 370
#     4  10  24  42  60  92 134 169 205 256 323 390
#
# _framework density 21.003496999999999
#
# number of rings (size 3 to 8) (size 9 to 14) (size 15 to 20)
#    0.000    1.333    1.667    4.500    4.667    0.667 
#   15.000    0.000    0.000    0.000    0.000    0.000 
#    0.000    0.000    0.000    0.000    0.000    0.000 
#
# Total GULP energy -594960.615388 kJ/mol
# GULP energy per Si atom -12395.012821 kJ/mol
# Density = 2.095569 g / cm^3
# Si number density = 21.003497 Si / 1000 Ang^3
#
#
#
# Elastic Constant Matrix: (Units=GPa)
#
#
# Indices 1 2 3 4 5 6 
#
# 1 67.0435 21.3027 10.2068 0.0000 0.0000 0.0000
# 2 21.3027 75.0116 28.2554 0.0000 0.0000 0.0000
# 3 10.2068 28.2554 107.5851 0.0000 0.0000 0.0000
# 4 0.0000 0.0000 0.0000 36.4246 0.0000 0.0000
# 5 0.0000 0.0000 0.0000 0.0000 19.9295 0.0000
# 6 0.0000 0.0000 0.0000 0.0000 0.0000 34.0957
#
#
#
# Elastic Compliance Matrix: (Units=1/GPa)
#
#
# Indices 1 2 3 4 5 6 
#
# 1 0.016408 -0.004521 -0.000369 0.000000 0.000000 0.000000
# 2 -0.004521 0.016040 -0.003784 0.000000 0.000000 0.000000
# 3 -0.000369 -0.003784 0.010324 0.000000 0.000000 0.000000
# 4 0.000000 0.000000 0.000000 0.027454 0.000000 0.000000
# 5 0.000000 0.000000 0.000000 0.000000 0.050177 0.000000
# 6 0.000000 0.000000 0.000000 0.000000 0.000000 0.029329
#
#
# Mechanical properties :
#
#
# Convention : Reuss Voigt Hill
#
# Bulk Modulus (GPa) = 39.33192 41.01888 40.17540
# Shear Modulus (GPa) = 28.48103 30.74831 29.61467
#
# Velocity S-wave (km/s) = 3.68640 3.83033 3.75905
# Velocity P-wave (km/s) = 6.07342 6.25570 6.16524
#
# Compressibility (1/GPa) = 0.02542464
#
# Stress axis : x y z
#
# Youngs Moduli (GPa) = 60.94457 62.34248 96.86371
#
# Poissons Ratio (x) = 0.28183 0.03578
# Poissons Ratio (y) = 0.27551 0.36652
# Poissons Ratio (z) = 0.02251 0.23590
#
# Static dielectric constant tensor:
#      x y z
#    x 3.754440 0.000000 0.000000 
#    y 0.000000 3.931090 0.000000 
#    z 0.000000 0.000000 3.873220 
# 
# 
# High freq. dielectric constant tensor:
#      x y z
#    x 1.798710 0.000000 0.000000 
#    y 0.000000 1.828480 0.000000 
#    z 0.000000 0.000000 1.836110 
# 
# From -- ./inp_files/4427.got.cif
#   From: 2010.03.12/outbox.cif.g09.slc.cpg/sg56_3_cif.got.tgz:4427.got - 2010.04.16 15:33:40.
