data_PCOD8228392
_publ_section_title
;
Structure prediction by ZEFSAII (Michael W. Deem and Ramdas Pophale) SiO2 
 PCOD8228392
Probable space group: P C C N
;
_chemical_formula_sum "Si O2"
_cell_formula_units_Z 60
_cell_length_a 9.060794
_cell_length_b 18.887281
_cell_length_c 17.184886
_cell_angle_alpha 90.000000
_cell_angle_beta 90.000000
_cell_angle_gamma 90.000000
_cell_volume 2940.914197
_symmetry_space_group_name_H-M "P C C N"
_symmetry_group_IT_number 56
_symmetry_cell_setting 'orthorhombic'
loop_
_space_group_symop_operation_xyz
x,y,z
1/2-x,1/2-y,z
1/2+x,-y,1/2-z
-x,1/2+y,1/2-z
-x,-y,-z
1/2+x,1/2+y,-z
1/2-x,y,1/2+z
x,1/2-y,1/2+z
loop_
_atom_site_type_symbol
_atom_site_label
_atom_site_fract_x
_atom_site_fract_y
_atom_site_fract_z
Si Si1 0.250000 0.250000 0.500762
Si Si2 0.541796 0.112309 0.394033
Si Si3 0.179698 0.917344 0.259273
Si Si4 0.524660 0.461114 0.315288
Si Si5 0.688404 0.360727 0.575733
Si Si6 0.283702 0.984476 0.038338
Si Si7 0.448752 0.785006 0.470330
Si Si8 0.211061 0.391210 0.918580
O O1 0.379814 0.218773 0.555285
O O2 0.315714 0.311332 0.446171
O O3 0.619856 0.128249 0.312335
O O4 0.622698 0.044875 0.435555
O O5 0.559203 0.185414 0.441417
O O6 0.370233 0.095460 0.378933
O O7 0.355164 0.930651 0.246277
O O8 0.141988 0.872759 0.336103
O O9 0.083863 0.988704 0.266435
O O10 0.614676 0.497048 0.386098
O O11 0.417418 0.403659 0.355646
O O12 0.647345 0.427784 0.522491
O O13 0.615677 0.293496 0.534623
O O14 0.863671 0.342789 0.581692
O O15 0.284184 0.058834 0.994629
#
# Coordination Sequence:
#
# PCOD8228392 Si02
#       8
#     4   8   8   8   8   8   8   8
#     4  10  22  36  60  92 120 156 206 266 320 348
#     4   9  21  39  61  92 126 164 202 257 326 367
#     4  11  23  39  61  95 129 168 204 260 327 379
#     4  11  23  38  59  95 130 165 209 259 327 373
#     4  10  20  39  64  89 127 163 217 256 309 372
#     4  10  20  36  64  94 117 166 215 266 302 367
#     4   9  20  40  60  89 120 163 209 258 298 377
#     4  11  20  38  62  93 124 165 212 260 302 380
#
# _framework density 20.401819
#
# number of rings (size 3 to 8) (size 9 to 14) (size 15 to 20)
#    0.000    1.867    1.333    2.400    1.867    1.067 
#    4.800   14.667    0.000    0.800    0.000    0.000 
#    0.000    0.000    0.000    0.000    0.000    0.000 
#
# Total GULP energy -743457.090793 kJ/mol
# GULP energy per Si atom -12390.951513 kJ/mol
# Density = 2.035538 g / cm^3
# Si number density = 20.401819 Si / 1000 Ang^3
#
#
#
# Elastic Constant Matrix: (Units=GPa)
#
#
# Indices 1 2 3 4 5 6 
#
# 1 120.5600 19.6471 23.8487 0.0000 0.0000 0.0000
# 2 19.6471 92.4732 27.3277 0.0000 0.0000 0.0000
# 3 23.8487 27.3277 88.9034 0.0000 0.0000 0.0000
# 4 0.0000 0.0000 0.0000 22.3039 0.0000 0.0000
# 5 0.0000 0.0000 0.0000 0.0000 31.4342 0.0000
# 6 0.0000 0.0000 0.0000 0.0000 0.0000 25.0392
#
#
#
# Elastic Compliance Matrix: (Units=1/GPa)
#
#
# Indices 1 2 3 4 5 6 
#
# 1 0.008900 -0.001304 -0.001987 0.000000 0.000000 0.000000
# 2 -0.001304 0.012085 -0.003365 0.000000 0.000000 0.000000
# 3 -0.001987 -0.003365 0.012815 0.000000 0.000000 0.000000
# 4 0.000000 0.000000 0.000000 0.044835 0.000000 0.000000
# 5 0.000000 0.000000 0.000000 0.000000 0.031813 0.000000
# 6 0.000000 0.000000 0.000000 0.000000 0.000000 0.039937
#
#
# Mechanical properties :
#
#
# Convention : Reuss Voigt Hill
#
# Bulk Modulus (GPa) = 48.80505 49.28707 49.04606
# Shear Modulus (GPa) = 29.32081 31.16301 30.24191
#
# Velocity S-wave (km/s) = 3.79511 3.91252 3.85426
# Velocity P-wave (km/s) = 6.57097 6.67989 6.62566
#
# Compressibility (1/GPa) = 0.02048968
#
# Stress axis : x y z
#
# Youngs Moduli (GPa) = 112.35825 82.74436 78.03053
#
# Poissons Ratio (x) = 0.10788 0.15502
# Poissons Ratio (y) = 0.14650 0.26258
# Poissons Ratio (z) = 0.22322 0.27845
#
# Static dielectric constant tensor:
#      x y z
#    x 4.231360 0.000000 0.000000 
#    y 0.000000 3.556020 0.000000 
#    z 0.000000 0.000000 3.555010 
# 
# 
# High freq. dielectric constant tensor:
#      x y z
#    x 1.820110 0.000000 0.000000 
#    y 0.000000 1.784110 0.000000 
#    z 0.000000 0.000000 1.777930 
# 
# From -- ./inp_files/15094.got.cif
#   From: 2010.03.12/outbox.cif.g09.slc.cpg/sg56_8_cif.got.tgz:15094.got - 2010.04.16 15:33:40.
