data_PCOD8228491
_publ_section_title
;
Structure prediction by ZEFSAII (Michael W. Deem and Ramdas Pophale) SiO2 
 PCOD8228491
Probable space group: P C C N
;
_chemical_formula_sum "Si O2"
_cell_formula_units_Z 44
_cell_length_a 17.930339
_cell_length_b 8.483944
_cell_length_c 14.076201
_cell_angle_alpha 90.000000
_cell_angle_beta 90.000000
_cell_angle_gamma 90.000000
_cell_volume 2141.271583
_symmetry_space_group_name_H-M "P C C N"
_symmetry_group_IT_number 56
_symmetry_cell_setting 'orthorhombic'
loop_
_space_group_symop_operation_xyz
x,y,z
1/2-x,1/2-y,z
1/2+x,-y,1/2-z
-x,1/2+y,1/2-z
-x,-y,-z
1/2+x,1/2+y,-z
1/2-x,y,1/2+z
x,1/2-y,1/2+z
loop_
_atom_site_type_symbol
_atom_site_label
_atom_site_fract_x
_atom_site_fract_y
_atom_site_fract_z
Si Si1 0.918767 0.913075 0.157920
Si Si2 0.789814 0.479689 0.771854
Si Si3 0.501705 0.791170 0.289976
Si Si4 0.362253 0.656783 0.208900
Si Si5 0.898147 0.901340 0.944943
Si Si6 0.250000 0.250000 0.091219
O O1 0.942518 0.742634 0.200590
O O2 0.832824 0.958023 0.178335
O O3 0.936337 0.932061 0.046636
O O4 0.972090 0.030818 0.217316
O O5 0.704864 0.439837 0.741057
O O6 0.830884 0.329164 0.819870
O O7 0.791122 0.618509 0.847147
O O8 0.429600 0.675173 0.284782
O O9 0.549921 0.776993 0.387131
O O10 0.389789 0.564380 0.114406
O O11 0.816706 0.828021 0.969284
#
# Coordination Sequence:
#
# PCOD8228491 Si02
#       6
#     8   8   8   8   8   4
#     4  11  23  40  65  89 124 168 207 255 319 376
#     4   9  19  39  61  86 124 167 207 255 318 368
#     4  11  21  39  62  91 125 162 202 262 317 370
#     4   9  20  38  62  86 124 167 203 260 320 371
#     4  11  22  40  63  92 122 167 210 258 314 379
#     4  10  20  38  64  92 124 164 212 266 304 372
#
# _framework density 20.548539000000002
#
# number of rings (size 3 to 8) (size 9 to 14) (size 15 to 20)
#    0.000    1.818    3.636    0.545    0.000    0.727 
#    0.000   17.273    0.000    0.000    0.000    0.000 
#    0.000    0.000    0.000    0.000    0.000    0.000 
#
# Total GULP energy -545106.376739 kJ/mol
# GULP energy per Si atom -12388.781290 kJ/mol
# Density = 2.050177 g / cm^3
# Si number density = 20.548539 Si / 1000 Ang^3
#
#
#
# Elastic Constant Matrix: (Units=GPa)
#
#
# Indices 1 2 3 4 5 6 
#
# 1 114.6950 50.0115 58.9963 0.0000 0.0000 0.0000
# 2 50.0115 85.1727 49.8663 0.0000 0.0000 0.0000
# 3 58.9963 49.8663 124.1144 0.0000 0.0000 0.0000
# 4 0.0000 0.0000 0.0000 23.2146 0.0000 0.0000
# 5 0.0000 0.0000 0.0000 0.0000 19.9858 0.0000
# 6 0.0000 0.0000 0.0000 0.0000 0.0000 30.9125
#
#
#
# Elastic Compliance Matrix: (Units=1/GPa)
#
#
# Indices 1 2 3 4 5 6 
#
# 1 0.013153 -0.005312 -0.004118 0.000000 0.000000 0.000000
# 2 -0.005312 0.017498 -0.004505 0.000000 0.000000 0.000000
# 3 -0.004118 -0.004505 0.011824 0.000000 0.000000 0.000000
# 4 0.000000 0.000000 0.000000 0.043076 0.000000 0.000000
# 5 0.000000 0.000000 0.000000 0.000000 0.050035 0.000000
# 6 0.000000 0.000000 0.000000 0.000000 0.000000 0.032349
#
#
# Mechanical properties :
#
#
# Convention : Reuss Voigt Hill
#
# Bulk Modulus (GPa) = 68.46992 71.30338 69.88665
# Shear Modulus (GPa) = 24.91583 25.82979 25.37281
#
# Velocity S-wave (km/s) = 3.48593 3.54928 3.51775
# Velocity P-wave (km/s) = 7.04242 7.18136 7.11223
#
# Compressibility (1/GPa) = 0.01460495
#
# Stress axis : x y z
#
# Youngs Moduli (GPa) = 76.02635 57.15023 84.57047
#
# Poissons Ratio (x) = 0.30361 0.34825
# Poissons Ratio (y) = 0.40389 0.38099
# Poissons Ratio (z) = 0.31307 0.25746
#
# Static dielectric constant tensor:
#      x y z
#    x 4.311640 0.000000 0.000000 
#    y 0.000000 3.893930 0.000000 
#    z 0.000000 0.000000 3.197700 
# 
# 
# High freq. dielectric constant tensor:
#      x y z
#    x 1.840820 0.000000 0.000000 
#    y 0.000000 1.804710 0.000000 
#    z 0.000000 0.000000 1.746850 
# 
# From -- ./inp_files/12635.got.cif
#   From: 2010.03.12/outbox.cif.g09.slc.cpg/sg56_7_cif.got.tgz:12635.got - 2010.04.16 15:33:40.
