data_PCOD8228516
_publ_section_title
;
Structure prediction by ZEFSAII (Michael W. Deem and Ramdas Pophale) SiO2 
 PCOD8228516
Probable space group: P C C N
;
_chemical_formula_sum "Si O2"
_cell_formula_units_Z 48
_cell_length_a 9.064893
_cell_length_b 8.872159
_cell_length_c 28.003891
_cell_angle_alpha 90.000000
_cell_angle_beta 90.000000
_cell_angle_gamma 90.000000
_cell_volume 2252.217751
_symmetry_space_group_name_H-M "P C C N"
_symmetry_group_IT_number 56
_symmetry_cell_setting 'orthorhombic'
loop_
_space_group_symop_operation_xyz
x,y,z
1/2-x,1/2-y,z
1/2+x,-y,1/2-z
-x,1/2+y,1/2-z
-x,-y,-z
1/2+x,1/2+y,-z
1/2-x,y,1/2+z
x,1/2-y,1/2+z
loop_
_atom_site_type_symbol
_atom_site_label
_atom_site_fract_x
_atom_site_fract_y
_atom_site_fract_z
Si Si1 0.424196 0.256558 0.887402
Si Si2 0.076276 0.253820 0.234303
Si Si3 0.594912 0.319217 0.480309
Si Si4 0.071469 0.936533 0.186710
Si Si5 0.396121 0.009044 0.155958
Si Si6 0.116926 0.353708 0.054889
O O1 0.250000 0.250000 0.887194
O O2 0.481200 0.245452 0.941216
O O3 0.479246 0.412158 0.862397
O O4 0.486329 0.118208 0.856094
O O5 0.250000 0.250000 0.248267
O O6 0.041144 0.385915 0.197183
O O7 0.973232 0.294398 0.279398
O O8 0.026907 0.093667 0.212035
O O9 0.750000 0.250000 0.469895
O O10 0.627789 0.494933 0.475394
O O11 0.534123 0.279271 0.533608
O O12 0.242842 0.932683 0.172239
O O13 0.377350 0.121042 0.111210
O O14 0.250000 0.250000 0.039078
#
# Coordination Sequence:
#
# PCOD8228516 Si02
#       6
#     8   8   8   8   8   8
#     4  11  22  39  61  89 123 161 206 258 312 373
#     4  10  22  39  61  92 124 160 206 254 307 369
#     4  10  22  39  63  92 123 163 210 259 318 378
#     4  11  21  38  65  90 122 163 205 253 312 374
#     4  10  22  42  63  88 126 167 207 256 314 369
#     4  10  20  39  63  91 127 164 208 261 313 374
#
# _framework density 21.312328000000001
#
# number of rings (size 3 to 8) (size 9 to 14) (size 15 to 20)
#    0.000    1.667    0.000    6.000    0.000    3.333 
#    0.000   14.167    0.000    0.000    0.000    0.000 
#    0.000    0.000    0.000    0.000    0.000    0.000 
#
# Total GULP energy -594979.384577 kJ/mol
# GULP energy per Si atom -12395.403845 kJ/mol
# Density = 2.126382 g / cm^3
# Si number density = 21.312328 Si / 1000 Ang^3
#
#
#
# Elastic Constant Matrix: (Units=GPa)
#
#
# Indices 1 2 3 4 5 6 
#
# 1 146.5058 51.1722 60.2480 0.0000 0.0000 0.0000
# 2 51.1722 67.3066 38.9777 0.0000 0.0000 0.0000
# 3 60.2480 38.9777 112.3980 0.0000 0.0000 0.0000
# 4 0.0000 0.0000 0.0000 13.5515 0.0000 0.0000
# 5 0.0000 0.0000 0.0000 0.0000 38.4972 0.0000
# 6 0.0000 0.0000 0.0000 0.0000 0.0000 30.7275
#
#
#
# Elastic Compliance Matrix: (Units=1/GPa)
#
#
# Indices 1 2 3 4 5 6 
#
# 1 0.010292 -0.005793 -0.003508 0.000000 0.000000 0.000000
# 2 -0.005793 0.021852 -0.004473 0.000000 0.000000 0.000000
# 3 -0.003508 -0.004473 0.012328 0.000000 0.000000 0.000000
# 4 0.000000 0.000000 0.000000 0.073793 0.000000 0.000000
# 5 0.000000 0.000000 0.000000 0.000000 0.025976 0.000000
# 6 0.000000 0.000000 0.000000 0.000000 0.000000 0.032544
#
#
# Mechanical properties :
#
#
# Convention : Reuss Voigt Hill
#
# Bulk Modulus (GPa) = 59.08447 69.66737 64.37592
# Shear Modulus (GPa) = 23.81260 28.27607 26.04434
#
# Velocity S-wave (km/s) = 3.34625 3.64641 3.49955
# Velocity P-wave (km/s) = 6.53553 7.10550 6.82647
#
# Compressibility (1/GPa) = 0.01692492
#
# Stress axis : x y z
#
# Youngs Moduli (GPa) = 97.16668 45.76232 81.11574
#
# Poissons Ratio (x) = 0.26512 0.28451
# Poissons Ratio (y) = 0.56292 0.36279
# Poissons Ratio (z) = 0.34081 0.20467
#
# Static dielectric constant tensor:
#      x y z
#    x 33.245430 0.000000 0.000000 
#    y 0.000000 4.298240 0.000000 
#    z 0.000000 0.000000 4.155290 
# 
# 
# High freq. dielectric constant tensor:
#      x y z
#    x 1.828850 0.000000 0.000000 
#    y 0.000000 1.838970 0.000000 
#    z 0.000000 0.000000 1.849940 
# 
# From -- ./inp_files/23234.got.cif
#   From: 2010.03.12/outbox.cif.g09.slc.cpg/sg56_12_cif.got.tgz:23234.got - 2010.04.16 15:33:40.
