data_PCOD8228883
_publ_section_title
;
Structure prediction by ZEFSAII (Michael W. Deem and Ramdas Pophale) SiO2 
 PCOD8228883
Probable space group: P C C N
;
_chemical_formula_sum "Si O2"
_cell_formula_units_Z 48
_cell_length_a 13.373745
_cell_length_b 14.767745
_cell_length_c 11.396434
_cell_angle_alpha 90.000000
_cell_angle_beta 90.000000
_cell_angle_gamma 90.000000
_cell_volume 2250.796352
_symmetry_space_group_name_H-M "P C C N"
_symmetry_group_IT_number 56
_symmetry_cell_setting 'orthorhombic'
loop_
_space_group_symop_operation_xyz
x,y,z
1/2-x,1/2-y,z
1/2+x,-y,1/2-z
-x,1/2+y,1/2-z
-x,-y,-z
1/2+x,1/2+y,-z
1/2-x,y,1/2+z
x,1/2-y,1/2+z
loop_
_atom_site_type_symbol
_atom_site_label
_atom_site_fract_x
_atom_site_fract_y
_atom_site_fract_z
Si Si1 0.105008 0.905824 0.433119
Si Si2 0.990856 0.119562 0.331691
Si Si3 0.312568 0.940329 0.553111
Si Si4 0.900442 0.526329 0.659027
Si Si5 0.938457 0.178445 0.792806
Si Si6 0.316859 0.055066 0.769984
O O1 0.019205 0.913537 0.532264
O O2 0.214866 0.903564 0.488537
O O3 0.080494 0.820517 0.348254
O O4 0.104963 0.987049 0.337934
O O5 0.944827 0.218696 0.331080
O O6 0.105007 0.138245 0.282066
O O7 0.925064 0.049474 0.255397
O O8 0.343405 0.857816 0.635921
O O9 0.400744 0.972799 0.465044
O O10 0.293376 0.027185 0.636836
O O11 0.787785 0.567095 0.666152
O O12 0.969391 0.614266 0.667230
#
# Coordination Sequence:
#
# PCOD8228883 Si02
#       6
#     8   8   8   8   8   8
#     4  10  22  43  64  91 130 166 215 269 321 385
#     4  12  24  40  66  94 130 168 214 265 325 381
#     4  10  21  42  65  93 126 170 217 266 322 376
#     4  11  23  42  66  90 132 170 213 267 320 383
#     4  11  26  40  64  99 129 172 216 265 328 388
#     4  10  22  41  68  94 121 177 214 261 325 386
#
# _framework density 21.325785
#
# number of rings (size 3 to 8) (size 9 to 14) (size 15 to 20)
#    0.000    1.333    5.000    1.000    2.333    1.333 
#    3.000    0.000    0.000    4.000    0.000    0.000 
#    0.000    0.000    0.000    0.000    0.000    0.000 
#
# Total GULP energy -594626.353805 kJ/mol
# GULP energy per Si atom -12388.049038 kJ/mol
# Density = 2.127725 g / cm^3
# Si number density = 21.325785 Si / 1000 Ang^3
#
#
#
# Elastic Constant Matrix: (Units=GPa)
#
#
# Indices 1 2 3 4 5 6 
#
# 1 99.5614 3.6184 13.9622 0.0000 0.0000 0.0000
# 2 3.6184 47.1378 8.6406 0.0000 0.0000 0.0000
# 3 13.9622 8.6406 111.1485 0.0000 0.0000 0.0000
# 4 0.0000 0.0000 0.0000 17.3602 0.0000 0.0000
# 5 0.0000 0.0000 0.0000 0.0000 36.5863 0.0000
# 6 0.0000 0.0000 0.0000 0.0000 0.0000 13.3730
#
#
#
# Elastic Compliance Matrix: (Units=1/GPa)
#
#
# Indices 1 2 3 4 5 6 
#
# 1 0.010239 -0.000558 -0.001243 0.000000 0.000000 0.000000
# 2 -0.000558 0.021551 -0.001605 0.000000 0.000000 0.000000
# 3 -0.001243 -0.001605 0.009278 0.000000 0.000000 0.000000
# 4 0.000000 0.000000 0.000000 0.057603 0.000000 0.000000
# 5 0.000000 0.000000 0.000000 0.000000 0.027333 0.000000
# 6 0.000000 0.000000 0.000000 0.000000 0.000000 0.074778
#
#
# Mechanical properties :
#
#
# Convention : Reuss Voigt Hill
#
# Bulk Modulus (GPa) = 29.19229 34.47669 31.83449
# Shear Modulus (GPa) = 22.82976 28.90566 25.86771
#
# Velocity S-wave (km/s) = 3.27544 3.68561 3.48656
# Velocity P-wave (km/s) = 5.29368 5.85777 5.58285
#
# Compressibility (1/GPa) = 0.03425562
#
# Stress axis : x y z
#
# Youngs Moduli (GPa) = 97.66944 46.40053 107.78328
#
# Poissons Ratio (x) = 0.02590 0.13395
# Poissons Ratio (y) = 0.05451 0.17302
# Poissons Ratio (z) = 0.12138 0.07449
#
# Static dielectric constant tensor:
#      x y z
#    x 3.846660 0.000000 0.000000 
#    y 0.000000 3.591720 0.000000 
#    z 0.000000 0.000000 4.236510 
# 
# 
# High freq. dielectric constant tensor:
#      x y z
#    x 1.845740 0.000000 0.000000 
#    y 0.000000 1.801790 0.000000 
#    z 0.000000 0.000000 1.857370 
# 
# From -- ./inp_files/7790.got.cif
#   From: 2010.03.12/outbox.cif.g09.slc.cpg/sg56_4_cif.got.tgz:7790.got - 2010.04.16 15:33:40.
