data_PCOD8228537
_publ_section_title
;
Structure prediction by ZEFSAII (Michael W. Deem and Ramdas Pophale) SiO2 
 PCOD8228537
Probable space group: P C C N
;
_chemical_formula_sum "Si O2"
_cell_formula_units_Z 48
_cell_length_a 14.863197
_cell_length_b 4.947675
_cell_length_c 31.947810
_cell_angle_alpha 90.000000
_cell_angle_beta 90.000000
_cell_angle_gamma 90.000000
_cell_volume 2349.386621
_symmetry_space_group_name_H-M "P C C N"
_symmetry_group_IT_number 56
_symmetry_cell_setting 'orthorhombic'
loop_
_space_group_symop_operation_xyz
x,y,z
1/2-x,1/2-y,z
1/2+x,-y,1/2-z
-x,1/2+y,1/2-z
-x,-y,-z
1/2+x,1/2+y,-z
1/2-x,y,1/2+z
x,1/2-y,1/2+z
loop_
_atom_site_type_symbol
_atom_site_label
_atom_site_fract_x
_atom_site_fract_y
_atom_site_fract_z
Si Si1 0.852995 0.264203 0.971475
Si Si2 0.503083 0.817768 0.594245
Si Si3 0.549635 0.707759 0.765624
Si Si4 0.022280 0.829971 0.350379
Si Si5 0.690277 0.997320 0.204243
Si Si6 0.352959 0.267495 0.973521
O O1 0.750000 0.250000 0.956410
O O2 0.875511 0.562909 0.988399
O O3 0.912655 0.168948 0.932735
O O4 0.873096 0.067161 0.010251
O O5 0.484134 0.606211 0.630934
O O6 0.585248 0.708137 0.566251
O O7 0.530246 0.106242 0.613498
O O8 0.469788 0.502143 0.753547
O O9 0.550034 0.729047 0.815954
O O10 0.643771 0.605807 0.747071
O O11 0.118724 0.900631 0.330003
O O12 0.750000 0.750000 0.185620
O O13 0.750000 0.250000 0.217377
O O14 0.250000 0.250000 0.958706
#
# Coordination Sequence:
#
# PCOD8228537 Si02
#       6
#     8   8   8   8   8   8
#     4  10  21  39  60  81 112 156 206 247 282 341
#     4  12  22  37  60  88 120 157 189 239 306 356
#     4  10  20  40  61  80 113 157 196 229 277 350
#     4  11  24  38  58  87 122 151 184 239 300 351
#     4  11  22  39  63  88 114 154 198 241 289 351
#     4  10  21  37  58  84 114 153 199 243 285 347
#
# _framework density 20.430865000000001
#
# number of rings (size 3 to 8) (size 9 to 14) (size 15 to 20)
#    0.000    1.333    0.000    8.000    0.000    2.000 
#    0.000    2.500    0.000    0.000    0.000    0.000 
#    0.000    0.000    0.000    0.000    0.000    0.000 
#
# Total GULP energy -595333.184205 kJ/mol
# GULP energy per Si atom -12402.774671 kJ/mol
# Density = 2.038436 g / cm^3
# Si number density = 20.430865 Si / 1000 Ang^3
#
#
#
# Elastic Constant Matrix: (Units=GPa)
#
#
# Indices 1 2 3 4 5 6 
#
# 1 90.3857 34.3377 59.5731 0.0000 0.0000 0.0000
# 2 34.3377 98.4202 26.7295 0.0000 0.0000 0.0000
# 3 59.5731 26.7295 98.7463 0.0000 0.0000 0.0000
# 4 0.0000 0.0000 0.0000 14.4641 0.0000 0.0000
# 5 0.0000 0.0000 0.0000 0.0000 5.7164 0.0000
# 6 0.0000 0.0000 0.0000 0.0000 0.0000 32.0358
#
#
#
# Elastic Compliance Matrix: (Units=1/GPa)
#
#
# Indices 1 2 3 4 5 6 
#
# 1 0.019682 -0.003931 -0.010810 0.000000 0.000000 0.000000
# 2 -0.003931 0.011752 -0.000810 0.000000 0.000000 0.000000
# 3 -0.010810 -0.000810 0.016868 0.000000 0.000000 0.000000
# 4 0.000000 0.000000 0.000000 0.069137 0.000000 0.000000
# 5 0.000000 0.000000 0.000000 0.000000 0.174936 0.000000
# 6 0.000000 0.000000 0.000000 0.000000 0.000000 0.031215
#
#
# Mechanical properties :
#
#
# Convention : Reuss Voigt Hill
#
# Bulk Modulus (GPa) = 58.13777 58.75919 58.44848
# Shear Modulus (GPa) = 13.87255 21.57070 17.72162
#
# Velocity S-wave (km/s) = 2.60859 3.25282 2.94835
# Velocity P-wave (km/s) = 6.13112 6.55211 6.34511
#
# Compressibility (1/GPa) = 0.01720052
#
# Stress axis : x y z
#
# Youngs Moduli (GPa) = 50.80815 85.09292 59.28501
#
# Poissons Ratio (x) = 0.33450 0.64087
# Poissons Ratio (y) = 0.19973 0.04800
# Poissons Ratio (z) = 0.54923 0.06889
#
# Static dielectric constant tensor:
#      x y z
#    x 3.694260 0.000000 0.000000 
#    y 0.000000 3.964470 0.000000 
#    z 0.000000 0.000000 3.585570 
# 
# 
# High freq. dielectric constant tensor:
#      x y z
#    x 1.789180 0.000000 0.000000 
#    y 0.000000 1.825000 0.000000 
#    z 0.000000 0.000000 1.787400 
# 
# From -- ./inp_files/22424.got.cif
#   From: 2010.03.12/outbox.cif.g09.slc.cpg/sg56_12_cif.got.tgz:22424.got - 2010.04.16 15:33:40.
