data_PCOD8228032
_publ_section_title
;
Structure prediction by ZEFSAII (Michael W. Deem and Ramdas Pophale) SiO2 
 PCOD8228032
Probable space group: P C C N
;
_chemical_formula_sum "Si O2"
_cell_formula_units_Z 64
_cell_length_a 17.705599
_cell_length_b 12.224180
_cell_length_c 14.472638
_cell_angle_alpha 90.000000
_cell_angle_beta 90.000000
_cell_angle_gamma 90.000000
_cell_volume 3132.406090
_symmetry_space_group_name_H-M "P C C N"
_symmetry_group_IT_number 56
_symmetry_cell_setting 'orthorhombic'
loop_
_space_group_symop_operation_xyz
x,y,z
1/2-x,1/2-y,z
1/2+x,-y,1/2-z
-x,1/2+y,1/2-z
-x,-y,-z
1/2+x,1/2+y,-z
1/2-x,y,1/2+z
x,1/2-y,1/2+z
loop_
_atom_site_type_symbol
_atom_site_label
_atom_site_fract_x
_atom_site_fract_y
_atom_site_fract_z
Si Si1 0.427497 0.623998 0.660929
Si Si2 0.639549 0.911135 0.924813
Si Si3 0.102638 0.386897 0.872265
Si Si4 0.201285 0.483312 0.615480
Si Si5 0.298294 0.915270 0.804934
Si Si6 0.837279 0.292619 0.458985
Si Si7 0.337558 0.275268 0.203908
Si Si8 0.851421 0.313577 0.661369
O O1 0.399521 0.522986 0.601155
O O2 0.516724 0.616138 0.658376
O O3 0.390119 0.730281 0.613926
O O4 0.407243 0.619572 0.770862
O O5 0.728558 0.932840 0.940560
O O6 0.619182 0.825376 0.843472
O O7 0.608281 0.859905 0.019710
O O8 0.143813 0.503802 0.856329
O O9 0.140737 0.291384 0.811012
O O10 0.233637 0.535628 0.709910
O O11 0.158194 0.577380 0.560154
O O12 0.144253 0.385471 0.644599
O O13 0.337452 0.799355 0.783230
O O14 0.222777 0.887360 0.862646
O O15 0.750000 0.250000 0.456442
O O16 0.878634 0.279075 0.558822
O O17 0.250000 0.250000 0.199838
#
# Coordination Sequence:
#
# PCOD8228032 Si02
#       8
#     8   8   8   8   8   8   8   8
#     4  12  25  39  62 101 127 164 204 266 322 374
#     4  11  21  41  63  88 125 163 209 255 310 379
#     4  11  25  41  64  92 131 169 205 256 323 378
#     4  10  19  37  65  91 123 157 211 268 300 360
#     4  10  18  38  62  92 125 162 207 259 306 373
#     4  12  20  35  64  96 126 161 208 263 320 371
#     4   9  23  43  64  90 122 171 215 256 301 370
#     4  11  21  36  65  95 125 164 209 258 319 374
#
# _framework density 20.431576
#
# number of rings (size 3 to 8) (size 9 to 14) (size 15 to 20)
#    0.000    1.250    5.000    1.875    0.000    3.500 
#    2.250    0.000    0.000    2.250    0.000    0.000 
#    0.000    0.000    0.000    0.000    0.000    0.000 
#
# Total GULP energy -793166.950460 kJ/mol
# GULP energy per Si atom -12393.233601 kJ/mol
# Density = 2.038507 g / cm^3
# Si number density = 20.431576 Si / 1000 Ang^3
#
#
#
# Elastic Constant Matrix: (Units=GPa)
#
#
# Indices 1 2 3 4 5 6 
#
# 1 59.1853 23.2084 27.2203 0.0000 0.0000 0.0000
# 2 23.2084 96.2218 34.8847 0.0000 0.0000 0.0000
# 3 27.2203 34.8847 99.7101 0.0000 0.0000 0.0000
# 4 0.0000 0.0000 0.0000 -30.1750 0.0000 0.0000
# 5 0.0000 0.0000 0.0000 0.0000 20.6713 0.0000
# 6 0.0000 0.0000 0.0000 0.0000 0.0000 10.7345
#
#
#
# Elastic Compliance Matrix: (Units=1/GPa)
#
#
# Indices 1 2 3 4 5 6 
#
# 1 0.020192 -0.003289 -0.004362 0.000000 0.000000 0.000000
# 2 -0.003289 0.012438 -0.003454 0.000000 0.000000 0.000000
# 3 -0.004362 -0.003454 0.012428 0.000000 0.000000 0.000000
# 4 0.000000 0.000000 0.000000 -0.033140 0.000000 0.000000
# 5 0.000000 0.000000 0.000000 0.000000 0.048376 0.000000
# 6 0.000000 0.000000 0.000000 0.000000 0.000000 0.093157
#
#
# Mechanical properties :
#
#
# Convention : Reuss Voigt Hill
#
# Bulk Modulus (GPa) = 43.76474 47.30486 45.53480
# Shear Modulus (GPa) = 27.28121 11.56642 19.42381
#
# Velocity S-wave (km/s) = 3.65807 2.38188 3.08665
# Velocity P-wave (km/s) = 6.26966 5.54685 5.91930
#
# Compressibility (1/GPa) = 0.02284945
#
# Stress axis : x y z
#
# Youngs Moduli (GPa) = 49.52523 80.39832 80.46292
#
# Poissons Ratio (x) = 0.26442 0.35094
# Poissons Ratio (y) = 0.16288 0.27790
# Poissons Ratio (z) = 0.21601 0.27767
#
# Static dielectric constant tensor:
#      x y z
#    x 3.596700 0.000000 0.000000 
#    y 0.000000 3.987080 0.000000 
#    z 0.000000 0.000000 3.864420 
# 
# 
# High freq. dielectric constant tensor:
#      x y z
#    x 1.759420 0.000000 0.000000 
#    y 0.000000 1.803960 0.000000 
#    z 0.000000 0.000000 1.807960 
# 
# From -- ./inp_files/12858.got.cif
#   From: 2010.03.12/outbox.cif.g09.slc.cpg/sg56_7_cif.got.tgz:12858.got - 2010.04.16 15:33:40.
