data_PCOD8228027
_publ_section_title
;
Structure prediction by ZEFSAII (Michael W. Deem and Ramdas Pophale) SiO2 
 PCOD8228027
Probable space group: P C C N
;
_chemical_formula_sum "Si O2"
_cell_formula_units_Z 60
_cell_length_a 17.577841
_cell_length_b 12.180845
_cell_length_c 13.346701
_cell_angle_alpha 90.000000
_cell_angle_beta 90.000000
_cell_angle_gamma 90.000000
_cell_volume 2857.701613
_symmetry_space_group_name_H-M "P C C N"
_symmetry_group_IT_number 56
_symmetry_cell_setting 'orthorhombic'
loop_
_space_group_symop_operation_xyz
x,y,z
1/2-x,1/2-y,z
1/2+x,-y,1/2-z
-x,1/2+y,1/2-z
-x,-y,-z
1/2+x,1/2+y,-z
1/2-x,y,1/2+z
x,1/2-y,1/2+z
loop_
_atom_site_type_symbol
_atom_site_label
_atom_site_fract_x
_atom_site_fract_y
_atom_site_fract_z
Si Si1 0.315785 0.967434 0.331945
Si Si2 0.597921 0.238764 0.694681
Si Si3 0.250000 0.250000 0.590859
Si Si4 0.877546 0.651545 0.790927
Si Si5 0.861087 0.923455 0.966099
Si Si6 0.043223 0.333634 0.823551
Si Si7 0.647762 0.478732 0.746394
Si Si8 0.480162 0.258778 0.541648
O O1 0.328194 0.839025 0.309735
O O2 0.227517 0.995517 0.312209
O O3 0.374016 0.032632 0.259514
O O4 0.343297 0.992993 0.444907
O O5 0.531578 0.179425 0.757035
O O6 0.622023 0.352638 0.744575
O O7 0.566801 0.250262 0.580694
O O8 0.294798 0.330387 0.663936
O O9 0.304043 0.178956 0.519890
O O10 0.894894 0.741405 0.705407
O O11 0.938753 0.660724 0.879176
O O12 0.944253 0.864895 0.965883
O O13 0.846415 0.985484 0.861890
O O14 0.082325 0.451633 0.808510
O O15 0.019163 0.321565 0.937767
#
# Coordination Sequence:
#
# PCOD8228027 Si02
#       8
#     8   8   4   8   8   8   8   8
#     4  12  26  44  70 100 142 188 220 285 346 423
#     4  11  28  47  65  97 147 182 234 275 341 427
#     4  10  18  38  60 108 134 162 224 284 342 392
#     4  10  19  38  64  99 138 162 222 290 339 390
#     4  11  23  40  74 100 136 174 234 283 357 402
#     4  11  23  43  74  99 132 180 229 301 338 398
#     4  12  26  47  67 103 140 183 229 285 346 419
#     4  10  23  41  67 107 128 174 231 286 343 403
#
# _framework density 20.995894
#
# number of rings (size 3 to 8) (size 9 to 14) (size 15 to 20)
#    0.000    1.067    6.667    0.400    9.333    1.600 
#    2.400    1.333    0.000    0.000    0.000    0.000 
#    0.000    0.000    0.000    0.000    0.000    0.000 
#
# Total GULP energy -743900.562057 kJ/mol
# GULP energy per Si atom -12398.342701 kJ/mol
# Density = 2.094811 g / cm^3
# Si number density = 20.995894 Si / 1000 Ang^3
#
#
#
# Elastic Constant Matrix: (Units=GPa)
#
#
# Indices 1 2 3 4 5 6 
#
# 1 55.4543 25.4500 16.5192 0.0000 0.0000 0.0000
# 2 25.4500 124.4178 34.7049 0.0000 0.0000 0.0000
# 3 16.5192 34.7049 120.2846 0.0000 0.0000 0.0000
# 4 0.0000 0.0000 0.0000 -2.9501 0.0000 0.0000
# 5 0.0000 0.0000 0.0000 0.0000 -5.9875 0.0000
# 6 0.0000 0.0000 0.0000 0.0000 0.0000 33.0153
#
#
#
# Elastic Compliance Matrix: (Units=1/GPa)
#
#
# Indices 1 2 3 4 5 6 
#
# 1 0.020224 -0.003656 -0.001722 0.000000 0.000000 0.000000
# 2 -0.003656 0.009402 -0.002211 0.000000 0.000000 0.000000
# 3 -0.001722 -0.002211 0.009188 0.000000 0.000000 0.000000
# 4 0.000000 0.000000 0.000000 -0.338971 0.000000 0.000000
# 5 0.000000 0.000000 0.000000 0.000000 -0.167016 0.000000
# 6 0.000000 0.000000 0.000000 0.000000 0.000000 0.030289
#
#
# Mechanical properties :
#
#
# Convention : Reuss Voigt Hill
#
# Bulk Modulus (GPa) = 42.31000 50.38944 46.34972
# Shear Modulus (GPa) = -12.08235 19.71438 3.81601
#
# Velocity S-wave (km/s) = -2.40148 3.06758 1.34961
# Velocity P-wave (km/s) = 3.53636 6.04967 4.95501
#
# Compressibility (1/GPa) = 0.02363507
#
# Stress axis : x y z
#
# Youngs Moduli (GPa) = 49.44615 106.36071 108.83803
#
# Poissons Ratio (x) = 0.38890 0.18747
# Poissons Ratio (y) = 0.18080 0.24059
# Poissons Ratio (z) = 0.08517 0.23511
#
# Static dielectric constant tensor:
#      x y z
#    x 3.840070 0.000000 0.000000 
#    y 0.000000 4.336650 0.000000 
#    z 0.000000 0.000000 3.784560 
# 
# 
# High freq. dielectric constant tensor:
#      x y z
#    x 1.819920 0.000000 0.000000 
#    y 0.000000 1.816730 0.000000 
#    z 0.000000 0.000000 1.823470 
# 
# From -- ./inp_files/12821.got.cif
#   From: 2010.03.12/outbox.cif.g09.slc.cpg/sg56_7_cif.got.tgz:12821.got - 2010.04.16 15:33:40.
