data_PCOD8228439
_publ_section_title
;
Structure prediction by ZEFSAII (Michael W. Deem and Ramdas Pophale) SiO2 
 PCOD8228439
Probable space group: P C C N
;
_chemical_formula_sum "Si O2"
_cell_formula_units_Z 36
_cell_length_a 8.053870
_cell_length_b 16.209773
_cell_length_c 13.575764
_cell_angle_alpha 90.000000
_cell_angle_beta 90.000000
_cell_angle_gamma 90.000000
_cell_volume 1772.335057
_symmetry_space_group_name_H-M "P C C N"
_symmetry_group_IT_number 56
_symmetry_cell_setting 'orthorhombic'
loop_
_space_group_symop_operation_xyz
x,y,z
1/2-x,1/2-y,z
1/2+x,-y,1/2-z
-x,1/2+y,1/2-z
-x,-y,-z
1/2+x,1/2+y,-z
1/2-x,y,1/2+z
x,1/2-y,1/2+z
loop_
_atom_site_type_symbol
_atom_site_label
_atom_site_fract_x
_atom_site_fract_y
_atom_site_fract_z
Si Si1 0.522811 0.982776 0.335306
Si Si2 0.673963 0.615007 0.275830
Si Si3 0.927918 0.628087 0.991310
Si Si4 0.250000 0.250000 0.373763
Si Si5 0.261048 0.960516 0.492677
O O1 0.442685 0.037372 0.249358
O O2 0.636649 0.039627 0.405754
O O3 0.633387 0.912979 0.282563
O O4 0.380196 0.939286 0.400813
O O5 0.614143 0.651657 0.379293
O O6 0.653304 0.684456 0.193427
O O7 0.122586 0.609565 0.001619
O O8 0.887728 0.706463 0.058616
O O9 0.818474 0.550400 0.027050
#
# Coordination Sequence:
#
# PCOD8228439 Si02
#       5
#     8   8   8   4   8
#     4  10  20  37  67  98 119 166 231 263 314 391
#     4  11  23  38  68  91 128 168 218 268 327 397
#     4  10  21  40  64  91 127 173 212 263 340 381
#     4  12  24  40  62  94 134 166 208 278 332 384
#     4   9  19  39  68  90 123 168 223 271 306 400
#
# _framework density 20.312184999999999
#
# number of rings (size 3 to 8) (size 9 to 14) (size 15 to 20)
#    0.000    1.778    2.222    2.000    6.222    0.000 
#    0.000    1.111    0.000    0.000    0.000    0.000 
#    0.000    0.000    0.000    0.000    0.000    0.000 
#
# Total GULP energy -446596.041453 kJ/mol
# GULP energy per Si atom -12405.445596 kJ/mol
# Density = 2.026595 g / cm^3
# Si number density = 20.312185 Si / 1000 Ang^3
#
#
#
# Elastic Constant Matrix: (Units=GPa)
#
#
# Indices 1 2 3 4 5 6 
#
# 1 138.7559 50.4441 52.7821 0.0000 0.0000 0.0000
# 2 50.4441 83.5641 57.1489 0.0000 0.0000 0.0000
# 3 52.7821 57.1489 122.3611 0.0000 0.0000 0.0000
# 4 0.0000 0.0000 0.0000 42.7776 0.0000 0.0000
# 5 0.0000 0.0000 0.0000 0.0000 35.0481 0.0000
# 6 0.0000 0.0000 0.0000 0.0000 0.0000 26.2588
#
#
#
# Elastic Compliance Matrix: (Units=1/GPa)
#
#
# Indices 1 2 3 4 5 6 
#
# 1 0.009589 -0.004348 -0.002105 0.000000 0.000000 0.000000
# 2 -0.004348 0.019555 -0.007258 0.000000 0.000000 0.000000
# 3 -0.002105 -0.007258 0.012470 0.000000 0.000000 0.000000
# 4 0.000000 0.000000 0.000000 0.023377 0.000000 0.000000
# 5 0.000000 0.000000 0.000000 0.000000 0.028532 0.000000
# 6 0.000000 0.000000 0.000000 0.000000 0.000000 0.038082
#
#
# Mechanical properties :
#
#
# Convention : Reuss Voigt Hill
#
# Bulk Modulus (GPa) = 70.46384 73.93681 72.20032
# Shear Modulus (GPa) = 30.53278 33.10397 31.81837
#
# Velocity S-wave (km/s) = 3.88129 4.04141 3.96216
# Velocity P-wave (km/s) = 7.40619 7.63260 7.52024
#
# Compressibility (1/GPa) = 0.01419168
#
# Stress axis : x y z
#
# Youngs Moduli (GPa) = 104.29070 51.13721 80.19068
#
# Poissons Ratio (x) = 0.22237 0.16882
# Poissons Ratio (y) = 0.45351 0.58199
# Poissons Ratio (z) = 0.21955 0.37113
#
# Static dielectric constant tensor:
#      x y z
#    x 3.812940 0.000000 0.000000 
#    y 0.000000 3.331260 0.000000 
#    z 0.000000 0.000000 3.804220 
# 
# 
# High freq. dielectric constant tensor:
#      x y z
#    x 1.796910 0.000000 0.000000 
#    y 0.000000 1.754900 0.000000 
#    z 0.000000 0.000000 1.814650 
# 
# From -- ./inp_files/10327.got.cif
#   From: 2010.03.12/outbox.cif.g09.slc.cpg/sg56_6_cif.got.tgz:10327.got - 2010.04.16 15:33:40.
