data_PCOD8228292
_publ_section_title
;
Structure prediction by ZEFSAII (Michael W. Deem and Ramdas Pophale) SiO2 
 PCOD8228292
Probable space group: P C C N
;
_chemical_formula_sum "Si O2"
_cell_formula_units_Z 44
_cell_length_a 10.615125
_cell_length_b 9.853644
_cell_length_c 23.206679
_cell_angle_alpha 90.000000
_cell_angle_beta 90.000000
_cell_angle_gamma 90.000000
_cell_volume 2427.364384
_symmetry_space_group_name_H-M "P C C N"
_symmetry_group_IT_number 56
_symmetry_cell_setting 'orthorhombic'
loop_
_space_group_symop_operation_xyz
x,y,z
1/2-x,1/2-y,z
1/2+x,-y,1/2-z
-x,1/2+y,1/2-z
-x,-y,-z
1/2+x,1/2+y,-z
1/2-x,y,1/2+z
x,1/2-y,1/2+z
loop_
_atom_site_type_symbol
_atom_site_label
_atom_site_fract_x
_atom_site_fract_y
_atom_site_fract_z
Si Si1 0.750000 0.750000 0.642485
Si Si2 0.291609 0.904780 0.633508
Si Si3 0.185803 0.889990 0.518071
Si Si4 0.072144 0.064653 0.423647
Si Si5 0.549238 0.471839 0.309119
Si Si6 0.974982 0.660950 0.702877
O O1 0.853925 0.809951 0.601298
O O2 0.829374 0.645370 0.682609
O O3 0.250000 0.750000 0.625518
O O4 0.270639 0.963826 0.568320
O O5 0.199903 0.976342 0.679982
O O6 0.434203 0.912410 0.655989
O O7 0.250000 0.750000 0.498607
O O8 0.042510 0.870557 0.540347
O O9 0.172642 0.980201 0.460922
O O10 0.018776 0.981892 0.368550
O O11 0.508974 0.320092 0.289030
O O12 0.509160 0.582864 0.262710
#
# Coordination Sequence:
#
# PCOD8228292 Si02
#       6
#     4   8   8   8   8   8
#     4  10  20  34  52  78 108 142 170 220 276 316
#     4   8  16  32  53  74  99 143 180 209 265 327
#     4   9  16  34  58  75 101 142 183 219 265 321
#     4   9  19  34  54  78 107 139 181 224 266 326
#     4   9  19  34  53  77 106 143 180 218 269 320
#     4  10  20  34  54  77 109 143 176 223 267 326
#
# _framework density 18.126656000000001
#
# number of rings (size 3 to 8) (size 9 to 14) (size 15 to 20)
#    0.000    2.909    0.000    3.273    5.091    0.000 
#    3.273    3.636    8.000    0.000    0.000    0.000 
#    0.000    0.000    0.000    0.000    0.000    0.000 
#
# Total GULP energy -545086.523235 kJ/mol
# GULP energy per Si atom -12388.330074 kJ/mol
# Density = 1.808540 g / cm^3
# Si number density = 18.126656 Si / 1000 Ang^3
#
#
#
# Elastic Constant Matrix: (Units=GPa)
#
#
# Indices 1 2 3 4 5 6 
#
# 1 92.0354 18.4259 35.9438 0.0000 0.0000 0.0000
# 2 18.4259 49.5223 42.1542 0.0000 0.0000 0.0000
# 3 35.9438 42.1542 107.7769 0.0000 0.0000 0.0000
# 4 0.0000 0.0000 0.0000 19.4925 0.0000 0.0000
# 5 0.0000 0.0000 0.0000 0.0000 13.9870 0.0000
# 6 0.0000 0.0000 0.0000 0.0000 0.0000 18.9679
#
#
#
# Elastic Compliance Matrix: (Units=1/GPa)
#
#
# Indices 1 2 3 4 5 6 
#
# 1 0.012583 -0.001664 -0.003546 0.000000 0.000000 0.000000
# 2 -0.001664 0.030491 -0.011371 0.000000 0.000000 0.000000
# 3 -0.003546 -0.011371 0.014908 0.000000 0.000000 0.000000
# 4 0.000000 0.000000 0.000000 0.051302 0.000000 0.000000
# 5 0.000000 0.000000 0.000000 0.000000 0.071495 0.000000
# 6 0.000000 0.000000 0.000000 0.000000 0.000000 0.052721
#
#
# Mechanical properties :
#
#
# Convention : Reuss Voigt Hill
#
# Bulk Modulus (GPa) = 40.28702 49.15358 44.72030
# Shear Modulus (GPa) = 18.18611 20.67686 19.43148
#
# Velocity S-wave (km/s) = 3.17090 3.38107 3.27767
# Velocity P-wave (km/s) = 5.97324 6.51289 6.24890
#
# Compressibility (1/GPa) = 0.02482189
#
# Stress axis : x y z
#
# Youngs Moduli (GPa) = 79.47071 32.79647 67.07598
#
# Poissons Ratio (x) = 0.05456 0.23784
# Poissons Ratio (y) = 0.13221 0.76272
# Poissons Ratio (z) = 0.28179 0.37293
#
# Static dielectric constant tensor:
#      x y z
#    x 3.904050 0.000000 0.000000 
#    y 0.000000 2.971240 0.000000 
#    z 0.000000 0.000000 3.605530 
# 
# 
# High freq. dielectric constant tensor:
#      x y z
#    x 1.713320 0.000000 0.000000 
#    y 0.000000 1.652780 0.000000 
#    z 0.000000 0.000000 1.710130 
# 
# From -- ./inp_files/18650.got.cif
#   From: 2010.03.12/outbox.cif.g09.slc.cpg/sg56_10_cif.got.tgz:18650.got - 2010.04.16 15:33:40.
