data_PCOD8228173
_publ_section_title
;
Structure prediction by ZEFSAII (Michael W. Deem and Ramdas Pophale) SiO2 
 PCOD8228173
Probable space group: P C C N
;
_chemical_formula_sum "Si O2"
_cell_formula_units_Z 52
_cell_length_a 10.557717
_cell_length_b 16.716097
_cell_length_c 14.068855
_cell_angle_alpha 90.000000
_cell_angle_beta 90.000000
_cell_angle_gamma 90.000000
_cell_volume 2482.925294
_symmetry_space_group_name_H-M "P C C N"
_symmetry_group_IT_number 56
_symmetry_cell_setting 'orthorhombic'
loop_
_space_group_symop_operation_xyz
x,y,z
1/2-x,1/2-y,z
1/2+x,-y,1/2-z
-x,1/2+y,1/2-z
-x,-y,-z
1/2+x,1/2+y,-z
1/2-x,y,1/2+z
x,1/2-y,1/2+z
loop_
_atom_site_type_symbol
_atom_site_label
_atom_site_fract_x
_atom_site_fract_y
_atom_site_fract_z
Si Si1 0.908710 0.104201 0.191202
Si Si2 0.000805 0.189895 0.769867
Si Si3 0.435043 0.352939 0.356243
Si Si4 0.912617 0.813355 0.436493
Si Si5 0.358028 0.364466 0.060755
Si Si6 0.250000 0.750000 0.769986
Si Si7 0.669533 0.934567 0.636784
O O1 0.824881 0.183083 0.167289
O O2 0.947605 0.103652 0.303049
O O3 0.043367 0.104644 0.137929
O O4 0.826582 0.027341 0.164973
O O5 0.082060 0.263761 0.811758
O O6 0.996313 0.187485 0.654249
O O7 0.052902 0.106878 0.808550
O O8 0.852653 0.203781 0.796826
O O9 0.466563 0.357134 0.469124
O O10 0.302775 0.396338 0.334614
O O11 0.892539 0.723830 0.476205
O O12 0.784637 0.856906 0.398386
O O13 0.358895 0.426903 0.974571
#
# Coordination Sequence:
#
# PCOD8228173 Si02
#       7
#     8   8   8   8   8   4   8
#     4  11  23  42  61  86 129 163 201 250 312 370
#     4  11  21  39  62  87 121 162 202 251 308 366
#     4  10  21  39  63  93 119 157 204 257 302 359
#     4  10  19  36  65  91 116 149 209 252 298 361
#     4  10  19  36  63  93 114 150 201 258 299 356
#     4  10  24  40  58  82 126 166 196 244 310 378
#     4  11  23  36  67  92 121 155 210 258 303 359
#
# _framework density 20.943038999999999
#
# number of rings (size 3 to 8) (size 9 to 14) (size 15 to 20)
#    0.000    1.538    4.615    1.846    4.308    0.000 
#    0.000    7.692    3.385    0.000    0.000    0.000 
#    0.000    0.000    0.000    0.000    0.000    0.000 
#
# Total GULP energy -644472.580091 kJ/mol
# GULP energy per Si atom -12393.703463 kJ/mol
# Density = 2.089537 g / cm^3
# Si number density = 20.943039 Si / 1000 Ang^3
#
#
#
# Elastic Constant Matrix: (Units=GPa)
#
#
# Indices 1 2 3 4 5 6 
#
# 1 98.7337 37.1124 36.3394 0.0000 0.0000 0.0000
# 2 37.1124 89.0995 18.7153 0.0000 0.0000 0.0000
# 3 36.3394 18.7153 86.7673 0.0000 0.0000 0.0000
# 4 0.0000 0.0000 0.0000 22.6100 0.0000 0.0000
# 5 0.0000 0.0000 0.0000 0.0000 21.3180 0.0000
# 6 0.0000 0.0000 0.0000 0.0000 0.0000 24.3950
#
#
#
# Elastic Compliance Matrix: (Units=1/GPa)
#
#
# Indices 1 2 3 4 5 6 
#
# 1 0.013617 -0.004686 -0.004692 0.000000 0.000000 0.000000
# 2 -0.004686 0.013369 -0.000921 0.000000 0.000000 0.000000
# 3 -0.004692 -0.000921 0.013689 0.000000 0.000000 0.000000
# 4 0.000000 0.000000 0.000000 0.044228 0.000000 0.000000
# 5 0.000000 0.000000 0.000000 0.000000 0.046909 0.000000
# 6 0.000000 0.000000 0.000000 0.000000 0.000000 0.040992
#
#
# Mechanical properties :
#
#
# Convention : Reuss Voigt Hill
#
# Bulk Modulus (GPa) = 49.81097 50.99275 50.40186
# Shear Modulus (GPa) = 24.98831 25.82682 25.40757
#
# Velocity S-wave (km/s) = 3.45796 3.51550 3.48684
# Velocity P-wave (km/s) = 6.30705 6.39370 6.35053
#
# Compressibility (1/GPa) = 0.02007590
#
# Stress axis : x y z
#
# Youngs Moduli (GPa) = 73.43962 74.80125 73.05226
#
# Poissons Ratio (x) = 0.35053 0.34277
# Poissons Ratio (y) = 0.34415 0.06728
# Poissons Ratio (z) = 0.34458 0.06889
#
# Static dielectric constant tensor:
#      x y z
#    x 3.765060 0.000000 0.000000 
#    y 0.000000 3.640740 0.000000 
#    z 0.000000 0.000000 3.612930 
# 
# 
# High freq. dielectric constant tensor:
#      x y z
#    x 1.814680 0.000000 0.000000 
#    y 0.000000 1.803210 0.000000 
#    z 0.000000 0.000000 1.808840 
# 
# From -- ./inp_files/11799.got.cif
#   From: 2010.03.12/outbox.cif.g09.slc.cpg/sg56_6_cif.got.tgz:11799.got - 2010.04.16 15:33:40.
