data_PCOD8228096
_publ_section_title
;
Structure prediction by ZEFSAII (Michael W. Deem and Ramdas Pophale) SiO2 
 PCOD8228096
Probable space group: P C C N
;
_chemical_formula_sum "Si O2"
_cell_formula_units_Z 48
_cell_length_a 9.007128
_cell_length_b 18.312428
_cell_length_c 15.955807
_cell_angle_alpha 90.000000
_cell_angle_beta 90.000000
_cell_angle_gamma 90.000000
_cell_volume 2631.788829
_symmetry_space_group_name_H-M "P C C N"
_symmetry_group_IT_number 56
_symmetry_cell_setting 'orthorhombic'
loop_
_space_group_symop_operation_xyz
x,y,z
1/2-x,1/2-y,z
1/2+x,-y,1/2-z
-x,1/2+y,1/2-z
-x,-y,-z
1/2+x,1/2+y,-z
1/2-x,y,1/2+z
x,1/2-y,1/2+z
loop_
_atom_site_type_symbol
_atom_site_label
_atom_site_fract_x
_atom_site_fract_y
_atom_site_fract_z
Si Si1 0.088088 0.167796 0.328464
Si Si2 0.083443 0.473842 0.918669
Si Si3 0.393955 0.067206 0.490040
Si Si4 0.960532 0.952784 0.264221
Si Si5 0.367368 0.427423 0.179147
Si Si6 0.567048 0.673497 0.147138
O O1 0.015183 0.102969 0.384396
O O2 0.084185 0.145039 0.230408
O O3 0.001014 0.244155 0.345086
O O4 0.256603 0.178523 0.355046
O O5 0.060825 0.534936 0.846841
O O6 0.255858 0.462514 0.936516
O O7 0.000000 0.500000 0.000000
O O8 0.347497 0.095230 0.582353
O O9 0.476298 0.133136 0.440198
O O10 0.500000 0.000000 0.500000
O O11 0.786423 0.960760 0.285384
O O12 0.992277 0.872315 0.226943
O O13 0.005555 0.011216 0.192340
#
# Coordination Sequence:
#
# PCOD8228096 Si02
#       6
#     8   8   8   8   8   8
#     4   8  18  33  51  76 110 135 173 223 269 315
#     4  10  19  34  53  80 106 136 178 218 267 315
#     4  11  20  33  55  84 107 138 180 227 265 314
#     4  10  19  33  55  76 108 141 177 219 268 324
#     4  10  19  33  54  81 105 141 179 218 272 320
#     4   9  17  34  51  78 107 137 175 224 267 311
#
# _framework density 18.238544000000001
#
# number of rings (size 3 to 8) (size 9 to 14) (size 15 to 20)
#    0.000    2.333    3.333    1.000    0.000    0.000 
#    3.000    3.333    0.000    9.000    0.000    0.000 
#    0.000    0.000    0.000    0.000    0.000    0.000 
#
# Total GULP energy -594838.190104 kJ/mol
# GULP energy per Si atom -12392.462294 kJ/mol
# Density = 1.819703 g / cm^3
# Si number density = 18.238544 Si / 1000 Ang^3
#
#
#
# Elastic Constant Matrix: (Units=GPa)
#
#
# Indices 1 2 3 4 5 6 
#
# 1 40.1360 34.0998 28.0639 0.0000 0.0000 0.0000
# 2 34.0998 149.5035 76.5730 0.0000 0.0000 0.0000
# 3 28.0639 76.5730 146.3232 0.0000 0.0000 0.0000
# 4 0.0000 0.0000 0.0000 26.0049 0.0000 0.0000
# 5 0.0000 0.0000 0.0000 0.0000 26.3842 0.0000
# 6 0.0000 0.0000 0.0000 0.0000 0.0000 19.4962
#
#
#
# Elastic Compliance Matrix: (Units=1/GPa)
#
#
# Indices 1 2 3 4 5 6 
#
# 1 0.031939 -0.005666 -0.003161 0.000000 0.000000 0.000000
# 2 -0.005666 0.010143 -0.004221 0.000000 0.000000 0.000000
# 3 -0.003161 -0.004221 0.009649 0.000000 0.000000 0.000000
# 4 0.000000 0.000000 0.000000 0.038454 0.000000 0.000000
# 5 0.000000 0.000000 0.000000 0.000000 0.037901 0.000000
# 6 0.000000 0.000000 0.000000 0.000000 0.000000 0.051292
#
#
# Mechanical properties :
#
#
# Convention : Reuss Voigt Hill
#
# Bulk Modulus (GPa) = 39.00802 68.15958 53.58380
# Shear Modulus (GPa) = 23.36219 27.52549 25.44384
#
# Velocity S-wave (km/s) = 3.58288 3.88905 3.73910
# Velocity P-wave (km/s) = 6.20888 7.59069 6.93429
#
# Compressibility (1/GPa) = 0.02563575
#
# Stress axis : x y z
#
# Youngs Moduli (GPa) = 31.30953 98.58721 103.63249
#
# Poissons Ratio (x) = 0.55861 0.32754
# Poissons Ratio (y) = 0.17740 0.43747
# Poissons Ratio (z) = 0.09896 0.41618
#
# Static dielectric constant tensor:
#      x y z
#    x 3.160650 0.000000 0.000000 
#    y 0.000000 3.861480 0.000000 
#    z 0.000000 0.000000 3.839030 
# 
# 
# High freq. dielectric constant tensor:
#      x y z
#    x 1.670900 0.000000 0.000000 
#    y 0.000000 1.696400 0.000000 
#    z 0.000000 0.000000 1.721720 
# 
# From -- ./inp_files/10781.got.cif
#   From: 2010.03.12/outbox.cif.g09.slc.cpg/sg56_6_cif.got.tgz:10781.got - 2010.04.16 15:33:40.
