data_PCOD8228306
_publ_section_title
;
Structure prediction by ZEFSAII (Michael W. Deem and Ramdas Pophale) SiO2 
 PCOD8228306
Probable space group: P C C N
;
_chemical_formula_sum "Si O2"
_cell_formula_units_Z 64
_cell_length_a 5.764135
_cell_length_b 21.850789
_cell_length_c 23.638621
_cell_angle_alpha 90.000000
_cell_angle_beta 90.000000
_cell_angle_gamma 90.000000
_cell_volume 2977.305534
_symmetry_space_group_name_H-M "P C C N"
_symmetry_group_IT_number 56
_symmetry_cell_setting 'orthorhombic'
loop_
_space_group_symop_operation_xyz
x,y,z
1/2-x,1/2-y,z
1/2+x,-y,1/2-z
-x,1/2+y,1/2-z
-x,-y,-z
1/2+x,1/2+y,-z
1/2-x,y,1/2+z
x,1/2-y,1/2+z
loop_
_atom_site_type_symbol
_atom_site_label
_atom_site_fract_x
_atom_site_fract_y
_atom_site_fract_z
Si Si1 0.654588 0.525611 0.105924
Si Si2 0.274562 0.022715 0.684120
Si Si3 0.928818 0.801303 0.558750
Si Si4 0.561203 0.581587 0.702450
Si Si5 0.499073 0.718251 0.688633
Si Si6 0.257357 0.816256 0.958957
Si Si7 0.980817 0.571515 0.915394
Si Si8 0.865983 0.600262 0.505573
O O1 0.502880 0.482741 0.146314
O O2 0.781131 0.575377 0.146325
O O3 0.828128 0.480221 0.072606
O O4 0.510171 0.557507 0.053784
O O5 0.306286 0.053575 0.744258
O O6 0.094572 0.065125 0.649919
O O7 0.178567 0.954266 0.692931
O O8 0.750000 0.750000 0.538198
O O9 0.011758 0.790832 0.621968
O O10 0.815824 0.866848 0.547220
O O11 0.156308 0.798758 0.521105
O O12 0.501861 0.651572 0.717067
O O13 0.750000 0.750000 0.705116
O O14 0.250000 0.750000 0.707023
O O15 0.250000 0.750000 0.926389
O O16 0.427304 0.859435 0.923191
O O17 0.019009 0.852267 0.969744
O O18 0.768865 0.560005 0.958812
#
# Coordination Sequence:
#
# PCOD8228306 Si02
#       8
#     8   8   8   8   8   8   8   8
#     4  11  23  42  66 101 130 174 219 287 352 407
#     4  11  24  43  70  97 128 177 233 297 346 418
#     4  10  20  34  57  95 132 173 222 274 339 414
#     4  11  24  42  72 100 132 177 237 291 356 422
#     4  11  26  42  69 104 148 186 229 292 364 431
#     4  11  22  37  63  92 133 183 226 276 337 420
#     4  10  25  41  62  95 132 174 226 284 343 419
#     4  11  22  38  64  96 135 174 217 282 344 425
#
# _framework density 21.495946
#
# number of rings (size 3 to 8) (size 9 to 14) (size 15 to 20)
#    0.000    1.250    3.750    1.500    5.250    3.000 
#    0.000    0.000    5.500    0.000    0.000    0.000 
#    0.000    0.000    0.000    0.000    0.000    0.000 
#
# Total GULP energy -793007.324630 kJ/mol
# GULP energy per Si atom -12390.739447 kJ/mol
# Density = 2.144702 g / cm^3
# Si number density = 21.495946 Si / 1000 Ang^3
#
#
#
# Elastic Constant Matrix: (Units=GPa)
#
#
# Indices 1 2 3 4 5 6 
#
# 1 95.7737 39.2958 25.6565 0.0000 0.0000 0.0000
# 2 39.2958 119.1705 44.2629 0.0000 0.0000 0.0000
# 3 25.6565 44.2629 76.1982 0.0000 0.0000 0.0000
# 4 0.0000 0.0000 0.0000 28.5923 0.0000 0.0000
# 5 0.0000 0.0000 0.0000 0.0000 27.6391 0.0000
# 6 0.0000 0.0000 0.0000 0.0000 0.0000 35.0508
#
#
#
# Elastic Compliance Matrix: (Units=1/GPa)
#
#
# Indices 1 2 3 4 5 6 
#
# 1 0.012381 -0.003231 -0.002292 0.000000 0.000000 0.000000
# 2 -0.003231 0.011543 -0.005617 0.000000 0.000000 0.000000
# 3 -0.002292 -0.005617 0.017158 0.000000 0.000000 0.000000
# 4 0.000000 0.000000 0.000000 0.034974 0.000000 0.000000
# 5 0.000000 0.000000 0.000000 0.000000 0.036181 0.000000
# 6 0.000000 0.000000 0.000000 0.000000 0.000000 0.028530
#
#
# Mechanical properties :
#
#
# Convention : Reuss Voigt Hill
#
# Bulk Modulus (GPa) = 53.18642 56.61921 54.90282
# Shear Modulus (GPa) = 29.53058 30.38492 29.95775
#
# Velocity S-wave (km/s) = 3.71047 3.76376 3.73721
# Velocity P-wave (km/s) = 6.56909 6.72938 6.64972
#
# Compressibility (1/GPa) = 0.01880179
#
# Stress axis : x y z
#
# Youngs Moduli (GPa) = 80.76873 86.63039 58.28057
#
# Poissons Ratio (x) = 0.27994 0.13356
# Poissons Ratio (y) = 0.26099 0.32738
# Poissons Ratio (z) = 0.18510 0.48663
#
# Static dielectric constant tensor:
#      x y z
#    x 3.977750 0.000000 0.000000 
#    y 0.000000 4.372560 0.000000 
#    z 0.000000 0.000000 3.664100 
# 
# 
# High freq. dielectric constant tensor:
#      x y z
#    x 1.844520 0.000000 0.000000 
#    y 0.000000 1.851010 0.000000 
#    z 0.000000 0.000000 1.825210 
# 
# From -- ./inp_files/20199.got.cif
#   From: 2010.03.12/outbox.cif.g09.slc.cpg/sg56_11_cif.got.tgz:20199.got - 2010.04.16 15:33:40.
