data_PCOD8228985
_publ_section_title
;
Structure prediction by ZEFSAII (Michael W. Deem and Ramdas Pophale) SiO2 
 PCOD8228985
Probable space group: P C C N
;
_chemical_formula_sum "Si O2"
_cell_formula_units_Z 64
_cell_length_a 17.309117
_cell_length_b 14.118857
_cell_length_c 12.803563
_cell_angle_alpha 90.000000
_cell_angle_beta 90.000000
_cell_angle_gamma 90.000000
_cell_volume 3128.998074
_symmetry_space_group_name_H-M "P C C N"
_symmetry_group_IT_number 56
_symmetry_cell_setting 'orthorhombic'
loop_
_space_group_symop_operation_xyz
x,y,z
1/2-x,1/2-y,z
1/2+x,-y,1/2-z
-x,1/2+y,1/2-z
-x,-y,-z
1/2+x,1/2+y,-z
1/2-x,y,1/2+z
x,1/2-y,1/2+z
loop_
_atom_site_type_symbol
_atom_site_label
_atom_site_fract_x
_atom_site_fract_y
_atom_site_fract_z
Si Si1 0.591566 0.098715 0.719656
Si Si2 0.661461 0.722471 0.960470
Si Si3 0.915174 0.426143 0.407223
Si Si4 0.590801 0.596546 0.545813
Si Si5 0.909199 0.096546 0.454187
Si Si6 0.838539 0.222471 0.039531
Si Si7 0.584824 0.926143 0.592776
Si Si8 0.091568 0.098716 0.219656
O O1 0.621372 0.115836 0.836945
O O2 0.637289 0.171455 0.646245
O O3 0.499999 0.116016 0.704661
O O4 0.611801 0.988432 0.692377
O O5 0.750000 0.750000 0.958000
O O6 0.637291 0.671455 0.853755
O O7 0.612433 0.818029 0.969750
O O8 0.645049 0.655955 0.061823
O O9 0.854948 0.344046 0.438177
O O10 0.923170 0.500000 0.500000
O O11 0.888196 0.488433 0.307623
O O12 0.999999 0.379578 0.386985
O O13 0.628014 0.500000 0.500000
O O14 0.500000 0.584447 0.550999
O O15 0.621373 0.615836 0.663054
O O16 0.887567 0.181972 0.530248
O O17 0.750000 0.250000 0.042007
#
# Coordination Sequence:
#
# PCOD8228985 Si02
#       8
#     8   8   8   8   8   8   8   8
#     4   9  19  38  63  84 105 145 197 241 279 323
#     4  11  22  35  55  86 119 150 183 225 281 347
#     4   8  15  32  57  80 103 140 195 241 268 313
#     4  10  22  39  58  84 116 147 187 238 284 328
#     4  10  22  39  58  84 116 147 187 238 284 328
#     4  11  22  35  55  86 119 150 183 225 281 347
#     4   8  15  32  57  80 103 140 195 241 268 313
#     4   9  19  38  63  84 105 145 197 241 279 323
#
# _framework density 20.453831999999998
#
# number of rings (size 3 to 8) (size 9 to 14) (size 15 to 20)
#    0.000    2.500    0.000    3.750    0.000    6.000 
#    0.000    7.500    0.000    0.000    0.000    0.000 
#    0.000    0.000    0.000    0.000    0.000    0.000 
#
# Total GULP energy -793348.503169 kJ/mol
# GULP energy per Si atom -12396.070362 kJ/mol
# Density = 2.040728 g / cm^3
# Si number density = 20.453832 Si / 1000 Ang^3
#
#
#
# Elastic Constant Matrix: (Units=GPa)
#
#
# Indices 1 2 3 4 5 6 
#
# 1 73.8796 47.6447 44.8689 0.0000 0.0000 0.0000
# 2 47.6447 142.6833 60.0997 0.0000 0.0000 0.0000
# 3 44.8689 60.0997 104.0817 0.0000 0.0000 0.0000
# 4 0.0000 0.0000 0.0000 24.8211 0.0000 0.0000
# 5 0.0000 0.0000 0.0000 0.0000 8.7836 0.0000
# 6 0.0000 0.0000 0.0000 0.0000 0.0000 16.1737
#
#
#
# Elastic Compliance Matrix: (Units=1/GPa)
#
#
# Indices 1 2 3 4 5 6 
#
# 1 0.019936 -0.004013 -0.006277 0.000000 0.000000 0.000000
# 2 -0.004013 0.010069 -0.004084 0.000000 0.000000 0.000000
# 3 -0.006277 -0.004084 0.014672 0.000000 0.000000 0.000000
# 4 0.000000 0.000000 0.000000 0.040288 0.000000 0.000000
# 5 0.000000 0.000000 0.000000 0.000000 0.113848 0.000000
# 6 0.000000 0.000000 0.000000 0.000000 0.000000 0.061829
#
#
# Mechanical properties :
#
#
# Convention : Reuss Voigt Hill
#
# Bulk Modulus (GPa) = 62.78029 69.54124 66.16076
# Shear Modulus (GPa) = 16.96646 21.15777 19.06211
#
# Velocity S-wave (km/s) = 2.88323 3.21972 3.05611
# Velocity P-wave (km/s) = 6.46872 6.92063 6.69848
#
# Compressibility (1/GPa) = 0.01592857
#
# Stress axis : x y z
#
# Youngs Moduli (GPa) = 50.16148 99.31695 68.15708
#
# Poissons Ratio (x) = 0.39856 0.42781
# Poissons Ratio (y) = 0.20130 0.27835
# Poissons Ratio (z) = 0.31486 0.40561
#
# Static dielectric constant tensor:
#      x y z
#    x 3.393180 0.000000 0.000000 
#    y 0.000000 4.082000 0.000000 
#    z 0.000000 0.000000 3.947170 
# 
# 
# High freq. dielectric constant tensor:
#      x y z
#    x 1.769180 0.000000 0.000000 
#    y 0.000000 1.806910 0.000000 
#    z 0.000000 0.000000 1.793210 
# 
# From -- ./inp_files/8423.got.cif
#   From: 2010.03.12/outbox.cif.g09.slc.cpg/sg56_5_cif.got.tgz:8423.got - 2010.04.16 15:33:40.
