data_PCOD8228923
_publ_section_title
;
Structure prediction by ZEFSAII (Michael W. Deem and Ramdas Pophale) SiO2 
 PCOD8228923
Probable space group: P C C N
;
_chemical_formula_sum "Si O2"
_cell_formula_units_Z 48
_cell_length_a 8.461458
_cell_length_b 11.030686
_cell_length_c 23.877320
_cell_angle_alpha 90.000000
_cell_angle_beta 90.000000
_cell_angle_gamma 90.000000
_cell_volume 2228.606049
_symmetry_space_group_name_H-M "P C C N"
_symmetry_group_IT_number 56
_symmetry_cell_setting 'orthorhombic'
loop_
_space_group_symop_operation_xyz
x,y,z
1/2-x,1/2-y,z
1/2+x,-y,1/2-z
-x,1/2+y,1/2-z
-x,-y,-z
1/2+x,1/2+y,-z
1/2-x,y,1/2+z
x,1/2-y,1/2+z
loop_
_atom_site_type_symbol
_atom_site_label
_atom_site_fract_x
_atom_site_fract_y
_atom_site_fract_z
Si Si1 0.716955 0.106478 0.713459
Si Si2 0.096456 0.525926 0.682188
Si Si3 0.719106 0.620367 0.407029
Si Si4 0.856577 0.924110 0.023798
Si Si5 0.573049 0.738662 0.124052
Si Si6 0.600746 0.004219 0.109251
O O1 0.750000 0.250000 0.713041
O O2 0.769560 0.046477 0.771735
O O3 0.533561 0.071243 0.703643
O O4 0.819560 0.044083 0.666177
O O5 0.178900 0.478730 0.625891
O O6 0.023351 0.657663 0.667896
O O7 0.750000 0.750000 0.378078
O O8 0.764711 0.629821 0.471632
O O9 0.532139 0.599523 0.406814
O O10 0.926605 0.816862 0.061741
O O11 0.735670 0.003042 0.061493
O O12 0.000000 0.000000 0.000000
O O13 0.750000 0.750000 0.148135
O O14 0.509323 0.875560 0.118070
#
# Coordination Sequence:
#
# PCOD8228923 Si02
#       6
#     8   8   8   8   8   8
#     4  12  27  45  70 100 137 178 233 291 352 420
#     4  12  26  45  68 100 136 183 228 289 352 418
#     4  12  25  44  68 100 142 182 233 283 344 417
#     4  11  21  44  71 104 141 182 226 284 350 416
#     4  10  21  44  72  96 138 177 231 285 347 420
#     4  11  24  45  70 104 137 187 234 284 354 419
#
# _framework density 21.538128
#
# number of rings (size 3 to 8) (size 9 to 14) (size 15 to 20)
#    0.000    0.667    5.000    4.000    4.667    0.000 
#    0.000    1.667    0.000    0.000    0.000    0.000 
#    0.000    0.000    0.000    0.000    0.000    0.000 
#
# Total GULP energy -595223.994432 kJ/mol
# GULP energy per Si atom -12400.499884 kJ/mol
# Density = 2.148911 g / cm^3
# Si number density = 21.538128 Si / 1000 Ang^3
#
#
#
# Elastic Constant Matrix: (Units=GPa)
#
#
# Indices 1 2 3 4 5 6 
#
# 1 66.5903 36.7653 33.7711 0.0000 0.0000 0.0000
# 2 36.7653 113.7345 29.9130 0.0000 0.0000 0.0000
# 3 33.7711 29.9130 120.0017 0.0000 0.0000 0.0000
# 4 0.0000 0.0000 0.0000 26.9084 0.0000 0.0000
# 5 0.0000 0.0000 0.0000 0.0000 -0.1272 0.0000
# 6 0.0000 0.0000 0.0000 0.0000 0.0000 32.5099
#
#
#
# Elastic Compliance Matrix: (Units=1/GPa)
#
#
# Indices 1 2 3 4 5 6 
#
# 1 0.020192 -0.005386 -0.004340 0.000000 0.000000 0.000000
# 2 -0.005386 0.010846 -0.001188 0.000000 0.000000 0.000000
# 3 -0.004340 -0.001188 0.009851 0.000000 0.000000 0.000000
# 4 0.000000 0.000000 0.000000 0.037163 0.000000 0.000000
# 5 0.000000 0.000000 0.000000 0.000000 -7.863727 0.000000
# 6 0.000000 0.000000 0.000000 0.000000 0.000000 0.030760
#
#
# Mechanical properties :
#
#
# Convention : Reuss Voigt Hill
#
# Bulk Modulus (GPa) = 52.46253 55.69170 54.07712
# Shear Modulus (GPa) = -0.64710 25.18339 12.26814
#
# Velocity S-wave (km/s) = -0.54872 3.42314 2.38922
# Velocity P-wave (km/s) = 4.89994 6.44494 5.72480
#
# Compressibility (1/GPa) = 0.01906122
#
# Stress axis : x y z
#
# Youngs Moduli (GPa) = 49.52551 92.20187 101.51608
#
# Poissons Ratio (x) = 0.49657 0.44057
# Poissons Ratio (y) = 0.26673 0.12059
# Poissons Ratio (z) = 0.21493 0.10953
#
# Static dielectric constant tensor:
#      x y z
#    x 2.566760 0.000000 0.000000 
#    y 0.000000 4.368050 0.000000 
#    z 0.000000 0.000000 3.975280 
# 
# 
# High freq. dielectric constant tensor:
#      x y z
#    x 1.848690 0.000000 0.000000 
#    y 0.000000 1.852410 0.000000 
#    z 0.000000 0.000000 1.855270 
# 
# From -- ./inp_files/20503.got.cif
#   From: 2010.03.12/outbox.cif.g09.slc.cpg/sg56_11_cif.got.tgz:20503.got - 2010.04.16 15:33:40.
