data_PCOD8228279
_publ_section_title
;
Structure prediction by ZEFSAII (Michael W. Deem and Ramdas Pophale) SiO2 
 PCOD8228279
Probable space group: P C C N
;
_chemical_formula_sum "Si O2"
_cell_formula_units_Z 60
_cell_length_a 28.958996
_cell_length_b 13.258895
_cell_length_c 8.770219
_cell_angle_alpha 90.000000
_cell_angle_beta 90.000000
_cell_angle_gamma 90.000000
_cell_volume 3367.450888
_symmetry_space_group_name_H-M "P C C N"
_symmetry_group_IT_number 56
_symmetry_cell_setting 'orthorhombic'
loop_
_space_group_symop_operation_xyz
x,y,z
1/2-x,1/2-y,z
1/2+x,-y,1/2-z
-x,1/2+y,1/2-z
-x,-y,-z
1/2+x,1/2+y,-z
1/2-x,y,1/2+z
x,1/2-y,1/2+z
loop_
_atom_site_type_symbol
_atom_site_label
_atom_site_fract_x
_atom_site_fract_y
_atom_site_fract_z
Si Si1 0.028803 0.002822 0.792229
Si Si2 0.392624 0.707803 0.279513
Si Si3 0.034631 0.223697 0.880510
Si Si4 0.750000 0.250000 0.838478
Si Si5 0.935678 0.615358 0.339266
Si Si6 0.888114 0.047169 0.980259
Si Si7 0.688090 0.330050 0.098392
Si Si8 0.945055 0.154905 0.424917
O O1 0.026355 0.124437 0.773827
O O2 0.038311 0.957358 0.622875
O O3 0.068390 0.969997 0.910570
O O4 0.980416 0.957665 0.852390
O O5 0.391118 0.647273 0.121478
O O6 0.343799 0.734254 0.355814
O O7 0.414081 0.813201 0.221821
O O8 0.421633 0.649068 0.409239
O O9 0.064272 0.314878 0.808547
O O10 0.985432 0.263237 0.935993
O O11 0.064677 0.194323 0.023954
O O12 0.773492 0.336761 0.731638
O O13 0.711788 0.306567 0.937536
O O14 0.889063 0.547437 0.360610
O O15 0.841033 0.064923 0.078627
#
# Coordination Sequence:
#
# PCOD8228279 Si02
#       8
#     8   8   8   4   8   8   8   8
#     4  10  20  33  48  71 103 143 187 231 263 303
#     4  12  19  30  49  76  99 134 176 214 247 315
#     4  10  20  33  47  67 103 146 179 229 275 287
#     4  10  22  36  52  78 112 138 158 206 276 324
#     4  10  21  34  51  70 106 143 188 233 265 304
#     4  11  20  34  51  75 102 140 183 207 260 315
#     4  11  20  34  53  76 108 140 162 205 263 328
#     4  11  19  29  47  70  99 137 184 219 255 305
#
# _framework density 17.817633000000001
#
# number of rings (size 3 to 8) (size 9 to 14) (size 15 to 20)
#    0.000    1.333    4.000    4.800    0.000    1.067 
#    0.000    3.333    0.000    0.000    0.000    0.000 
#    0.000   12.800    0.000    0.000    0.000    0.000 
#
# Total GULP energy -743350.765816 kJ/mol
# GULP energy per Si atom -12389.179430 kJ/mol
# Density = 1.777708 g / cm^3
# Si number density = 17.817633 Si / 1000 Ang^3
#
#
#
# Elastic Constant Matrix: (Units=GPa)
#
#
# Indices 1 2 3 4 5 6 
#
# 1 69.7288 25.8886 19.7515 0.0000 0.0000 0.0000
# 2 25.8886 56.7868 3.7403 0.0000 0.0000 0.0000
# 3 19.7515 3.7403 47.3897 0.0000 0.0000 0.0000
# 4 0.0000 0.0000 0.0000 26.4967 0.0000 0.0000
# 5 0.0000 0.0000 0.0000 0.0000 26.8342 0.0000
# 6 0.0000 0.0000 0.0000 0.0000 0.0000 26.1094
#
#
#
# Elastic Compliance Matrix: (Units=1/GPa)
#
#
# Indices 1 2 3 4 5 6 
#
# 1 0.019601 -0.008442 -0.007503 0.000000 0.000000 0.000000
# 2 -0.008442 0.021337 0.001834 0.000000 0.000000 0.000000
# 3 -0.007503 0.001834 0.024084 0.000000 0.000000 0.000000
# 4 0.000000 0.000000 0.000000 0.037741 0.000000 0.000000
# 5 0.000000 0.000000 0.000000 0.000000 0.037266 0.000000
# 6 0.000000 0.000000 0.000000 0.000000 0.000000 0.038300
#
#
# Mechanical properties :
#
#
# Convention : Reuss Voigt Hill
#
# Bulk Modulus (GPa) = 27.17296 30.29625 28.73460
# Shear Modulus (GPa) = 22.85013 24.18971 23.51992
#
# Velocity S-wave (km/s) = 3.58501 3.68860 3.63717
# Velocity P-wave (km/s) = 5.69386 5.93139 5.81384
#
# Compressibility (1/GPa) = 0.03680129
#
# Stress axis : x y z
#
# Youngs Moduli (GPa) = 51.01833 46.86608 41.52127
#
# Poissons Ratio (x) = 0.39563 0.31154
# Poissons Ratio (y) = 0.43068 -0.07616
# Poissons Ratio (z) = 0.38280 -0.08597
#
# Static dielectric constant tensor:
#      x y z
#    x 3.222840 0.000000 0.000000 
#    y 0.000000 3.422920 0.000000 
#    z 0.000000 0.000000 3.421660 
# 
# 
# High freq. dielectric constant tensor:
#      x y z
#    x 1.651250 0.000000 0.000000 
#    y 0.000000 1.668670 0.000000 
#    z 0.000000 0.000000 1.711800 
# 
# From -- ./inp_files/5179.got.cif
#   From: 2010.03.12/outbox.cif.g09.slc.cpg/sg56_3_cif.got.tgz:5179.got - 2010.04.16 15:33:40.
