data_PCOD8228374
_publ_section_title
;
Structure prediction by ZEFSAII (Michael W. Deem and Ramdas Pophale) SiO2 
 PCOD8228374
Probable space group: P C C N
;
_chemical_formula_sum "Si O2"
_cell_formula_units_Z 64
_cell_length_a 10.085631
_cell_length_b 12.280580
_cell_length_c 23.368756
_cell_angle_alpha 90.000000
_cell_angle_beta 90.000000
_cell_angle_gamma 90.000000
_cell_volume 2894.393321
_symmetry_space_group_name_H-M "P C C N"
_symmetry_group_IT_number 56
_symmetry_cell_setting 'orthorhombic'
loop_
_space_group_symop_operation_xyz
x,y,z
1/2-x,1/2-y,z
1/2+x,-y,1/2-z
-x,1/2+y,1/2-z
-x,-y,-z
1/2+x,1/2+y,-z
1/2-x,y,1/2+z
x,1/2-y,1/2+z
loop_
_atom_site_type_symbol
_atom_site_label
_atom_site_fract_x
_atom_site_fract_y
_atom_site_fract_z
Si Si1 0.093191 0.745665 0.088359
Si Si2 0.457550 0.613574 0.865325
Si Si3 0.194397 0.580175 0.794148
Si Si4 0.554946 0.400786 0.814299
Si Si5 0.832804 0.143995 0.016520
Si Si6 0.606544 0.480239 0.452872
Si Si7 0.432517 0.149132 0.142542
Si Si8 0.790682 0.633017 0.746248
O O1 0.250000 0.750000 0.096107
O O2 0.026636 0.803496 0.141879
O O3 0.051796 0.619341 0.086329
O O4 0.058803 0.810286 0.029233
O O5 0.332549 0.623288 0.821155
O O6 0.558889 0.516902 0.847434
O O7 0.402383 0.588832 0.928999
O O8 0.544721 0.722358 0.866463
O O9 0.177972 0.626830 0.728689
O O10 0.074671 0.603308 0.837183
O O11 0.186852 0.450610 0.781169
O O12 0.432784 0.406545 0.772736
O O13 0.750000 0.250000 0.038033
O O14 0.743731 0.052894 0.984208
O O15 0.500000 0.500000 0.500000
O O16 0.616529 0.589233 0.415005
O O17 0.308230 0.132704 0.185141
O O18 0.750000 0.750000 0.722530
#
# Coordination Sequence:
#
# PCOD8228374 Si02
#       8
#     8   8   8   8   8   8   8   8
#     4   9  21  38  61  88 116 163 205 253 295 365
#     4  11  21  40  63  90 123 160 207 256 306 374
#     4  10  22  38  59  87 119 163 210 250 300 382
#     4  10  23  39  62  89 120 163 203 247 316 366
#     4   9  19  37  60  87 118 160 205 252 297 356
#     4  10  20  36  61  90 120 153 209 257 301 360
#     4  11  22  37  62  93 117 167 203 248 319 364
#     4  10  23  39  56  87 129 156 194 261 310 366
#
# _framework density 22.111715
#
# number of rings (size 3 to 8) (size 9 to 14) (size 15 to 20)
#    0.000    2.250    0.000    4.125    5.250    2.500 
#    2.250    0.000    0.000    0.000    0.000    0.000 
#    0.000    0.000    0.000    0.000    0.000    0.000 
#
# Total GULP energy -792921.888989 kJ/mol
# GULP energy per Si atom -12389.404515 kJ/mol
# Density = 2.206139 g / cm^3
# Si number density = 22.111715 Si / 1000 Ang^3
#
#
#
# Elastic Constant Matrix: (Units=GPa)
#
#
# Indices 1 2 3 4 5 6 
#
# 1 19.3662 13.5593 8.8011 0.0000 0.0000 0.0000
# 2 13.5593 124.4071 41.3215 0.0000 0.0000 0.0000
# 3 8.8011 41.3215 121.0403 0.0000 0.0000 0.0000
# 4 0.0000 0.0000 0.0000 36.9487 0.0000 0.0000
# 5 0.0000 0.0000 0.0000 0.0000 5.7499 0.0000
# 6 0.0000 0.0000 0.0000 0.0000 0.0000 30.6944
#
#
#
# Elastic Compliance Matrix: (Units=1/GPa)
#
#
# Indices 1 2 3 4 5 6 
#
# 1 0.056445 -0.005401 -0.002260 0.000000 0.000000 0.000000
# 2 -0.005401 0.009583 -0.002879 0.000000 0.000000 0.000000
# 3 -0.002260 -0.002879 0.009409 0.000000 0.000000 0.000000
# 4 0.000000 0.000000 0.000000 0.027065 0.000000 0.000000
# 5 0.000000 0.000000 0.000000 0.000000 0.173916 0.000000
# 6 0.000000 0.000000 0.000000 0.000000 0.000000 0.032579
#
#
# Mechanical properties :
#
#
# Convention : Reuss Voigt Hill
#
# Bulk Modulus (GPa) = 18.39707 43.57526 30.98616
# Shear Modulus (GPa) = 14.35969 28.08738 21.22353
#
# Velocity S-wave (km/s) = 2.55113 3.56792 3.10148
# Velocity P-wave (km/s) = 4.12502 6.05996 5.18357
#
# Compressibility (1/GPa) = 0.05435648
#
# Stress axis : x y z
#
# Youngs Moduli (GPa) = 17.71622 104.35150 106.28311
#
# Poissons Ratio (x) = 0.56364 0.24023
# Poissons Ratio (y) = 0.09569 0.30596
# Poissons Ratio (z) = 0.04004 0.30040
#
# Static dielectric constant tensor:
#      x y z
#    x 3.696210 0.000000 0.000000 
#    y 0.000000 4.364570 0.000000 
#    z 0.000000 0.000000 3.899630 
# 
# 
# High freq. dielectric constant tensor:
#      x y z
#    x 1.841060 0.000000 0.000000 
#    y 0.000000 1.873460 0.000000 
#    z 0.000000 0.000000 1.879780 
# 
# From -- ./inp_files/21001.got.cif
#   From: 2010.03.12/outbox.cif.g09.slc.cpg/sg56_11_cif.got.tgz:21001.got - 2010.04.16 15:33:40.
