data_PCOD8228629
_publ_section_title
;
Structure prediction by ZEFSAII (Michael W. Deem and Ramdas Pophale) SiO2 
 PCOD8228629
Probable space group: P C C N
;
_chemical_formula_sum "Si O2"
_cell_formula_units_Z 40
_cell_length_a 9.892821
_cell_length_b 6.680250
_cell_length_c 22.680714
_cell_angle_alpha 90.000000
_cell_angle_beta 90.000000
_cell_angle_gamma 90.000000
_cell_volume 1498.889402
_symmetry_space_group_name_H-M "P C C N"
_symmetry_group_IT_number 56
_symmetry_cell_setting 'orthorhombic'
loop_
_space_group_symop_operation_xyz
x,y,z
1/2-x,1/2-y,z
1/2+x,-y,1/2-z
-x,1/2+y,1/2-z
-x,-y,-z
1/2+x,1/2+y,-z
1/2-x,y,1/2+z
x,1/2-y,1/2+z
loop_
_atom_site_type_symbol
_atom_site_label
_atom_site_fract_x
_atom_site_fract_y
_atom_site_fract_z
Si Si1 0.250000 0.750000 0.116727
Si Si2 0.402869 0.303415 0.572793
Si Si3 0.250000 0.250000 0.893917
Si Si4 0.291834 0.978172 0.788885
Si Si5 0.474485 0.741314 0.040632
Si Si6 0.909008 0.942497 0.305243
O O1 0.355075 0.616847 0.075098
O O2 0.155341 0.624540 0.159150
O O3 0.250000 0.250000 0.559329
O O4 0.509007 0.183171 0.529535
O O5 0.420685 0.532996 0.551354
O O6 0.434638 0.273442 0.643441
O O7 0.228865 0.448426 0.855090
O O8 0.379052 0.291001 0.932981
O O9 0.250000 0.750000 0.782418
O O10 0.450958 0.002537 0.772972
O O11 0.198607 0.114934 0.745470
#
# Coordination Sequence:
#
# PCOD8228629 Si02
#       6
#     4   8   4   8   8   8
#     4  10  20  48  68 102 154 192 254 314 390 464
#     4  10  21  43  71 106 151 197 264 321 384 471
#     4  12  24  50  80 106 160 210 254 334 384 480
#     4  12  29  49  76 115 159 206 270 323 400 481
#     4  10  22  44  75 105 148 207 258 324 399 462
#     4  11  26  47  72 112 152 203 259 321 395 475
#
# _framework density 26.686426999999998
#
# number of rings (size 3 to 8) (size 9 to 14) (size 15 to 20)
#    0.000    1.200    6.000    0.000    7.000    0.000 
#    5.400    4.000    0.000    0.000    0.000    0.000 
#    0.000    0.000    0.000    0.000    0.000    0.000 
#
# Total GULP energy -495536.574949 kJ/mol
# GULP energy per Si atom -12388.414374 kJ/mol
# Density = 2.662569 g / cm^3
# Si number density = 26.686427 Si / 1000 Ang^3
#
#
#
# Elastic Constant Matrix: (Units=GPa)
#
#
# Indices 1 2 3 4 5 6 
#
# 1 243.2300 29.3059 80.2240 0.0000 0.0000 0.0000
# 2 29.3059 24.2556 3.2980 0.0000 0.0000 0.0000
# 3 80.2240 3.2980 150.9260 0.0000 0.0000 0.0000
# 4 0.0000 0.0000 0.0000 11.6313 0.0000 0.0000
# 5 0.0000 0.0000 0.0000 0.0000 26.3229 0.0000
# 6 0.0000 0.0000 0.0000 0.0000 0.0000 40.6484
#
#
#
# Elastic Compliance Matrix: (Units=1/GPa)
#
#
# Indices 1 2 3 4 5 6 
#
# 1 0.005910 -0.006734 -0.002994 0.000000 0.000000 0.000000
# 2 -0.006734 0.049022 0.002508 0.000000 0.000000 0.000000
# 3 -0.002994 0.002508 0.008163 0.000000 0.000000 0.000000
# 4 0.000000 0.000000 0.000000 0.085975 0.000000 0.000000
# 5 0.000000 0.000000 0.000000 0.000000 0.037990 0.000000
# 6 0.000000 0.000000 0.000000 0.000000 0.000000 0.024601
#
#
# Mechanical properties :
#
#
# Convention : Reuss Voigt Hill
#
# Bulk Modulus (GPa) = 20.55282 71.56306 46.05794
# Shear Modulus (GPa) = 20.63386 36.09277 28.36331
#
# Velocity S-wave (km/s) = 2.78366 3.68159 3.26365
# Velocity P-wave (km/s) = 4.24853 6.70423 5.61234
#
# Compressibility (1/GPa) = 0.04865512
#
# Stress axis : x y z
#
# Youngs Moduli (GPa) = 169.19556 20.39881 122.50926
#
# Poissons Ratio (x) = 0.13736 0.36685
# Poissons Ratio (y) = 1.13933 -0.30726
# Poissons Ratio (z) = 0.50665 -0.05116
#
# Static dielectric constant tensor:
#      x y z
#    x 9.014410 0.000000 0.000000 
#    y 0.000000 4.904610 0.000000 
#    z 0.000000 0.000000 5.914310 
# 
# 
# High freq. dielectric constant tensor:
#      x y z
#    x 2.087330 0.000000 0.000000 
#    y 0.000000 2.063910 0.000000 
#    z 0.000000 0.000000 2.086900 
# 
# From -- ./inp_files/20349.got.cif
#   From: 2010.03.12/outbox.cif.g09.slc.cpg/sg56_11_cif.got.tgz:20349.got - 2010.04.16 15:33:40.
