data_PCOD8228403
_publ_section_title
;
Structure prediction by ZEFSAII (Michael W. Deem and Ramdas Pophale) SiO2 
 PCOD8228403
Probable space group: P C C N
;
_chemical_formula_sum "Si O2"
_cell_formula_units_Z 52
_cell_length_a 24.825971
_cell_length_b 8.544948
_cell_length_c 12.617356
_cell_angle_alpha 90.000000
_cell_angle_beta 90.000000
_cell_angle_gamma 90.000000
_cell_volume 2676.603397
_symmetry_space_group_name_H-M "P C C N"
_symmetry_group_IT_number 56
_symmetry_cell_setting 'orthorhombic'
loop_
_space_group_symop_operation_xyz
x,y,z
1/2-x,1/2-y,z
1/2+x,-y,1/2-z
-x,1/2+y,1/2-z
-x,-y,-z
1/2+x,1/2+y,-z
1/2-x,y,1/2+z
x,1/2-y,1/2+z
loop_
_atom_site_type_symbol
_atom_site_label
_atom_site_fract_x
_atom_site_fract_y
_atom_site_fract_z
Si Si1 0.823830 0.022948 0.140401
Si Si2 0.936140 0.500053 0.884346
Si Si3 0.250000 0.750000 0.731046
Si Si4 0.051545 0.992608 0.856223
Si Si5 0.498426 0.750272 0.509228
Si Si6 0.675100 0.659674 0.339581
Si Si7 0.215153 0.470228 0.592959
O O1 0.795178 0.168171 0.197671
O O2 0.886739 0.053892 0.124450
O O3 0.816115 0.868434 0.213782
O O4 0.796855 0.001090 0.028276
O O5 0.962436 0.502448 0.767813
O O6 0.945734 0.325271 0.932470
O O7 0.874219 0.553116 0.879370
O O8 0.964550 0.615818 0.964150
O O9 0.215216 0.630073 0.659734
O O10 0.017010 0.858083 0.910911
O O11 0.035274 0.158303 0.906337
O O12 0.725625 0.601986 0.406472
O O13 0.670723 0.847231 0.359044
#
# Coordination Sequence:
#
# PCOD8228403 Si02
#       7
#     8   8   4   8   8   8   8
#     4  10  21  37  56  80 113 148 187 229 279 331
#     4  10  20  38  57  82 112 141 187 236 279 336
#     4  10  22  36  54  84 114 148 190 228 272 334
#     4  10  21  37  56  81 111 146 185 231 284 338
#     4  10  21  36  58  81 108 146 185 231 287 336
#     4   9  21  37  57  82 110 146 190 231 276 337
#     4  10  20  37  57  80 115 149 182 230 277 329
#
# _framework density 19.427609
#
# number of rings (size 3 to 8) (size 9 to 14) (size 15 to 20)
#    0.000    2.154    0.000    2.308    0.000    9.846 
#    0.000    7.692    0.000    0.000    0.000    0.000 
#    0.000    0.000    0.000    0.000    0.000    0.000 
#
# Total GULP energy -644593.716474 kJ/mol
# GULP energy per Si atom -12396.033009 kJ/mol
# Density = 1.938339 g / cm^3
# Si number density = 19.427609 Si / 1000 Ang^3
#
#
#
# Elastic Constant Matrix: (Units=GPa)
#
#
# Indices 1 2 3 4 5 6 
#
# 1 77.9478 35.8865 21.0252 0.0000 0.0000 0.0000
# 2 35.8865 116.0199 58.6125 0.0000 0.0000 0.0000
# 3 21.0252 58.6125 103.6010 0.0000 0.0000 0.0000
# 4 0.0000 0.0000 0.0000 23.4129 0.0000 0.0000
# 5 0.0000 0.0000 0.0000 0.0000 31.7109 0.0000
# 6 0.0000 0.0000 0.0000 0.0000 0.0000 20.3679
#
#
#
# Elastic Compliance Matrix: (Units=1/GPa)
#
#
# Indices 1 2 3 4 5 6 
#
# 1 0.014985 -0.004339 -0.000586 0.000000 0.000000 0.000000
# 2 -0.004339 0.013325 -0.006658 0.000000 0.000000 0.000000
# 3 -0.000586 -0.006658 0.013538 0.000000 0.000000 0.000000
# 4 0.000000 0.000000 0.000000 0.042712 0.000000 0.000000
# 5 0.000000 0.000000 0.000000 0.000000 0.031535 0.000000
# 6 0.000000 0.000000 0.000000 0.000000 0.000000 0.049097
#
#
# Mechanical properties :
#
#
# Convention : Reuss Voigt Hill
#
# Bulk Modulus (GPa) = 53.52900 58.73523 56.13212
# Shear Modulus (GPa) = 25.69575 27.23464 26.46520
#
# Velocity S-wave (km/s) = 3.64076 3.74819 3.69487
# Velocity P-wave (km/s) = 6.72952 7.00217 6.86720
#
# Compressibility (1/GPa) = 0.01868146
#
# Stress axis : x y z
#
# Youngs Moduli (GPa) = 66.73434 75.04780 73.86494
#
# Poissons Ratio (x) = 0.32561 0.04332
# Poissons Ratio (y) = 0.28954 0.49180
# Poissons Ratio (z) = 0.03913 0.49967
#
# Static dielectric constant tensor:
#      x y z
#    x 3.633550 0.000000 0.000000 
#    y 0.000000 3.895000 0.000000 
#    z 0.000000 0.000000 3.708790 
# 
# 
# High freq. dielectric constant tensor:
#      x y z
#    x 1.750320 0.000000 0.000000 
#    y 0.000000 1.762200 0.000000 
#    z 0.000000 0.000000 1.768480 
# 
# From -- ./inp_files/6516.got.cif
#   From: 2010.03.12/outbox.cif.g09.slc.cpg/sg56_4_cif.got.tgz:6516.got - 2010.04.16 15:33:40.
