data_PCOD8228834
_publ_section_title
;
Structure prediction by ZEFSAII (Michael W. Deem and Ramdas Pophale) SiO2 
 PCOD8228834
Probable space group: P C C N
;
_chemical_formula_sum "Si O2"
_cell_formula_units_Z 60
_cell_length_a 22.861788
_cell_length_b 5.189603
_cell_length_c 24.430931
_cell_angle_alpha 90.000000
_cell_angle_beta 90.000000
_cell_angle_gamma 90.000000
_cell_volume 2898.573693
_symmetry_space_group_name_H-M "P C C N"
_symmetry_group_IT_number 56
_symmetry_cell_setting 'orthorhombic'
loop_
_space_group_symop_operation_xyz
x,y,z
1/2-x,1/2-y,z
1/2+x,-y,1/2-z
-x,1/2+y,1/2-z
-x,-y,-z
1/2+x,1/2+y,-z
1/2-x,y,1/2+z
x,1/2-y,1/2+z
loop_
_atom_site_type_symbol
_atom_site_label
_atom_site_fract_x
_atom_site_fract_y
_atom_site_fract_z
Si Si1 0.351235 0.554723 0.193758
Si Si2 0.184330 0.004006 0.072157
Si Si3 0.646473 0.084996 0.097617
Si Si4 0.816286 0.007018 0.475695
Si Si5 0.250000 0.750000 0.826499
Si Si6 0.410725 0.074014 0.358950
Si Si7 0.170927 0.439156 0.257651
Si Si8 0.513811 0.033276 0.285950
O O1 0.318253 0.492883 0.137274
O O2 0.338388 0.849249 0.209865
O O3 0.420137 0.503689 0.193070
O O4 0.322606 0.350044 0.235416
O O5 0.151549 0.251692 0.046615
O O6 0.249753 0.998816 0.046753
O O7 0.150625 0.750924 0.050784
O O8 0.699010 0.118985 0.139330
O O9 0.606912 0.343417 0.099380
O O10 0.606253 0.844200 0.113719
O O11 0.678550 0.030077 0.040594
O O12 0.270621 0.510991 0.790008
O O13 0.479106 0.065964 0.343542
O O14 0.382765 0.039370 0.299231
O O15 0.505581 0.276671 0.246147
#
# Coordination Sequence:
#
# PCOD8228834 Si02
#       8
#     8   8   8   8   4   8   8   8
#     4  12  23  40  60  90 122 168 203 262 300 370
#     4  10  22  37  62  85 117 152 220 245 300 376
#     4  11  23  39  63  87 125 157 209 258 317 363
#     4  10  21  41  60  85 114 162 203 259 306 372
#     4  10  24  36  56  90 128 168 194 256 306 392
#     4  11  22  39  61  95 121 161 210 255 308 383
#     4  11  23  37  56  87 133 161 202 239 312 375
#     4  12  22  40  68  88 126 170 210 258 312 370
#
# _framework density 20.699835
#
# number of rings (size 3 to 8) (size 9 to 14) (size 15 to 20)
#    0.000    1.067    2.667    4.800    0.000   11.200 
#    0.000    0.000    0.000    4.800    0.000    0.000 
#    0.000    0.000    0.000    0.000    0.000    0.000 
#
# Total GULP energy -743685.639347 kJ/mol
# GULP energy per Si atom -12394.760656 kJ/mol
# Density = 2.065272 g / cm^3
# Si number density = 20.699835 Si / 1000 Ang^3
#
#
#
# Elastic Constant Matrix: (Units=GPa)
#
#
# Indices 1 2 3 4 5 6 
#
# 1 38.2140 13.3228 29.9535 0.0000 0.0000 0.0000
# 2 13.3228 158.3773 29.6188 0.0000 0.0000 0.0000
# 3 29.9535 29.6188 112.1872 0.0000 0.0000 0.0000
# 4 0.0000 0.0000 0.0000 35.1857 0.0000 0.0000
# 5 0.0000 0.0000 0.0000 0.0000 30.0991 0.0000
# 6 0.0000 0.0000 0.0000 0.0000 0.0000 21.0933
#
#
#
# Elastic Compliance Matrix: (Units=1/GPa)
#
#
# Indices 1 2 3 4 5 6 
#
# 1 0.033309 -0.001198 -0.008577 0.000000 0.000000 0.000000
# 2 -0.001198 0.006685 -0.001445 0.000000 0.000000 0.000000
# 3 -0.008577 -0.001445 0.011585 0.000000 0.000000 0.000000
# 4 0.000000 0.000000 0.000000 0.028421 0.000000 0.000000
# 5 0.000000 0.000000 0.000000 0.000000 0.033224 0.000000
# 6 0.000000 0.000000 0.000000 0.000000 0.000000 0.047408
#
#
# Mechanical properties :
#
#
# Convention : Reuss Voigt Hill
#
# Bulk Modulus (GPa) = 34.31815 50.50762 42.41289
# Shear Modulus (GPa) = 25.93560 33.00120 29.46840
#
# Velocity S-wave (km/s) = 3.54353 3.99717 3.77716
# Velocity P-wave (km/s) = 5.77556 6.76433 6.28940
#
# Compressibility (1/GPa) = 0.02913910
#
# Stress axis : x y z
#
# Youngs Moduli (GPa) = 30.02184 149.58723 86.31670
#
# Poissons Ratio (x) = 0.17920 0.74035
# Poissons Ratio (y) = 0.03596 0.12474
# Poissons Ratio (z) = 0.25750 0.21617
#
# Static dielectric constant tensor:
#      x y z
#    x 3.843310 0.000000 0.000000 
#    y 0.000000 6.424860 0.000000 
#    z 0.000000 0.000000 3.648790 
# 
# 
# High freq. dielectric constant tensor:
#      x y z
#    x 1.780240 0.000000 0.000000 
#    y 0.000000 1.845500 0.000000 
#    z 0.000000 0.000000 1.799220 
# 
# From -- ./inp_files/19622.got.cif
#   From: 2010.03.12/outbox.cif.g09.slc.cpg/sg56_10_cif.got.tgz:19622.got - 2010.04.16 15:33:40.
