data_PCOD8228464
_publ_section_title
;
Structure prediction by ZEFSAII (Michael W. Deem and Ramdas Pophale) SiO2 
 PCOD8228464
Probable space group: P C C N
;
_chemical_formula_sum "Si O2"
_cell_formula_units_Z 48
_cell_length_a 15.531346
_cell_length_b 9.364423
_cell_length_c 17.016032
_cell_angle_alpha 90.000000
_cell_angle_beta 90.000000
_cell_angle_gamma 90.000000
_cell_volume 2474.847321
_symmetry_space_group_name_H-M "P C C N"
_symmetry_group_IT_number 56
_symmetry_cell_setting 'orthorhombic'
loop_
_space_group_symop_operation_xyz
x,y,z
1/2-x,1/2-y,z
1/2+x,-y,1/2-z
-x,1/2+y,1/2-z
-x,-y,-z
1/2+x,1/2+y,-z
1/2-x,y,1/2+z
x,1/2-y,1/2+z
loop_
_atom_site_type_symbol
_atom_site_label
_atom_site_fract_x
_atom_site_fract_y
_atom_site_fract_z
Si Si1 0.885554 0.984338 0.160103
Si Si2 0.567735 0.521733 0.340339
Si Si3 0.805287 0.612020 0.960874
Si Si4 0.040225 0.211344 0.429663
Si Si5 0.054311 0.725409 0.913126
Si Si6 0.726775 0.413065 0.586561
O O1 0.924875 0.845520 0.119165
O O2 0.915408 0.991580 0.248969
O O3 0.920326 0.119605 0.114212
O O4 0.780696 0.002834 0.154930
O O5 0.659449 0.528668 0.384748
O O6 0.505686 0.394621 0.368368
O O7 0.526689 0.675269 0.361518
O O8 0.750000 0.750000 0.935862
O O9 0.879302 0.645454 0.024543
O O10 0.746771 0.497381 0.006908
O O11 0.967723 0.244720 0.494807
O O12 0.124377 0.598212 0.897688
O O13 0.750000 0.250000 0.574032
#
# Coordination Sequence:
#
# PCOD8228464 Si02
#       6
#     8   8   8   8   8   8
#     4  11  23  36  59  93 124 150 200 253 309 345
#     4  11  22  39  59  91 121 158 193 260 307 351
#     4  11  20  40  61  86 114 158 209 237 291 366
#     4  11  20  37  67  84 117 162 202 242 292 365
#     4  10  20  40  62  83 118 163 203 236 297 371
#     4  10  20  38  61  81 115 161 196 240 296 363
#
# _framework density 19.395136000000001
#
# number of rings (size 3 to 8) (size 9 to 14) (size 15 to 20)
#    0.000    1.333    5.000    2.500    0.000    0.000 
#    3.000    4.167    0.000    0.000    0.000    0.000 
#    0.000    0.000    0.000    0.000    0.000    0.000 
#
# Total GULP energy -594657.187551 kJ/mol
# GULP energy per Si atom -12388.691407 kJ/mol
# Density = 1.935099 g / cm^3
# Si number density = 19.395136 Si / 1000 Ang^3
#
#
#
# Elastic Constant Matrix: (Units=GPa)
#
#
# Indices 1 2 3 4 5 6 
#
# 1 78.4200 31.5533 52.5392 0.0000 0.0000 0.0000
# 2 31.5533 96.9018 46.1533 0.0000 0.0000 0.0000
# 3 52.5392 46.1533 135.7102 0.0000 0.0000 0.0000
# 4 0.0000 0.0000 0.0000 34.7850 0.0000 0.0000
# 5 0.0000 0.0000 0.0000 0.0000 30.5244 0.0000
# 6 0.0000 0.0000 0.0000 0.0000 0.0000 28.9145
#
#
#
# Elastic Compliance Matrix: (Units=1/GPa)
#
#
# Indices 1 2 3 4 5 6 
#
# 1 0.017930 -0.003022 -0.005914 0.000000 0.000000 0.000000
# 2 -0.003022 0.012824 -0.003191 0.000000 0.000000 0.000000
# 3 -0.005914 -0.003191 0.010743 0.000000 0.000000 0.000000
# 4 0.000000 0.000000 0.000000 0.028748 0.000000 0.000000
# 5 0.000000 0.000000 0.000000 0.000000 0.032761 0.000000
# 6 0.000000 0.000000 0.000000 0.000000 0.000000 0.034585
#
#
# Mechanical properties :
#
#
# Convention : Reuss Voigt Hill
#
# Bulk Modulus (GPa) = 57.99344 63.50261 60.74802
# Shear Modulus (GPa) = 29.83447 30.89719 30.36583
#
# Velocity S-wave (km/s) = 3.92630 3.99562 3.96111
# Velocity P-wave (km/s) = 7.10777 7.35522 7.23255
#
# Compressibility (1/GPa) = 0.01724333
#
# Stress axis : x y z
#
# Youngs Moduli (GPa) = 55.77352 77.98098 93.08016
#
# Poissons Ratio (x) = 0.23563 0.55045
# Poissons Ratio (y) = 0.16853 0.29705
# Poissons Ratio (z) = 0.32983 0.24886
#
# Static dielectric constant tensor:
#      x y z
#    x 4.240180 0.000000 0.000000 
#    y 0.000000 3.666700 0.000000 
#    z 0.000000 0.000000 3.407220 
# 
# 
# High freq. dielectric constant tensor:
#      x y z
#    x 1.762090 0.000000 0.000000 
#    y 0.000000 1.768390 0.000000 
#    z 0.000000 0.000000 1.737030 
# 
# From -- ./inp_files/14962.got.cif
#   From: 2010.03.12/outbox.cif.g09.slc.cpg/sg56_8_cif.got.tgz:14962.got - 2010.04.16 15:33:40.
