data_PCOD8228160
_publ_section_title
;
Structure prediction by ZEFSAII (Michael W. Deem and Ramdas Pophale) SiO2 
 PCOD8228160
Probable space group: P C C N
;
_chemical_formula_sum "Si O2"
_cell_formula_units_Z 52
_cell_length_a 9.030013
_cell_length_b 14.033225
_cell_length_c 21.088404
_cell_angle_alpha 90.000000
_cell_angle_beta 90.000000
_cell_angle_gamma 90.000000
_cell_volume 2672.326861
_symmetry_space_group_name_H-M "P C C N"
_symmetry_group_IT_number 56
_symmetry_cell_setting 'orthorhombic'
loop_
_space_group_symop_operation_xyz
x,y,z
1/2-x,1/2-y,z
1/2+x,-y,1/2-z
-x,1/2+y,1/2-z
-x,-y,-z
1/2+x,1/2+y,-z
1/2-x,y,1/2+z
x,1/2-y,1/2+z
loop_
_atom_site_type_symbol
_atom_site_label
_atom_site_fract_x
_atom_site_fract_y
_atom_site_fract_z
Si Si1 0.910407 0.237268 0.461266
Si Si2 0.914910 0.932131 0.184797
Si Si3 0.339548 0.160861 0.029032
Si Si4 0.404784 0.071890 0.461211
Si Si5 0.250000 0.250000 0.150143
Si Si6 0.914119 0.234437 0.317023
Si Si7 0.612408 0.599133 0.759592
O O1 0.750000 0.250000 0.492844
O O2 0.893194 0.202892 0.389480
O O3 0.993598 0.156729 0.502680
O O4 0.002978 0.332421 0.464337
O O5 0.875091 0.956225 0.111882
O O6 0.763959 0.934524 0.225665
O O7 0.985502 0.827752 0.192157
O O8 0.036103 0.008476 0.207727
O O9 0.250000 0.250000 0.998181
O O10 0.341625 0.174935 0.105610
O O11 0.249618 0.071537 0.000856
O O12 0.500000 0.000000 0.500000
O O13 0.358731 0.315366 0.190924
O O14 0.750000 0.250000 0.286935
O O15 0.994260 0.142509 0.288635
#
# Coordination Sequence:
#
# PCOD8228160 Si02
#       7
#     8   8   8   8   4   8   8
#     4   9  18  34  58  83 110 146 193 242 293 355
#     4  11  23  36  61  89 121 166 202 259 301 375
#     4   8  17  33  56  80 109 154 193 233 297 357
#     4  10  19  36  59  85 113 150 201 245 301 358
#     4  10  20  36  60  82 122 164 202 256 310 368
#     4  10  20  38  60  86 118 158 205 254 306 365
#     4  12  22  40  59  88 128 160 215 246 318 367
#
# _framework density 19.458697999999998
#
# number of rings (size 3 to 8) (size 9 to 14) (size 15 to 20)
#    0.462    1.538    1.538    2.769    0.000    2.462 
#    0.000    3.077    0.000    0.000    0.000    0.000 
#    0.000    0.000    0.000    0.000    0.000    0.000 
#
# Total GULP energy -644298.132049 kJ/mol
# GULP energy per Si atom -12390.348693 kJ/mol
# Density = 1.941441 g / cm^3
# Si number density = 19.458698 Si / 1000 Ang^3
#
#
#
# Elastic Constant Matrix: (Units=GPa)
#
#
# Indices 1 2 3 4 5 6 
#
# 1 134.2730 13.6878 51.3291 0.0000 0.0000 0.0000
# 2 13.6878 35.7068 25.5699 0.0000 0.0000 0.0000
# 3 51.3291 25.5699 103.5067 0.0000 0.0000 0.0000
# 4 0.0000 0.0000 0.0000 20.9984 0.0000 0.0000
# 5 0.0000 0.0000 0.0000 0.0000 20.2509 0.0000
# 6 0.0000 0.0000 0.0000 0.0000 0.0000 38.8217
#
#
#
# Elastic Compliance Matrix: (Units=1/GPa)
#
#
# Indices 1 2 3 4 5 6 
#
# 1 0.009193 -0.000315 -0.004481 0.000000 0.000000 0.000000
# 2 -0.000315 0.034036 -0.008252 0.000000 0.000000 0.000000
# 3 -0.004481 -0.008252 0.013922 0.000000 0.000000 0.000000
# 4 0.000000 0.000000 0.000000 0.047623 0.000000 0.000000
# 5 0.000000 0.000000 0.000000 0.000000 0.049380 0.000000
# 6 0.000000 0.000000 0.000000 0.000000 0.000000 0.025759
#
#
# Mechanical properties :
#
#
# Convention : Reuss Voigt Hill
#
# Bulk Modulus (GPa) = 32.20125 50.51778 41.35951
# Shear Modulus (GPa) = 23.10974 28.20751 25.65862
#
# Velocity S-wave (km/s) = 3.44994 3.81150 3.63522
# Velocity P-wave (km/s) = 5.69683 6.73706 6.23866
#
# Compressibility (1/GPa) = 0.03105470
#
# Stress axis : x y z
#
# Youngs Moduli (GPa) = 108.78430 29.38077 71.83042
#
# Poissons Ratio (x) = 0.00926 0.32185
# Poissons Ratio (y) = 0.03429 0.59273
# Poissons Ratio (z) = 0.48743 0.24244
#
# Static dielectric constant tensor:
#      x y z
#    x 3.827260 0.000000 0.000000 
#    y 0.000000 3.303870 0.000000 
#    z 0.000000 0.000000 3.632320 
# 
# 
# High freq. dielectric constant tensor:
#      x y z
#    x 1.765890 0.000000 0.000000 
#    y 0.000000 1.738250 0.000000 
#    z 0.000000 0.000000 1.757650 
# 
# From -- ./inp_files/18138.got.cif
#   From: 2010.03.12/outbox.cif.g09.slc.cpg/sg56_10_cif.got.tgz:18138.got - 2010.04.16 15:33:40.
