data_PCOD8228941
_publ_section_title
;
Structure prediction by ZEFSAII (Michael W. Deem and Ramdas Pophale) SiO2 
 PCOD8228941
Probable space group: P C C N
;
_chemical_formula_sum "Si O2"
_cell_formula_units_Z 40
_cell_length_a 11.166453
_cell_length_b 20.359410
_cell_length_c 8.803794
_cell_angle_alpha 90.000000
_cell_angle_beta 90.000000
_cell_angle_gamma 90.000000
_cell_volume 2001.475612
_symmetry_space_group_name_H-M "P C C N"
_symmetry_group_IT_number 56
_symmetry_cell_setting 'orthorhombic'
loop_
_space_group_symop_operation_xyz
x,y,z
1/2-x,1/2-y,z
1/2+x,-y,1/2-z
-x,1/2+y,1/2-z
-x,-y,-z
1/2+x,1/2+y,-z
1/2-x,y,1/2+z
x,1/2-y,1/2+z
loop_
_atom_site_type_symbol
_atom_site_label
_atom_site_fract_x
_atom_site_fract_y
_atom_site_fract_z
Si Si1 0.248331 0.521932 0.221502
Si Si2 0.890660 0.683768 0.450994
Si Si3 0.608854 0.545500 0.524098
Si Si4 0.867942 0.684076 0.094541
Si Si5 0.922764 0.434409 0.521317
O O1 0.194766 0.464092 0.118391
O O2 0.331212 0.476766 0.321753
O O3 0.149646 0.562574 0.318443
O O4 0.326846 0.571696 0.117011
O O5 0.866005 0.692999 0.274186
O O6 0.767808 0.669484 0.539863
O O7 0.933829 0.754306 0.516095
O O8 0.990709 0.628626 0.483005
O O9 0.500000 0.500000 0.500000
O O10 0.560075 0.619484 0.542438
O O11 0.000000 0.500000 0.500000
#
# Coordination Sequence:
#
# PCOD8228941 Si02
#       5
#     8   8   8   8   8
#     4  10  22  36  59  91 119 152 201 241 293 368
#     4  11  23  38  60  88 122 155 190 249 309 354
#     4  11  21  36  59  84 114 150 190 243 293 343
#     4  11  22  37  58  90 118 150 198 243 300 364
#     4  11  22  39  62  90 124 160 199 250 303 357
#
# _framework density 19.985257000000001
#
# number of rings (size 3 to 8) (size 9 to 14) (size 15 to 20)
#    0.000    1.200    0.000    9.600    0.000    4.800 
#    0.000    0.000    0.000   20.400    0.000    0.000 
#    0.000    0.000    0.000    0.000    0.000    0.000 
#
# Total GULP energy -495823.827016 kJ/mol
# GULP energy per Si atom -12395.595675 kJ/mol
# Density = 1.993977 g / cm^3
# Si number density = 19.985257 Si / 1000 Ang^3
#
#
#
# Elastic Constant Matrix: (Units=GPa)
#
#
# Indices 1 2 3 4 5 6 
#
# 1 85.8227 65.6332 63.1977 0.0000 0.0000 0.0000
# 2 65.6332 180.0052 73.3099 0.0000 0.0000 0.0000
# 3 63.1977 73.3099 171.8472 0.0000 0.0000 0.0000
# 4 0.0000 0.0000 0.0000 24.0462 0.0000 0.0000
# 5 0.0000 0.0000 0.0000 0.0000 -53.2398 0.0000
# 6 0.0000 0.0000 0.0000 0.0000 0.0000 39.5676
#
#
#
# Elastic Compliance Matrix: (Units=1/GPa)
#
#
# Indices 1 2 3 4 5 6 
#
# 1 0.019038 -0.004950 -0.004890 0.000000 0.000000 0.000000
# 2 -0.004950 0.008011 -0.001597 0.000000 0.000000 0.000000
# 3 -0.004890 -0.001597 0.008299 0.000000 0.000000 0.000000
# 4 0.000000 0.000000 0.000000 0.041587 0.000000 0.000000
# 5 0.000000 0.000000 0.000000 0.000000 -0.018783 0.000000
# 6 0.000000 0.000000 0.000000 0.000000 0.000000 0.025273
#
#
# Mechanical properties :
#
#
# Convention : Reuss Voigt Hill
#
# Bulk Modulus (GPa) = 80.16725 93.55075 86.85900
# Shear Modulus (GPa) = 45.26683 17.77709 31.52196
#
# Velocity S-wave (km/s) = 4.76438 2.98570 3.97578
# Velocity P-wave (km/s) = 8.39440 7.66795 8.03938
#
# Compressibility (1/GPa) = 0.01247392
#
# Stress axis : x y z
#
# Youngs Moduli (GPa) = 52.52559 124.83255 120.50337
#
# Poissons Ratio (x) = 0.61797 0.58922
# Poissons Ratio (y) = 0.26002 0.19243
# Poissons Ratio (z) = 0.25683 0.19934
#
# Static dielectric constant tensor:
#      x y z
#    x 3.588080 0.000000 0.000000 
#    y 0.000000 3.690040 0.000000 
#    z 0.000000 0.000000 4.050300 
# 
# 
# High freq. dielectric constant tensor:
#      x y z
#    x 1.765560 0.000000 0.000000 
#    y 0.000000 1.773830 0.000000 
#    z 0.000000 0.000000 1.809960 
# 
# From -- ./inp_files/2580.got.cif
#   From: 2010.03.12/outbox.cif.g09.slc.cpg/sg56_2_cif.got.tgz:2580.got - 2010.04.16 15:33:40.
