data_PCOD8228151
_publ_section_title
;
Structure prediction by ZEFSAII (Michael W. Deem and Ramdas Pophale) SiO2 
 PCOD8228151
Probable space group: P C C N
;
_chemical_formula_sum "Si O2"
_cell_formula_units_Z 56
_cell_length_a 13.481892
_cell_length_b 8.845263
_cell_length_c 22.735055
_cell_angle_alpha 90.000000
_cell_angle_beta 90.000000
_cell_angle_gamma 90.000000
_cell_volume 2711.175326
_symmetry_space_group_name_H-M "P C C N"
_symmetry_group_IT_number 56
_symmetry_cell_setting 'orthorhombic'
loop_
_space_group_symop_operation_xyz
x,y,z
1/2-x,1/2-y,z
1/2+x,-y,1/2-z
-x,1/2+y,1/2-z
-x,-y,-z
1/2+x,1/2+y,-z
1/2-x,y,1/2+z
x,1/2-y,1/2+z
loop_
_atom_site_type_symbol
_atom_site_label
_atom_site_fract_x
_atom_site_fract_y
_atom_site_fract_z
Si Si1 0.953787 0.176752 0.748231
Si Si2 0.370263 0.998361 0.270804
Si Si3 0.782766 0.418940 0.316884
Si Si4 0.187544 0.101438 0.588047
Si Si5 0.667874 0.134655 0.608502
Si Si6 0.042974 0.900141 0.383352
Si Si7 0.703025 0.588470 0.548897
O O1 0.932938 0.354448 0.752729
O O2 0.898785 0.079860 0.800049
O O3 0.923052 0.110605 0.684445
O O4 0.069337 0.152088 0.760349
O O5 0.272270 0.021155 0.231959
O O6 0.351601 0.984228 0.339887
O O7 0.750000 0.250000 0.305874
O O8 0.755187 0.469798 0.383047
O O9 0.250000 0.250000 0.605011
O O10 0.173407 0.087054 0.518875
O O11 0.076082 0.087494 0.613689
O O12 0.750000 0.250000 0.633265
O O13 0.574045 0.236972 0.587563
O O14 0.710597 0.037308 0.554536
O O15 0.104031 0.039375 0.413910
O O16 0.750000 0.750000 0.568315
#
# Coordination Sequence:
#
# PCOD8228151 Si02
#       7
#     8   8   8   8   8   8   8
#     4  10  21  34  60  87 119 150 196 233 299 359
#     4  10  19  36  55  86 116 149 192 237 287 357
#     4  10  21  37  55  84 124 156 188 247 292 354
#     4  11  24  40  60  88 123 158 202 250 301 355
#     4   9  19  37  63  83 114 157 200 235 295 357
#     4  10  20  41  64  88 118 163 196 242 305 360
#     4  10  22  41  61  90 118 152 208 256 293 350
#
# _framework density 20.655249000000001
#
# number of rings (size 3 to 8) (size 9 to 14) (size 15 to 20)
#    0.000    2.000    1.429    3.429    4.000    2.857 
#    0.000    4.286    0.000    0.000    0.000    0.000 
#    0.000    0.000    0.000    0.000    0.000    0.000 
#
# Total GULP energy -693835.140177 kJ/mol
# GULP energy per Si atom -12389.913217 kJ/mol
# Density = 2.060824 g / cm^3
# Si number density = 20.655249 Si / 1000 Ang^3
#
#
#
# Elastic Constant Matrix: (Units=GPa)
#
#
# Indices 1 2 3 4 5 6 
#
# 1 67.2571 22.7166 1.6704 0.0000 0.0000 0.0000
# 2 22.7166 38.8355 10.7331 0.0000 0.0000 0.0000
# 3 1.6704 10.7331 38.2389 0.0000 0.0000 0.0000
# 4 0.0000 0.0000 0.0000 24.8345 0.0000 0.0000
# 5 0.0000 0.0000 0.0000 0.0000 29.6369 0.0000
# 6 0.0000 0.0000 0.0000 0.0000 0.0000 34.1231
#
#
#
# Elastic Compliance Matrix: (Units=1/GPa)
#
#
# Indices 1 2 3 4 5 6 
#
# 1 0.018738 -0.011637 0.002448 0.000000 0.000000 0.000000
# 2 -0.011637 0.035142 -0.009356 0.000000 0.000000 0.000000
# 3 0.002448 -0.009356 0.028670 0.000000 0.000000 0.000000
# 4 0.000000 0.000000 0.000000 0.040267 0.000000 0.000000
# 5 0.000000 0.000000 0.000000 0.000000 0.033742 0.000000
# 6 0.000000 0.000000 0.000000 0.000000 0.000000 0.029306
#
#
# Mechanical properties :
#
#
# Convention : Reuss Voigt Hill
#
# Bulk Modulus (GPa) = 21.99691 23.84130 22.91910
# Shear Modulus (GPa) = 20.99881 24.99965 22.99923
#
# Velocity S-wave (km/s) = 3.19193 3.48275 3.34051
# Velocity P-wave (km/s) = 4.92516 5.26691 5.09890
#
# Compressibility (1/GPa) = 0.04546094
#
# Stress axis : x y z
#
# Youngs Moduli (GPa) = 53.36727 28.45562 34.87907
#
# Poissons Ratio (x) = 0.33114 -0.08538
# Poissons Ratio (y) = 0.62105 0.32632
# Poissons Ratio (z) = -0.13064 0.26622
#
# Static dielectric constant tensor:
#      x y z
#    x 3.932910 0.000000 0.000000 
#    y 0.000000 3.717980 0.000000 
#    z 0.000000 0.000000 3.544040 
# 
# 
# High freq. dielectric constant tensor:
#      x y z
#    x 1.811680 0.000000 0.000000 
#    y 0.000000 1.797570 0.000000 
#    z 0.000000 0.000000 1.795950 
# 
# From -- ./inp_files/19141.got.cif
#   From: 2010.03.12/outbox.cif.g09.slc.cpg/sg56_10_cif.got.tgz:19141.got - 2010.04.16 15:33:40.
