data_PCOD8228916
_publ_section_title
;
Structure prediction by ZEFSAII (Michael W. Deem and Ramdas Pophale) SiO2 
 PCOD8228916
Probable space group: P C C N
;
_chemical_formula_sum "Si O2"
_cell_formula_units_Z 40
_cell_length_a 7.703428
_cell_length_b 19.054175
_cell_length_c 12.417904
_cell_angle_alpha 90.000000
_cell_angle_beta 90.000000
_cell_angle_gamma 90.000000
_cell_volume 1822.730562
_symmetry_space_group_name_H-M "P C C N"
_symmetry_group_IT_number 56
_symmetry_cell_setting 'orthorhombic'
loop_
_space_group_symop_operation_xyz
x,y,z
1/2-x,1/2-y,z
1/2+x,-y,1/2-z
-x,1/2+y,1/2-z
-x,-y,-z
1/2+x,1/2+y,-z
1/2-x,y,1/2+z
x,1/2-y,1/2+z
loop_
_atom_site_type_symbol
_atom_site_label
_atom_site_fract_x
_atom_site_fract_y
_atom_site_fract_z
Si Si1 0.933412 0.669245 0.458848
Si Si2 0.880447 0.071597 0.713558
Si Si3 0.541444 0.826756 0.946965
Si Si4 0.450876 0.970025 0.383651
Si Si5 0.758434 0.329349 0.383789
O O1 0.978912 0.745609 0.408363
O O2 0.733218 0.663715 0.496713
O O3 0.971550 0.608653 0.371776
O O4 0.054959 0.656034 0.561807
O O5 0.758714 0.032441 0.626164
O O6 0.746978 0.118261 0.783892
O O7 0.019076 0.122108 0.654987
O O8 0.979342 0.015661 0.785534
O O9 0.398659 0.846097 0.035617
O O10 0.500000 0.000000 0.500000
O O11 0.750000 0.250000 0.341449
#
# Coordination Sequence:
#
# PCOD8228916 Si02
#       5
#     8   8   8   8   8
#     4  10  21  44  65  92 139 169 219 293 331 399
#     4  12  24  42  68  99 136 189 225 277 352 408
#     4  10  22  42  68  98 130 176 225 285 340 399
#     4  12  25  43  65  98 141 177 228 287 335 417
#     4  10  22  41  68  99 128 172 232 284 336 403
#
# _framework density 21.945097000000001
#
# number of rings (size 3 to 8) (size 9 to 14) (size 15 to 20)
#    0.000    1.200    4.000    1.200    2.800    1.600 
#    3.600    6.000    0.000    0.000    0.000    0.000 
#    0.000    0.000    0.000    0.000    0.000    0.000 
#
# Total GULP energy -495990.089669 kJ/mol
# GULP energy per Si atom -12399.752242 kJ/mol
# Density = 2.189515 g / cm^3
# Si number density = 21.945097 Si / 1000 Ang^3
#
#
#
# Elastic Constant Matrix: (Units=GPa)
#
#
# Indices 1 2 3 4 5 6 
#
# 1 149.8783 40.8953 48.2514 0.0000 0.0000 0.0000
# 2 40.8953 82.8361 28.6281 0.0000 0.0000 0.0000
# 3 48.2514 28.6281 72.7147 0.0000 0.0000 0.0000
# 4 0.0000 0.0000 0.0000 28.0316 0.0000 0.0000
# 5 0.0000 0.0000 0.0000 0.0000 27.6549 0.0000
# 6 0.0000 0.0000 0.0000 0.0000 0.0000 31.0724
#
#
#
# Elastic Compliance Matrix: (Units=1/GPa)
#
#
# Indices 1 2 3 4 5 6 
#
# 1 0.008996 -0.002753 -0.004886 0.000000 0.000000 0.000000
# 2 -0.002753 0.014816 -0.004006 0.000000 0.000000 0.000000
# 3 -0.004886 -0.004006 0.018572 0.000000 0.000000 0.000000
# 4 0.000000 0.000000 0.000000 0.035674 0.000000 0.000000
# 5 0.000000 0.000000 0.000000 0.000000 0.036160 0.000000
# 6 0.000000 0.000000 0.000000 0.000000 0.000000 0.032183
#
#
# Mechanical properties :
#
#
# Convention : Reuss Voigt Hill
#
# Bulk Modulus (GPa) = 52.37315 60.10875 56.24095
# Shear Modulus (GPa) = 28.40029 29.86209 29.13119
#
# Velocity S-wave (km/s) = 3.60133 3.69285 3.64738
# Velocity P-wave (km/s) = 6.41951 6.75521 6.58950
#
# Compressibility (1/GPa) = 0.01909375
#
# Stress axis : x y z
#
# Youngs Moduli (GPa) = 111.15916 67.49631 53.84518
#
# Poissons Ratio (x) = 0.18580 0.26308
# Poissons Ratio (y) = 0.30599 0.21572
# Poissons Ratio (z) = 0.54310 0.27041
#
# Static dielectric constant tensor:
#      x y z
#    x 4.004630 0.000000 0.000000 
#    y 0.000000 4.421410 0.000000 
#    z 0.000000 0.000000 3.599000 
# 
# 
# High freq. dielectric constant tensor:
#      x y z
#    x 1.870210 0.000000 0.000000 
#    y 0.000000 1.885090 0.000000 
#    z 0.000000 0.000000 1.835210 
# 
# From -- ./inp_files/6302.got.cif
#   From: 2010.03.12/outbox.cif.g09.slc.cpg/sg56_4_cif.got.tgz:6302.got - 2010.04.16 15:33:40.
