data_PCOD8228337
_publ_section_title
;
Structure prediction by ZEFSAII (Michael W. Deem and Ramdas Pophale) SiO2 
 PCOD8228337
Probable space group: P C C N
;
_chemical_formula_sum "Si O2"
_cell_formula_units_Z 40
_cell_length_a 4.934755
_cell_length_b 18.358803
_cell_length_c 20.787924
_cell_angle_alpha 90.000000
_cell_angle_beta 90.000000
_cell_angle_gamma 90.000000
_cell_volume 1883.306814
_symmetry_space_group_name_H-M "P C C N"
_symmetry_group_IT_number 56
_symmetry_cell_setting 'orthorhombic'
loop_
_space_group_symop_operation_xyz
x,y,z
1/2-x,1/2-y,z
1/2+x,-y,1/2-z
-x,1/2+y,1/2-z
-x,-y,-z
1/2+x,1/2+y,-z
1/2-x,y,1/2+z
x,1/2-y,1/2+z
loop_
_atom_site_type_symbol
_atom_site_label
_atom_site_fract_x
_atom_site_fract_y
_atom_site_fract_z
Si Si1 0.010043 0.801498 0.217502
Si Si2 0.256876 0.413874 0.510826
Si Si3 0.260057 0.957909 0.919566
Si Si4 0.501477 0.296612 0.924364
Si Si5 0.432089 0.541279 0.274267
O O1 0.750000 0.750000 0.225278
O O2 0.080300 0.831264 0.144839
O O3 0.250000 0.750000 0.242962
O O4 0.989281 0.875186 0.259023
O O5 0.537964 0.396808 0.548600
O O6 0.341122 0.465045 0.451257
O O7 0.097143 0.346269 0.482245
O O8 0.055181 0.447075 0.564109
O O9 0.298494 0.962398 0.844212
O O10 0.250000 0.250000 0.902263
O O11 0.750000 0.250000 0.952593
O O12 0.702441 0.491756 0.272949
#
# Coordination Sequence:
#
# PCOD8228337 Si02
#       5
#     8   8   8   8   8
#     4  10  22  40  60  86 122 159 196 248 308 358
#     4  10  20  38  57  82 117 148 188 242 295 346
#     4  10  22  37  59  85 115 152 190 241 300 344
#     4  10  20  35  58  84 111 150 198 241 290 353
#     4  12  24  40  64  92 120 158 210 252 294 360
#
# _framework density 21.239236999999999
#
# number of rings (size 3 to 8) (size 9 to 14) (size 15 to 20)
#    0.000    1.600    0.000    4.800    0.000    6.400 
#    0.000    6.000    0.000    0.000    0.000    0.000 
#    0.000    0.000    0.000    0.000    0.000    0.000 
#
# Total GULP energy -495651.935507 kJ/mol
# GULP energy per Si atom -12391.298388 kJ/mol
# Density = 2.119090 g / cm^3
# Si number density = 21.239237 Si / 1000 Ang^3
#
#
#
# Elastic Constant Matrix: (Units=GPa)
#
#
# Indices 1 2 3 4 5 6 
#
# 1 123.3627 38.0462 19.5641 0.0000 0.0000 0.0000
# 2 38.0462 96.7395 38.6303 0.0000 0.0000 0.0000
# 3 19.5641 38.6303 95.5364 0.0000 0.0000 0.0000
# 4 0.0000 0.0000 0.0000 24.9720 0.0000 0.0000
# 5 0.0000 0.0000 0.0000 0.0000 29.0576 0.0000
# 6 0.0000 0.0000 0.0000 0.0000 0.0000 36.6105
#
#
#
# Elastic Compliance Matrix: (Units=1/GPa)
#
#
# Indices 1 2 3 4 5 6 
#
# 1 0.009245 -0.003435 -0.000504 0.000000 0.000000 0.000000
# 2 -0.003435 0.013603 -0.004797 0.000000 0.000000 0.000000
# 3 -0.000504 -0.004797 0.012510 0.000000 0.000000 0.000000
# 4 0.000000 0.000000 0.000000 0.040045 0.000000 0.000000
# 5 0.000000 0.000000 0.000000 0.000000 0.034414 0.000000
# 6 0.000000 0.000000 0.000000 0.000000 0.000000 0.027315
#
#
# Mechanical properties :
#
#
# Convention : Reuss Voigt Hill
#
# Bulk Modulus (GPa) = 55.90816 56.45777 56.18297
# Shear Modulus (GPa) = 31.13945 32.75454 31.94699
#
# Velocity S-wave (km/s) = 3.83316 3.93131 3.88254
# Velocity P-wave (km/s) = 6.78019 6.87361 6.82706
#
# Compressibility (1/GPa) = 0.01788648
#
# Stress axis : x y z
#
# Youngs Moduli (GPa) = 108.16117 73.51055 79.93413
#
# Poissons Ratio (x) = 0.25248 0.04033
# Poissons Ratio (y) = 0.37150 0.38346
# Poissons Ratio (z) = 0.05457 0.35265
#
# Static dielectric constant tensor:
#      x y z
#    x 4.198190 0.000000 0.000000 
#    y 0.000000 3.644380 0.000000 
#    z 0.000000 0.000000 3.672530 
# 
# 
# High freq. dielectric constant tensor:
#      x y z
#    x 1.860390 0.000000 0.000000 
#    y 0.000000 1.807640 0.000000 
#    z 0.000000 0.000000 1.824800 
# 
# From -- ./inp_files/13827.got.cif
#   From: 2010.03.12/outbox.cif.g09.slc.cpg/sg56_7_cif.got.tgz:13827.got - 2010.04.16 15:33:40.
