data_PCOD8228693
_publ_section_title
;
Structure prediction by ZEFSAII (Michael W. Deem and Ramdas Pophale) SiO2 
 PCOD8228693
Probable space group: P C C N
;
_chemical_formula_sum "Si O2"
_cell_formula_units_Z 64
_cell_length_a 13.205592
_cell_length_b 27.815118
_cell_length_c 8.891825
_cell_angle_alpha 90.000000
_cell_angle_beta 90.000000
_cell_angle_gamma 90.000000
_cell_volume 3266.101587
_symmetry_space_group_name_H-M "P C C N"
_symmetry_group_IT_number 56
_symmetry_cell_setting 'orthorhombic'
loop_
_space_group_symop_operation_xyz
x,y,z
1/2-x,1/2-y,z
1/2+x,-y,1/2-z
-x,1/2+y,1/2-z
-x,-y,-z
1/2+x,1/2+y,-z
1/2-x,y,1/2+z
x,1/2-y,1/2+z
loop_
_atom_site_type_symbol
_atom_site_label
_atom_site_fract_x
_atom_site_fract_y
_atom_site_fract_z
Si Si1 0.782676 0.362937 0.313325
Si Si2 0.389565 0.118483 0.842167
Si Si3 0.278782 0.928835 0.955579
Si Si4 0.963861 0.466792 0.867475
Si Si5 0.424879 0.686806 0.638637
Si Si6 0.169372 0.021333 0.831872
Si Si7 0.734643 0.586359 0.917971
Si Si8 0.858441 0.271975 0.176206
O O1 0.805620 0.394785 0.462329
O O2 0.820737 0.396295 0.177952
O O3 0.662637 0.350120 0.311136
O O4 0.844987 0.313243 0.304789
O O5 0.446182 0.067966 0.820924
O O6 0.465458 0.162559 0.856653
O O7 0.323580 0.124154 0.689462
O O8 0.320774 0.115784 0.991990
O O9 0.239707 0.978991 0.894305
O O10 0.365799 0.937155 0.079357
O O11 0.937813 0.498907 0.719820
O O12 0.000000 0.500000 0.000000
O O13 0.407704 0.705544 0.470635
O O14 0.430127 0.731512 0.753299
O O15 0.218880 0.043834 0.682694
O O16 0.158279 0.061741 0.960665
O O17 0.750000 0.250000 0.130599
#
# Coordination Sequence:
#
# PCOD8228693 Si02
#       8
#     8   8   8   8   8   8   8   8
#     4  11  20  34  57  90 129 164 191 227 301 374
#     4  11  22  42  62  86 115 161 210 261 305 359
#     4  12  20  33  57  90 126 170 202 234 289 365
#     4  12  21  35  59  86 126 163 211 257 290 345
#     4  11  22  40  63  90 119 153 200 245 304 384
#     4  11  19  37  57  88 126 169 202 246 300 351
#     4  10  22  39  63  79 119 167 212 255 312 344
#     4  10  21  37  63  94 129 157 177 236 319 387
#
# _framework density 19.595227000000001
#
# number of rings (size 3 to 8) (size 9 to 14) (size 15 to 20)
#    0.000    1.000    6.250    1.875    1.750    0.500 
#    0.000    3.750    0.000    2.250    0.000    0.000 
#    0.000    0.000    0.000    0.000    0.000    0.000 
#
# Total GULP energy -793375.142655 kJ/mol
# GULP energy per Si atom -12396.486604 kJ/mol
# Density = 1.955063 g / cm^3
# Si number density = 19.595227 Si / 1000 Ang^3
#
#
#
# Elastic Constant Matrix: (Units=GPa)
#
#
# Indices 1 2 3 4 5 6 
#
# 1 86.0159 46.7285 46.4783 0.0000 0.0000 0.0000
# 2 46.7285 99.5567 43.7893 0.0000 0.0000 0.0000
# 3 46.4783 43.7893 108.2029 0.0000 0.0000 0.0000
# 4 0.0000 0.0000 0.0000 25.3603 0.0000 0.0000
# 5 0.0000 0.0000 0.0000 0.0000 24.3736 0.0000
# 6 0.0000 0.0000 0.0000 0.0000 0.0000 33.7654
#
#
#
# Elastic Compliance Matrix: (Units=1/GPa)
#
#
# Indices 1 2 3 4 5 6 
#
# 1 0.017691 -0.006035 -0.005157 0.000000 0.000000 0.000000
# 2 -0.006035 0.014279 -0.003186 0.000000 0.000000 0.000000
# 3 -0.005157 -0.003186 0.012746 0.000000 0.000000 0.000000
# 4 0.000000 0.000000 0.000000 0.039432 0.000000 0.000000
# 5 0.000000 0.000000 0.000000 0.000000 0.041028 0.000000
# 6 0.000000 0.000000 0.000000 0.000000 0.000000 0.029616
#
#
# Mechanical properties :
#
#
# Convention : Reuss Voigt Hill
#
# Bulk Modulus (GPa) = 62.65743 63.08531 62.87137
# Shear Modulus (GPa) = 26.47359 27.15183 26.81271
#
# Velocity S-wave (km/s) = 3.67961 3.72645 3.70311
# Velocity P-wave (km/s) = 7.07800 7.12596 7.10202
#
# Compressibility (1/GPa) = 0.01595980
#
# Stress axis : x y z
#
# Youngs Moduli (GPa) = 56.52648 70.03445 78.45443
#
# Poissons Ratio (x) = 0.42269 0.40455
# Poissons Ratio (y) = 0.34116 0.24996
# Poissons Ratio (z) = 0.29148 0.22313
#
# Static dielectric constant tensor:
#      x y z
#    x 3.454380 0.000000 0.000000 
#    y 0.000000 3.499380 0.000000 
#    z 0.000000 0.000000 3.784400 
# 
# 
# High freq. dielectric constant tensor:
#      x y z
#    x 1.721180 0.000000 0.000000 
#    y 0.000000 1.763210 0.000000 
#    z 0.000000 0.000000 1.779960 
# 
# From -- ./inp_files/2958.got.cif
#   From: 2010.03.12/outbox.cif.g09.slc.cpg/sg56_2_cif.got.tgz:2958.got - 2010.04.16 15:33:40.
