data_PCOD8228880
_publ_section_title
;
Structure prediction by ZEFSAII (Michael W. Deem and Ramdas Pophale) SiO2 
 PCOD8228880
Probable space group: P C C N
;
_chemical_formula_sum "Si O2"
_cell_formula_units_Z 32
_cell_length_a 11.586222
_cell_length_b 6.775858
_cell_length_c 15.075739
_cell_angle_alpha 90.000000
_cell_angle_beta 90.000000
_cell_angle_gamma 90.000000
_cell_volume 1183.544936
_symmetry_space_group_name_H-M "P C C N"
_symmetry_group_IT_number 56
_symmetry_cell_setting 'orthorhombic'
loop_
_space_group_symop_operation_xyz
x,y,z
1/2-x,1/2-y,z
1/2+x,-y,1/2-z
-x,1/2+y,1/2-z
-x,-y,-z
1/2+x,1/2+y,-z
1/2-x,y,1/2+z
x,1/2-y,1/2+z
loop_
_atom_site_type_symbol
_atom_site_label
_atom_site_fract_x
_atom_site_fract_y
_atom_site_fract_z
Si Si1 0.603062 0.637833 0.886153
Si Si2 0.873242 0.167507 0.026685
Si Si3 0.634748 0.354227 0.732972
Si Si4 0.952368 0.055014 0.372559
O O1 0.652673 0.535292 0.974401
O O2 0.657275 0.529916 0.801611
O O3 0.638678 0.870213 0.879897
O O4 0.459977 0.619433 0.891007
O O5 0.750000 0.250000 0.057469
O O6 0.944461 0.317569 0.961686
O O7 0.750000 0.250000 0.700062
O O8 0.576192 0.446303 0.643689
O O9 0.561568 0.188034 0.785194
#
# Coordination Sequence:
#
# PCOD8228880 Si02
#       4
#     8   8   8   8
#     4  10  21  42  64  94 136 171 227 272 329 413
#     4  10  23  41  68  96 133 181 220 280 338 394
#     4  11  24  41  67  99 138 178 217 281 343 394
#     4  11  21  42  65  98 134 172 223 277 330 408
#
# _framework density 27.037417999999999
#
# number of rings (size 3 to 8) (size 9 to 14) (size 15 to 20)
#    0.000    1.500    2.500    3.750    0.000    5.000 
#    0.000    0.000   11.000    0.000    0.000    0.000 
#    0.000    0.000    0.000    0.000    0.000    0.000 
#
# Total GULP energy -396443.582910 kJ/mol
# GULP energy per Si atom -12388.861966 kJ/mol
# Density = 2.697588 g / cm^3
# Si number density = 27.037418 Si / 1000 Ang^3
#
#
#
# Elastic Constant Matrix: (Units=GPa)
#
#
# Indices 1 2 3 4 5 6 
#
# 1 107.8373 35.6666 31.6132 0.0000 0.0000 0.0000
# 2 35.6666 148.2730 32.4794 0.0000 0.0000 0.0000
# 3 31.6132 32.4794 137.8365 0.0000 0.0000 0.0000
# 4 0.0000 0.0000 0.0000 34.5754 0.0000 0.0000
# 5 0.0000 0.0000 0.0000 0.0000 18.4511 0.0000
# 6 0.0000 0.0000 0.0000 0.0000 0.0000 58.3966
#
#
#
# Elastic Compliance Matrix: (Units=1/GPa)
#
#
# Indices 1 2 3 4 5 6 
#
# 1 0.010535 -0.002114 -0.001918 0.000000 0.000000 0.000000
# 2 -0.002114 0.007536 -0.001291 0.000000 0.000000 0.000000
# 3 -0.001918 -0.001291 0.007999 0.000000 0.000000 0.000000
# 4 0.000000 0.000000 0.000000 0.028922 0.000000 0.000000
# 5 0.000000 0.000000 0.000000 0.000000 0.054197 0.000000
# 6 0.000000 0.000000 0.000000 0.000000 0.000000 0.017124
#
#
# Mechanical properties :
#
#
# Convention : Reuss Voigt Hill
#
# Bulk Modulus (GPa) = 64.83526 65.94059 65.38792
# Shear Modulus (GPa) = 35.18651 41.89714 38.54183
#
# Velocity S-wave (km/s) = 3.61141 3.94076 3.77967
# Velocity P-wave (km/s) = 6.43596 6.71921 6.57911
#
# Compressibility (1/GPa) = 0.01542371
#
# Stress axis : x y z
#
# Youngs Moduli (GPa) = 94.92449 132.70387 125.01488
#
# Poissons Ratio (x) = 0.28053 0.23978
# Poissons Ratio (y) = 0.20066 0.16137
# Poissons Ratio (z) = 0.18207 0.17130
#
# Static dielectric constant tensor:
#      x y z
#    x 4.591630 0.000000 0.000000 
#    y 0.000000 5.501530 0.000000 
#    z 0.000000 0.000000 4.844250 
# 
# 
# High freq. dielectric constant tensor:
#      x y z
#    x 2.067680 0.000000 0.000000 
#    y 0.000000 2.115870 0.000000 
#    z 0.000000 0.000000 2.100580 
# 
# From -- ./inp_files/18502.got.cif
#   From: 2010.03.12/outbox.cif.g09.slc.cpg/sg56_10_cif.got.tgz:18502.got - 2010.04.16 15:33:40.
