data_PCOD8228371
_publ_section_title
;
Structure prediction by ZEFSAII (Michael W. Deem and Ramdas Pophale) SiO2 
 PCOD8228371
Probable space group: P C C N
;
_chemical_formula_sum "Si O2"
_cell_formula_units_Z 52
_cell_length_a 14.894864
_cell_length_b 9.051392
_cell_length_c 19.258205
_cell_angle_alpha 90.000000
_cell_angle_beta 90.000000
_cell_angle_gamma 90.000000
_cell_volume 2596.376809
_symmetry_space_group_name_H-M "P C C N"
_symmetry_group_IT_number 56
_symmetry_cell_setting 'orthorhombic'
loop_
_space_group_symop_operation_xyz
x,y,z
1/2-x,1/2-y,z
1/2+x,-y,1/2-z
-x,1/2+y,1/2-z
-x,-y,-z
1/2+x,1/2+y,-z
1/2-x,y,1/2+z
x,1/2-y,1/2+z
loop_
_atom_site_type_symbol
_atom_site_label
_atom_site_fract_x
_atom_site_fract_y
_atom_site_fract_z
Si Si1 0.945791 0.500454 0.240957
Si Si2 0.392099 0.473026 0.413450
Si Si3 0.830173 0.153169 0.853728
Si Si4 0.750000 0.750000 0.629789
Si Si5 0.879514 0.827261 0.249287
Si Si6 0.083199 0.884238 0.547272
Si Si7 0.711274 0.895301 0.888699
O O1 0.908936 0.467972 0.163956
O O2 0.896367 0.388660 0.292367
O O3 0.931002 0.671547 0.260339
O O4 0.050857 0.463445 0.247828
O O5 0.301636 0.372576 0.416804
O O6 0.386313 0.613708 0.465990
O O7 0.476535 0.377385 0.441399
O O8 0.750000 0.250000 0.820431
O O9 0.878483 0.242680 0.914541
O O10 0.791854 0.011126 0.892299
O O11 0.674674 0.830431 0.677055
O O12 0.807549 0.852496 0.309136
O O13 0.121176 0.039928 0.577421
O O14 0.750000 0.750000 0.927745
#
# Coordination Sequence:
#
# PCOD8228371 Si02
#       7
#     8   8   8   4   8   8   8
#     4  11  21  38  62  91 123 161 208 263 313 377
#     4  10  21  39  61  88 128 168 205 252 326 375
#     4  10  21  36  60  89 118 157 205 261 307 365
#     4  10  20  36  60  94 124 162 208 270 310 368
#     4  11  21  36  61  91 122 158 209 261 317 371
#     4  10  22  39  62  87 124 170 206 251 320 378
#     4  11  19  37  61  87 115 159 209 255 306 379
#
# _framework density 20.027909000000001
#
# number of rings (size 3 to 8) (size 9 to 14) (size 15 to 20)
#    0.000    1.538    3.846    2.769    3.231    0.000 
#    0.000    2.308    0.000    4.615    0.000    0.000 
#    0.000    0.000    0.000    0.000    0.000    0.000 
#
# Total GULP energy -644664.839098 kJ/mol
# GULP energy per Si atom -12397.400752 kJ/mol
# Density = 1.998232 g / cm^3
# Si number density = 20.027909 Si / 1000 Ang^3
#
#
#
# Elastic Constant Matrix: (Units=GPa)
#
#
# Indices 1 2 3 4 5 6 
#
# 1 116.4252 52.2554 31.6530 0.0000 0.0000 0.0000
# 2 52.2554 112.1647 40.1454 0.0000 0.0000 0.0000
# 3 31.6530 40.1454 99.7032 0.0000 0.0000 0.0000
# 4 0.0000 0.0000 0.0000 30.9622 0.0000 0.0000
# 5 0.0000 0.0000 0.0000 0.0000 24.7325 0.0000
# 6 0.0000 0.0000 0.0000 0.0000 0.0000 38.6391
#
#
#
# Elastic Compliance Matrix: (Units=1/GPa)
#
#
# Indices 1 2 3 4 5 6 
#
# 1 0.011097 -0.004567 -0.001684 0.000000 0.000000 0.000000
# 2 -0.004567 0.012296 -0.003501 0.000000 0.000000 0.000000
# 3 -0.001684 -0.003501 0.011974 0.000000 0.000000 0.000000
# 4 0.000000 0.000000 0.000000 0.032297 0.000000 0.000000
# 5 0.000000 0.000000 0.000000 0.000000 0.040433 0.000000
# 6 0.000000 0.000000 0.000000 0.000000 0.000000 0.025881
#
#
# Mechanical properties :
#
#
# Convention : Reuss Voigt Hill
#
# Bulk Modulus (GPa) = 63.04067 64.04452 63.54260
# Shear Modulus (GPa) = 31.49205 32.48270 31.98737
#
# Velocity S-wave (km/s) = 3.96966 4.03162 4.00076
# Velocity P-wave (km/s) = 7.24953 7.32932 7.28954
#
# Compressibility (1/GPa) = 0.01586277
#
# Stress axis : x y z
#
# Youngs Moduli (GPa) = 90.11515 81.32520 83.51331
#
# Poissons Ratio (x) = 0.37142 0.14064
# Poissons Ratio (y) = 0.41157 0.29239
# Poissons Ratio (z) = 0.15176 0.28473
#
# Static dielectric constant tensor:
#      x y z
#    x 3.817980 0.000000 0.000000 
#    y 0.000000 3.621530 0.000000 
#    z 0.000000 0.000000 3.681120 
# 
# 
# High freq. dielectric constant tensor:
#      x y z
#    x 1.794820 0.000000 0.000000 
#    y 0.000000 1.766140 0.000000 
#    z 0.000000 0.000000 1.775240 
# 
# From -- ./inp_files/19054.got.cif
#   From: 2010.03.12/outbox.cif.g09.slc.cpg/sg56_10_cif.got.tgz:19054.got - 2010.04.16 15:33:40.
