data_PCOD8228497
_publ_section_title
;
Structure prediction by ZEFSAII (Michael W. Deem and Ramdas Pophale) SiO2 
 PCOD8228497
Probable space group: P C C N
;
_chemical_formula_sum "Si O2"
_cell_formula_units_Z 48
_cell_length_a 11.368741
_cell_length_b 11.464624
_cell_length_c 17.536277
_cell_angle_alpha 90.000000
_cell_angle_beta 90.000000
_cell_angle_gamma 90.000000
_cell_volume 2285.649250
_symmetry_space_group_name_H-M "P C C N"
_symmetry_group_IT_number 56
_symmetry_cell_setting 'orthorhombic'
loop_
_space_group_symop_operation_xyz
x,y,z
1/2-x,1/2-y,z
1/2+x,-y,1/2-z
-x,1/2+y,1/2-z
-x,-y,-z
1/2+x,1/2+y,-z
1/2-x,y,1/2+z
x,1/2-y,1/2+z
loop_
_atom_site_type_symbol
_atom_site_label
_atom_site_fract_x
_atom_site_fract_y
_atom_site_fract_z
Si Si1 0.072571 0.773705 0.780383
Si Si2 0.177761 0.983456 0.050504
Si Si3 0.155949 0.347008 0.802321
Si Si4 0.849158 0.652289 0.028919
Si Si5 0.277796 0.574361 0.220670
Si Si6 0.519521 0.322462 0.050007
O O1 0.113525 0.645483 0.756007
O O2 0.154085 0.870590 0.742492
O O3 0.077946 0.784114 0.871123
O O4 0.942815 0.791903 0.750273
O O5 0.213731 0.926670 0.129974
O O6 0.123765 0.878936 0.000029
O O7 0.080860 0.082331 0.065012
O O8 0.295578 0.038407 0.013027
O O9 0.250000 0.250000 0.819422
O O10 0.111325 0.387227 0.885968
O O11 0.220271 0.447112 0.755795
O O12 0.750000 0.750000 0.030600
O O13 0.964609 0.706029 0.988182
#
# Coordination Sequence:
#
# PCOD8228497 Si02
#       6
#     8   8   8   8   8   8
#     4  11  25  42  62  97 138 171 217 276 336 395
#     4  10  20  38  65  93 129 175 220 274 328 399
#     4  11  24  41  70  95 127 176 224 275 330 403
#     4   9  20  37  61  94 123 162 226 265 326 394
#     4  11  25  42  62  97 138 171 217 276 336 395
#     4  10  20  38  65  93 129 175 220 274 328 399
#
# _framework density 21.000598
#
# number of rings (size 3 to 8) (size 9 to 14) (size 15 to 20)
#    0.000    1.667    1.667    2.000    4.667    2.667 
#    0.000   13.333    0.000    0.000    0.000    0.000 
#    0.000    0.000    0.000    0.000    0.000    0.000 
#
# Total GULP energy -595303.526236 kJ/mol
# GULP energy per Si atom -12402.156797 kJ/mol
# Density = 2.095280 g / cm^3
# Si number density = 21.000598 Si / 1000 Ang^3
#
#
#
# Elastic Constant Matrix: (Units=GPa)
#
#
# Indices 1 2 3 4 5 6 
#
# 1 54.3012 52.9262 49.6200 0.0000 0.0000 0.0000
# 2 52.9262 73.9513 49.5882 0.0000 0.0000 0.0000
# 3 49.6200 49.5882 190.3509 0.0000 0.0000 0.0000
# 4 0.0000 0.0000 0.0000 33.4593 0.0000 0.0000
# 5 0.0000 0.0000 0.0000 0.0000 32.8702 0.0000
# 6 0.0000 0.0000 0.0000 0.0000 0.0000 38.5333
#
#
#
# Elastic Compliance Matrix: (Units=1/GPa)
#
#
# Indices 1 2 3 4 5 6 
#
# 1 0.066000 -0.043255 -0.005936 0.000000 0.000000 0.000000
# 2 -0.043255 0.044733 -0.000378 0.000000 0.000000 0.000000
# 3 -0.005936 -0.000378 0.006899 0.000000 0.000000 0.000000
# 4 0.000000 0.000000 0.000000 0.029887 0.000000 0.000000
# 5 0.000000 0.000000 0.000000 0.000000 0.030423 0.000000
# 6 0.000000 0.000000 0.000000 0.000000 0.000000 0.025952
#
#
# Mechanical properties :
#
#
# Convention : Reuss Voigt Hill
#
# Bulk Modulus (GPa) = 54.07127 69.20802 61.63964
# Shear Modulus (GPa) = 16.17096 32.07051 24.12073
#
# Velocity S-wave (km/s) = 2.77794 3.91208 3.39274
# Velocity P-wave (km/s) = 6.00772 7.30976 6.69049
#
# Compressibility (1/GPa) = 0.01849411
#
# Stress axis : x y z
#
# Youngs Moduli (GPa) = 15.15150 22.35494 144.94154
#
# Poissons Ratio (x) = 0.96696 0.86042
# Poissons Ratio (y) = 0.65538 0.05476
# Poissons Ratio (z) = 0.08994 0.00845
#
# Static dielectric constant tensor:
#      x y z
#    x 0.377600 0.000000 0.000000 
#    y 0.000000 3.586770 0.000000 
#    z 0.000000 0.000000 4.025290 
# 
# 
# High freq. dielectric constant tensor:
#      x y z
#    x 1.816330 0.000000 0.000000 
#    y 0.000000 1.819910 0.000000 
#    z 0.000000 0.000000 1.842060 
# 
# From -- ./inp_files/15574.got.cif
#   From: 2010.03.12/outbox.cif.g09.slc.cpg/sg56_8_cif.got.tgz:15574.got - 2010.04.16 15:33:40.
