data_PCOD8228755
_publ_section_title
;
Structure prediction by ZEFSAII (Michael W. Deem and Ramdas Pophale) SiO2 
 PCOD8228755
Probable space group: P C C N
;
_chemical_formula_sum "Si O2"
_cell_formula_units_Z 64
_cell_length_a 10.842794
_cell_length_b 9.243378
_cell_length_c 31.560512
_cell_angle_alpha 90.000000
_cell_angle_beta 90.000000
_cell_angle_gamma 90.000000
_cell_volume 3163.122128
_symmetry_space_group_name_H-M "P C C N"
_symmetry_group_IT_number 56
_symmetry_cell_setting 'orthorhombic'
loop_
_space_group_symop_operation_xyz
x,y,z
1/2-x,1/2-y,z
1/2+x,-y,1/2-z
-x,1/2+y,1/2-z
-x,-y,-z
1/2+x,1/2+y,-z
1/2-x,y,1/2+z
x,1/2-y,1/2+z
loop_
_atom_site_type_symbol
_atom_site_label
_atom_site_fract_x
_atom_site_fract_y
_atom_site_fract_z
Si Si1 0.869451 0.926199 0.272044
Si Si2 0.887960 0.215574 0.967566
Si Si3 0.277392 0.417534 0.636568
Si Si4 0.971173 0.021424 0.893671
Si Si5 0.611578 0.271224 0.063340
Si Si6 0.885534 0.719063 0.142263
Si Si7 0.517734 0.479250 0.422112
Si Si8 0.392467 0.382373 0.261935
O O1 0.851013 0.964028 0.321365
O O2 0.902246 0.755967 0.269035
O O3 0.739410 0.962477 0.247738
O O4 0.986788 0.017284 0.254315
O O5 0.750000 0.250000 0.952987
O O6 0.940779 0.086052 0.939580
O O7 0.967123 0.361008 0.959216
O O8 0.893070 0.162286 0.016082
O O9 0.250000 0.250000 0.634482
O O10 0.147254 0.497192 0.635344
O O11 0.351271 0.467095 0.595236
O O12 0.045154 0.130637 0.864357
O O13 0.043548 0.872047 0.902461
O O14 0.750000 0.250000 0.079716
O O15 0.552273 0.114504 0.058730
O O16 0.750000 0.750000 0.125149
O O17 0.887740 0.677500 0.190996
O O18 0.940791 0.586601 0.116437
#
# Coordination Sequence:
#
# PCOD8228755 Si02
#       8
#     8   8   8   8   8   8   8   8
#     4  11  25  44  67  96 128 167 214 264 323 383
#     4  10  21  39  62  93 126 164 211 261 316 374
#     4  12  22  41  67  94 124 161 213 268 309 370
#     4  11  24  39  67  93 125 166 214 261 312 372
#     4  11  23  40  61  92 130 166 209 262 315 377
#     4  11  23  42  64  90 127 168 206 254 317 380
#     4  11  22  40  64  91 125 166 213 254 317 371
#     4  11  24  44  65  94 132 166 208 266 320 384
#
# _framework density 20.233174000000002
#
# number of rings (size 3 to 8) (size 9 to 14) (size 15 to 20)
#    0.000    1.000    6.250    1.500    1.750    0.500 
#    0.000    0.000    2.750    0.000    0.000    0.000 
#    0.000    0.000    0.000    0.000    0.000    0.000 
#
# Total GULP energy -793627.496724 kJ/mol
# GULP energy per Si atom -12400.429636 kJ/mol
# Density = 2.018712 g / cm^3
# Si number density = 20.233174 Si / 1000 Ang^3
#
#
#
# Elastic Constant Matrix: (Units=GPa)
#
#
# Indices 1 2 3 4 5 6 
#
# 1 149.8833 46.6657 18.3822 0.0000 0.0000 0.0000
# 2 46.6657 81.7237 8.0371 0.0000 0.0000 0.0000
# 3 18.3822 8.0371 50.7643 0.0000 0.0000 0.0000
# 4 0.0000 0.0000 0.0000 20.0208 0.0000 0.0000
# 5 0.0000 0.0000 0.0000 0.0000 30.5263 0.0000
# 6 0.0000 0.0000 0.0000 0.0000 0.0000 39.7827
#
#
#
# Elastic Compliance Matrix: (Units=1/GPa)
#
#
# Indices 1 2 3 4 5 6 
#
# 1 0.008373 -0.004554 -0.002311 0.000000 0.000000 0.000000
# 2 -0.004554 0.014907 -0.000711 0.000000 0.000000 0.000000
# 3 -0.002311 -0.000711 0.020648 0.000000 0.000000 0.000000
# 4 0.000000 0.000000 0.000000 0.049948 0.000000 0.000000
# 5 0.000000 0.000000 0.000000 0.000000 0.032759 0.000000
# 6 0.000000 0.000000 0.000000 0.000000 0.000000 0.025137
#
#
# Mechanical properties :
#
#
# Convention : Reuss Voigt Hill
#
# Bulk Modulus (GPa) = 34.75099 47.61568 41.18333
# Shear Modulus (GPa) = 28.32613 32.01836 30.17225
#
# Velocity S-wave (km/s) = 3.74570 3.98234 3.86583
# Velocity P-wave (km/s) = 5.99329 6.68805 6.35018
#
# Compressibility (1/GPa) = 0.02877616
#
# Stress axis : x y z
#
# Youngs Moduli (GPa) = 119.42946 67.08411 48.43018
#
# Poissons Ratio (x) = 0.30550 0.11192
# Poissons Ratio (y) = 0.54387 0.03443
# Poissons Ratio (z) = 0.27600 0.04770
#
# Static dielectric constant tensor:
#      x y z
#    x 3.888610 0.000000 0.000000 
#    y 0.000000 3.535010 0.000000 
#    z 0.000000 0.000000 3.599070 
# 
# 
# High freq. dielectric constant tensor:
#      x y z
#    x 1.804210 0.000000 0.000000 
#    y 0.000000 1.789400 0.000000 
#    z 0.000000 0.000000 1.787960 
# 
# From -- ./inp_files/23537.got.cif
#   From: 2010.03.12/outbox.cif.g09.slc.cpg/sg56_12_cif.got.tgz:23537.got - 2010.04.16 15:33:40.
