data_PCOD8228114
_publ_section_title
;
Structure prediction by ZEFSAII (Michael W. Deem and Ramdas Pophale) SiO2 
 PCOD8228114
Probable space group: P C C N
;
_chemical_formula_sum "Si O2"
_cell_formula_units_Z 64
_cell_length_a 9.734685
_cell_length_b 17.890565
_cell_length_c 19.365393
_cell_angle_alpha 90.000000
_cell_angle_beta 90.000000
_cell_angle_gamma 90.000000
_cell_volume 3372.657765
_symmetry_space_group_name_H-M "P C C N"
_symmetry_group_IT_number 56
_symmetry_cell_setting 'orthorhombic'
loop_
_space_group_symop_operation_xyz
x,y,z
1/2-x,1/2-y,z
1/2+x,-y,1/2-z
-x,1/2+y,1/2-z
-x,-y,-z
1/2+x,1/2+y,-z
1/2-x,y,1/2+z
x,1/2-y,1/2+z
loop_
_atom_site_type_symbol
_atom_site_label
_atom_site_fract_x
_atom_site_fract_y
_atom_site_fract_z
Si Si1 0.370886 0.912336 0.046712
Si Si2 0.377153 0.299779 0.823677
Si Si3 0.346387 0.676597 0.971804
Si Si4 0.622847 0.299779 0.176323
Si Si5 0.122718 0.194294 0.672964
Si Si6 0.846387 0.823403 0.028196
Si Si7 0.629114 0.587664 0.453288
Si Si8 0.122718 0.694294 0.172964
O O1 0.372623 0.875108 0.121786
O O2 0.375632 1.000000 0.058982
O O3 0.226457 0.891178 0.011270
O O4 0.500000 0.885846 0.000000
O O5 0.250000 0.250000 0.803643
O O6 0.403835 0.341119 0.750288
O O7 0.350532 0.350482 0.891217
O O8 0.496455 0.245256 0.848185
O O9 0.250000 0.750000 0.980792
O O10 0.350532 0.649518 0.891217
O O11 0.500000 0.691376 1.000000
O O12 0.750000 0.250000 0.196357
O O13 0.503545 0.245256 0.151815
O O14 0.596165 0.341119 0.249712
O O15 0.250000 0.250000 0.664795
O O16 0.127377 0.124892 0.621786
O O17 0.750000 0.750000 0.019208
O O18 0.773543 0.891178 0.988730
O O19 0.250000 0.750000 0.164795
#
# Coordination Sequence:
#
# PCOD8228114 Si02
#       8
#     8   8   8   8   8   8   8   8
#     4  11  23  37  53  76 109 146 182 222 271 326
#     4   9  18  31  54  81 104 129 169 220 265 312
#     4  11  20  34  58  84 108 138 178 223 269 319
#     4   9  18  31  54  81 104 129 169 220 265 312
#     4  10  19  34  55  79 104 135 177 224 270 316
#     4  11  20  34  58  84 108 138 178 223 269 319
#     4  11  23  37  53  76 109 146 182 222 271 326
#     4  10  19  34  55  79 104 135 177 224 270 316
#
# _framework density 18.976133000000001
#
# number of rings (size 3 to 8) (size 9 to 14) (size 15 to 20)
#    0.000    1.750    0.000    7.500    0.000    0.500 
#    0.000    1.250    0.000   22.500    0.000    0.000 
#    0.000    0.000    0.000    0.000    0.000    0.000 
#
# Total GULP energy -792911.386012 kJ/mol
# GULP energy per Si atom -12389.240406 kJ/mol
# Density = 1.893294 g / cm^3
# Si number density = 18.976133 Si / 1000 Ang^3
#
#
#
# Elastic Constant Matrix: (Units=GPa)
#
#
# Indices 1 2 3 4 5 6 
#
# 1 127.2363 33.5347 31.3236 0.0000 0.0000 0.0000
# 2 33.5347 68.8838 58.8059 0.0000 0.0000 0.0000
# 3 31.3236 58.8059 182.8497 0.0000 0.0000 0.0000
# 4 0.0000 0.0000 0.0000 8.0046 0.0000 0.0000
# 5 0.0000 0.0000 0.0000 0.0000 29.0597 0.0000
# 6 0.0000 0.0000 0.0000 0.0000 0.0000 10.5517
#
#
#
# Elastic Compliance Matrix: (Units=1/GPa)
#
#
# Indices 1 2 3 4 5 6 
#
# 1 0.009021 -0.004235 -0.000183 0.000000 0.000000 0.000000
# 2 -0.004235 0.022000 -0.006350 0.000000 0.000000 0.000000
# 3 -0.000183 -0.006350 0.007543 0.000000 0.000000 0.000000
# 4 0.000000 0.000000 0.000000 0.124928 0.000000 0.000000
# 5 0.000000 0.000000 0.000000 0.000000 0.034412 0.000000
# 6 0.000000 0.000000 0.000000 0.000000 0.000000 0.094772
#
#
# Mechanical properties :
#
#
# Convention : Reuss Voigt Hill
#
# Bulk Modulus (GPa) = 58.73139 69.58871 64.16005
# Shear Modulus (GPa) = 15.63054 26.54357 21.08706
#
# Velocity S-wave (km/s) = 2.87312 3.74409 3.33714
# Velocity P-wave (km/s) = 6.48257 7.44596 6.98090
#
# Compressibility (1/GPa) = 0.01702667
#
# Stress axis : x y z
#
# Youngs Moduli (GPa) = 110.85580 45.45496 132.58171
#
# Poissons Ratio (x) = 0.19251 0.02430
# Poissons Ratio (y) = 0.46949 0.84187
# Poissons Ratio (z) = 0.02032 0.28863
#
# Static dielectric constant tensor:
#      x y z
#    x 3.752160 0.000000 0.000000 
#    y 0.000000 2.908540 0.000000 
#    z 0.000000 0.000000 3.955970 
# 
# 
# High freq. dielectric constant tensor:
#      x y z
#    x 1.761820 0.000000 0.000000 
#    y 0.000000 1.672540 0.000000 
#    z 0.000000 0.000000 1.770450 
# 
# From -- ./inp_files/18406.got.cif
#   From: 2010.03.12/outbox.cif.g09.slc.cpg/sg56_10_cif.got.tgz:18406.got - 2010.04.16 15:33:40.
