data_PCOD8228001
_publ_section_title
;
Structure prediction by ZEFSAII (Michael W. Deem and Ramdas Pophale) SiO2 
 PCOD8228001
Probable space group: P C C N
;
_chemical_formula_sum "Si O2"
_cell_formula_units_Z 56
_cell_length_a 21.356042
_cell_length_b 18.191179
_cell_length_c 8.926659
_cell_angle_alpha 90.000000
_cell_angle_beta 90.000000
_cell_angle_gamma 90.000000
_cell_volume 3467.931884
_symmetry_space_group_name_H-M "P C C N"
_symmetry_group_IT_number 56
_symmetry_cell_setting 'orthorhombic'
loop_
_space_group_symop_operation_xyz
x,y,z
1/2-x,1/2-y,z
1/2+x,-y,1/2-z
-x,1/2+y,1/2-z
-x,-y,-z
1/2+x,1/2+y,-z
1/2-x,y,1/2+z
x,1/2-y,1/2+z
loop_
_atom_site_type_symbol
_atom_site_label
_atom_site_fract_x
_atom_site_fract_y
_atom_site_fract_z
Si Si1 0.560143 0.536758 0.077340
Si Si2 0.006277 0.025422 0.335062
Si Si3 0.963816 0.317461 0.787442
Si Si4 0.013966 0.671678 0.553137
Si Si5 0.674841 0.306102 0.384747
Si Si6 0.705374 0.158301 0.230538
Si Si7 0.891238 0.447860 0.339620
O O1 0.553918 0.510879 0.249005
O O2 0.551857 0.624964 0.054217
O O3 0.500000 0.500000 0.000000
O O4 0.618948 0.498472 0.991097
O O5 0.006536 0.113151 0.325738
O O6 0.073980 0.999544 0.278895
O O7 0.000000 0.000000 0.500000
O O8 0.997388 0.246245 0.856285
O O9 0.960684 0.306780 0.609786
O O10 0.895509 0.332790 0.857259
O O11 0.067102 0.624461 0.634450
O O12 0.678203 0.219792 0.344334
O O13 0.720924 0.349416 0.269861
O O14 0.694350 0.319543 0.557726
O O15 0.674088 0.079795 0.270517
#
# Coordination Sequence:
#
# PCOD8228001 Si02
#       7
#     8   8   8   8   8   8   8
#     4   8  16  33  44  61  89 124 168 186 249 296
#     4  10  19  29  47  68  89 124 167 207 245 291
#     4  12  20  31  47  69  98 123 171 205 246 291
#     4  10  20  29  47  69  90 132 162 201 243 298
#     4  11  23  31  46  70  93 131 170 209 240 275
#     4  11  22  34  47  66  97 131 172 204 238 290
#     4  10  18  36  47  60  94 135 170 194 248 295
#
# _framework density 16.147952
#
# number of rings (size 3 to 8) (size 9 to 14) (size 15 to 20)
#    0.000    2.000    5.714    3.429    6.000    0.000 
#    0.000    0.000    0.000    0.000    0.000    0.000 
#    0.000    0.000    0.000   36.000    0.286    0.000 
#
# Total GULP energy -693856.829531 kJ/mol
# GULP energy per Si atom -12390.300527 kJ/mol
# Density = 1.611120 g / cm^3
# Si number density = 16.147952 Si / 1000 Ang^3
#
#
#
# Elastic Constant Matrix: (Units=GPa)
#
#
# Indices 1 2 3 4 5 6 
#
# 1 40.8225 44.5534 14.0042 0.0000 0.0000 0.0000
# 2 44.5534 115.7954 47.4206 0.0000 0.0000 0.0000
# 3 14.0042 47.4206 111.0569 0.0000 0.0000 0.0000
# 4 0.0000 0.0000 0.0000 27.9092 0.0000 0.0000
# 5 0.0000 0.0000 0.0000 0.0000 14.2704 0.0000
# 6 0.0000 0.0000 0.0000 0.0000 0.0000 31.0047
#
#
#
# Elastic Compliance Matrix: (Units=1/GPa)
#
#
# Indices 1 2 3 4 5 6 
#
# 1 0.042582 -0.017191 0.001971 0.000000 0.000000 0.000000
# 2 -0.017191 0.017406 -0.005265 0.000000 0.000000 0.000000
# 3 0.001971 -0.005265 0.011004 0.000000 0.000000 0.000000
# 4 0.000000 0.000000 0.000000 0.035830 0.000000 0.000000
# 5 0.000000 0.000000 0.000000 0.000000 0.070075 0.000000
# 6 0.000000 0.000000 0.000000 0.000000 0.000000 0.032253
#
#
# Mechanical properties :
#
#
# Convention : Reuss Voigt Hill
#
# Bulk Modulus (GPa) = 33.30792 53.29235 43.30013
# Shear Modulus (GPa) = 19.22129 25.41666 22.31897
#
# Velocity S-wave (km/s) = 3.45385 3.97165 3.72177
# Velocity P-wave (km/s) = 6.04789 7.35569 6.73362
#
# Compressibility (1/GPa) = 0.03002289
#
# Stress axis : x y z
#
# Youngs Moduli (GPa) = 23.48390 57.45041 90.87756
#
# Poissons Ratio (x) = 0.98764 -0.17911
# Poissons Ratio (y) = 0.40371 0.47843
# Poissons Ratio (z) = -0.04628 0.30245
#
# Static dielectric constant tensor:
#      x y z
#    x 2.943300 0.000000 0.000000 
#    y 0.000000 3.288160 0.000000 
#    z 0.000000 0.000000 3.541380 
# 
# 
# High freq. dielectric constant tensor:
#      x y z
#    x 1.564370 0.000000 0.000000 
#    y 0.000000 1.613100 0.000000 
#    z 0.000000 0.000000 1.641650 
# 
# From -- ./inp_files/4847.got.cif
#   From: 2010.03.12/outbox.cif.g09.slc.cpg/sg56_3_cif.got.tgz:4847.got - 2010.04.16 15:33:40.
