data_PCOD8228578
_publ_section_title
;
Structure prediction by ZEFSAII (Michael W. Deem and Ramdas Pophale) SiO2 
 PCOD8228578
Probable space group: P C C N
;
_chemical_formula_sum "Si O2"
_cell_formula_units_Z 48
_cell_length_a 7.946819
_cell_length_b 10.844290
_cell_length_c 23.436591
_cell_angle_alpha 90.000000
_cell_angle_beta 90.000000
_cell_angle_gamma 90.000000
_cell_volume 2019.709395
_symmetry_space_group_name_H-M "P C C N"
_symmetry_group_IT_number 56
_symmetry_cell_setting 'orthorhombic'
loop_
_space_group_symop_operation_xyz
x,y,z
1/2-x,1/2-y,z
1/2+x,-y,1/2-z
-x,1/2+y,1/2-z
-x,-y,-z
1/2+x,1/2+y,-z
1/2-x,y,1/2+z
x,1/2-y,1/2+z
loop_
_atom_site_type_symbol
_atom_site_label
_atom_site_fract_x
_atom_site_fract_y
_atom_site_fract_z
Si Si1 0.325613 0.548910 0.681993
Si Si2 0.874792 0.396027 0.020591
Si Si3 0.688513 0.561729 0.095062
Si Si4 0.928724 0.699867 0.875543
Si Si5 0.468365 0.568636 0.806154
Si Si6 0.531990 0.286987 0.409755
O O1 0.418268 0.434146 0.652530
O O2 0.409031 0.579895 0.741942
O O3 0.130555 0.518943 0.690086
O O4 0.350763 0.670826 0.643012
O O5 0.702714 0.460413 0.043732
O O6 0.949826 0.309142 0.070189
O O7 0.000000 0.500000 0.000000
O O8 0.851908 0.310355 0.965393
O O9 0.678222 0.491605 0.155535
O O10 0.858092 0.639329 0.094006
O O11 0.519170 0.642875 0.088872
O O12 0.750000 0.750000 0.898373
O O13 0.997063 0.793355 0.827955
#
# Coordination Sequence:
#
# PCOD8228578 Si02
#       6
#     8   8   8   8   8   8
#     4  11  23  45  65 101 133 182 228 290 353 419
#     4  10  20  40  71  96 132 182 232 276 340 421
#     4  10  22  41  64 103 132 179 227 282 348 412
#     4  10  23  42  69  97 132 181 231 280 349 414
#     4  11  26  43  68  98 142 174 235 294 347 425
#     4  10  22  41  72  95 136 182 232 280 349 422
#
# _framework density 23.765796000000002
#
# number of rings (size 3 to 8) (size 9 to 14) (size 15 to 20)
#    0.000    1.667    3.333    1.000    7.000    1.333 
#    0.000    5.000    0.000    0.000    0.000    0.000 
#    0.000    0.000    0.000    0.000    0.000    0.000 
#
# Total GULP energy -595006.128354 kJ/mol
# GULP energy per Si atom -12395.961007 kJ/mol
# Density = 2.371170 g / cm^3
# Si number density = 23.765796 Si / 1000 Ang^3
#
#
#
# Elastic Constant Matrix: (Units=GPa)
#
#
# Indices 1 2 3 4 5 6 
#
# 1 80.8698 48.9999 53.5827 0.0000 0.0000 0.0000
# 2 48.9999 118.6246 63.4216 0.0000 0.0000 0.0000
# 3 53.5827 63.4216 206.3284 0.0000 0.0000 0.0000
# 4 0.0000 0.0000 0.0000 74.3568 0.0000 0.0000
# 5 0.0000 0.0000 0.0000 0.0000 -3.8040 0.0000
# 6 0.0000 0.0000 0.0000 0.0000 0.0000 40.5041
#
#
#
# Elastic Compliance Matrix: (Units=1/GPa)
#
#
# Indices 1 2 3 4 5 6 
#
# 1 0.017768 -0.005831 -0.002822 0.000000 0.000000 0.000000
# 2 -0.005831 0.012001 -0.002175 0.000000 0.000000 0.000000
# 3 -0.002822 -0.002175 0.006248 0.000000 0.000000 0.000000
# 4 0.000000 0.000000 0.000000 0.013449 0.000000 0.000000
# 5 0.000000 0.000000 0.000000 0.000000 -0.262878 0.000000
# 6 0.000000 0.000000 0.000000 0.000000 0.000000 0.024689
#
#
# Mechanical properties :
#
#
# Convention : Reuss Voigt Hill
#
# Bulk Modulus (GPa) = 69.62628 81.98126 75.80377
# Shear Modulus (GPa) = -30.81075 38.19930 3.69428
#
# Velocity S-wave (km/s) = -3.60451 4.01349 1.24813
# Velocity P-wave (km/s) = 3.46946 7.48651 5.83460
#
# Compressibility (1/GPa) = 0.01436239
#
# Stress axis : x y z
#
# Youngs Moduli (GPa) = 56.27995 83.32566 160.05115
#
# Poissons Ratio (x) = 0.48585 0.45168
# Poissons Ratio (y) = 0.32815 0.34807
# Poissons Ratio (z) = 0.15883 0.18121
#
# Static dielectric constant tensor:
#      x y z
#    x 4.185910 0.000000 0.000000 
#    y 0.000000 4.525320 0.000000 
#    z 0.000000 0.000000 4.630360 
# 
# 
# High freq. dielectric constant tensor:
#      x y z
#    x 1.945810 0.000000 0.000000 
#    y 0.000000 1.958860 0.000000 
#    z 0.000000 0.000000 1.941780 
# 
# From -- ./inp_files/20498.got.cif
#   From: 2010.03.12/outbox.cif.g09.slc.cpg/sg56_11_cif.got.tgz:20498.got - 2010.04.16 15:33:40.
