data_PCOD8228452
_publ_section_title
;
Structure prediction by ZEFSAII (Michael W. Deem and Ramdas Pophale) SiO2 
 PCOD8228452
Probable space group: P C C N
;
_chemical_formula_sum "Si O2"
_cell_formula_units_Z 48
_cell_length_a 16.380877
_cell_length_b 8.410188
_cell_length_c 18.506219
_cell_angle_alpha 90.000000
_cell_angle_beta 90.000000
_cell_angle_gamma 90.000000
_cell_volume 2549.532489
_symmetry_space_group_name_H-M "P C C N"
_symmetry_group_IT_number 56
_symmetry_cell_setting 'orthorhombic'
loop_
_space_group_symop_operation_xyz
x,y,z
1/2-x,1/2-y,z
1/2+x,-y,1/2-z
-x,1/2+y,1/2-z
-x,-y,-z
1/2+x,1/2+y,-z
1/2-x,y,1/2+z
x,1/2-y,1/2+z
loop_
_atom_site_type_symbol
_atom_site_label
_atom_site_fract_x
_atom_site_fract_y
_atom_site_fract_z
Si Si1 0.033135 0.877231 0.165112
Si Si2 0.017861 0.728720 0.320476
Si Si3 0.661238 0.178065 0.579722
Si Si4 0.060816 0.409950 0.053969
Si Si5 0.155757 0.793504 0.569480
Si Si6 0.072233 0.107958 0.964844
O O1 0.118267 0.820931 0.130337
O O2 0.017680 0.788729 0.239472
O O3 0.961761 0.822301 0.110576
O O4 0.035100 0.067453 0.174882
O O5 0.982504 0.864574 0.371538
O O6 0.110314 0.697371 0.346872
O O7 0.750000 0.250000 0.595507
O O8 0.619352 0.266518 0.511427
O O9 0.654618 0.992716 0.553951
O O10 0.135309 0.521350 0.081834
O O11 0.097487 0.252339 0.016487
O O12 0.000000 0.500000 0.000000
O O13 0.250000 0.750000 0.567714
O O14 0.000000 0.000000 0.000000
#
# Coordination Sequence:
#
# PCOD8228452 Si02
#       6
#     8   8   8   8   8   8
#     4  11  21  37  58  89 122 154 203 249 297 352
#     4  11  22  36  61  88 117 158 204 248 294 358
#     4  10  20  38  59  84 123 156 194 246 304 354
#     4  12  19  36  66  90 113 157 203 250 292 353
#     4  11  22  37  59  87 123 156 199 243 303 360
#     4  11  18  38  63  90 115 154 201 255 288 349
#
# _framework density 18.826981
#
# number of rings (size 3 to 8) (size 9 to 14) (size 15 to 20)
#    0.000    1.000    8.333    1.000    0.000    0.667 
#    0.000    7.500    0.000    0.000    0.000    0.000 
#    0.000    0.000    0.000    0.000    0.000    0.000 
#
# Total GULP energy -594790.728962 kJ/mol
# GULP energy per Si atom -12391.473520 kJ/mol
# Density = 1.878413 g / cm^3
# Si number density = 18.826981 Si / 1000 Ang^3
#
#
#
# Elastic Constant Matrix: (Units=GPa)
#
#
# Indices 1 2 3 4 5 6 
#
# 1 80.8760 66.3665 35.7650 0.0000 0.0000 0.0000
# 2 66.3665 125.5734 47.0947 0.0000 0.0000 0.0000
# 3 35.7650 47.0947 134.3311 0.0000 0.0000 0.0000
# 4 0.0000 0.0000 0.0000 43.0230 0.0000 0.0000
# 5 0.0000 0.0000 0.0000 0.0000 20.3346 0.0000
# 6 0.0000 0.0000 0.0000 0.0000 0.0000 26.6435
#
#
#
# Elastic Compliance Matrix: (Units=1/GPa)
#
#
# Indices 1 2 3 4 5 6 
#
# 1 0.022328 -0.011020 -0.002081 0.000000 0.000000 0.000000
# 2 -0.011020 0.014608 -0.002187 0.000000 0.000000 0.000000
# 3 -0.002081 -0.002187 0.008765 0.000000 0.000000 0.000000
# 4 0.000000 0.000000 0.000000 0.023243 0.000000 0.000000
# 5 0.000000 0.000000 0.000000 0.000000 0.049177 0.000000
# 6 0.000000 0.000000 0.000000 0.000000 0.000000 0.037533
#
#
# Mechanical properties :
#
#
# Convention : Reuss Voigt Hill
#
# Bulk Modulus (GPa) = 66.11986 71.02589 68.57287
# Shear Modulus (GPa) = 26.14071 30.77052 28.45561
#
# Velocity S-wave (km/s) = 3.73026 4.04714 3.89193
# Velocity P-wave (km/s) = 7.33138 7.72312 7.52980
#
# Compressibility (1/GPa) = 0.01512405
#
# Stress axis : x y z
#
# Youngs Moduli (GPa) = 44.78706 68.45605 114.08657
#
# Poissons Ratio (x) = 0.75438 0.23744
# Poissons Ratio (y) = 0.49355 0.24955
# Poissons Ratio (z) = 0.09321 0.14974
#
# Static dielectric constant tensor:
#      x y z
#    x 3.105200 0.000000 0.000000 
#    y 0.000000 3.746530 0.000000 
#    z 0.000000 0.000000 3.687580 
# 
# 
# High freq. dielectric constant tensor:
#      x y z
#    x 1.695350 0.000000 0.000000 
#    y 0.000000 1.744030 0.000000 
#    z 0.000000 0.000000 1.738560 
# 
# From -- ./inp_files/14954.got.cif
#   From: 2010.03.12/outbox.cif.g09.slc.cpg/sg56_8_cif.got.tgz:14954.got - 2010.04.16 15:33:40.
