data_PCOD8228919
_publ_section_title
;
Structure prediction by ZEFSAII (Michael W. Deem and Ramdas Pophale) SiO2 
 PCOD8228919
Probable space group: P C C N
;
_chemical_formula_sum "Si O2"
_cell_formula_units_Z 56
_cell_length_a 8.683981
_cell_length_b 21.744996
_cell_length_c 13.828304
_cell_angle_alpha 90.000000
_cell_angle_beta 90.000000
_cell_angle_gamma 90.000000
_cell_volume 2611.241956
_symmetry_space_group_name_H-M "P C C N"
_symmetry_group_IT_number 56
_symmetry_cell_setting 'orthorhombic'
loop_
_space_group_symop_operation_xyz
x,y,z
1/2-x,1/2-y,z
1/2+x,-y,1/2-z
-x,1/2+y,1/2-z
-x,-y,-z
1/2+x,1/2+y,-z
1/2-x,y,1/2+z
x,1/2-y,1/2+z
loop_
_atom_site_type_symbol
_atom_site_label
_atom_site_fract_x
_atom_site_fract_y
_atom_site_fract_z
Si Si1 0.195574 0.382281 0.370960
Si Si2 0.834900 0.308319 0.691926
Si Si3 0.987696 0.310481 0.500932
Si Si4 0.489631 0.312228 0.383853
Si Si5 0.364063 0.992571 0.922156
Si Si6 0.237886 0.897815 0.560179
Si Si7 0.901084 0.410513 0.252055
O O1 0.323970 0.332128 0.341440
O O2 0.267350 0.447653 0.396555
O O3 0.121958 0.356791 0.469675
O O4 0.068438 0.385035 0.285331
O O5 0.750000 0.250000 0.647061
O O6 0.973531 0.320002 0.616352
O O7 0.705331 0.360832 0.697651
O O8 0.905702 0.290316 0.795022
O O9 0.828822 0.333854 0.453348
O O10 0.022296 0.241218 0.464322
O O11 0.561049 0.375554 0.427567
O O12 0.431449 0.966701 0.821189
O O13 0.245907 0.943547 0.969577
O O14 0.500000 0.000000 0.000000
O O15 0.304546 0.933312 0.654347
#
# Coordination Sequence:
#
# PCOD8228919 Si02
#       7
#     8   8   8   8   8   8   8
#     4  11  26  44  65  99 142 177 219 291 341 398
#     4  11  22  41  71  98 126 177 223 274 336 411
#     4  11  23  42  67  99 131 174 225 276 339 410
#     4  11  22  43  67  97 138 169 220 280 344 404
#     4  12  25  43  67  99 137 181 233 279 343 406
#     4  10  21  44  68  98 131 179 227 280 331 410
#     4  10  25  43  67  99 135 177 232 277 342 402
#
# _framework density 21.445734000000002
#
# number of rings (size 3 to 8) (size 9 to 14) (size 15 to 20)
#    0.000    1.143    2.857    4.286    2.000    3.429 
#    0.000    2.857    0.000    0.000    0.000    0.000 
#    0.000    0.000    0.000    0.000    0.000    0.000 
#
# Total GULP energy -694147.082780 kJ/mol
# GULP energy per Si atom -12395.483621 kJ/mol
# Density = 2.139692 g / cm^3
# Si number density = 21.445734 Si / 1000 Ang^3
#
#
#
# Elastic Constant Matrix: (Units=GPa)
#
#
# Indices 1 2 3 4 5 6 
#
# 1 104.8411 51.7328 25.1396 0.0000 0.0000 0.0000
# 2 51.7328 100.2790 53.2936 0.0000 0.0000 0.0000
# 3 25.1396 53.2936 100.5253 0.0000 0.0000 0.0000
# 4 0.0000 0.0000 0.0000 33.5228 0.0000 0.0000
# 5 0.0000 0.0000 0.0000 0.0000 35.2739 0.0000
# 6 0.0000 0.0000 0.0000 0.0000 0.0000 35.0012
#
#
#
# Elastic Compliance Matrix: (Units=1/GPa)
#
#
# Indices 1 2 3 4 5 6 
#
# 1 0.012808 -0.006829 0.000418 0.000000 0.000000 0.000000
# 2 -0.006829 0.017526 -0.007583 0.000000 0.000000 0.000000
# 3 0.000418 -0.007583 0.013864 0.000000 0.000000 0.000000
# 4 0.000000 0.000000 0.000000 0.029830 0.000000 0.000000
# 5 0.000000 0.000000 0.000000 0.000000 0.028350 0.000000
# 6 0.000000 0.000000 0.000000 0.000000 0.000000 0.028570
#
#
# Mechanical properties :
#
#
# Convention : Reuss Voigt Hill
#
# Bulk Modulus (GPa) = 61.70206 62.88637 62.29422
# Shear Modulus (GPa) = 30.42468 32.45820 31.44144
#
# Velocity S-wave (km/s) = 3.77063 3.89460 3.83311
# Velocity P-wave (km/s) = 6.91307 7.04351 6.97859
#
# Compressibility (1/GPa) = 0.01620692
#
# Stress axis : x y z
#
# Youngs Moduli (GPa) = 78.07590 57.05951 72.13139
#
# Poissons Ratio (x) = 0.38969 -0.03012
# Poissons Ratio (y) = 0.53322 0.54699
# Poissons Ratio (z) = -0.03260 0.43270
#
# Static dielectric constant tensor:
#      x y z
#    x 3.992990 0.000000 0.000000 
#    y 0.000000 3.818250 0.000000 
#    z 0.000000 0.000000 3.957030 
# 
# 
# High freq. dielectric constant tensor:
#      x y z
#    x 1.842080 0.000000 0.000000 
#    y 0.000000 1.841740 0.000000 
#    z 0.000000 0.000000 1.841420 
# 
# From -- ./inp_files/10853.got.cif
#   From: 2010.03.12/outbox.cif.g09.slc.cpg/sg56_6_cif.got.tgz:10853.got - 2010.04.16 15:33:40.
