data_PCOD8228218
_publ_section_title
;
Structure prediction by ZEFSAII (Michael W. Deem and Ramdas Pophale) SiO2 
 PCOD8228218
Probable space group: P C C N
;
_chemical_formula_sum "Si O2"
_cell_formula_units_Z 32
_cell_length_a 5.254207
_cell_length_b 7.395820
_cell_length_c 35.874585
_cell_angle_alpha 90.000000
_cell_angle_beta 90.000000
_cell_angle_gamma 90.000000
_cell_volume 1394.056569
_symmetry_space_group_name_H-M "P C C N"
_symmetry_group_IT_number 56
_symmetry_cell_setting 'orthorhombic'
loop_
_space_group_symop_operation_xyz
x,y,z
1/2-x,1/2-y,z
1/2+x,-y,1/2-z
-x,1/2+y,1/2-z
-x,-y,-z
1/2+x,1/2+y,-z
1/2-x,y,1/2+z
x,1/2-y,1/2+z
loop_
_atom_site_type_symbol
_atom_site_label
_atom_site_fract_x
_atom_site_fract_y
_atom_site_fract_z
Si Si1 0.482921 0.543055 0.117162
Si Si2 0.495770 0.632801 0.034241
Si Si3 0.520152 0.551332 0.648991
Si Si4 0.332823 0.547260 0.270884
O O1 0.460458 0.525346 0.072804
O O2 0.741262 0.444962 0.130621
O O3 0.500358 0.749639 0.131347
O O4 0.240021 0.448647 0.137160
O O5 0.750000 0.750000 0.036032
O O6 0.250000 0.750000 0.027368
O O7 0.500000 0.500000 0.000000
O O8 0.559235 0.558715 0.693265
O O9 0.250000 0.750000 0.280771
O O10 0.576376 0.554530 0.243063
#
# Coordination Sequence:
#
# PCOD8228218 Si02
#       4
#     8   8   8   8
#     4  10  19  38  70  93 124 186 230 264 342 407
#     4  12  23  43  68 106 141 182 232 282 344 419
#     4  10  20  38  67  92 126 175 234 270 321 417
#     4  12  28  45  68 105 141 178 228 288 353 411
#
# _framework density 22.954594
#
# number of rings (size 3 to 8) (size 9 to 14) (size 15 to 20)
#    0.000    1.000    5.000    3.000   10.500    0.000 
#    0.000    3.750    0.000    0.000    0.000    0.000 
#    0.000    0.000    0.000    0.000    0.000    0.000 
#
# Total GULP energy -396611.622050 kJ/mol
# GULP energy per Si atom -12394.113189 kJ/mol
# Density = 2.290235 g / cm^3
# Si number density = 22.954594 Si / 1000 Ang^3
#
#
#
# Elastic Constant Matrix: (Units=GPa)
#
#
# Indices 1 2 3 4 5 6 
#
# 1 261.6781 14.1756 69.1014 0.0000 0.0000 0.0000
# 2 14.1756 18.3891 26.0116 0.0000 0.0000 0.0000
# 3 69.1014 26.0116 187.5972 0.0000 0.0000 0.0000
# 4 0.0000 0.0000 0.0000 23.8248 0.0000 0.0000
# 5 0.0000 0.0000 0.0000 0.0000 52.3406 0.0000
# 6 0.0000 0.0000 0.0000 0.0000 0.0000 17.8204
#
#
#
# Elastic Compliance Matrix: (Units=1/GPa)
#
#
# Indices 1 2 3 4 5 6 
#
# 1 0.004259 -0.001324 -0.001385 0.000000 0.000000 0.000000
# 2 -0.001324 0.068059 -0.008949 0.000000 0.000000 0.000000
# 3 -0.001385 -0.008949 0.007082 0.000000 0.000000 0.000000
# 4 0.000000 0.000000 0.000000 0.041973 0.000000 0.000000
# 5 0.000000 0.000000 0.000000 0.000000 0.019106 0.000000
# 6 0.000000 0.000000 0.000000 0.000000 0.000000 0.056116
#
#
# Mechanical properties :
#
#
# Convention : Reuss Voigt Hill
#
# Bulk Modulus (GPa) = 17.83052 76.24909 47.03981
# Shear Modulus (GPa) = 20.95509 42.68887 31.82198
#
# Velocity S-wave (km/s) = 3.02469 4.31711 3.72735
# Velocity P-wave (km/s) = 4.47023 7.62492 6.24989
#
# Compressibility (1/GPa) = 0.05608361
#
# Stress axis : x y z
#
# Youngs Moduli (GPa) = 234.79677 14.69305 141.20869
#
# Poissons Ratio (x) = 0.01945 0.19561
# Poissons Ratio (y) = 0.31079 1.26372
# Poissons Ratio (z) = 0.32526 0.13149
#
# Static dielectric constant tensor:
#      x y z
#    x 2.991530 0.000000 0.000000 
#    y 0.000000 3.699730 0.000000 
#    z 0.000000 0.000000 4.109740 
# 
# 
# High freq. dielectric constant tensor:
#      x y z
#    x 1.954380 0.000000 0.000000 
#    y 0.000000 1.859020 0.000000 
#    z 0.000000 0.000000 1.914290 
# 
# From -- ./inp_files/22642.got.cif
#   From: 2010.03.12/outbox.cif.g09.slc.cpg/sg56_12_cif.got.tgz:22642.got - 2010.04.16 15:33:40.
