data_PCOD8228203
_publ_section_title
;
Structure prediction by ZEFSAII (Michael W. Deem and Ramdas Pophale) SiO2 
 PCOD8228203
Probable space group: P C C N
;
_chemical_formula_sum "Si O2"
_cell_formula_units_Z 60
_cell_length_a 12.939191
_cell_length_b 12.381298
_cell_length_c 18.089976
_cell_angle_alpha 90.000000
_cell_angle_beta 90.000000
_cell_angle_gamma 90.000000
_cell_volume 2898.086147
_symmetry_space_group_name_H-M "P C C N"
_symmetry_group_IT_number 56
_symmetry_cell_setting 'orthorhombic'
loop_
_space_group_symop_operation_xyz
x,y,z
1/2-x,1/2-y,z
1/2+x,-y,1/2-z
-x,1/2+y,1/2-z
-x,-y,-z
1/2+x,1/2+y,-z
1/2-x,y,1/2+z
x,1/2-y,1/2+z
loop_
_atom_site_type_symbol
_atom_site_label
_atom_site_fract_x
_atom_site_fract_y
_atom_site_fract_z
Si Si1 0.750000 0.750000 0.484556
Si Si2 0.094951 0.965322 0.933883
Si Si3 0.068138 0.220985 0.913166
Si Si4 0.185132 0.856653 0.797972
Si Si5 0.509858 0.739809 0.250584
Si Si6 0.604364 0.640147 0.877104
Si Si7 0.142006 0.930874 0.207858
Si Si8 0.847108 0.180416 0.942784
O O1 0.655158 0.714216 0.538948
O O2 0.795632 0.658713 0.429329
O O3 0.169871 0.914877 0.874687
O O4 0.985570 0.901620 0.931577
O O5 0.085234 0.092148 0.920568
O O6 0.143792 0.933103 0.012939
O O7 0.074669 0.254095 0.826093
O O8 0.954768 0.248906 0.946753
O O9 0.250000 0.750000 0.813516
O O10 0.253531 0.941564 0.753533
O O11 0.079292 0.831578 0.754683
O O12 0.577289 0.753701 0.326421
O O13 0.456247 0.620809 0.251473
O O14 0.618029 0.551174 0.814647
O O15 0.169279 0.849693 0.141795
O O16 0.750000 0.250000 0.971885
#
# Coordination Sequence:
#
# PCOD8228203 Si02
#       8
#     4   8   8   8   8   8   8   8
#     4  12  26  38  58  90 136 168 210 262 316 394
#     4  11  20  38  65  90 117 170 216 253 318 387
#     4  11  22  41  63  90 127 169 214 256 319 390
#     4   9  19  35  59  95 123 152 210 272 311 366
#     4   9  20  37  63  89 120 163 221 260 307 377
#     4  11  22  40  62  91 126 169 212 263 324 381
#     4  10  19  38  62  89 125 164 207 265 320 381
#     4  11  20  35  67  93 119 162 222 263 309 375
#
# _framework density 20.703319
#
# number of rings (size 3 to 8) (size 9 to 14) (size 15 to 20)
#    0.000    1.600    4.000    3.600    0.000    2.667 
#    0.000    0.000    0.000    7.200    0.000    0.000 
#    0.000    0.000    0.000    0.000    0.000    0.000 
#
# Total GULP energy -743371.157311 kJ/mol
# GULP energy per Si atom -12389.519289 kJ/mol
# Density = 2.065620 g / cm^3
# Si number density = 20.703319 Si / 1000 Ang^3
#
#
#
# Elastic Constant Matrix: (Units=GPa)
#
#
# Indices 1 2 3 4 5 6 
#
# 1 112.3106 16.8323 30.9303 0.0000 0.0000 0.0000
# 2 16.8323 48.5510 10.3962 0.0000 0.0000 0.0000
# 3 30.9303 10.3962 46.3375 0.0000 0.0000 0.0000
# 4 0.0000 0.0000 0.0000 12.5308 0.0000 0.0000
# 5 0.0000 0.0000 0.0000 0.0000 47.7515 0.0000
# 6 0.0000 0.0000 0.0000 0.0000 0.0000 22.2836
#
#
#
# Elastic Compliance Matrix: (Units=1/GPa)
#
#
# Indices 1 2 3 4 5 6 
#
# 1 0.011167 -0.002390 -0.006918 0.000000 0.000000 0.000000
# 2 -0.002390 0.022148 -0.003374 0.000000 0.000000 0.000000
# 3 -0.006918 -0.003374 0.026955 0.000000 0.000000 0.000000
# 4 0.000000 0.000000 0.000000 0.079803 0.000000 0.000000
# 5 0.000000 0.000000 0.000000 0.000000 0.020942 0.000000
# 6 0.000000 0.000000 0.000000 0.000000 0.000000 0.044876
#
#
# Mechanical properties :
#
#
# Convention : Reuss Voigt Hill
#
# Bulk Modulus (GPa) = 28.64742 35.94630 32.29686
# Shear Modulus (GPa) = 20.58538 26.44921 23.51729
#
# Velocity S-wave (km/s) = 3.15668 3.57814 3.37400
# Velocity P-wave (km/s) = 5.21088 5.87120 5.55087
#
# Compressibility (1/GPa) = 0.03490715
#
# Stress axis : x y z
#
# Youngs Moduli (GPa) = 89.54710 45.15082 37.09838
#
# Poissons Ratio (x) = 0.10792 0.25664
# Poissons Ratio (y) = 0.21404 0.12515
# Poissons Ratio (z) = 0.61948 0.15232
#
# Static dielectric constant tensor:
#      x y z
#    x 4.132640 0.000000 0.000000 
#    y 0.000000 3.440850 0.000000 
#    z 0.000000 0.000000 4.003310 
# 
# 
# High freq. dielectric constant tensor:
#      x y z
#    x 1.809460 0.000000 0.000000 
#    y 0.000000 1.773460 0.000000 
#    z 0.000000 0.000000 1.826990 
# 
# From -- ./inp_files/15774.got.cif
#   From: 2010.03.12/outbox.cif.g09.slc.cpg/sg56_8_cif.got.tgz:15774.got - 2010.04.16 15:33:40.
