data_PCOD8228285
_publ_section_title
;
Structure prediction by ZEFSAII (Michael W. Deem and Ramdas Pophale) SiO2 
 PCOD8228285
Probable space group: P C C N
;
_chemical_formula_sum "Si O2"
_cell_formula_units_Z 44
_cell_length_a 5.100752
_cell_length_b 20.447259
_cell_length_c 21.999472
_cell_angle_alpha 90.000000
_cell_angle_beta 90.000000
_cell_angle_gamma 90.000000
_cell_volume 2294.465671
_symmetry_space_group_name_H-M "P C C N"
_symmetry_group_IT_number 56
_symmetry_cell_setting 'orthorhombic'
loop_
_space_group_symop_operation_xyz
x,y,z
1/2-x,1/2-y,z
1/2+x,-y,1/2-z
-x,1/2+y,1/2-z
-x,-y,-z
1/2+x,1/2+y,-z
1/2-x,y,1/2+z
x,1/2-y,1/2+z
loop_
_atom_site_type_symbol
_atom_site_label
_atom_site_fract_x
_atom_site_fract_y
_atom_site_fract_z
Si Si1 0.527231 0.921123 0.722093
Si Si2 0.455211 0.131046 0.575588
Si Si3 0.977184 0.449091 0.053984
Si Si4 0.358847 0.318188 0.681025
Si Si5 0.028632 0.528103 0.174847
Si Si6 0.250000 0.750000 0.906118
O O1 0.534631 0.854521 0.760051
O O2 0.768341 0.927587 0.675107
O O3 0.269768 0.921557 0.680226
O O4 0.524258 0.981684 0.767320
O O5 0.684209 0.078385 0.563600
O O6 0.369851 0.139532 0.647029
O O7 0.552363 0.204123 0.554172
O O8 0.192069 0.108037 0.540315
O O9 0.063617 0.485456 0.114897
O O10 0.000000 0.500000 0.000000
O O11 0.250000 0.250000 0.705522
O O12 0.593520 0.303951 0.633586
#
# Coordination Sequence:
#
# PCOD8228285 Si02
#       6
#     8   8   8   8   8   4
#     4  10  20  33  54  82 118 145 184 230 288 363
#     4  11  21  37  58  88 122 143 197 243 300 358
#     4  12  24  39  59  87 122 160 203 249 293 350
#     4  10  21  33  59  89 120 148 186 242 305 352
#     4  10  21  33  54  81 113 156 183 228 290 340
#     4  10  20  36  60  88 118 152 184 250 312 350
#
# _framework density 19.176577999999999
#
# number of rings (size 3 to 8) (size 9 to 14) (size 15 to 20)
#    0.000    1.455    3.636    1.636   10.182    0.000 
#    0.000    0.000    0.000    0.000    9.455    0.000 
#    0.000    0.000    0.000    0.000    0.000    0.000 
#
# Total GULP energy -545270.253868 kJ/mol
# GULP energy per Si atom -12392.505770 kJ/mol
# Density = 1.913293 g / cm^3
# Si number density = 19.176578 Si / 1000 Ang^3
#
#
#
# Elastic Constant Matrix: (Units=GPa)
#
#
# Indices 1 2 3 4 5 6 
#
# 1 138.3496 44.6990 33.6370 0.0000 0.0000 0.0000
# 2 44.6990 77.1039 12.7101 0.0000 0.0000 0.0000
# 3 33.6370 12.7101 23.0296 0.0000 0.0000 0.0000
# 4 0.0000 0.0000 0.0000 30.8356 0.0000 0.0000
# 5 0.0000 0.0000 0.0000 0.0000 14.4808 0.0000
# 6 0.0000 0.0000 0.0000 0.0000 0.0000 45.6548
#
#
#
# Elastic Compliance Matrix: (Units=1/GPa)
#
#
# Indices 1 2 3 4 5 6 
#
# 1 0.012583 -0.004692 -0.015789 0.000000 0.000000 0.000000
# 2 -0.004692 0.016017 -0.001987 0.000000 0.000000 0.000000
# 3 -0.015789 -0.001987 0.067580 0.000000 0.000000 0.000000
# 4 0.000000 0.000000 0.000000 0.032430 0.000000 0.000000
# 5 0.000000 0.000000 0.000000 0.000000 0.069057 0.000000
# 6 0.000000 0.000000 0.000000 0.000000 0.000000 0.021903
#
#
# Mechanical properties :
#
#
# Convention : Reuss Voigt Hill
#
# Bulk Modulus (GPa) = 19.51424 46.73059 33.12242
# Shear Modulus (GPa) = 17.75648 28.02337 22.88992
#
# Velocity S-wave (km/s) = 3.04624 3.82689 3.45866
# Velocity P-wave (km/s) = 4.75089 6.62935 5.76711
#
# Compressibility (1/GPa) = 0.05124464
#
# Stress axis : x y z
#
# Youngs Moduli (GPa) = 79.47448 62.43367 14.79723
#
# Poissons Ratio (x) = 0.29293 0.23363
# Poissons Ratio (y) = 0.37288 0.02940
# Poissons Ratio (z) = 1.25481 0.12406
#
# Static dielectric constant tensor:
#      x y z
#    x 4.134940 0.000000 0.000000 
#    y 0.000000 3.552070 0.000000 
#    z 0.000000 0.000000 2.568590 
# 
# 
# High freq. dielectric constant tensor:
#      x y z
#    x 1.778490 0.000000 0.000000 
#    y 0.000000 1.740400 0.000000 
#    z 0.000000 0.000000 1.678700 
# 
# From -- ./inp_files/20026.got.cif
#   From: 2010.03.12/outbox.cif.g09.slc.cpg/sg56_11_cif.got.tgz:20026.got - 2010.04.16 15:33:40.
