data_PCOD8228661
_publ_section_title
;
Structure prediction by ZEFSAII (Michael W. Deem and Ramdas Pophale) SiO2 
 PCOD8228661
Probable space group: P C C N
;
_chemical_formula_sum "Si O2"
_cell_formula_units_Z 40
_cell_length_a 24.160656
_cell_length_b 8.164197
_cell_length_c 9.856107
_cell_angle_alpha 90.000000
_cell_angle_beta 90.000000
_cell_angle_gamma 90.000000
_cell_volume 1944.140319
_symmetry_space_group_name_H-M "P C C N"
_symmetry_group_IT_number 56
_symmetry_cell_setting 'orthorhombic'
loop_
_space_group_symop_operation_xyz
x,y,z
1/2-x,1/2-y,z
1/2+x,-y,1/2-z
-x,1/2+y,1/2-z
-x,-y,-z
1/2+x,1/2+y,-z
1/2-x,y,1/2+z
x,1/2-y,1/2+z
loop_
_atom_site_type_symbol
_atom_site_label
_atom_site_fract_x
_atom_site_fract_y
_atom_site_fract_z
Si Si1 0.610896 0.733493 0.744888
Si Si2 0.677722 0.080227 0.288821
Si Si3 0.060270 0.073046 0.519767
Si Si4 0.343892 0.847909 0.998511
Si Si5 0.284243 0.404333 0.668613
O O1 0.634454 0.566988 0.810621
O O2 0.565540 0.816922 0.844060
O O3 0.581589 0.690510 0.602722
O O4 0.664669 0.854682 0.731076
O O5 0.674776 0.187564 0.423193
O O6 0.740627 0.023682 0.257604
O O7 0.660959 0.191497 0.160664
O O8 0.094152 0.904053 0.533386
O O9 0.000000 0.000000 0.500000
O O10 0.306765 0.006809 0.034188
O O11 0.250000 0.250000 0.613072
#
# Coordination Sequence:
#
# PCOD8228661 Si02
#       5
#     8   8   8   8   8
#     4   9  21  40  61  85 112 151 199 240 294 362
#     4  10  21  36  56  84 120 155 190 239 295 352
#     4  10  22  41  62  85 115 152 199 250 295 346
#     4  10  22  36  54  86 118 150 196 241 288 354
#     4   9  19  35  57  82 115 154 191 238 295 356
#
# _framework density 20.574648
#
# number of rings (size 3 to 8) (size 9 to 14) (size 15 to 20)
#    0.000    2.400    0.000    0.600    0.000   16.800 
#    0.000    2.000    0.000    0.000    0.000    0.000 
#    0.000    0.000    0.000    0.000    0.000    0.000 
#
# Total GULP energy -495682.578910 kJ/mol
# GULP energy per Si atom -12392.064473 kJ/mol
# Density = 2.052782 g / cm^3
# Si number density = 20.574648 Si / 1000 Ang^3
#
#
#
# Elastic Constant Matrix: (Units=GPa)
#
#
# Indices 1 2 3 4 5 6 
#
# 1 127.3173 48.0483 35.8505 0.0000 0.0000 0.0000
# 2 48.0483 88.9289 40.6962 0.0000 0.0000 0.0000
# 3 35.8505 40.6962 75.9256 0.0000 0.0000 0.0000
# 4 0.0000 0.0000 0.0000 34.5416 0.0000 0.0000
# 5 0.0000 0.0000 0.0000 0.0000 22.3656 0.0000
# 6 0.0000 0.0000 0.0000 0.0000 0.0000 29.8171
#
#
#
# Elastic Compliance Matrix: (Units=1/GPa)
#
#
# Indices 1 2 3 4 5 6 
#
# 1 0.010204 -0.004383 -0.002468 0.000000 0.000000 0.000000
# 2 -0.004383 0.016783 -0.006926 0.000000 0.000000 0.000000
# 3 -0.002468 -0.006926 0.018049 0.000000 0.000000 0.000000
# 4 0.000000 0.000000 0.000000 0.028951 0.000000 0.000000
# 5 0.000000 0.000000 0.000000 0.000000 0.044711 0.000000
# 6 0.000000 0.000000 0.000000 0.000000 0.000000 0.033538
#
#
# Mechanical properties :
#
#
# Convention : Reuss Voigt Hill
#
# Bulk Modulus (GPa) = 57.20938 60.15130 58.68034
# Shear Modulus (GPa) = 26.93720 28.51664 27.72692
#
# Velocity S-wave (km/s) = 3.62227 3.72695 3.67498
# Velocity P-wave (km/s) = 6.73503 6.91515 6.82568
#
# Compressibility (1/GPa) = 0.01747965
#
# Stress axis : x y z
#
# Youngs Moduli (GPa) = 98.00324 59.58495 55.40604
#
# Poissons Ratio (x) = 0.26119 0.13677
# Poissons Ratio (y) = 0.42959 0.38373
# Poissons Ratio (z) = 0.24192 0.41267
#
# Static dielectric constant tensor:
#      x y z
#    x 3.858480 0.000000 0.000000 
#    y 0.000000 3.768430 0.000000 
#    z 0.000000 0.000000 3.493770 
# 
# 
# High freq. dielectric constant tensor:
#      x y z
#    x 1.800020 0.000000 0.000000 
#    y 0.000000 1.806920 0.000000 
#    z 0.000000 0.000000 1.790070 
# 
# From -- ./inp_files/2036.got.cif
#   From: 2010.03.12/outbox.cif.g09.slc.cpg/sg56_2_cif.got.tgz:2036.got - 2010.04.16 15:33:40.
