data_PCOD8228641
_publ_section_title
;
Structure prediction by ZEFSAII (Michael W. Deem and Ramdas Pophale) SiO2 
 PCOD8228641
Probable space group: P C C N
;
_chemical_formula_sum "Si O2"
_cell_formula_units_Z 48
_cell_length_a 8.741931
_cell_length_b 26.562605
_cell_length_c 7.890269
_cell_angle_alpha 90.000000
_cell_angle_beta 90.000000
_cell_angle_gamma 90.000000
_cell_volume 1832.187214
_symmetry_space_group_name_H-M "P C C N"
_symmetry_group_IT_number 56
_symmetry_cell_setting 'orthorhombic'
loop_
_space_group_symop_operation_xyz
x,y,z
1/2-x,1/2-y,z
1/2+x,-y,1/2-z
-x,1/2+y,1/2-z
-x,-y,-z
1/2+x,1/2+y,-z
1/2-x,y,1/2+z
x,1/2-y,1/2+z
loop_
_atom_site_type_symbol
_atom_site_label
_atom_site_fract_x
_atom_site_fract_y
_atom_site_fract_z
Si Si1 0.529079 0.188332 0.207545
Si Si2 0.923997 0.141866 0.384105
Si Si3 0.738248 0.527030 0.563005
Si Si4 0.715656 0.860301 0.587664
Si Si5 0.525300 0.298843 0.078082
Si Si6 0.931047 0.469025 0.784882
O O1 0.373850 0.155330 0.238000
O O2 0.488480 0.241609 0.123211
O O3 0.611205 0.195813 0.392817
O O4 0.637030 0.159233 0.070019
O O5 0.106349 0.150833 0.396343
O O6 0.869555 0.176578 0.226165
O O7 0.871954 0.084990 0.349709
O O8 0.817701 0.581131 0.543714
O O9 0.863313 0.483253 0.600184
O O10 0.615492 0.529546 0.721493
O O11 0.634624 0.513920 0.401892
O O12 0.637040 0.828080 0.436069
#
# Coordination Sequence:
#
# PCOD8228641 Si02
#       6
#     8   8   8   8   8   8
#     4  10  21  34  57  91 136 178 215 274 343 425
#     4  11  20  39  54  90 129 171 220 269 335 402
#     4  10  23  43  63 100 129 184 222 286 338 410
#     4   9  22  32  57  85 132 178 212 269 339 410
#     4  10  21  34  56  92 133 181 211 273 348 417
#     4  10  25  42  70  92 138 174 232 281 348 401
#
# _framework density 26.198195999999999
#
# number of rings (size 3 to 8) (size 9 to 14) (size 15 to 20)
#    1.000    1.000    1.667    1.000   11.667    4.667 
#    3.000    0.000    0.000    0.000    0.000    3.500 
#    0.000    0.333    0.000    0.000    0.000    0.000 
#
# Total GULP energy -594789.905069 kJ/mol
# GULP energy per Si atom -12391.456356 kJ/mol
# Density = 2.613857 g / cm^3
# Si number density = 26.198196 Si / 1000 Ang^3
#
#
#
# Elastic Constant Matrix: (Units=GPa)
#
#
# Indices 1 2 3 4 5 6 
#
# 1 28.3514 7.0325 16.6095 0.0000 0.0000 0.0000
# 2 7.0325 188.0174 43.4193 0.0000 0.0000 0.0000
# 3 16.6095 43.4193 128.3713 0.0000 0.0000 0.0000
# 4 0.0000 0.0000 0.0000 46.1926 0.0000 0.0000
# 5 0.0000 0.0000 0.0000 0.0000 34.6701 0.0000
# 6 0.0000 0.0000 0.0000 0.0000 0.0000 -1.3263
#
#
#
# Elastic Compliance Matrix: (Units=1/GPa)
#
#
# Indices 1 2 3 4 5 6 
#
# 1 0.038181 -0.000312 -0.004835 0.000000 0.000000 0.000000
# 2 -0.000312 0.005772 -0.001912 0.000000 0.000000 0.000000
# 3 -0.004835 -0.001912 0.009062 0.000000 0.000000 0.000000
# 4 0.000000 0.000000 0.000000 0.021648 0.000000 0.000000
# 5 0.000000 0.000000 0.000000 0.000000 0.028843 0.000000
# 6 0.000000 0.000000 0.000000 0.000000 0.000000 -0.753963
#
#
# Mechanical properties :
#
#
# Convention : Reuss Voigt Hill
#
# Bulk Modulus (GPa) = 25.70778 53.20698 39.45738
# Shear Modulus (GPa) = -8.02088 34.41919 13.19916
#
# Velocity S-wave (km/s) = -1.75164 3.62857 2.24703
# Velocity P-wave (km/s) = 2.39648 6.15702 4.67183
#
# Compressibility (1/GPa) = 0.03889873
#
# Stress axis : x y z
#
# Youngs Moduli (GPa) = 26.19083 173.25519 110.34943
#
# Poissons Ratio (x) = 0.05399 0.53351
# Poissons Ratio (y) = 0.00816 0.21098
# Poissons Ratio (z) = 0.12663 0.33125
#
# Static dielectric constant tensor:
#      x y z
#    x 4.281110 0.000000 0.000000 
#    y 0.000000 4.468060 0.000000 
#    z 0.000000 0.000000 5.154710 
# 
# 
# High freq. dielectric constant tensor:
#      x y z
#    x 2.030220 0.000000 0.000000 
#    y 0.000000 2.041600 0.000000 
#    z 0.000000 0.000000 2.073200 
# 
# From -- ./inp_files/2779.got.cif
#   From: 2010.03.12/outbox.cif.g09.slc.cpg/sg56_2_cif.got.tgz:2779.got - 2010.04.16 15:33:40.
