data_PCOD8228190
_publ_section_title
;
Structure prediction by ZEFSAII (Michael W. Deem and Ramdas Pophale) SiO2 
 PCOD8228190
Probable space group: P C C N
;
_chemical_formula_sum "Si O2"
_cell_formula_units_Z 64
_cell_length_a 17.780255
_cell_length_b 9.448867
_cell_length_c 18.862981
_cell_angle_alpha 90.000000
_cell_angle_beta 90.000000
_cell_angle_gamma 90.000000
_cell_volume 3169.042390
_symmetry_space_group_name_H-M "P C C N"
_symmetry_group_IT_number 56
_symmetry_cell_setting 'orthorhombic'
loop_
_space_group_symop_operation_xyz
x,y,z
1/2-x,1/2-y,z
1/2+x,-y,1/2-z
-x,1/2+y,1/2-z
-x,-y,-z
1/2+x,1/2+y,-z
1/2-x,y,1/2+z
x,1/2-y,1/2+z
loop_
_atom_site_type_symbol
_atom_site_label
_atom_site_fract_x
_atom_site_fract_y
_atom_site_fract_z
Si Si1 0.770602 0.088764 0.854404
Si Si2 0.981423 0.680464 0.437408
Si Si3 0.517510 0.789984 0.087294
Si Si4 0.007566 0.065861 0.663125
Si Si5 0.611719 0.959534 0.598977
Si Si6 0.858857 0.447938 0.754910
Si Si7 0.582515 0.341673 0.790664
Si Si8 0.306464 0.117345 0.527985
O O1 0.750000 0.250000 0.876769
O O2 0.723916 0.038866 0.786366
O O3 0.855613 0.065812 0.829821
O O4 0.759238 0.984441 0.920211
O O5 0.994561 0.778195 0.369137
O O6 0.034320 0.541718 0.424537
O O7 0.012477 0.763097 0.507235
O O8 0.891662 0.651434 0.443667
O O9 0.596846 0.709631 0.094120
O O10 0.467225 0.719690 0.147166
O O11 0.524665 0.956395 0.104488
O O12 0.960887 0.057219 0.736257
O O13 0.091487 0.027704 0.686348
O O14 0.680598 0.976936 0.543572
O O15 0.639953 0.989037 0.677067
O O16 0.881170 0.284850 0.745846
O O17 0.250000 0.250000 0.515918
#
# Coordination Sequence:
#
# PCOD8228190 Si02
#       8
#     8   8   8   8   8   8   8   8
#     4  10  22  42  63  85 120 162 208 256 313 383
#     4  11  22  40  67  92 126 167 217 264 312 386
#     4  10  21  36  60  94 123 160 207 261 311 364
#     4  11  21  36  64  95 125 155 210 265 310 366
#     4  11  21  41  64  89 125 166 213 257 315 380
#     4  10  21  38  62  92 123 159 207 262 314 376
#     4  10  19  37  62  89 121 160 206 257 312 371
#     4  11  24  42  61  91 127 171 206 257 323 388
#
# _framework density 20.195376
#
# number of rings (size 3 to 8) (size 9 to 14) (size 15 to 20)
#    0.000    1.500    2.500    4.125    0.000    0.000 
#    6.750    4.375    0.000    0.000    0.000    0.000 
#    0.000    0.000    0.000    0.000    0.000    0.000 
#
# Total GULP energy -793043.908148 kJ/mol
# GULP energy per Si atom -12391.311065 kJ/mol
# Density = 2.014941 g / cm^3
# Si number density = 20.195376 Si / 1000 Ang^3
#
#
#
# Elastic Constant Matrix: (Units=GPa)
#
#
# Indices 1 2 3 4 5 6 
#
# 1 49.5077 24.0913 18.3486 0.0000 0.0000 0.0000
# 2 24.0913 76.1625 37.8235 0.0000 0.0000 0.0000
# 3 18.3486 37.8235 107.4543 0.0000 0.0000 0.0000
# 4 0.0000 0.0000 0.0000 36.6838 0.0000 0.0000
# 5 0.0000 0.0000 0.0000 0.0000 15.4039 0.0000
# 6 0.0000 0.0000 0.0000 0.0000 0.0000 23.1452
#
#
#
# Elastic Compliance Matrix: (Units=1/GPa)
#
#
# Indices 1 2 3 4 5 6 
#
# 1 0.024139 -0.006772 -0.001738 0.000000 0.000000 0.000000
# 2 -0.006772 0.017811 -0.005113 0.000000 0.000000 0.000000
# 3 -0.001738 -0.005113 0.011403 0.000000 0.000000 0.000000
# 4 0.000000 0.000000 0.000000 0.027260 0.000000 0.000000
# 5 0.000000 0.000000 0.000000 0.000000 0.064919 0.000000
# 6 0.000000 0.000000 0.000000 0.000000 0.000000 0.043205
#
#
# Mechanical properties :
#
#
# Convention : Reuss Voigt Hill
#
# Bulk Modulus (GPa) = 38.30549 43.73903 41.02226
# Shear Modulus (GPa) = 22.25334 25.23731 23.74532
#
# Velocity S-wave (km/s) = 3.32309 3.53889 3.43269
# Velocity P-wave (km/s) = 5.80797 6.19703 6.00566
#
# Compressibility (1/GPa) = 0.02610592
#
# Stress axis : x y z
#
# Youngs Moduli (GPa) = 41.42756 56.14443 87.69736
#
# Poissons Ratio (x) = 0.38022 0.15242
# Poissons Ratio (y) = 0.28056 0.44840
# Poissons Ratio (z) = 0.07200 0.28707
#
# Static dielectric constant tensor:
#      x y z
#    x 3.648160 0.000000 0.000000 
#    y 0.000000 3.858010 0.000000 
#    z 0.000000 0.000000 4.086310 
# 
# 
# High freq. dielectric constant tensor:
#      x y z
#    x 1.772990 0.000000 0.000000 
#    y 0.000000 1.784650 0.000000 
#    z 0.000000 0.000000 1.804860 
# 
# From -- ./inp_files/19345.got.cif
#   From: 2010.03.12/outbox.cif.g09.slc.cpg/sg56_10_cif.got.tgz:19345.got - 2010.04.16 15:33:40.
