data_PCOD8228225
_publ_section_title
;
Structure prediction by ZEFSAII (Michael W. Deem and Ramdas Pophale) SiO2 
 PCOD8228225
Probable space group: P C C N
;
_chemical_formula_sum "Si O2"
_cell_formula_units_Z 28
_cell_length_a 7.112806
_cell_length_b 6.138966
_cell_length_c 30.474146
_cell_angle_alpha 90.000000
_cell_angle_beta 90.000000
_cell_angle_gamma 90.000000
_cell_volume 1330.661941
_symmetry_space_group_name_H-M "P C C N"
_symmetry_group_IT_number 56
_symmetry_cell_setting 'orthorhombic'
loop_
_space_group_symop_operation_xyz
x,y,z
1/2-x,1/2-y,z
1/2+x,-y,1/2-z
-x,1/2+y,1/2-z
-x,-y,-z
1/2+x,1/2+y,-z
1/2-x,y,1/2+z
x,1/2-y,1/2+z
loop_
_atom_site_type_symbol
_atom_site_label
_atom_site_fract_x
_atom_site_fract_y
_atom_site_fract_z
Si Si1 0.250000 0.250000 0.514575
Si Si2 0.108383 0.945757 0.804875
Si Si3 0.380697 0.929072 0.943346
Si Si4 0.250000 0.250000 0.730064
Si Si5 0.250000 0.250000 0.877002
O O1 0.431886 0.291393 0.544944
O O2 0.262180 0.469145 0.484624
O O3 0.250000 0.750000 0.811268
O O4 0.897423 0.859514 0.802639
O O5 0.148844 0.070038 0.759661
O O6 0.119270 0.101015 0.846850
O O7 0.250000 0.750000 0.920941
O O8 0.402606 0.118574 0.906977
#
# Coordination Sequence:
#
# PCOD8228225 Si02
#       5
#     4   8   8   4   4
#     4   9  20  35  67  93 118 164 222 249 308 358
#     4  11  22  41  64  94 119 163 208 264 312 379
#     4  10  19  39  62  93 125 167 205 263 300 377
#     4  11  22  39  71  90 117 156 218 257 316 370
#     4  10  24  40  60  87 139 164 200 256 326 362
#
# _framework density 21.042157
#
# number of rings (size 3 to 8) (size 9 to 14) (size 15 to 20)
#    0.000    1.714    2.857    1.714    0.000    0.000 
#    0.000    8.571    0.000    0.000    0.000    0.000 
#    0.000    0.000    0.000    0.000    0.000    0.000 
#
# Total GULP energy -346884.423610 kJ/mol
# GULP energy per Si atom -12388.729415 kJ/mol
# Density = 2.099426 g / cm^3
# Si number density = 21.042157 Si / 1000 Ang^3
#
#
#
# Elastic Constant Matrix: (Units=GPa)
#
#
# Indices 1 2 3 4 5 6 
#
# 1 162.1856 81.3044 70.9231 0.0000 0.0000 0.0000
# 2 81.3044 118.9311 54.5887 0.0000 0.0000 0.0000
# 3 70.9231 54.5887 114.4334 0.0000 0.0000 0.0000
# 4 0.0000 0.0000 0.0000 -11.3376 0.0000 0.0000
# 5 0.0000 0.0000 0.0000 0.0000 -41.6215 0.0000
# 6 0.0000 0.0000 0.0000 0.0000 0.0000 47.3822
#
#
#
# Elastic Compliance Matrix: (Units=1/GPa)
#
#
# Indices 1 2 3 4 5 6 
#
# 1 0.010642 -0.005439 -0.004001 0.000000 0.000000 0.000000
# 2 -0.005439 0.013545 -0.003091 0.000000 0.000000 0.000000
# 3 -0.004001 -0.003091 0.012693 0.000000 0.000000 0.000000
# 4 0.000000 0.000000 0.000000 -0.088202 0.000000 0.000000
# 5 0.000000 0.000000 0.000000 0.000000 -0.024026 0.000000
# 6 0.000000 0.000000 0.000000 0.000000 0.000000 0.021105
#
#
# Mechanical properties :
#
#
# Convention : Reuss Voigt Hill
#
# Bulk Modulus (GPa) = 84.61130 89.90918 87.26024
# Shear Modulus (GPa) = -198.07193 11.46688 -93.30252
#
# Velocity S-wave (km/s) = -9.71264 2.33694 -6.66611
# Velocity P-wave (km/s) = 9.24569 7.07832 4.20596
#
# Compressibility (1/GPa) = 0.01181875
#
# Stress axis : x y z
#
# Youngs Moduli (GPa) = 93.96883 73.82952 78.78427
#
# Poissons Ratio (x) = 0.40152 0.31523
# Poissons Ratio (y) = 0.51105 0.24349
# Poissons Ratio (z) = 0.37599 0.22818
#
# Static dielectric constant tensor:
#      x y z
#    x 3.514520 0.000000 0.000000 
#    y 0.000000 4.132220 0.000000 
#    z 0.000000 0.000000 3.765100 
# 
# 
# High freq. dielectric constant tensor:
#      x y z
#    x 1.802600 0.000000 0.000000 
#    y 0.000000 1.847520 0.000000 
#    z 0.000000 0.000000 1.821030 
# 
# From -- ./inp_files/23034.got.cif
#   From: 2010.03.12/outbox.cif.g09.slc.cpg/sg56_12_cif.got.tgz:23034.got - 2010.04.16 15:33:40.
