data_PCOD8228876
_publ_section_title
;
Structure prediction by ZEFSAII (Michael W. Deem and Ramdas Pophale) SiO2 
 PCOD8228876
Probable space group: P C C N
;
_chemical_formula_sum "Si O2"
_cell_formula_units_Z 52
_cell_length_a 18.448509
_cell_length_b 14.261858
_cell_length_c 9.818561
_cell_angle_alpha 90.000000
_cell_angle_beta 90.000000
_cell_angle_gamma 90.000000
_cell_volume 2583.361739
_symmetry_space_group_name_H-M "P C C N"
_symmetry_group_IT_number 56
_symmetry_cell_setting 'orthorhombic'
loop_
_space_group_symop_operation_xyz
x,y,z
1/2-x,1/2-y,z
1/2+x,-y,1/2-z
-x,1/2+y,1/2-z
-x,-y,-z
1/2+x,1/2+y,-z
1/2-x,y,1/2+z
x,1/2-y,1/2+z
loop_
_atom_site_type_symbol
_atom_site_label
_atom_site_fract_x
_atom_site_fract_y
_atom_site_fract_z
Si Si1 0.373294 0.501567 0.656482
Si Si2 0.250000 0.750000 0.528520
Si Si3 0.467608 0.322982 0.672357
Si Si4 0.370194 0.868873 0.902456
Si Si5 0.974174 0.843869 0.021210
Si Si6 0.598041 0.036316 0.539912
Si Si7 0.282479 0.559914 0.160765
O O1 0.415203 0.405872 0.618778
O O2 0.389220 0.576676 0.540373
O O3 0.404580 0.541242 0.797392
O O4 0.286293 0.490159 0.675671
O O5 0.180867 0.778042 0.433070
O O6 0.239217 0.666461 0.634073
O O7 0.553021 0.340538 0.658877
O O8 0.446892 0.230915 0.588482
O O9 0.451439 0.305330 0.831195
O O10 0.330886 0.940883 0.797690
O O11 0.060158 0.867795 0.014601
O O12 0.938716 0.942574 0.982628
O O13 0.677906 0.029540 0.478083
#
# Coordination Sequence:
#
# PCOD8228876 Si02
#       7
#     8   4   8   8   8   8   8
#     4  10  23  38  60  87 124 157 205 248 306 367
#     4  10  22  34  56  92 124 156 198 252 314 372
#     4  11  23  40  59  93 118 163 205 254 300 367
#     4  11  22  36  60  89 123 162 200 252 307 376
#     4  10  23  39  64  85 124 156 210 252 303 367
#     4  10  21  42  60  87 118 169 198 250 316 361
#     4  11  21  39  61  87 121 161 202 254 310 369
#
# _framework density 20.128810000000001
#
# number of rings (size 3 to 8) (size 9 to 14) (size 15 to 20)
#    0.000    1.538    1.538    3.692    2.154    3.692 
#    0.000    0.769    0.000    3.692    0.000    0.000 
#    0.000    0.000    0.000    0.000    0.000    0.000 
#
# Total GULP energy -644574.533533 kJ/mol
# GULP energy per Si atom -12395.664106 kJ/mol
# Density = 2.008300 g / cm^3
# Si number density = 20.128810 Si / 1000 Ang^3
#
#
#
# Elastic Constant Matrix: (Units=GPa)
#
#
# Indices 1 2 3 4 5 6 
#
# 1 88.3424 45.2991 13.3159 0.0000 0.0000 0.0000
# 2 45.2991 97.4489 43.8977 0.0000 0.0000 0.0000
# 3 13.3159 43.8977 80.6667 0.0000 0.0000 0.0000
# 4 0.0000 0.0000 0.0000 36.8929 0.0000 0.0000
# 5 0.0000 0.0000 0.0000 0.0000 29.7199 0.0000
# 6 0.0000 0.0000 0.0000 0.0000 0.0000 31.7822
#
#
#
# Elastic Compliance Matrix: (Units=1/GPa)
#
#
# Indices 1 2 3 4 5 6 
#
# 1 0.015047 -0.007784 0.001752 0.000000 0.000000 0.000000
# 2 -0.007784 0.017621 -0.008304 0.000000 0.000000 0.000000
# 3 0.001752 -0.008304 0.016626 0.000000 0.000000 0.000000
# 4 0.000000 0.000000 0.000000 0.027105 0.000000 0.000000
# 5 0.000000 0.000000 0.000000 0.000000 0.033647 0.000000
# 6 0.000000 0.000000 0.000000 0.000000 0.000000 0.031464
#
#
# Mechanical properties :
#
#
# Convention : Reuss Voigt Hill
#
# Bulk Modulus (GPa) = 48.49114 52.38704 50.43909
# Shear Modulus (GPa) = 28.23954 30.60871 29.42412
#
# Velocity S-wave (km/s) = 3.74965 3.90377 3.82749
# Velocity P-wave (km/s) = 6.54899 6.81187 6.68172
#
# Compressibility (1/GPa) = 0.02062232
#
# Stress axis : x y z
#
# Youngs Moduli (GPa) = 66.45961 56.75123 60.14514
#
# Poissons Ratio (x) = 0.44173 -0.10537
# Poissons Ratio (y) = 0.51730 0.49945
# Poissons Ratio (z) = -0.11643 0.47127
#
# Static dielectric constant tensor:
#      x y z
#    x 3.884540 0.000000 0.000000 
#    y 0.000000 3.475780 0.000000 
#    z 0.000000 0.000000 3.704850 
# 
# 
# High freq. dielectric constant tensor:
#      x y z
#    x 1.786380 0.000000 0.000000 
#    y 0.000000 1.761100 0.000000 
#    z 0.000000 0.000000 1.802320 
# 
# From -- ./inp_files/4450.got.cif
#   From: 2010.03.12/outbox.cif.g09.slc.cpg/sg56_3_cif.got.tgz:4450.got - 2010.04.16 15:33:40.
