data_PCOD8228677
_publ_section_title
;
Structure prediction by ZEFSAII (Michael W. Deem and Ramdas Pophale) SiO2 
 PCOD8228677
Probable space group: P C C N
;
_chemical_formula_sum "Si O2"
_cell_formula_units_Z 60
_cell_length_a 7.505114
_cell_length_b 15.775162
_cell_length_c 24.380019
_cell_angle_alpha 90.000000
_cell_angle_beta 90.000000
_cell_angle_gamma 90.000000
_cell_volume 2886.457458
_symmetry_space_group_name_H-M "P C C N"
_symmetry_group_IT_number 56
_symmetry_cell_setting 'orthorhombic'
loop_
_space_group_symop_operation_xyz
x,y,z
1/2-x,1/2-y,z
1/2+x,-y,1/2-z
-x,1/2+y,1/2-z
-x,-y,-z
1/2+x,1/2+y,-z
1/2-x,y,1/2+z
x,1/2-y,1/2+z
loop_
_atom_site_type_symbol
_atom_site_label
_atom_site_fract_x
_atom_site_fract_y
_atom_site_fract_z
Si Si1 0.264114 0.073103 0.027527
Si Si2 0.515920 0.045120 0.612938
Si Si3 0.553306 0.232750 0.636476
Si Si4 0.462400 0.253699 0.757785
Si Si5 0.250000 0.250000 0.063436
Si Si6 0.603742 0.999465 0.082933
Si Si7 0.957479 0.575503 0.195252
Si Si8 0.047085 0.438149 0.285366
O O1 0.201936 0.170664 0.025314
O O2 0.101759 0.022411 0.058437
O O3 0.450524 0.058605 0.058872
O O4 0.293580 0.052193 0.964320
O O5 0.469388 0.138792 0.632735
O O6 0.730564 0.051690 0.607368
O O7 0.457551 0.981154 0.661356
O O8 0.750000 0.250000 0.612484
O O9 0.550517 0.260116 0.698737
O O10 0.414961 0.285523 0.599745
O O11 0.250000 0.250000 0.753798
O O12 0.535358 0.169316 0.789428
O O13 0.535251 0.343134 0.782353
O O14 0.513050 0.941372 0.130242
O O15 0.751481 0.577733 0.206001
O O16 0.035997 0.498344 0.231635
#
# Coordination Sequence:
#
# PCOD8228677 Si02
#       8
#     8   8   8   8   4   8   8   8
#     4  10  22  40  64  86 116 156 203 248 303 349
#     4  10  21  39  59  89 117 154 203 244 304 354
#     4  11  21  33  57  88 119 151 195 245 293 350
#     4  10  21  37  54  84 124 160 194 239 294 363
#     4  10  22  38  58  88 116 152 198 250 294 340
#     4  10  22  40  63  87 115 158 201 248 295 360
#     4  10  22  38  58  88 122 157 199 242 299 363
#     4  10  22  34  58  87 117 163 193 242 303 357
#
# _framework density 20.786726000000002
#
# number of rings (size 3 to 8) (size 9 to 14) (size 15 to 20)
#    0.000    1.867    2.000    1.200    7.467    0.000 
#    6.000    0.000    0.000    0.000    0.000    0.000 
#    0.000    0.000    0.000    0.000    0.000    0.000 
#
# Total GULP energy -743300.324474 kJ/mol
# GULP energy per Si atom -12388.338741 kJ/mol
# Density = 2.073941 g / cm^3
# Si number density = 20.786726 Si / 1000 Ang^3
#
#
#
# Elastic Constant Matrix: (Units=GPa)
#
#
# Indices 1 2 3 4 5 6 
#
# 1 51.4771 -8.8027 -6.7548 0.0000 0.0000 0.0000
# 2 -8.8027 122.7687 40.1430 0.0000 0.0000 0.0000
# 3 -6.7548 40.1430 92.0442 0.0000 0.0000 0.0000
# 4 0.0000 0.0000 0.0000 13.1879 0.0000 0.0000
# 5 0.0000 0.0000 0.0000 0.0000 25.4343 0.0000
# 6 0.0000 0.0000 0.0000 0.0000 0.0000 25.1779
#
#
#
# Elastic Compliance Matrix: (Units=1/GPa)
#
#
# Indices 1 2 3 4 5 6 
#
# 1 0.019741 0.001098 0.000970 0.000000 0.000000 0.000000
# 2 0.001098 0.009561 -0.004089 0.000000 0.000000 0.000000
# 3 0.000970 -0.004089 0.012719 0.000000 0.000000 0.000000
# 4 0.000000 0.000000 0.000000 0.075827 0.000000 0.000000
# 5 0.000000 0.000000 0.000000 0.000000 0.039317 0.000000
# 6 0.000000 0.000000 0.000000 0.000000 0.000000 0.039717
#
#
# Mechanical properties :
#
#
# Convention : Reuss Voigt Hill
#
# Bulk Modulus (GPa) = 26.33038 35.05124 30.69081
# Shear Modulus (GPa) = 23.40990 28.87365 26.14177
#
# Velocity S-wave (km/s) = 3.35952 3.73103 3.55014
# Velocity P-wave (km/s) = 5.26716 5.95481 5.62151
#
# Compressibility (1/GPa) = 0.03797894
#
# Stress axis : x y z
#
# Youngs Moduli (GPa) = 50.65554 104.58836 78.62269
#
# Poissons Ratio (x) = -0.11488 -0.07624
# Poissons Ratio (y) = -0.05564 0.32151
# Poissons Ratio (z) = -0.04912 0.42770
#
# Static dielectric constant tensor:
#      x y z
#    x 3.744820 0.000000 0.000000 
#    y 0.000000 4.059750 0.000000 
#    z 0.000000 0.000000 3.594190 
# 
# 
# High freq. dielectric constant tensor:
#      x y z
#    x 1.817420 0.000000 0.000000 
#    y 0.000000 1.812250 0.000000 
#    z 0.000000 0.000000 1.801260 
# 
# From -- ./inp_files/20616.got.cif
#   From: 2010.03.12/outbox.cif.g09.slc.cpg/sg56_11_cif.got.tgz:20616.got - 2010.04.16 15:33:40.
