data_PCOD8228513
_publ_section_title
;
Structure prediction by ZEFSAII (Michael W. Deem and Ramdas Pophale) SiO2 
 PCOD8228513
Probable space group: P C C N
;
_chemical_formula_sum "Si O2"
_cell_formula_units_Z 48
_cell_length_a 8.188754
_cell_length_b 17.500656
_cell_length_c 15.347776
_cell_angle_alpha 90.000000
_cell_angle_beta 90.000000
_cell_angle_gamma 90.000000
_cell_volume 2199.467782
_symmetry_space_group_name_H-M "P C C N"
_symmetry_group_IT_number 56
_symmetry_cell_setting 'orthorhombic'
loop_
_space_group_symop_operation_xyz
x,y,z
1/2-x,1/2-y,z
1/2+x,-y,1/2-z
-x,1/2+y,1/2-z
-x,-y,-z
1/2+x,1/2+y,-z
1/2-x,y,1/2+z
x,1/2-y,1/2+z
loop_
_atom_site_type_symbol
_atom_site_label
_atom_site_fract_x
_atom_site_fract_y
_atom_site_fract_z
Si Si1 0.084268 0.290215 0.001019
Si Si2 0.396247 0.648326 0.033919
Si Si3 0.132491 0.988475 0.299825
Si Si4 0.179813 0.672446 0.867596
Si Si5 0.732567 0.932792 0.543469
Si Si6 0.714289 0.027788 0.871840
O O1 0.250000 0.250000 0.031592
O O2 0.136322 0.363926 0.944893
O O3 0.964148 0.233976 0.944640
O O4 0.996538 0.313469 0.089879
O O5 0.548369 0.591513 0.025743
O O6 0.272150 0.615178 0.106999
O O7 0.307998 0.648317 0.941495
O O8 0.148497 0.895967 0.300098
O O9 0.167233 0.011858 0.199822
O O10 0.268140 0.020587 0.366530
O O11 0.963330 0.025656 0.329074
O O12 0.250000 0.750000 0.821730
O O13 0.790883 0.982968 0.462231
#
# Coordination Sequence:
#
# PCOD8228513 Si02
#       6
#     8   8   8   8   8   8
#     4   9  19  37  65  92 121 170 219 265 328 391
#     4  10  21  37  67  92 128 169 216 264 334 391
#     4  12  25  40  64  96 133 172 219 273 337 394
#     4  10  20  39  62  90 124 168 214 262 325 392
#     4  11  21  41  67  95 128 173 217 277 328 388
#     4  12  24  39  64  96 133 170 222 277 327 401
#
# _framework density 21.823460000000001
#
# number of rings (size 3 to 8) (size 9 to 14) (size 15 to 20)
#    0.000    1.333    3.333    3.000    2.333    0.000 
#    0.000    4.167    0.000    0.000    0.000    0.000 
#    0.000    0.000    0.000    0.000    0.000    0.000 
#
# Total GULP energy -594900.262522 kJ/mol
# GULP energy per Si atom -12393.755469 kJ/mol
# Density = 2.177379 g / cm^3
# Si number density = 21.823460 Si / 1000 Ang^3
#
#
#
# Elastic Constant Matrix: (Units=GPa)
#
#
# Indices 1 2 3 4 5 6 
#
# 1 92.4129 33.0440 7.1843 0.0000 0.0000 0.0000
# 2 33.0440 108.8968 23.7784 0.0000 0.0000 0.0000
# 3 7.1843 23.7784 71.3492 0.0000 0.0000 0.0000
# 4 0.0000 0.0000 0.0000 13.1988 0.0000 0.0000
# 5 0.0000 0.0000 0.0000 0.0000 25.3419 0.0000
# 6 0.0000 0.0000 0.0000 0.0000 0.0000 35.8885
#
#
#
# Elastic Compliance Matrix: (Units=1/GPa)
#
#
# Indices 1 2 3 4 5 6 
#
# 1 0.012138 -0.003684 0.000006 0.000000 0.000000 0.000000
# 2 -0.003684 0.011022 -0.003302 0.000000 0.000000 0.000000
# 3 0.000006 -0.003302 0.015116 0.000000 0.000000 0.000000
# 4 0.000000 0.000000 0.000000 0.075764 0.000000 0.000000
# 5 0.000000 0.000000 0.000000 0.000000 0.039460 0.000000
# 6 0.000000 0.000000 0.000000 0.000000 0.000000 0.027864
#
#
# Mechanical properties :
#
#
# Convention : Reuss Voigt Hill
#
# Bulk Modulus (GPa) = 41.12934 44.51916 42.82425
# Shear Modulus (GPa) = 24.57836 28.79599 26.68718
#
# Velocity S-wave (km/s) = 3.35958 3.63643 3.50074
# Velocity P-wave (km/s) = 5.82549 6.17053 6.00049
#
# Compressibility (1/GPa) = 0.02431354
#
# Stress axis : x y z
#
# Youngs Moduli (GPa) = 82.38593 90.72669 66.15699
#
# Poissons Ratio (x) = 0.33428 -0.00038
# Poissons Ratio (y) = 0.30355 0.21847
# Poissons Ratio (z) = -0.00047 0.29961
#
# Static dielectric constant tensor:
#      x y z
#    x 4.185400 0.000000 0.000000 
#    y 0.000000 4.400750 0.000000 
#    z 0.000000 0.000000 3.616600 
# 
# 
# High freq. dielectric constant tensor:
#      x y z
#    x 1.879610 0.000000 0.000000 
#    y 0.000000 1.867650 0.000000 
#    z 0.000000 0.000000 1.816440 
# 
# From -- ./inp_files/10694.got.cif
#   From: 2010.03.12/outbox.cif.g09.slc.cpg/sg56_6_cif.got.tgz:10694.got - 2010.04.16 15:33:40.
