data_PCOD8228460
_publ_section_title
;
Structure prediction by ZEFSAII (Michael W. Deem and Ramdas Pophale) SiO2 
 PCOD8228460
Probable space group: P C C N
;
_chemical_formula_sum "Si O2"
_cell_formula_units_Z 44
_cell_length_a 17.746207
_cell_length_b 8.852641
_cell_length_c 14.433356
_cell_angle_alpha 90.000000
_cell_angle_beta 90.000000
_cell_angle_gamma 90.000000
_cell_volume 2267.491770
_symmetry_space_group_name_H-M "P C C N"
_symmetry_group_IT_number 56
_symmetry_cell_setting 'orthorhombic'
loop_
_space_group_symop_operation_xyz
x,y,z
1/2-x,1/2-y,z
1/2+x,-y,1/2-z
-x,1/2+y,1/2-z
-x,-y,-z
1/2+x,1/2+y,-z
1/2-x,y,1/2+z
x,1/2-y,1/2+z
loop_
_atom_site_type_symbol
_atom_site_label
_atom_site_fract_x
_atom_site_fract_y
_atom_site_fract_z
Si Si1 0.140691 0.831281 0.451351
Si Si2 0.250000 0.250000 0.371958
Si Si3 0.923997 0.954727 0.888278
Si Si4 0.390172 0.083048 0.818176
Si Si5 0.993221 0.738553 0.540434
Si Si6 0.708539 0.027690 0.509413
O O1 0.205673 0.919708 0.509987
O O2 0.165657 0.658460 0.431249
O O3 0.065645 0.837839 0.512881
O O4 0.127695 0.912763 0.352657
O O5 0.188284 0.172102 0.307041
O O6 0.206676 0.372131 0.434810
O O7 0.930223 0.915760 0.780473
O O8 0.947730 0.808206 0.947753
O O9 0.983423 0.087978 0.905140
O O10 0.838475 0.004767 0.914480
O O11 0.442268 0.159626 0.894644
#
# Coordination Sequence:
#
# PCOD8228460 Si02
#       6
#     8   4   8   8   8   8
#     4   9  20  37  63  85 119 158 201 251 309 353
#     4  10  20  38  60  88 120 162 200 250 304 358
#     4  10  22  38  63  86 124 158 200 248 314 360
#     4  11  22  38  62  93 114 159 211 244 299 374
#     4  10  21  41  59  88 124 159 193 263 305 356
#     4   9  18  40  60  83 123 162 191 254 308 356
#
# _framework density 19.404702
#
# number of rings (size 3 to 8) (size 9 to 14) (size 15 to 20)
#    0.000    2.182    1.818    0.545    2.545    0.727 
#    0.000   14.545    0.000    0.000    0.000    0.000 
#    0.000    0.000    0.000    0.000    0.000    0.000 
#
# Total GULP energy -545570.056704 kJ/mol
# GULP energy per Si atom -12399.319471 kJ/mol
# Density = 1.936054 g / cm^3
# Si number density = 19.404702 Si / 1000 Ang^3
#
#
#
# Elastic Constant Matrix: (Units=GPa)
#
#
# Indices 1 2 3 4 5 6 
#
# 1 105.3304 34.5062 49.9107 0.0000 0.0000 0.0000
# 2 34.5062 100.2554 51.1645 0.0000 0.0000 0.0000
# 3 49.9107 51.1645 114.2486 0.0000 0.0000 0.0000
# 4 0.0000 0.0000 0.0000 21.1998 0.0000 0.0000
# 5 0.0000 0.0000 0.0000 0.0000 24.0175 0.0000
# 6 0.0000 0.0000 0.0000 0.0000 0.0000 26.0742
#
#
#
# Elastic Compliance Matrix: (Units=1/GPa)
#
#
# Indices 1 2 3 4 5 6 
#
# 1 0.012252 -0.001925 -0.004490 0.000000 0.000000 0.000000
# 2 -0.001925 0.013232 -0.005085 0.000000 0.000000 0.000000
# 3 -0.004490 -0.005085 0.012992 0.000000 0.000000 0.000000
# 4 0.000000 0.000000 0.000000 0.047170 0.000000 0.000000
# 5 0.000000 0.000000 0.000000 0.000000 0.041636 0.000000
# 6 0.000000 0.000000 0.000000 0.000000 0.000000 0.038352
#
#
# Mechanical properties :
#
#
# Convention : Reuss Voigt Hill
#
# Bulk Modulus (GPa) = 64.61923 65.66636 65.14279
# Shear Modulus (GPa) = 25.80057 26.54183 26.17120
#
# Velocity S-wave (km/s) = 3.65033 3.70240 3.67645
# Velocity P-wave (km/s) = 7.15120 7.22433 7.18786
#
# Compressibility (1/GPa) = 0.01547527
#
# Stress axis : x y z
#
# Youngs Moduli (GPa) = 81.61629 75.57343 76.97305
#
# Poissons Ratio (x) = 0.14552 0.34563
# Poissons Ratio (y) = 0.15715 0.39138
# Poissons Ratio (z) = 0.36648 0.38426
#
# Static dielectric constant tensor:
#      x y z
#    x 3.804440 0.000000 0.000000 
#    y 0.000000 3.748040 0.000000 
#    z 0.000000 0.000000 3.075500 
# 
# 
# High freq. dielectric constant tensor:
#      x y z
#    x 1.775730 0.000000 0.000000 
#    y 0.000000 1.767840 0.000000 
#    z 0.000000 0.000000 1.712080 
# 
# From -- ./inp_files/10576.got.cif
#   From: 2010.03.12/outbox.cif.g09.slc.cpg/sg56_6_cif.got.tgz:10576.got - 2010.04.16 15:33:40.
