data_PCOD8228530
_publ_section_title
;
Structure prediction by ZEFSAII (Michael W. Deem and Ramdas Pophale) SiO2 
 PCOD8228530
Probable space group: P C C N
;
_chemical_formula_sum "Si O2"
_cell_formula_units_Z 32
_cell_length_a 11.768960
_cell_length_b 6.739207
_cell_length_c 19.000204
_cell_angle_alpha 90.000000
_cell_angle_beta 90.000000
_cell_angle_gamma 90.000000
_cell_volume 1506.971875
_symmetry_space_group_name_H-M "P C C N"
_symmetry_group_IT_number 56
_symmetry_cell_setting 'orthorhombic'
loop_
_space_group_symop_operation_xyz
x,y,z
1/2-x,1/2-y,z
1/2+x,-y,1/2-z
-x,1/2+y,1/2-z
-x,-y,-z
1/2+x,1/2+y,-z
1/2-x,y,1/2+z
x,1/2-y,1/2+z
loop_
_atom_site_type_symbol
_atom_site_label
_atom_site_fract_x
_atom_site_fract_y
_atom_site_fract_z
Si Si1 0.750000 0.250000 0.914743
Si Si2 0.985023 0.273439 0.481739
Si Si3 0.685689 0.954214 0.801494
Si Si4 0.462110 0.543419 0.383589
Si Si5 0.250000 0.750000 0.815389
O O1 0.646245 0.239987 0.966995
O O2 0.745308 0.443696 0.865003
O O3 0.021538 0.156103 0.551396
O O4 0.000000 0.500000 0.500000
O O5 0.053098 0.185723 0.412713
O O6 0.750000 0.750000 0.785064
O O7 0.551433 0.936607 0.819419
O O8 0.687580 0.085641 0.731358
O O9 0.342214 0.638280 0.363455
#
# Coordination Sequence:
#
# PCOD8228530 Si02
#       5
#     4   8   8   8   4
#     4   9  19  38  60  94 123 159 212 264 318 379
#     4  10  20  39  68  90 127 161 203 273 326 383
#     4  10  22  39  62  85 125 174 214 260 319 373
#     4  10  23  40  60  97 126 161 219 260 322 384
#     4  11  25  40  60  92 133 165 218 272 302 395
#
# _framework density 21.234636999999999
#
# number of rings (size 3 to 8) (size 9 to 14) (size 15 to 20)
#    0.000    2.000    0.000    2.250    3.500    2.000 
#    0.000    7.500    0.000    0.000    0.000    0.000 
#    0.000    0.000    0.000    0.000    0.000    0.000 
#
# Total GULP energy -396614.105030 kJ/mol
# GULP energy per Si atom -12394.190782 kJ/mol
# Density = 2.118631 g / cm^3
# Si number density = 21.234637 Si / 1000 Ang^3
#
#
#
# Elastic Constant Matrix: (Units=GPa)
#
#
# Indices 1 2 3 4 5 6 
#
# 1 116.8368 55.8803 55.5283 0.0000 0.0000 0.0000
# 2 55.8803 155.3930 50.3392 0.0000 0.0000 0.0000
# 3 55.5283 50.3392 89.9381 0.0000 0.0000 0.0000
# 4 0.0000 0.0000 0.0000 35.7776 0.0000 0.0000
# 5 0.0000 0.0000 0.0000 0.0000 35.3323 0.0000
# 6 0.0000 0.0000 0.0000 0.0000 0.0000 35.8158
#
#
#
# Elastic Compliance Matrix: (Units=1/GPa)
#
#
# Indices 1 2 3 4 5 6 
#
# 1 0.012867 -0.002508 -0.006540 0.000000 0.000000 0.000000
# 2 -0.002508 0.008350 -0.003125 0.000000 0.000000 0.000000
# 3 -0.006540 -0.003125 0.016906 0.000000 0.000000 0.000000
# 4 0.000000 0.000000 0.000000 0.027950 0.000000 0.000000
# 5 0.000000 0.000000 0.000000 0.000000 0.028303 0.000000
# 6 0.000000 0.000000 0.000000 0.000000 0.000000 0.027921
#
#
# Mechanical properties :
#
#
# Convention : Reuss Voigt Hill
#
# Bulk Modulus (GPa) = 72.59143 76.18482 74.38812
# Shear Modulus (GPa) = 33.06133 34.74649 33.90391
#
# Velocity S-wave (km/s) = 3.95010 4.04952 4.00012
# Velocity P-wave (km/s) = 7.42051 7.60397 7.51280
#
# Compressibility (1/GPa) = 0.01377573
#
# Stress axis : x y z
#
# Youngs Moduli (GPa) = 77.71860 119.76718 59.15207
#
# Poissons Ratio (x) = 0.30042 0.38686
# Poissons Ratio (y) = 0.19495 0.18483
# Poissons Ratio (z) = 0.50829 0.37423
#
# Static dielectric constant tensor:
#      x y z
#    x 3.551740 0.000000 0.000000 
#    y 0.000000 4.130780 0.000000 
#    z 0.000000 0.000000 3.042790 
# 
# 
# High freq. dielectric constant tensor:
#      x y z
#    x 1.818160 0.000000 0.000000 
#    y 0.000000 1.843660 0.000000 
#    z 0.000000 0.000000 1.838560 
# 
# From -- ./inp_files/13745.got.cif
#   From: 2010.03.12/outbox.cif.g09.slc.cpg/sg56_7_cif.got.tgz:13745.got - 2010.04.16 15:33:40.
