data_PCOD8228552
_publ_section_title
;
Structure prediction by ZEFSAII (Michael W. Deem and Ramdas Pophale) SiO2 
 PCOD8228552
Probable space group: P C C N
;
_chemical_formula_sum "Si O2"
_cell_formula_units_Z 40
_cell_length_a 11.922313
_cell_length_b 9.491776
_cell_length_c 17.381102
_cell_angle_alpha 90.000000
_cell_angle_beta 90.000000
_cell_angle_gamma 90.000000
_cell_volume 1966.913713
_symmetry_space_group_name_H-M "P C C N"
_symmetry_group_IT_number 56
_symmetry_cell_setting 'orthorhombic'
loop_
_space_group_symop_operation_xyz
x,y,z
1/2-x,1/2-y,z
1/2+x,-y,1/2-z
-x,1/2+y,1/2-z
-x,-y,-z
1/2+x,1/2+y,-z
1/2-x,y,1/2+z
x,1/2-y,1/2+z
loop_
_atom_site_type_symbol
_atom_site_label
_atom_site_fract_x
_atom_site_fract_y
_atom_site_fract_z
Si Si1 0.543884 0.963274 0.915956
Si Si2 0.601260 0.845642 0.182708
Si Si3 0.522078 0.839144 0.352457
Si Si4 0.170578 0.050415 0.872032
Si Si5 0.216608 0.410063 0.542014
O O1 0.498246 0.809018 0.893453
O O2 0.678197 0.978690 0.914257
O O3 0.503258 0.072627 0.852390
O O4 0.500000 0.000000 0.000000
O O5 0.581396 0.810054 0.271368
O O6 0.712906 0.941917 0.174967
O O7 0.609839 0.700814 0.135464
O O8 0.607329 0.928922 0.405154
O O9 0.407472 0.925588 0.339654
O O10 0.194069 0.014367 0.961033
O O11 0.250000 0.250000 0.524248
#
# Coordination Sequence:
#
# PCOD8228552 Si02
#       5
#     8   8   8   8   8
#     4  11  22  43  65  95 130 172 219 266 329 389
#     4  11  23  40  65  93 132 171 209 272 328 381
#     4  11  25  37  68  95 126 168 220 268 324 390
#     4  11  22  43  62  90 129 169 219 259 323 392
#     4  10  20  40  64  89 120 172 213 253 318 394
#
# _framework density 20.336428000000002
#
# number of rings (size 3 to 8) (size 9 to 14) (size 15 to 20)
#    0.000    1.200    4.000    3.000   11.200    0.800 
#    0.000    3.000    0.000    0.000    0.000    0.000 
#    0.000    0.000    0.000    0.000    0.000    0.000 
#
# Total GULP energy -496155.958289 kJ/mol
# GULP energy per Si atom -12403.898957 kJ/mol
# Density = 2.029014 g / cm^3
# Si number density = 20.336428 Si / 1000 Ang^3
#
#
#
# Elastic Constant Matrix: (Units=GPa)
#
#
# Indices 1 2 3 4 5 6 
#
# 1 86.3550 51.0524 41.0449 0.0000 0.0000 0.0000
# 2 51.0524 77.7248 39.0369 0.0000 0.0000 0.0000
# 3 41.0449 39.0369 113.4816 0.0000 0.0000 0.0000
# 4 0.0000 0.0000 0.0000 25.1204 0.0000 0.0000
# 5 0.0000 0.0000 0.0000 0.0000 36.9193 0.0000
# 6 0.0000 0.0000 0.0000 0.0000 0.0000 35.4383
#
#
#
# Elastic Compliance Matrix: (Units=1/GPa)
#
#
# Indices 1 2 3 4 5 6 
#
# 1 0.019883 -0.011421 -0.003263 0.000000 0.000000 0.000000
# 2 -0.011421 0.022114 -0.003476 0.000000 0.000000 0.000000
# 3 -0.003263 -0.003476 0.011188 0.000000 0.000000 0.000000
# 4 0.000000 0.000000 0.000000 0.039808 0.000000 0.000000
# 5 0.000000 0.000000 0.000000 0.000000 0.027086 0.000000
# 6 0.000000 0.000000 0.000000 0.000000 0.000000 0.028218
#
#
# Mechanical properties :
#
#
# Convention : Reuss Voigt Hill
#
# Bulk Modulus (GPa) = 59.29561 59.98111 59.63836
# Shear Modulus (GPa) = 26.28288 29.25741 27.77015
#
# Velocity S-wave (km/s) = 3.59890 3.79710 3.69933
# Velocity P-wave (km/s) = 6.81836 6.98444 6.90190
#
# Compressibility (1/GPa) = 0.01686466
#
# Stress axis : x y z
#
# Youngs Moduli (GPa) = 50.29430 45.22108 89.38332
#
# Poissons Ratio (x) = 0.51648 0.29162
# Poissons Ratio (y) = 0.57442 0.31070
# Poissons Ratio (z) = 0.16409 0.15719
#
# Static dielectric constant tensor:
#      x y z
#    x 3.922350 0.000000 0.000000 
#    y 0.000000 3.533910 0.000000 
#    z 0.000000 0.000000 3.783520 
# 
# 
# High freq. dielectric constant tensor:
#      x y z
#    x 1.801830 0.000000 0.000000 
#    y 0.000000 1.772170 0.000000 
#    z 0.000000 0.000000 1.805760 
# 
# From -- ./inp_files/14403.got.cif
#   From: 2010.03.12/outbox.cif.g09.slc.cpg/sg56_8_cif.got.tgz:14403.got - 2010.04.16 15:33:40.
