data_PCOD8228283
_publ_section_title
;
Structure prediction by ZEFSAII (Michael W. Deem and Ramdas Pophale) SiO2 
 PCOD8228283
Probable space group: P C C N
;
_chemical_formula_sum "Si O2"
_cell_formula_units_Z 64
_cell_length_a 28.916495
_cell_length_b 13.490464
_cell_length_c 9.283847
_cell_angle_alpha 90.000000
_cell_angle_beta 90.000000
_cell_angle_gamma 90.000000
_cell_volume 3621.600258
_symmetry_space_group_name_H-M "P C C N"
_symmetry_group_IT_number 56
_symmetry_cell_setting 'orthorhombic'
loop_
_space_group_symop_operation_xyz
x,y,z
1/2-x,1/2-y,z
1/2+x,-y,1/2-z
-x,1/2+y,1/2-z
-x,-y,-z
1/2+x,1/2+y,-z
1/2-x,y,1/2+z
x,1/2-y,1/2+z
loop_
_atom_site_type_symbol
_atom_site_label
_atom_site_fract_x
_atom_site_fract_y
_atom_site_fract_z
Si Si1 0.933645 0.330598 0.449948
Si Si2 0.464765 0.177014 0.363628
Si Si3 0.438585 0.139809 0.682266
Si Si4 0.200336 0.836520 0.614345
Si Si5 0.034431 0.956237 0.782449
Si Si6 0.285866 0.866546 0.777522
Si Si7 0.899320 0.379584 0.954301
Si Si8 0.877676 0.468522 0.245722
O O1 0.944785 0.406964 0.575748
O O2 0.909089 0.232037 0.511329
O O3 0.898521 0.382782 0.343763
O O4 0.980647 0.299297 0.368014
O O5 0.442305 0.175441 0.519821
O O6 0.438288 0.262455 0.278621
O O7 0.456788 0.073093 0.284128
O O8 0.479821 0.064590 0.724464
O O9 0.390957 0.078984 0.702964
O O10 0.235793 0.900563 0.714759
O O11 0.199267 0.725889 0.677842
O O12 0.215936 0.835964 0.446040
O O13 0.149374 0.883155 0.631009
O O14 0.058599 0.912297 0.643821
O O15 0.322149 0.955978 0.754582
O O16 0.897757 0.454488 0.086320
#
# Coordination Sequence:
#
# PCOD8228283 Si02
#       8
#     8   8   8   8   8   8   8   8
#     4  11  19  36  52  77 113 153 189 216 277 323
#     4  11  23  37  55  76 110 151 188 233 270 321
#     4  11  23  39  55  79 111 148 192 233 277 328
#     4  10  20  33  51  80 108 146 182 215 275 337
#     4  11  22  36  54  80 113 149 192 226 275 329
#     4  10  20  34  53  78 114 144 177 223 272 334
#     4  11  23  32  55  84 109 152 183 228 268 338
#     4  11  22  36  53  79 115 147 184 228 274 329
#
# _framework density 17.671745000000001
#
# number of rings (size 3 to 8) (size 9 to 14) (size 15 to 20)
#    0.000    1.250    5.000    3.000    5.250    1.500 
#    0.000    0.000    0.000    0.000    0.000    0.875 
#    0.000    0.000    0.000    0.000    0.000    0.000 
#
# Total GULP energy -793579.153434 kJ/mol
# GULP energy per Si atom -12399.674272 kJ/mol
# Density = 1.763152 g / cm^3
# Si number density = 17.671745 Si / 1000 Ang^3
#
#
#
# Elastic Constant Matrix: (Units=GPa)
#
#
# Indices 1 2 3 4 5 6 
#
# 1 62.0982 35.1879 19.5381 0.0000 0.0000 0.0000
# 2 35.1879 100.4433 31.4918 0.0000 0.0000 0.0000
# 3 19.5381 31.4918 60.9597 0.0000 0.0000 0.0000
# 4 0.0000 0.0000 0.0000 13.6335 0.0000 0.0000
# 5 0.0000 0.0000 0.0000 0.0000 22.0789 0.0000
# 6 0.0000 0.0000 0.0000 0.0000 0.0000 25.6966
#
#
#
# Elastic Compliance Matrix: (Units=1/GPa)
#
#
# Indices 1 2 3 4 5 6 
#
# 1 0.020680 -0.006165 -0.003443 0.000000 0.000000 0.000000
# 2 -0.006165 0.013718 -0.005111 0.000000 0.000000 0.000000
# 3 -0.003443 -0.005111 0.020148 0.000000 0.000000 0.000000
# 4 0.000000 0.000000 0.000000 0.073349 0.000000 0.000000
# 5 0.000000 0.000000 0.000000 0.000000 0.045292 0.000000
# 6 0.000000 0.000000 0.000000 0.000000 0.000000 0.038916
#
#
# Mechanical properties :
#
#
# Convention : Reuss Voigt Hill
#
# Bulk Modulus (GPa) = 39.82793 43.99298 41.91046
# Shear Modulus (GPa) = 20.00711 21.43403 20.72057
#
# Velocity S-wave (km/s) = 3.36840 3.48645 3.42793
# Velocity P-wave (km/s) = 6.14123 6.41527 6.27974
#
# Compressibility (1/GPa) = 0.02510801
#
# Stress axis : x y z
#
# Youngs Moduli (GPa) = 48.35480 72.89634 49.63253
#
# Poissons Ratio (x) = 0.44943 0.17090
# Poissons Ratio (y) = 0.29812 0.25366
# Poissons Ratio (z) = 0.16650 0.37255
#
# Static dielectric constant tensor:
#      x y z
#    x 3.455250 0.000000 0.000000 
#    y 0.000000 3.126720 0.000000 
#    z 0.000000 0.000000 3.389740 
# 
# 
# High freq. dielectric constant tensor:
#      x y z
#    x 1.672790 0.000000 0.000000 
#    y 0.000000 1.656970 0.000000 
#    z 0.000000 0.000000 1.696250 
# 
# From -- ./inp_files/5238.got.cif
#   From: 2010.03.12/outbox.cif.g09.slc.cpg/sg56_3_cif.got.tgz:5238.got - 2010.04.16 15:33:40.
