data_PCOD8228480
_publ_section_title
;
Structure prediction by ZEFSAII (Michael W. Deem and Ramdas Pophale) SiO2 
 PCOD8228480
Probable space group: P C C N
;
_chemical_formula_sum "Si O2"
_cell_formula_units_Z 48
_cell_length_a 23.698986
_cell_length_b 8.771800
_cell_length_c 10.371863
_cell_angle_alpha 90.000000
_cell_angle_beta 90.000000
_cell_angle_gamma 90.000000
_cell_volume 2156.131563
_symmetry_space_group_name_H-M "P C C N"
_symmetry_group_IT_number 56
_symmetry_cell_setting 'orthorhombic'
loop_
_space_group_symop_operation_xyz
x,y,z
1/2-x,1/2-y,z
1/2+x,-y,1/2-z
-x,1/2+y,1/2-z
-x,-y,-z
1/2+x,1/2+y,-z
1/2-x,y,1/2+z
x,1/2-y,1/2+z
loop_
_atom_site_type_symbol
_atom_site_label
_atom_site_fract_x
_atom_site_fract_y
_atom_site_fract_z
Si Si1 0.467069 0.869467 0.831735
Si Si2 0.855077 0.778534 0.142002
Si Si3 0.021683 0.216670 0.411180
Si Si4 0.250000 0.250000 0.533474
Si Si5 0.152965 0.553660 0.869834
Si Si6 0.250000 0.750000 0.274441
Si Si7 0.319877 0.498154 0.648666
O O1 0.491590 0.822499 0.694223
O O2 0.399191 0.843835 0.822127
O O3 0.480479 0.045673 0.857307
O O4 0.491450 0.768762 0.949882
O O5 0.914628 0.776745 0.067329
O O6 0.845436 0.609537 0.204842
O O7 0.858965 0.913828 0.246458
O O8 0.802765 0.811856 0.048473
O O9 0.266181 0.390782 0.623368
O O10 0.213779 0.634145 0.861035
O O11 0.142198 0.517776 0.021350
O O12 0.203833 0.661588 0.190358
#
# Coordination Sequence:
#
# PCOD8228480 Si02
#       7
#     8   8   8   4   8   4   8
#     4  10  24  45  67  99 132 174 219 277 325 395
#     4  10  22  40  65  94 122 171 219 266 317 390
#     4  10  24  43  71  97 134 172 223 271 331 387
#     4  10  20  38  62  96 122 166 214 270 322 388
#     4  10  24  42  62  94 130 169 215 266 332 391
#     4  12  24  40  60 100 128 170 206 266 340 396
#     4  11  22  38  66  91 131 166 212 269 327 388
#
# _framework density 22.262091000000002
#
# number of rings (size 3 to 8) (size 9 to 14) (size 15 to 20)
#    0.000    1.667    0.000    4.000   11.667    0.667 
#    0.000    0.000    0.000    0.000    0.000    0.000 
#    0.000    0.000    0.000    0.000    0.000    0.000 
#
# Total GULP energy -595161.088815 kJ/mol
# GULP energy per Si atom -12399.189350 kJ/mol
# Density = 2.221142 g / cm^3
# Si number density = 22.262091 Si / 1000 Ang^3
#
#
#
# Elastic Constant Matrix: (Units=GPa)
#
#
# Indices 1 2 3 4 5 6 
#
# 1 106.1950 17.6526 1.6219 0.0000 0.0000 0.0000
# 2 17.6526 67.6747 15.6465 0.0000 0.0000 0.0000
# 3 1.6219 15.6465 53.9946 0.0000 0.0000 0.0000
# 4 0.0000 0.0000 0.0000 32.0948 0.0000 0.0000
# 5 0.0000 0.0000 0.0000 0.0000 21.0994 0.0000
# 6 0.0000 0.0000 0.0000 0.0000 0.0000 34.2198
#
#
#
# Elastic Compliance Matrix: (Units=1/GPa)
#
#
# Indices 1 2 3 4 5 6 
#
# 1 0.009855 -0.002682 0.000481 0.000000 0.000000 0.000000
# 2 -0.002682 0.016567 -0.004720 0.000000 0.000000 0.000000
# 3 0.000481 -0.004720 0.019874 0.000000 0.000000 0.000000
# 4 0.000000 0.000000 0.000000 0.031158 0.000000 0.000000
# 5 0.000000 0.000000 0.000000 0.000000 0.047395 0.000000
# 6 0.000000 0.000000 0.000000 0.000000 0.000000 0.029223
#
#
# Mechanical properties :
#
#
# Convention : Reuss Voigt Hill
#
# Bulk Modulus (GPa) = 30.81273 33.07849 31.94561
# Shear Modulus (GPa) = 27.97486 30.34569 29.16028
#
# Velocity S-wave (km/s) = 3.54872 3.69604 3.62313
# Velocity P-wave (km/s) = 5.53734 5.75371 5.64656
#
# Compressibility (1/GPa) = 0.03245411
#
# Stress axis : x y z
#
# Youngs Moduli (GPa) = 101.47039 60.35917 50.31758
#
# Poissons Ratio (x) = 0.16188 -0.02421
# Poissons Ratio (y) = 0.27213 0.23752
# Poissons Ratio (z) = -0.04882 0.28492
#
# Static dielectric constant tensor:
#      x y z
#    x 4.093870 0.000000 0.000000 
#    y 0.000000 4.091060 0.000000 
#    z 0.000000 0.000000 3.823940 
# 
# 
# High freq. dielectric constant tensor:
#      x y z
#    x 1.886880 0.000000 0.000000 
#    y 0.000000 1.871130 0.000000 
#    z 0.000000 0.000000 1.863060 
# 
# From -- ./inp_files/6449.got.cif
#   From: 2010.03.12/outbox.cif.g09.slc.cpg/sg56_4_cif.got.tgz:6449.got - 2010.04.16 15:33:40.
