data_PCOD8228509
_publ_section_title
;
Structure prediction by ZEFSAII (Michael W. Deem and Ramdas Pophale) SiO2 
 PCOD8228509
Probable space group: P C C N
;
_chemical_formula_sum "Si O2"
_cell_formula_units_Z 64
_cell_length_a 25.336612
_cell_length_b 8.769696
_cell_length_c 14.083870
_cell_angle_alpha 90.000000
_cell_angle_beta 90.000000
_cell_angle_gamma 90.000000
_cell_volume 3129.356832
_symmetry_space_group_name_H-M "P C C N"
_symmetry_group_IT_number 56
_symmetry_cell_setting 'orthorhombic'
loop_
_space_group_symop_operation_xyz
x,y,z
1/2-x,1/2-y,z
1/2+x,-y,1/2-z
-x,1/2+y,1/2-z
-x,-y,-z
1/2+x,1/2+y,-z
1/2-x,y,1/2+z
x,1/2-y,1/2+z
loop_
_atom_site_type_symbol
_atom_site_label
_atom_site_fract_x
_atom_site_fract_y
_atom_site_fract_z
Si Si1 0.187126 0.531883 0.100374
Si Si2 0.561931 0.997990 0.715275
Si Si3 0.906564 0.676962 0.890931
Si Si4 0.771454 0.408114 0.243317
Si Si5 0.406174 0.202927 0.892709
Si Si6 0.876832 0.264199 0.293286
Si Si7 0.556735 0.958947 0.288975
Si Si8 0.211415 0.120883 0.417502
O O1 0.154135 0.377785 0.123995
O O2 0.240220 0.549917 0.160943
O O3 0.148572 0.678166 0.115441
O O4 0.204080 0.518397 0.991289
O O5 0.605220 0.134600 0.717292
O O6 0.504890 0.064907 0.689131
O O7 0.556759 0.923243 0.820682
O O8 0.578242 0.874473 0.636664
O O9 0.909341 0.851708 0.858408
O O10 0.925512 0.662987 0.000300
O O11 0.750000 0.250000 0.200679
O O12 0.834204 0.385265 0.254537
O O13 0.760573 0.547497 0.173517
O O14 0.431634 0.079727 0.821408
O O15 0.343244 0.197696 0.888187
O O16 0.927932 0.366975 0.316445
O O17 0.250000 0.250000 0.459711
#
# Coordination Sequence:
#
# PCOD8228509 Si02
#       8
#     8   8   8   8   8   8   8   8
#     4   9  22  42  58  91 127 162 203 254 310 372
#     4  10  22  40  64  90 130 158 210 264 315 371
#     4   9  21  40  63  88 124 163 208 256 309 370
#     4  10  22  37  62  88 122 163 198 251 315 366
#     4  10  22  42  61  92 125 160 213 257 306 381
#     4  10  20  39  61  87 126 163 196 260 315 363
#     4  11  21  39  65  94 118 168 214 255 319 369
#     4  11  24  39  63  93 121 166 210 251 308 374
#
# _framework density 20.451485999999999
#
# number of rings (size 3 to 8) (size 9 to 14) (size 15 to 20)
#    0.000    2.000    1.250    1.500    7.000    5.000 
#    2.250    1.250    0.000    0.000    0.000    0.000 
#    0.000    0.000    0.000    0.000    0.000    0.000 
#
# Total GULP energy -793350.946004 kJ/mol
# GULP energy per Si atom -12396.108531 kJ/mol
# Density = 2.040494 g / cm^3
# Si number density = 20.451486 Si / 1000 Ang^3
#
#
#
# Elastic Constant Matrix: (Units=GPa)
#
#
# Indices 1 2 3 4 5 6 
#
# 1 100.1285 37.4349 30.4463 0.0000 0.0000 0.0000
# 2 37.4349 102.4299 39.2972 0.0000 0.0000 0.0000
# 3 30.4463 39.2972 98.3595 0.0000 0.0000 0.0000
# 4 0.0000 0.0000 0.0000 27.3475 0.0000 0.0000
# 5 0.0000 0.0000 0.0000 0.0000 23.9878 0.0000
# 6 0.0000 0.0000 0.0000 0.0000 0.0000 37.0257
#
#
#
# Elastic Compliance Matrix: (Units=1/GPa)
#
#
# Indices 1 2 3 4 5 6 
#
# 1 0.011999 -0.003496 -0.002317 0.000000 0.000000 0.000000
# 2 -0.003496 0.012549 -0.003931 0.000000 0.000000 0.000000
# 3 -0.002317 -0.003931 0.012455 0.000000 0.000000 0.000000
# 4 0.000000 0.000000 0.000000 0.036566 0.000000 0.000000
# 5 0.000000 0.000000 0.000000 0.000000 0.041688 0.000000
# 6 0.000000 0.000000 0.000000 0.000000 0.000000 0.027008
#
#
# Mechanical properties :
#
#
# Convention : Reuss Voigt Hill
#
# Bulk Modulus (GPa) = 57.10135 57.25275 57.17705
# Shear Modulus (GPa) = 29.83431 30.58817 30.21124
#
# Velocity S-wave (km/s) = 3.82355 3.87155 3.84763
# Velocity P-wave (km/s) = 6.89012 6.93112 6.91065
#
# Compressibility (1/GPa) = 0.01751272
#
# Stress axis : x y z
#
# Youngs Moduli (GPa) = 83.34085 79.68895 80.29047
#
# Poissons Ratio (x) = 0.27861 0.18606
# Poissons Ratio (y) = 0.29138 0.31565
# Poissons Ratio (z) = 0.19313 0.31329
#
# Static dielectric constant tensor:
#      x y z
#    x 3.692130 0.000000 0.000000 
#    y 0.000000 3.756690 0.000000 
#    z 0.000000 0.000000 3.553020 
# 
# 
# High freq. dielectric constant tensor:
#      x y z
#    x 1.802210 0.000000 0.000000 
#    y 0.000000 1.805610 0.000000 
#    z 0.000000 0.000000 1.776180 
# 
# From -- ./inp_files/13296.got.cif
#   From: 2010.03.12/outbox.cif.g09.slc.cpg/sg56_7_cif.got.tgz:13296.got - 2010.04.16 15:33:40.
