data_PCOD8228940
_publ_section_title
;
Structure prediction by ZEFSAII (Michael W. Deem and Ramdas Pophale) SiO2 
 PCOD8228940
Probable space group: P C C N
;
_chemical_formula_sum "Si O2"
_cell_formula_units_Z 60
_cell_length_a 21.125989
_cell_length_b 13.601113
_cell_length_c 9.242985
_cell_angle_alpha 90.000000
_cell_angle_beta 90.000000
_cell_angle_gamma 90.000000
_cell_volume 2655.851245
_symmetry_space_group_name_H-M "P C C N"
_symmetry_group_IT_number 56
_symmetry_cell_setting 'orthorhombic'
loop_
_space_group_symop_operation_xyz
x,y,z
1/2-x,1/2-y,z
1/2+x,-y,1/2-z
-x,1/2+y,1/2-z
-x,-y,-z
1/2+x,1/2+y,-z
1/2-x,y,1/2+z
x,1/2-y,1/2+z
loop_
_atom_site_type_symbol
_atom_site_label
_atom_site_fract_x
_atom_site_fract_y
_atom_site_fract_z
Si Si1 0.500204 0.440608 0.280817
Si Si2 0.979046 0.767957 0.902687
Si Si3 0.750000 0.750000 0.874542
Si Si4 0.135753 0.367254 0.156355
Si Si5 0.306930 0.049718 0.588513
Si Si6 0.570801 0.938828 0.571113
Si Si7 0.196065 0.505124 0.919499
Si Si8 0.425178 0.603047 0.444087
O O1 0.473373 0.331928 0.245934
O O2 0.522129 0.474901 0.118076
O O3 0.449468 0.519235 0.333985
O O4 0.557313 0.431696 0.394033
O O5 0.926623 0.684957 0.902238
O O6 0.046623 0.711391 0.912148
O O7 0.966447 0.837049 0.042446
O O8 0.808971 0.705446 0.784431
O O9 0.782987 0.840867 0.962163
O O10 0.117039 0.433373 0.290895
O O11 0.159715 0.425091 0.016519
O O12 0.382183 0.034274 0.561662
O O13 0.293211 0.034260 0.757628
O O14 0.264499 0.973321 0.493335
O O15 0.151250 0.603095 0.923539
#
# Coordination Sequence:
#
# PCOD8228940 Si02
#       8
#     8   8   4   8   8   8   8   8
#     4  11  24  44  65 100 141 183 234 288 343 421
#     4  12  24  40  69 101 142 186 235 282 349 419
#     4  10  22  36  56  96 132 176 218 274 342 428
#     4  11  22  39  61  93 143 177 223 274 345 421
#     4  11  24  39  68  96 138 180 229 288 359 420
#     4  12  23  42  64 103 139 181 228 288 340 420
#     4  11  24  43  65  99 135 184 230 286 349 425
#     4  11  23  44  69  97 142 192 227 286 361 412
#
# _framework density 22.591626000000002
#
# number of rings (size 3 to 8) (size 9 to 14) (size 15 to 20)
#    0.000    0.800    4.000    4.400    1.867    2.667 
#    0.000    0.000    0.000    0.800    0.000    0.000 
#    0.000    0.000    0.000    0.000    0.000    0.000 
#
# Total GULP energy -743478.138047 kJ/mol
# GULP energy per Si atom -12391.302301 kJ/mol
# Density = 2.254021 g / cm^3
# Si number density = 22.591626 Si / 1000 Ang^3
#
#
#
# Elastic Constant Matrix: (Units=GPa)
#
#
# Indices 1 2 3 4 5 6 
#
# 1 55.2807 39.3741 -1.5265 0.0000 0.0000 0.0000
# 2 39.3741 54.3061 24.3191 0.0000 0.0000 0.0000
# 3 -1.5265 24.3191 113.9619 0.0000 0.0000 0.0000
# 4 0.0000 0.0000 0.0000 30.9178 0.0000 0.0000
# 5 0.0000 0.0000 0.0000 0.0000 33.5358 0.0000
# 6 0.0000 0.0000 0.0000 0.0000 0.0000 27.4802
#
#
#
# Elastic Compliance Matrix: (Units=1/GPa)
#
#
# Indices 1 2 3 4 5 6 
#
# 1 0.043156 -0.034882 0.008022 0.000000 0.000000 0.000000
# 2 -0.034882 0.048554 -0.010829 0.000000 0.000000 0.000000
# 3 0.008022 -0.010829 0.011193 0.000000 0.000000 0.000000
# 4 0.000000 0.000000 0.000000 0.032344 0.000000 0.000000
# 5 0.000000 0.000000 0.000000 0.000000 0.029819 0.000000
# 6 0.000000 0.000000 0.000000 0.000000 0.000000 0.036390
#
#
# Mechanical properties :
#
#
# Convention : Reuss Voigt Hill
#
# Bulk Modulus (GPa) = 36.32982 38.65357 37.49169
# Shear Modulus (GPa) = 17.48199 29.14558 23.31378
#
# Velocity S-wave (km/s) = 2.78479 3.59570 3.21591
# Velocity P-wave (km/s) = 5.14355 5.86392 5.51551
#
# Compressibility (1/GPa) = 0.02752560
#
# Stress axis : x y z
#
# Youngs Moduli (GPa) = 23.17175 20.59553 89.34088
#
# Poissons Ratio (x) = 0.71842 -0.71667
# Poissons Ratio (y) = 0.80828 0.96743
# Poissons Ratio (z) = -0.18588 0.22302
#
# Static dielectric constant tensor:
#      x y z
#    x 4.632340 0.000000 0.000000 
#    y 0.000000 3.979180 0.000000 
#    z 0.000000 0.000000 4.142000 
# 
# 
# High freq. dielectric constant tensor:
#      x y z
#    x 1.898550 0.000000 0.000000 
#    y 0.000000 1.850880 0.000000 
#    z 0.000000 0.000000 1.902090 
# 
# From -- ./inp_files/4794.got.cif
#   From: 2010.03.12/outbox.cif.g09.slc.cpg/sg56_3_cif.got.tgz:4794.got - 2010.04.16 15:33:40.
