data_PCOD8228342
_publ_section_title
;
Structure prediction by ZEFSAII (Michael W. Deem and Ramdas Pophale) SiO2 
 PCOD8228342
Probable space group: P C C N
;
_chemical_formula_sum "Si O2"
_cell_formula_units_Z 64
_cell_length_a 8.624594
_cell_length_b 15.523485
_cell_length_c 23.149595
_cell_angle_alpha 90.000000
_cell_angle_beta 90.000000
_cell_angle_gamma 90.000000
_cell_volume 3099.354719
_symmetry_space_group_name_H-M "P C C N"
_symmetry_group_IT_number 56
_symmetry_cell_setting 'orthorhombic'
loop_
_space_group_symop_operation_xyz
x,y,z
1/2-x,1/2-y,z
1/2+x,-y,1/2-z
-x,1/2+y,1/2-z
-x,-y,-z
1/2+x,1/2+y,-z
1/2-x,y,1/2+z
x,1/2-y,1/2+z
loop_
_atom_site_type_symbol
_atom_site_label
_atom_site_fract_x
_atom_site_fract_y
_atom_site_fract_z
Si Si1 0.657242 0.167779 0.228033
Si Si2 0.808585 0.843726 0.294103
Si Si3 0.790305 0.338247 0.356177
Si Si4 0.256098 0.083684 0.583587
Si Si5 0.260820 0.013941 0.303403
Si Si6 0.717747 0.651777 0.536299
Si Si7 0.484560 0.557965 0.612791
Si Si8 0.476719 0.041461 0.405367
O O1 0.750000 0.250000 0.202126
O O2 0.493162 0.158595 0.196343
O O3 0.624668 0.182036 0.295780
O O4 0.759453 0.081727 0.222329
O O5 0.750000 0.750000 0.273445
O O6 0.732168 0.867994 0.355183
O O7 0.758853 0.914633 0.246800
O O8 0.750000 0.250000 0.388002
O O9 0.633258 0.391514 0.345589
O O10 0.900563 0.382679 0.401638
O O11 0.217209 0.151711 0.533157
O O12 0.112371 0.017392 0.582003
O O13 0.426161 0.040711 0.571144
O O14 0.416418 0.021853 0.340784
O O15 0.114083 0.021825 0.344978
O O16 0.750000 0.750000 0.557784
O O17 0.555348 0.621212 0.563870
O O18 0.841453 0.577586 0.554121
#
# Coordination Sequence:
#
# PCOD8228342 Si02
#       8
#     8   8   8   8   8   8   8   8
#     4  11  25  40  61  92 134 173 210 257 317 388
#     4  12  27  40  66  99 134 175 213 258 323 393
#     4  10  20  35  58  91 126 160 205 261 318 370
#     4  11  23  43  64  89 129 171 214 256 323 390
#     4  11  23  41  63  91 130 168 213 260 319 379
#     4  11  23  41  64  93 124 160 214 277 326 379
#     4  10  22  39  66  88 121 166 213 264 316 382
#     4  10  22  39  65  92 118 169 215 266 318 380
#
# _framework density 20.649459
#
# number of rings (size 3 to 8) (size 9 to 14) (size 15 to 20)
#    0.000    1.250    2.500    3.375    5.250    2.000 
#    0.000    0.000    0.000    0.750    0.000    0.000 
#    0.000    0.000    0.000    0.000    0.000    0.000 
#
# Total GULP energy -793413.600061 kJ/mol
# GULP energy per Si atom -12397.087501 kJ/mol
# Density = 2.060246 g / cm^3
# Si number density = 20.649459 Si / 1000 Ang^3
#
#
#
# Elastic Constant Matrix: (Units=GPa)
#
#
# Indices 1 2 3 4 5 6 
#
# 1 83.8809 25.2232 11.7709 0.0000 0.0000 0.0000
# 2 25.2232 130.4229 22.0843 0.0000 0.0000 0.0000
# 3 11.7709 22.0843 81.5771 0.0000 0.0000 0.0000
# 4 0.0000 0.0000 0.0000 15.1895 0.0000 0.0000
# 5 0.0000 0.0000 0.0000 0.0000 13.1325 0.0000
# 6 0.0000 0.0000 0.0000 0.0000 0.0000 16.8424
#
#
#
# Elastic Compliance Matrix: (Units=1/GPa)
#
#
# Indices 1 2 3 4 5 6 
#
# 1 0.012775 -0.002262 -0.001231 0.000000 0.000000 0.000000
# 2 -0.002262 0.008436 -0.001957 0.000000 0.000000 0.000000
# 3 -0.001231 -0.001957 0.012966 0.000000 0.000000 0.000000
# 4 0.000000 0.000000 0.000000 0.065835 0.000000 0.000000
# 5 0.000000 0.000000 0.000000 0.000000 0.076147 0.000000
# 6 0.000000 0.000000 0.000000 0.000000 0.000000 0.059374
#
#
# Mechanical properties :
#
#
# Convention : Reuss Voigt Hill
#
# Bulk Modulus (GPa) = 42.96291 46.00417 44.48354
# Shear Modulus (GPa) = 19.67016 24.81971 22.24493
#
# Velocity S-wave (km/s) = 3.08973 3.47068 3.28573
# Velocity P-wave (km/s) = 5.79479 6.19579 5.99864
#
# Compressibility (1/GPa) = 0.02327589
#
# Stress axis : x y z
#
# Youngs Moduli (GPa) = 78.28016 118.53534 77.12559
#
# Poissons Ratio (x) = 0.26814 0.09493
# Poissons Ratio (y) = 0.17708 0.15097
# Poissons Ratio (z) = 0.09635 0.23203
#
# Static dielectric constant tensor:
#      x y z
#    x 3.969730 0.000000 0.000000 
#    y 0.000000 3.870440 0.000000 
#    z 0.000000 0.000000 3.496210 
# 
# 
# High freq. dielectric constant tensor:
#      x y z
#    x 1.814850 0.000000 0.000000 
#    y 0.000000 1.816200 0.000000 
#    z 0.000000 0.000000 1.791760 
# 
# From -- ./inp_files/20663.got.cif
#   From: 2010.03.12/outbox.cif.g09.slc.cpg/sg56_11_cif.got.tgz:20663.got - 2010.04.16 15:33:40.
