data_PCOD8228055
_publ_section_title
;
Structure prediction by ZEFSAII (Michael W. Deem and Ramdas Pophale) SiO2 
 PCOD8228055
Probable space group: P C C N
;
_chemical_formula_sum "Si O2"
_cell_formula_units_Z 48
_cell_length_a 13.722137
_cell_length_b 20.723586
_cell_length_c 8.818595
_cell_angle_alpha 90.000000
_cell_angle_beta 90.000000
_cell_angle_gamma 90.000000
_cell_volume 2507.760494
_symmetry_space_group_name_H-M "P C C N"
_symmetry_group_IT_number 56
_symmetry_cell_setting 'orthorhombic'
loop_
_space_group_symop_operation_xyz
x,y,z
1/2-x,1/2-y,z
1/2+x,-y,1/2-z
-x,1/2+y,1/2-z
-x,-y,-z
1/2+x,1/2+y,-z
1/2-x,y,1/2+z
x,1/2-y,1/2+z
loop_
_atom_site_type_symbol
_atom_site_label
_atom_site_fract_x
_atom_site_fract_y
_atom_site_fract_z
Si Si1 0.250000 0.250000 0.951334
Si Si2 0.689424 0.050780 0.044510
Si Si3 0.653809 0.666599 0.296166
Si Si4 0.661967 0.526886 0.247302
Si Si5 0.177222 0.837790 0.052058
Si Si6 0.974896 0.406032 0.274624
Si Si7 0.250000 0.750000 0.810023
O O1 0.325564 0.289100 0.848892
O O2 0.186722 0.299020 0.050741
O O3 0.602574 0.064630 0.159084
O O4 0.775884 0.013736 0.129744
O O5 0.729660 0.117427 0.977848
O O6 0.649614 0.008577 0.907308
O O7 0.710363 0.597681 0.277400
O O8 0.537278 0.652309 0.302760
O O9 0.552390 0.537827 0.179450
O O10 0.079131 0.880007 0.073245
O O11 0.191991 0.801678 0.211419
O O12 0.169847 0.786316 0.915625
#
# Coordination Sequence:
#
# PCOD8228055 Si02
#       7
#     4   8   8   8   8   8   4
#     4  10  18  44  64  84 126 164 192 266 290 360
#     4  12  20  43  63  87 131 158 196 267 302 363
#     4   9  22  37  64  90 118 160 208 238 313 356
#     4  10  23  38  65  88 123 159 204 249 313 367
#     4  11  21  40  61  88 121 164 202 246 310 350
#     4  10  23  38  60  98 115 160 211 240 311 370
#     4  10  22  38  64  80 120 170 194 246 304 364
#
# _framework density 19.140581999999998
#
# number of rings (size 3 to 8) (size 9 to 14) (size 15 to 20)
#    1.000    0.667    3.333    1.500    0.000    2.000 
#    0.000    0.000    3.667    0.000    0.000    0.000 
#    0.000    0.000    0.000    0.000    0.000    0.000 
#
# Total GULP energy -594905.803999 kJ/mol
# GULP energy per Si atom -12393.870917 kJ/mol
# Density = 1.909702 g / cm^3
# Si number density = 19.140582 Si / 1000 Ang^3
#
#
#
# Elastic Constant Matrix: (Units=GPa)
#
#
# Indices 1 2 3 4 5 6 
#
# 1 114.2563 40.1791 36.0792 0.0000 0.0000 0.0000
# 2 40.1791 102.1567 49.9953 0.0000 0.0000 0.0000
# 3 36.0792 49.9953 94.4423 0.0000 0.0000 0.0000
# 4 0.0000 0.0000 0.0000 20.1416 0.0000 0.0000
# 5 0.0000 0.0000 0.0000 0.0000 6.0018 0.0000
# 6 0.0000 0.0000 0.0000 0.0000 0.0000 31.5168
#
#
#
# Elastic Compliance Matrix: (Units=1/GPa)
#
#
# Indices 1 2 3 4 5 6 
#
# 1 0.010571 -0.002944 -0.002480 0.000000 0.000000 0.000000
# 2 -0.002944 0.014032 -0.006303 0.000000 0.000000 0.000000
# 3 -0.002480 -0.006303 0.014873 0.000000 0.000000 0.000000
# 4 0.000000 0.000000 0.000000 0.049649 0.000000 0.000000
# 5 0.000000 0.000000 0.000000 0.000000 0.166615 0.000000
# 6 0.000000 0.000000 0.000000 0.000000 0.000000 0.031729
#
#
# Mechanical properties :
#
#
# Convention : Reuss Voigt Hill
#
# Bulk Modulus (GPa) = 62.41896 62.59584 62.50740
# Shear Modulus (GPa) = 15.80967 23.83881 19.82424
#
# Velocity S-wave (km/s) = 2.87710 3.53293 3.22175
# Velocity P-wave (km/s) = 6.61200 7.02968 6.82403
#
# Compressibility (1/GPa) = 0.01602077
#
# Stress axis : x y z
#
# Youngs Moduli (GPa) = 94.60247 71.26789 67.23763
#
# Poissons Ratio (x) = 0.20980 0.16673
# Poissons Ratio (y) = 0.27850 0.42382
# Poissons Ratio (z) = 0.23459 0.44922
#
# Static dielectric constant tensor:
#      x y z
#    x 3.311100 0.000000 0.000000 
#    y 0.000000 3.748300 0.000000 
#    z 0.000000 0.000000 3.452920 
# 
# 
# High freq. dielectric constant tensor:
#      x y z
#    x 1.724690 0.000000 0.000000 
#    y 0.000000 1.761450 0.000000 
#    z 0.000000 0.000000 1.744480 
# 
# From -- ./inp_files/3496.got.cif
#   From: 2010.03.12/outbox.cif.g09.slc.cpg/sg56_2_cif.got.tgz:3496.got - 2010.04.16 15:33:40.
