data_PCOD8228801
_publ_section_title
;
Structure prediction by ZEFSAII (Michael W. Deem and Ramdas Pophale) SiO2 
 PCOD8228801
Probable space group: P C C N
;
_chemical_formula_sum "Si O2"
_cell_formula_units_Z 48
_cell_length_a 8.931374
_cell_length_b 8.741584
_cell_length_c 28.426362
_cell_angle_alpha 90.000000
_cell_angle_beta 90.000000
_cell_angle_gamma 90.000000
_cell_volume 2219.369908
_symmetry_space_group_name_H-M "P C C N"
_symmetry_group_IT_number 56
_symmetry_cell_setting 'orthorhombic'
loop_
_space_group_symop_operation_xyz
x,y,z
1/2-x,1/2-y,z
1/2+x,-y,1/2-z
-x,1/2+y,1/2-z
-x,-y,-z
1/2+x,1/2+y,-z
1/2-x,y,1/2+z
x,1/2-y,1/2+z
loop_
_atom_site_type_symbol
_atom_site_label
_atom_site_fract_x
_atom_site_fract_y
_atom_site_fract_z
Si Si1 0.426489 0.263968 0.882991
Si Si2 0.918714 0.262204 0.223890
Si Si3 0.589480 0.311778 0.473518
Si Si4 0.077148 0.962632 0.188232
Si Si5 0.410382 0.031654 0.154624
Si Si6 0.102018 0.342840 0.055370
O O1 0.250000 0.250000 0.876904
O O2 0.469465 0.263984 0.937844
O O3 0.477856 0.420776 0.857503
O O4 0.515108 0.127315 0.858344
O O5 0.750000 0.250000 0.204608
O O6 0.915473 0.312522 0.278556
O O7 0.001501 0.397843 0.197558
O O8 0.004169 0.102314 0.217128
O O9 0.750000 0.250000 0.461281
O O10 0.612799 0.490875 0.466978
O O11 0.536712 0.267037 0.526539
O O12 0.239560 0.009983 0.169860
O O13 0.424559 0.150931 0.111208
O O14 0.250000 0.250000 0.043430
#
# Coordination Sequence:
#
# PCOD8228801 Si02
#       6
#     8   8   8   8   8   8
#     4  11  22  40  65  92 125 166 213 268 325 389
#     4  12  25  40  62  93 125 163 215 266 321 387
#     4  10  22  39  63  93 127 167 214 267 328 393
#     4  12  24  42  66  91 126 170 212 264 326 387
#     4  11  24  43  64  91 131 172 216 268 326 386
#     4  10  21  40  62  90 126 167 216 268 322 386
#
# _framework density 21.627759000000001
#
# number of rings (size 3 to 8) (size 9 to 14) (size 15 to 20)
#    0.000    1.000    0.000    8.500    0.000    2.667 
#    0.000    6.667    0.000    0.000    0.000    0.000 
#    0.000    0.000    0.000    0.000    0.000    0.000 
#
# Total GULP energy -595194.203416 kJ/mol
# GULP energy per Si atom -12399.879238 kJ/mol
# Density = 2.157853 g / cm^3
# Si number density = 21.627759 Si / 1000 Ang^3
#
#
#
# Elastic Constant Matrix: (Units=GPa)
#
#
# Indices 1 2 3 4 5 6 
#
# 1 160.3655 21.2397 52.6271 0.0000 0.0000 0.0000
# 2 21.2397 44.3160 35.1887 0.0000 0.0000 0.0000
# 3 52.6271 35.1887 131.6917 0.0000 0.0000 0.0000
# 4 0.0000 0.0000 0.0000 3.6641 0.0000 0.0000
# 5 0.0000 0.0000 0.0000 0.0000 69.1580 0.0000
# 6 0.0000 0.0000 0.0000 0.0000 0.0000 40.5239
#
#
#
# Elastic Compliance Matrix: (Units=1/GPa)
#
#
# Indices 1 2 3 4 5 6 
#
# 1 0.007254 -0.001491 -0.002500 0.000000 0.000000 0.000000
# 2 -0.001491 0.028949 -0.007139 0.000000 0.000000 0.000000
# 3 -0.002500 -0.007139 0.010500 0.000000 0.000000 0.000000
# 4 0.000000 0.000000 0.000000 0.272919 0.000000 0.000000
# 5 0.000000 0.000000 0.000000 0.000000 0.014460 0.000000
# 6 0.000000 0.000000 0.000000 0.000000 0.000000 0.024677
#
#
# Mechanical properties :
#
#
# Convention : Reuss Voigt Hill
#
# Bulk Modulus (GPa) = 40.91455 61.60937 51.26196
# Shear Modulus (GPa) = 12.84794 37.82373 25.33583
#
# Velocity S-wave (km/s) = 2.43995 4.18646 3.42636
# Velocity P-wave (km/s) = 5.18619 7.20533 6.27747
#
# Compressibility (1/GPa) = 0.02444118
#
# Stress axis : x y z
#
# Youngs Moduli (GPa) = 137.85897 34.54369 95.23489
#
# Poissons Ratio (x) = 0.05151 0.23812
# Poissons Ratio (y) = 0.20558 0.67992
# Poissons Ratio (z) = 0.34469 0.24662
#
# Static dielectric constant tensor:
#      x y z
#    x 4.025230 0.000000 0.000000 
#    y 0.000000 3.869700 0.000000 
#    z 0.000000 0.000000 4.250270 
# 
# 
# High freq. dielectric constant tensor:
#      x y z
#    x 1.857420 0.000000 0.000000 
#    y 0.000000 1.849560 0.000000 
#    z 0.000000 0.000000 1.863250 
# 
# From -- ./inp_files/23241.got.cif
#   From: 2010.03.12/outbox.cif.g09.slc.cpg/sg56_12_cif.got.tgz:23241.got - 2010.04.16 15:33:40.
