data_PCOD8228389
_publ_section_title
;
Structure prediction by ZEFSAII (Michael W. Deem and Ramdas Pophale) SiO2 
 PCOD8228389
Probable space group: P C C N
;
_chemical_formula_sum "Si O2"
_cell_formula_units_Z 48
_cell_length_a 14.493582
_cell_length_b 8.900008
_cell_length_c 17.909582
_cell_angle_alpha 90.000000
_cell_angle_beta 90.000000
_cell_angle_gamma 90.000000
_cell_volume 2310.210635
_symmetry_space_group_name_H-M "P C C N"
_symmetry_group_IT_number 56
_symmetry_cell_setting 'orthorhombic'
loop_
_space_group_symop_operation_xyz
x,y,z
1/2-x,1/2-y,z
1/2+x,-y,1/2-z
-x,1/2+y,1/2-z
-x,-y,-z
1/2+x,1/2+y,-z
1/2-x,y,1/2+z
x,1/2-y,1/2+z
loop_
_atom_site_type_symbol
_atom_site_label
_atom_site_fract_x
_atom_site_fract_y
_atom_site_fract_z
Si Si1 0.022691 0.738491 0.702169
Si Si2 0.023501 0.419072 0.657922
Si Si3 0.271193 0.075752 0.667837
Si Si4 0.058746 0.661693 0.926934
Si Si5 0.899186 0.443424 0.919042
Si Si6 0.682576 0.124396 0.204379
O O1 0.975776 0.579116 0.678311
O O2 0.032946 0.846356 0.632149
O O3 0.125319 0.707365 0.731189
O O4 0.963429 0.817055 0.767382
O O5 0.128065 0.447611 0.629710
O O6 0.958184 0.335590 0.597714
O O7 0.250000 0.250000 0.670019
O O8 0.198502 0.984039 0.617348
O O9 0.267509 0.014511 0.753768
O O10 0.116518 0.572003 0.863306
O O11 0.956091 0.594706 0.936357
O O12 0.115574 0.649688 0.004080
O O13 0.750000 0.250000 0.170236
#
# Coordination Sequence:
#
# PCOD8228389 Si02
#       6
#     8   8   8   8   8   8
#     4  10  20  36  64  87 122 155 209 249 309 361
#     4  10  21  37  62  94 117 156 210 257 296 376
#     4  11  21  35  64  89 116 160 211 248 302 360
#     4  10  23  40  60  87 125 162 202 246 320 365
#     4  11  21  40  61  86 128 167 193 258 312 365
#     4  10  20  39  58  88 118 152 203 257 296 363
#
# _framework density 20.777325999999999
#
# number of rings (size 3 to 8) (size 9 to 14) (size 15 to 20)
#    0.000    1.667    3.333    3.000    0.000    0.667 
#    6.000    0.833    3.667    0.000    0.000    0.000 
#    0.000    0.000    0.000    0.000    0.000    0.000 
#
# Total GULP energy -594985.779814 kJ/mol
# GULP energy per Si atom -12395.537079 kJ/mol
# Density = 2.073004 g / cm^3
# Si number density = 20.777326 Si / 1000 Ang^3
#
#
#
# Elastic Constant Matrix: (Units=GPa)
#
#
# Indices 1 2 3 4 5 6 
#
# 1 76.9503 28.4468 49.3031 0.0000 0.0000 0.0000
# 2 28.4468 105.9475 38.0430 0.0000 0.0000 0.0000
# 3 49.3031 38.0430 117.0088 0.0000 0.0000 0.0000
# 4 0.0000 0.0000 0.0000 27.4046 0.0000 0.0000
# 5 0.0000 0.0000 0.0000 0.0000 27.2249 0.0000
# 6 0.0000 0.0000 0.0000 0.0000 0.0000 26.4282
#
#
#
# Elastic Compliance Matrix: (Units=1/GPa)
#
#
# Indices 1 2 3 4 5 6 
#
# 1 0.018339 -0.002433 -0.006936 0.000000 0.000000 0.000000
# 2 -0.002433 0.011009 -0.002554 0.000000 0.000000 0.000000
# 3 -0.006936 -0.002554 0.012299 0.000000 0.000000 0.000000
# 4 0.000000 0.000000 0.000000 0.036490 0.000000 0.000000
# 5 0.000000 0.000000 0.000000 0.000000 0.036731 0.000000
# 6 0.000000 0.000000 0.000000 0.000000 0.000000 0.037838
#
#
# Mechanical properties :
#
#
# Convention : Reuss Voigt Hill
#
# Bulk Modulus (GPa) = 56.17891 59.05471 57.61681
# Shear Modulus (GPa) = 27.39904 28.48578 27.94241
#
# Velocity S-wave (km/s) = 3.63533 3.70672 3.67120
# Velocity P-wave (km/s) = 6.68716 6.84135 6.76469
#
# Compressibility (1/GPa) = 0.01780027
#
# Stress axis : x y z
#
# Youngs Moduli (GPa) = 54.52827 90.83401 81.30464
#
# Poissons Ratio (x) = 0.22104 0.56395
# Poissons Ratio (y) = 0.13269 0.20765
# Poissons Ratio (z) = 0.37822 0.23199
#
# Static dielectric constant tensor:
#      x y z
#    x 3.631320 0.000000 0.000000 
#    y 0.000000 3.992060 0.000000 
#    z 0.000000 0.000000 3.652290 
# 
# 
# High freq. dielectric constant tensor:
#      x y z
#    x 1.801000 0.000000 0.000000 
#    y 0.000000 1.816820 0.000000 
#    z 0.000000 0.000000 1.792320 
# 
# From -- ./inp_files/14809.got.cif
#   From: 2010.03.12/outbox.cif.g09.slc.cpg/sg56_8_cif.got.tgz:14809.got - 2010.04.16 15:33:40.
