data_PCOD8228018
_publ_section_title
;
Structure prediction by ZEFSAII (Michael W. Deem and Ramdas Pophale) SiO2 
 PCOD8228018
Probable space group: P C C N
;
_chemical_formula_sum "Si O2"
_cell_formula_units_Z 64
_cell_length_a 8.383515
_cell_length_b 22.752534
_cell_length_c 15.649488
_cell_angle_alpha 90.000000
_cell_angle_beta 90.000000
_cell_angle_gamma 90.000000
_cell_volume 2985.080526
_symmetry_space_group_name_H-M "P C C N"
_symmetry_group_IT_number 56
_symmetry_cell_setting 'orthorhombic'
loop_
_space_group_symop_operation_xyz
x,y,z
1/2-x,1/2-y,z
1/2+x,-y,1/2-z
-x,1/2+y,1/2-z
-x,-y,-z
1/2+x,1/2+y,-z
1/2-x,y,1/2+z
x,1/2-y,1/2+z
loop_
_atom_site_type_symbol
_atom_site_label
_atom_site_fract_x
_atom_site_fract_y
_atom_site_fract_z
Si Si1 0.431127 0.769712 0.342651
Si Si2 0.054419 0.964253 0.872419
Si Si3 0.849229 0.803660 0.985804
Si Si4 0.029181 0.435254 0.927210
Si Si5 0.061591 0.123599 0.255751
Si Si6 0.112440 0.076637 0.957309
Si Si7 0.085963 0.938718 0.395666
Si Si8 0.866616 0.840888 0.328391
O O1 0.250000 0.750000 0.346492
O O2 0.489233 0.781984 0.439647
O O3 0.444534 0.827479 0.283809
O O4 0.544815 0.719428 0.303369
O O5 0.958715 0.939600 0.791297
O O6 0.235979 0.943761 0.860862
O O7 0.040764 0.035945 0.880401
O O8 0.983163 0.935145 0.956676
O O9 0.750000 0.750000 0.028564
O O10 0.736544 0.834128 0.914630
O O11 0.894278 0.852468 0.057874
O O12 0.204512 0.442082 0.968661
O O13 0.989415 0.499557 0.888489
O O14 0.020081 0.384874 0.855306
O O15 0.910045 0.418292 0.004234
O O16 0.246294 0.142743 0.248293
O O17 0.997361 0.891373 0.337597
#
# Coordination Sequence:
#
# PCOD8228018 Si02
#       8
#     8   8   8   8   8   8   8   8
#     4  10  20  36  62  91 117 154 205 256 303 364
#     4  10  20  33  60  85 125 154 203 252 312 356
#     4   9  17  32  57  85 114 154 203 246 292 360
#     4  10  22  37  60  84 125 158 204 252 313 362
#     4  11  21  39  59  89 121 167 202 253 310 378
#     4  10  18  37  55  86 115 159 199 252 296 367
#     4  10  20  37  59  93 117 161 198 256 303 363
#     4  10  19  35  63  83 119 155 210 238 297 372
#
# _framework density 21.439957
#
# number of rings (size 3 to 8) (size 9 to 14) (size 15 to 20)
#    0.000    2.000    3.750    1.875    0.000    2.000 
#    0.000    3.750    0.000    2.250    0.000    0.000 
#    0.000    0.000    0.000    0.000    0.000    0.000 
#
# Total GULP energy -793259.200942 kJ/mol
# GULP energy per Si atom -12394.675015 kJ/mol
# Density = 2.139116 g / cm^3
# Si number density = 21.439957 Si / 1000 Ang^3
#
#
#
# Elastic Constant Matrix: (Units=GPa)
#
#
# Indices 1 2 3 4 5 6 
#
# 1 84.0403 34.8484 20.4874 0.0000 0.0000 0.0000
# 2 34.8484 144.4995 36.9388 0.0000 0.0000 0.0000
# 3 20.4874 36.9388 40.6520 0.0000 0.0000 0.0000
# 4 0.0000 0.0000 0.0000 24.9259 0.0000 0.0000
# 5 0.0000 0.0000 0.0000 0.0000 16.7815 0.0000
# 6 0.0000 0.0000 0.0000 0.0000 0.0000 32.8885
#
#
#
# Elastic Compliance Matrix: (Units=1/GPa)
#
#
# Indices 1 2 3 4 5 6 
#
# 1 0.014017 -0.002051 -0.005201 0.000000 0.000000 0.000000
# 2 -0.002051 0.009314 -0.007430 0.000000 0.000000 0.000000
# 3 -0.005201 -0.007430 0.033971 0.000000 0.000000 0.000000
# 4 0.000000 0.000000 0.000000 0.040119 0.000000 0.000000
# 5 0.000000 0.000000 0.000000 0.000000 0.059590 0.000000
# 6 0.000000 0.000000 0.000000 0.000000 0.000000 0.030406
#
#
# Mechanical properties :
#
#
# Convention : Reuss Voigt Hill
#
# Bulk Modulus (GPa) = 35.79125 50.41565 43.10345
# Shear Modulus (GPa) = 22.11473 26.71366 24.41419
#
# Velocity S-wave (km/s) = 3.21514 3.53367 3.37816
# Velocity P-wave (km/s) = 5.52384 6.34152 5.94675
#
# Compressibility (1/GPa) = 0.02793979
#
# Stress axis : x y z
#
# Youngs Moduli (GPa) = 71.34005 107.36036 29.43667
#
# Poissons Ratio (x) = 0.22020 0.15309
# Poissons Ratio (y) = 0.14632 0.21871
# Poissons Ratio (z) = 0.37101 0.79768
#
# Static dielectric constant tensor:
#      x y z
#    x 3.861610 0.000000 0.000000 
#    y 0.000000 4.292430 0.000000 
#    z 0.000000 0.000000 3.394240 
# 
# 
# High freq. dielectric constant tensor:
#      x y z
#    x 1.833410 0.000000 0.000000 
#    y 0.000000 1.856330 0.000000 
#    z 0.000000 0.000000 1.793350 
# 
# From -- ./inp_files/15269.got.cif
#   From: 2010.03.12/outbox.cif.g09.slc.cpg/sg56_8_cif.got.tgz:15269.got - 2010.04.16 15:33:40.
