data_PCOD8228146
_publ_section_title
;
Structure prediction by ZEFSAII (Michael W. Deem and Ramdas Pophale) SiO2 
 PCOD8228146
Probable space group: P C C N
;
_chemical_formula_sum "Si O2"
_cell_formula_units_Z 56
_cell_length_a 9.907989
_cell_length_b 13.766123
_cell_length_c 20.327700
_cell_angle_alpha 90.000000
_cell_angle_beta 90.000000
_cell_angle_gamma 90.000000
_cell_volume 2772.588414
_symmetry_space_group_name_H-M "P C C N"
_symmetry_group_IT_number 56
_symmetry_cell_setting 'orthorhombic'
loop_
_space_group_symop_operation_xyz
x,y,z
1/2-x,1/2-y,z
1/2+x,-y,1/2-z
-x,1/2+y,1/2-z
-x,-y,-z
1/2+x,1/2+y,-z
1/2-x,y,1/2+z
x,1/2-y,1/2+z
loop_
_atom_site_type_symbol
_atom_site_label
_atom_site_fract_x
_atom_site_fract_y
_atom_site_fract_z
Si Si1 0.500000 0.500000 0.835637
Si Si2 0.250000 0.250000 0.849852
Si Si3 0.496429 0.345049 0.725960
Si Si4 0.996429 0.654951 0.225960
Si Si5 0.780373 0.561715 0.424641
Si Si6 0.500000 1.000000 0.875377
Si Si7 0.780374 0.561715 0.575359
Si Si8 0.750000 0.750000 0.849852
O O1 0.468394 0.406500 0.791365
O O2 0.531607 0.593500 0.791365
O O3 0.631246 0.485112 0.882115
O O4 0.368755 0.514888 0.882115
O O5 0.142414 0.303341 0.803483
O O6 0.314345 0.330619 0.898182
O O7 0.583275 0.250000 0.750000
O O8 0.563368 0.414113 0.670911
O O9 0.357586 0.303341 0.696517
O O10 0.063368 0.585887 0.170911
O O11 0.621185 0.538069 0.419909
O O12 0.824811 0.554182 0.500000
O O13 0.814344 0.669381 0.398182
O O14 0.378815 0.038069 0.919909
#
# Coordination Sequence:
#
# PCOD8228146 Si02
#       8
#     8   4   8   8   8   8   8   4
#     4  11  23  34  62  94 119 161 190 254 316 343
#     4  10  20  36  66  90 111 157 212 258 286 345
#     4  10  19  35  61  90 120 143 200 260 300 349
#     4  10  19  35  61  90 120 143 200 260 300 349
#     4  11  22  40  60  88 124 162 205 244 293 363
#     4   9  23  36  62  90 117 161 196 250 310 347
#     4  11  22  40  60  88 124 162 205 244 293 363
#     4  10  20  36  66  90 111 157 212 258 286 345
#
# _framework density 20.197731000000001
#
# number of rings (size 3 to 8) (size 9 to 14) (size 15 to 20)
#    0.000    1.714    2.857    1.714    4.000    3.429 
#    0.000    2.857    0.000    1.714    0.000    0.000 
#    0.000    0.000    0.000    0.000    0.000    0.000 
#
# Total GULP energy -693808.176157 kJ/mol
# GULP energy per Si atom -12389.431717 kJ/mol
# Density = 2.015176 g / cm^3
# Si number density = 20.197731 Si / 1000 Ang^3
#
#
#
# Elastic Constant Matrix: (Units=GPa)
#
#
# Indices 1 2 3 4 5 6 
#
# 1 69.7101 18.5696 37.5153 0.0000 0.0000 0.0000
# 2 18.5696 115.7506 54.6524 0.0000 0.0000 0.0000
# 3 37.5153 54.6524 147.0937 0.0000 0.0000 0.0000
# 4 0.0000 0.0000 0.0000 19.3239 0.0000 0.0000
# 5 0.0000 0.0000 0.0000 0.0000 20.7674 0.0000
# 6 0.0000 0.0000 0.0000 0.0000 0.0000 25.8156
#
#
#
# Elastic Compliance Matrix: (Units=1/GPa)
#
#
# Indices 1 2 3 4 5 6 
#
# 1 0.016690 -0.000810 -0.003956 0.000000 0.000000 0.000000
# 2 -0.000810 0.010517 -0.003701 0.000000 0.000000 0.000000
# 3 -0.003956 -0.003701 0.009182 0.000000 0.000000 0.000000
# 4 0.000000 0.000000 0.000000 0.051749 0.000000 0.000000
# 5 0.000000 0.000000 0.000000 0.000000 0.048152 0.000000
# 6 0.000000 0.000000 0.000000 0.000000 0.000000 0.038736
#
#
# Mechanical properties :
#
#
# Convention : Reuss Voigt Hill
#
# Bulk Modulus (GPa) = 51.39855 61.55876 56.47865
# Shear Modulus (GPa) = 25.19595 27.96919 26.58257
#
# Velocity S-wave (km/s) = 3.53578 3.72529 3.63177
# Velocity P-wave (km/s) = 6.49399 7.00342 6.75351
#
# Compressibility (1/GPa) = 0.01945580
#
# Stress axis : x y z
#
# Youngs Moduli (GPa) = 59.91742 95.08803 108.90488
#
# Poissons Ratio (x) = 0.07700 0.43080
# Poissons Ratio (y) = 0.04852 0.40304
# Poissons Ratio (z) = 0.23702 0.35191
#
# Static dielectric constant tensor:
#      x y z
#    x 3.245630 0.000000 0.000000 
#    y 0.000000 4.408460 0.000000 
#    z 0.000000 0.000000 3.794640 
# 
# 
# High freq. dielectric constant tensor:
#      x y z
#    x 1.750590 0.000000 0.000000 
#    y 0.000000 1.796590 0.000000 
#    z 0.000000 0.000000 1.802090 
# 
# From -- ./inp_files/18281.got.cif
#   From: 2010.03.12/outbox.cif.g09.slc.cpg/sg56_10_cif.got.tgz:18281.got - 2010.04.16 15:33:40.
