data_PCOD8228695
_publ_section_title
;
Structure prediction by ZEFSAII (Michael W. Deem and Ramdas Pophale) SiO2 
 PCOD8228695
Probable space group: P C C N
;
_chemical_formula_sum "Si O2"
_cell_formula_units_Z 52
_cell_length_a 16.779618
_cell_length_b 7.311249
_cell_length_c 20.113907
_cell_angle_alpha 90.000000
_cell_angle_beta 90.000000
_cell_angle_gamma 90.000000
_cell_volume 2467.573413
_symmetry_space_group_name_H-M "P C C N"
_symmetry_group_IT_number 56
_symmetry_cell_setting 'orthorhombic'
loop_
_space_group_symop_operation_xyz
x,y,z
1/2-x,1/2-y,z
1/2+x,-y,1/2-z
-x,1/2+y,1/2-z
-x,-y,-z
1/2+x,1/2+y,-z
1/2-x,y,1/2+z
x,1/2-y,1/2+z
loop_
_atom_site_type_symbol
_atom_site_label
_atom_site_fract_x
_atom_site_fract_y
_atom_site_fract_z
Si Si1 0.433646 0.065035 0.827331
Si Si2 0.750000 0.250000 0.902479
Si Si3 0.820880 0.613169 0.440124
Si Si4 0.889078 0.162634 0.166592
Si Si5 0.336322 0.160269 0.412689
Si Si6 0.393935 0.851688 0.184543
Si Si7 0.064376 0.064544 0.177355
O O1 0.403556 0.222054 0.876125
O O2 0.529500 0.023884 0.837761
O O3 0.420512 0.141110 0.751924
O O4 0.381716 0.882292 0.841889
O O5 0.706782 0.401775 0.946744
O O6 0.685058 0.134448 0.860005
O O7 0.750000 0.750000 0.428545
O O8 0.863381 0.655514 0.510182
O O9 0.874673 0.647532 0.375715
O O10 0.866229 0.100022 0.241048
O O11 0.978938 0.112642 0.149098
O O12 0.832925 0.046728 0.116859
O O13 0.250000 0.250000 0.404013
O O14 0.430011 0.651106 0.182492
#
# Coordination Sequence:
#
# PCOD8228695 Si02
#       7
#     8   4   8   8   8   8   8
#     4  10  21  38  64  96 123 159 208 265 310 368
#     4  10  22  40  62  88 122 168 202 266 302 368
#     4  10  24  41  61  87 126 167 213 250 306 378
#     4  10  21  37  64  91 123 161 200 258 319 369
#     4  11  25  42  59  87 130 165 205 257 306 376
#     4   9  19  38  63  94 127 152 211 261 309 372
#     4   9  19  39  63  91 125 161 204 262 311 362
#
# _framework density 21.073335
#
# number of rings (size 3 to 8) (size 9 to 14) (size 15 to 20)
#    0.000    2.154    1.538    0.000    4.308    8.000 
#    0.000    0.769    0.000    0.000    0.000    0.000 
#    0.000    0.000    0.000    0.000    0.000    0.000 
#
# Total GULP energy -644583.145542 kJ/mol
# GULP energy per Si atom -12395.829722 kJ/mol
# Density = 2.102537 g / cm^3
# Si number density = 21.073335 Si / 1000 Ang^3
#
#
#
# Elastic Constant Matrix: (Units=GPa)
#
#
# Indices 1 2 3 4 5 6 
#
# 1 75.5278 23.2639 62.2737 0.0000 0.0000 0.0000
# 2 23.2639 62.9883 44.3827 0.0000 0.0000 0.0000
# 3 62.2737 44.3827 138.3567 0.0000 0.0000 0.0000
# 4 0.0000 0.0000 0.0000 32.5388 0.0000 0.0000
# 5 0.0000 0.0000 0.0000 0.0000 0.3293 0.0000
# 6 0.0000 0.0000 0.0000 0.0000 0.0000 37.4325
#
#
#
# Elastic Compliance Matrix: (Units=1/GPa)
#
#
# Indices 1 2 3 4 5 6 
#
# 1 0.021152 -0.001426 -0.009063 0.000000 0.000000 0.000000
# 2 -0.001426 0.020609 -0.005969 0.000000 0.000000 0.000000
# 3 -0.009063 -0.005969 0.013222 0.000000 0.000000 0.000000
# 4 0.000000 0.000000 0.000000 0.030733 0.000000 0.000000
# 5 0.000000 0.000000 0.000000 0.000000 3.037040 0.000000
# 6 0.000000 0.000000 0.000000 0.000000 0.000000 0.026715
#
#
# Mechanical properties :
#
#
# Convention : Reuss Voigt Hill
#
# Bulk Modulus (GPa) = 45.31886 59.63482 52.47684
# Shear Modulus (GPa) = 1.56753 23.85694 12.71223
#
# Velocity S-wave (km/s) = 0.86340 3.36831 2.45875
# Velocity P-wave (km/s) = 4.74826 6.59450 5.74602
#
# Compressibility (1/GPa) = 0.02206587
#
# Stress axis : x y z
#
# Youngs Moduli (GPa) = 47.27701 48.52348 75.63403
#
# Poissons Ratio (x) = 0.06921 0.68546
# Poissons Ratio (y) = 0.06743 0.45145
# Poissons Ratio (z) = 0.42846 0.28963
#
# Static dielectric constant tensor:
#      x y z
#    x 3.915730 0.000000 0.000000 
#    y 0.000000 3.980430 0.000000 
#    z 0.000000 0.000000 3.922400 
# 
# 
# High freq. dielectric constant tensor:
#      x y z
#    x 1.815960 0.000000 0.000000 
#    y 0.000000 1.834780 0.000000 
#    z 0.000000 0.000000 1.813300 
# 
# From -- ./inp_files/19057.got.cif
#   From: 2010.03.12/outbox.cif.g09.slc.cpg/sg56_10_cif.got.tgz:19057.got - 2010.04.16 15:33:40.
