data_PCOD8228750
_publ_section_title
;
Structure prediction by ZEFSAII (Michael W. Deem and Ramdas Pophale) SiO2 
 PCOD8228750
Probable space group: P C C N
;
_chemical_formula_sum "Si O2"
_cell_formula_units_Z 60
_cell_length_a 15.398440
_cell_length_b 9.035794
_cell_length_c 22.138831
_cell_angle_alpha 90.000000
_cell_angle_beta 90.000000
_cell_angle_gamma 90.000000
_cell_volume 3080.333446
_symmetry_space_group_name_H-M "P C C N"
_symmetry_group_IT_number 56
_symmetry_cell_setting 'orthorhombic'
loop_
_space_group_symop_operation_xyz
x,y,z
1/2-x,1/2-y,z
1/2+x,-y,1/2-z
-x,1/2+y,1/2-z
-x,-y,-z
1/2+x,1/2+y,-z
1/2-x,y,1/2+z
x,1/2-y,1/2+z
loop_
_atom_site_type_symbol
_atom_site_label
_atom_site_fract_x
_atom_site_fract_y
_atom_site_fract_z
Si Si1 0.117364 0.430259 0.271449
Si Si2 0.046741 0.581548 0.383751
Si Si3 0.957185 0.157965 0.698083
Si Si4 0.250000 0.250000 0.835137
Si Si5 0.112586 0.060857 0.396136
Si Si6 0.647830 0.222735 0.024642
Si Si7 0.040156 0.717238 0.591941
Si Si8 0.345462 0.792891 0.204904
O O1 0.111303 0.507390 0.336471
O O2 0.179186 0.295934 0.285851
O O3 0.155841 0.532076 0.218368
O O4 0.024193 0.372700 0.251196
O O5 0.001905 0.718607 0.347537
O O6 0.104084 0.646352 0.437543
O O7 0.978786 0.460112 0.409680
O O8 0.869917 0.213213 0.731841
O O9 0.933159 0.011070 0.661990
O O10 0.293160 0.125668 0.878057
O O11 0.049910 0.193525 0.418472
O O12 0.127054 0.939265 0.448248
O O13 0.750000 0.250000 0.021876
O O14 0.608590 0.232914 0.958126
O O15 0.082913 0.756750 0.655373
O O16 0.250000 0.750000 0.182403
#
# Coordination Sequence:
#
# PCOD8228750 Si02
#       8
#     8   8   8   4   8   8   8   8
#     4  11  21  37  59  93 125 161 201 249 305 369
#     4  10  22  39  64  87 118 164 208 243 300 368
#     4  10  21  39  61  89 128 165 193 248 306 379
#     4  12  22  34  64  92 124 158 204 258 298 354
#     4  11  23  41  65  89 124 160 207 254 307 361
#     4  11  25  43  63  90 122 159 214 262 303 354
#     4  12  22  42  65  89 123 166 204 252 310 369
#     4  11  22  36  61  92 128 160 204 247 312 366
#
# _framework density 19.47841
#
# number of rings (size 3 to 8) (size 9 to 14) (size 15 to 20)
#    0.000    1.067    4.000    2.800    1.867    4.800 
#    0.000    0.000    0.000    0.800    0.000    0.000 
#    0.000    0.000    0.000    0.000    0.000    0.000 
#
# Total GULP energy -743823.150785 kJ/mol
# GULP energy per Si atom -12397.052513 kJ/mol
# Density = 1.943408 g / cm^3
# Si number density = 19.478410 Si / 1000 Ang^3
#
#
#
# Elastic Constant Matrix: (Units=GPa)
#
#
# Indices 1 2 3 4 5 6 
#
# 1 72.6216 28.8529 24.8171 0.0000 0.0000 0.0000
# 2 28.8529 101.9463 34.8771 0.0000 0.0000 0.0000
# 3 24.8171 34.8771 85.5283 0.0000 0.0000 0.0000
# 4 0.0000 0.0000 0.0000 27.2573 0.0000 0.0000
# 5 0.0000 0.0000 0.0000 0.0000 19.6664 0.0000
# 6 0.0000 0.0000 0.0000 0.0000 0.0000 29.6742
#
#
#
# Elastic Compliance Matrix: (Units=1/GPa)
#
#
# Indices 1 2 3 4 5 6 
#
# 1 0.016281 -0.003477 -0.003306 0.000000 0.000000 0.000000
# 2 -0.003477 0.012142 -0.003942 0.000000 0.000000 0.000000
# 3 -0.003306 -0.003942 0.014259 0.000000 0.000000 0.000000
# 4 0.000000 0.000000 0.000000 0.036687 0.000000 0.000000
# 5 0.000000 0.000000 0.000000 0.000000 0.050848 0.000000
# 6 0.000000 0.000000 0.000000 0.000000 0.000000 0.033699
#
#
# Mechanical properties :
#
#
# Convention : Reuss Voigt Hill
#
# Bulk Modulus (GPa) = 47.10106 48.57671 47.83889
# Shear Modulus (GPa) = 25.98141 26.75620 26.36880
#
# Velocity S-wave (km/s) = 3.65616 3.71028 3.68332
# Velocity P-wave (km/s) = 6.48514 6.58390 6.53471
#
# Compressibility (1/GPa) = 0.02123094
#
# Stress axis : x y z
#
# Youngs Moduli (GPa) = 61.42039 82.35990 70.13069
#
# Poissons Ratio (x) = 0.28634 0.23188
# Poissons Ratio (y) = 0.21354 0.27648
# Poissons Ratio (z) = 0.20308 0.32470
#
# Static dielectric constant tensor:
#      x y z
#    x 3.429690 0.000000 0.000000 
#    y 0.000000 3.831700 0.000000 
#    z 0.000000 0.000000 3.488550 
# 
# 
# High freq. dielectric constant tensor:
#      x y z
#    x 1.750740 0.000000 0.000000 
#    y 0.000000 1.771070 0.000000 
#    z 0.000000 0.000000 1.755180 
# 
# From -- ./inp_files/21135.got.cif
#   From: 2010.03.12/outbox.cif.g09.slc.cpg/sg56_11_cif.got.tgz:21135.got - 2010.04.16 15:33:40.
