data_PCOD8228978
_publ_section_title
;
Structure prediction by ZEFSAII (Michael W. Deem and Ramdas Pophale) SiO2 
 PCOD8228978
Probable space group: P C C N
;
_chemical_formula_sum "Si O2"
_cell_formula_units_Z 60
_cell_length_a 16.629902
_cell_length_b 12.290361
_cell_length_c 14.690853
_cell_angle_alpha 90.000000
_cell_angle_beta 90.000000
_cell_angle_gamma 90.000000
_cell_volume 3002.626702
_symmetry_space_group_name_H-M "P C C N"
_symmetry_group_IT_number 56
_symmetry_cell_setting 'orthorhombic'
loop_
_space_group_symop_operation_xyz
x,y,z
1/2-x,1/2-y,z
1/2+x,-y,1/2-z
-x,1/2+y,1/2-z
-x,-y,-z
1/2+x,1/2+y,-z
1/2-x,y,1/2+z
x,1/2-y,1/2+z
loop_
_atom_site_type_symbol
_atom_site_label
_atom_site_fract_x
_atom_site_fract_y
_atom_site_fract_z
Si Si1 0.250000 0.750000 0.268726
Si Si2 0.170462 0.313487 0.255195
Si Si3 0.518305 0.013154 0.296123
Si Si4 0.147887 0.546118 0.213228
Si Si5 0.940980 0.800465 0.879207
Si Si6 0.442282 0.912099 0.043120
Si Si7 0.592502 0.160974 0.146145
Si Si8 0.459878 0.208151 0.407950
O O1 0.203146 0.654552 0.214236
O O2 0.181736 0.807420 0.326473
O O3 0.250000 0.250000 0.272791
O O4 0.196744 0.439593 0.244784
O O5 0.125906 0.279685 0.161853
O O6 0.116631 0.286375 0.342673
O O7 0.558965 0.058637 0.203994
O O8 0.514212 0.108124 0.372247
O O9 0.432055 0.957507 0.276217
O O10 0.574453 0.920185 0.338656
O O11 0.121039 0.530843 0.109049
O O12 0.028228 0.758266 0.846308
O O13 0.932400 0.806822 0.987926
O O14 0.489757 0.819699 0.100546
O O15 0.393771 0.862944 0.959432
O O16 0.500000 0.000000 0.000000
#
# Coordination Sequence:
#
# PCOD8228978 Si02
#       8
#     4   8   8   8   8   8   8   8
#     4  12  26  40  64 100 140 178 220 286 354 400
#     4  11  25  43  64  93 131 174 226 280 338 397
#     4  11  20  40  67  92 125 174 221 274 336 406
#     4  11  22  42  64  93 132 170 218 278 336 405
#     4  11  21  41  66  95 127 173 226 275 334 409
#     4  11  21  40  70  97 124 173 232 273 334 420
#     4  11  23  39  66  95 132 176 220 275 342 402
#     4  10  22  38  65  97 123 166 223 279 328 401
#
# _framework density 19.982505
#
# number of rings (size 3 to 8) (size 9 to 14) (size 15 to 20)
#    0.000    1.067    5.333    2.800    1.867    1.067 
#    0.000    2.667    0.000    0.000    0.000    0.000 
#    0.000    0.000    0.000    0.000    0.000    0.000 
#
# Total GULP energy -743660.608249 kJ/mol
# GULP energy per Si atom -12394.343471 kJ/mol
# Density = 1.993702 g / cm^3
# Si number density = 19.982505 Si / 1000 Ang^3
#
#
#
# Elastic Constant Matrix: (Units=GPa)
#
#
# Indices 1 2 3 4 5 6 
#
# 1 85.4621 41.6784 35.2064 0.0000 0.0000 0.0000
# 2 41.6784 116.8219 54.0200 0.0000 0.0000 0.0000
# 3 35.2064 54.0200 107.1024 0.0000 0.0000 0.0000
# 4 0.0000 0.0000 0.0000 22.6570 0.0000 0.0000
# 5 0.0000 0.0000 0.0000 0.0000 0.4138 0.0000
# 6 0.0000 0.0000 0.0000 0.0000 0.0000 35.9557
#
#
#
# Elastic Compliance Matrix: (Units=1/GPa)
#
#
# Indices 1 2 3 4 5 6 
#
# 1 0.014815 -0.003956 -0.002874 0.000000 0.000000 0.000000
# 2 -0.003956 0.012220 -0.004863 0.000000 0.000000 0.000000
# 3 -0.002874 -0.004863 0.012735 0.000000 0.000000 0.000000
# 4 0.000000 0.000000 0.000000 0.044136 0.000000 0.000000
# 5 0.000000 0.000000 0.000000 0.000000 2.416388 0.000000
# 6 0.000000 0.000000 0.000000 0.000000 0.000000 0.027812
#
#
# Mechanical properties :
#
#
# Convention : Reuss Voigt Hill
#
# Bulk Modulus (GPa) = 61.04287 63.46623 62.25455
# Shear Modulus (GPa) = 1.95545 23.70411 12.82978
#
# Velocity S-wave (km/s) = 0.99031 3.44792 2.53662
# Velocity P-wave (km/s) = 5.64996 6.90513 6.30884
#
# Compressibility (1/GPa) = 0.01638193
#
# Stress axis : x y z
#
# Youngs Moduli (GPa) = 67.50110 81.83119 78.52638
#
# Poissons Ratio (x) = 0.32374 0.22571
# Poissons Ratio (y) = 0.26705 0.38189
# Poissons Ratio (z) = 0.19402 0.39796
#
# Static dielectric constant tensor:
#      x y z
#    x 3.571740 0.000000 0.000000 
#    y 0.000000 4.918330 0.000000 
#    z 0.000000 0.000000 3.930100 
# 
# 
# High freq. dielectric constant tensor:
#      x y z
#    x 1.754420 0.000000 0.000000 
#    y 0.000000 1.801040 0.000000 
#    z 0.000000 0.000000 1.785700 
# 
# From -- ./inp_files/12842.got.cif
#   From: 2010.03.12/outbox.cif.g09.slc.cpg/sg56_7_cif.got.tgz:12842.got - 2010.04.16 15:33:40.
