data_PCOD8228787
_publ_section_title
;
Structure prediction by ZEFSAII (Michael W. Deem and Ramdas Pophale) SiO2 
 PCOD8228787
Probable space group: P C C N
;
_chemical_formula_sum "Si O2"
_cell_formula_units_Z 64
_cell_length_a 12.582196
_cell_length_b 17.159350
_cell_length_c 14.495807
_cell_angle_alpha 90.000000
_cell_angle_beta 90.000000
_cell_angle_gamma 90.000000
_cell_volume 3129.678143
_symmetry_space_group_name_H-M "P C C N"
_symmetry_group_IT_number 56
_symmetry_cell_setting 'orthorhombic'
loop_
_space_group_symop_operation_xyz
x,y,z
1/2-x,1/2-y,z
1/2+x,-y,1/2-z
-x,1/2+y,1/2-z
-x,-y,-z
1/2+x,1/2+y,-z
1/2-x,y,1/2+z
x,1/2-y,1/2+z
loop_
_atom_site_type_symbol
_atom_site_label
_atom_site_fract_x
_atom_site_fract_y
_atom_site_fract_z
Si Si1 0.998370 0.616515 0.740595
Si Si2 0.625220 0.256459 0.866129
Si Si3 0.833264 0.935028 0.950632
Si Si4 0.872278 0.974365 0.753655
Si Si5 0.509840 0.702605 0.958157
Si Si6 0.055847 0.637522 0.276099
Si Si7 0.168050 0.312803 0.117417
Si Si8 0.163378 0.013212 0.853072
O O1 0.914204 0.656218 0.807519
O O2 0.931387 0.575203 0.659527
O O3 0.084858 0.676117 0.701796
O O4 0.066274 0.548176 0.791017
O O5 0.750000 0.250000 0.879908
O O6 0.595241 0.174619 0.819120
O O7 0.574139 0.271992 0.965380
O O8 0.849566 0.991038 0.862365
O O9 0.729523 0.882600 0.932173
O O10 0.937990 0.882832 0.971390
O O11 0.813468 0.991709 0.037619
O O12 0.766563 0.954548 0.698538
O O13 0.940437 0.895666 0.750576
O O14 0.452767 0.701773 0.857675
O O15 0.601964 0.767687 0.961229
O O16 0.135880 0.570518 0.310686
O O17 0.250000 0.250000 0.163236
#
# Coordination Sequence:
#
# PCOD8228787 Si02
#       8
#     8   8   8   8   8   8   8   8
#     4  11  22  41  67  90 128 173 218 266 329 385
#     4  12  25  42  64  90 130 175 218 263 327 394
#     4  10  21  39  69  97 128 167 217 267 329 393
#     4  10  23  40  63  96 129 164 217 268 323 391
#     4  10  22  41  63  97 128 166 215 270 324 389
#     4  10  24  42  63  91 132 169 214 270 319 392
#     4  10  21  42  66  98 132 165 214 282 330 384
#     4  11  22  41  66  94 129 172 217 263 332 388
#
# _framework density 20.449387000000002
#
# number of rings (size 3 to 8) (size 9 to 14) (size 15 to 20)
#    0.000    1.500    3.750    0.750    3.500    2.000 
#    2.250    0.625    0.000    0.000    0.000    0.000 
#    0.000    0.000    0.000    0.000    0.000    0.000 
#
# Total GULP energy -793389.472560 kJ/mol
# GULP energy per Si atom -12396.710509 kJ/mol
# Density = 2.040284 g / cm^3
# Si number density = 20.449387 Si / 1000 Ang^3
#
#
#
# Elastic Constant Matrix: (Units=GPa)
#
#
# Indices 1 2 3 4 5 6 
#
# 1 132.2109 37.8714 53.1491 0.0000 0.0000 0.0000
# 2 37.8714 71.9960 27.1916 0.0000 0.0000 0.0000
# 3 53.1491 27.1916 91.7471 0.0000 0.0000 0.0000
# 4 0.0000 0.0000 0.0000 29.6954 0.0000 0.0000
# 5 0.0000 0.0000 0.0000 0.0000 35.0591 0.0000
# 6 0.0000 0.0000 0.0000 0.0000 0.0000 30.4967
#
#
#
# Elastic Compliance Matrix: (Units=1/GPa)
#
#
# Indices 1 2 3 4 5 6 
#
# 1 0.010664 -0.003689 -0.005084 0.000000 0.000000 0.000000
# 2 -0.003689 0.016917 -0.002876 0.000000 0.000000 0.000000
# 3 -0.005084 -0.002876 0.014697 0.000000 0.000000 0.000000
# 4 0.000000 0.000000 0.000000 0.033675 0.000000 0.000000
# 5 0.000000 0.000000 0.000000 0.000000 0.028523 0.000000
# 6 0.000000 0.000000 0.000000 0.000000 0.000000 0.032790
#
#
# Mechanical properties :
#
#
# Convention : Reuss Voigt Hill
#
# Bulk Modulus (GPa) = 52.69249 59.15313 55.92281
# Shear Modulus (GPa) = 29.95910 30.89971 30.42941
#
# Velocity S-wave (km/s) = 3.83173 3.89142 3.86169
# Velocity P-wave (km/s) = 6.73791 7.01286 6.87676
#
# Compressibility (1/GPa) = 0.01897804
#
# Stress axis : x y z
#
# Youngs Moduli (GPa) = 93.76935 59.11300 68.03901
#
# Poissons Ratio (x) = 0.21809 0.34594
# Poissons Ratio (y) = 0.34596 0.19571
# Poissons Ratio (z) = 0.47677 0.17003
#
# Static dielectric constant tensor:
#      x y z
#    x 3.820040 0.000000 0.000000 
#    y 0.000000 3.733550 0.000000 
#    z 0.000000 0.000000 3.554320 
# 
# 
# High freq. dielectric constant tensor:
#      x y z
#    x 1.807970 0.000000 0.000000 
#    y 0.000000 1.797950 0.000000 
#    z 0.000000 0.000000 1.783070 
# 
# From -- ./inp_files/11836.got.cif
#   From: 2010.03.12/outbox.cif.g09.slc.cpg/sg56_6_cif.got.tgz:11836.got - 2010.04.16 15:33:40.
