data_PCOD8228090
_publ_section_title
;
Structure prediction by ZEFSAII (Michael W. Deem and Ramdas Pophale) SiO2 
 PCOD8228090
Probable space group: P C C N
;
_chemical_formula_sum "Si O2"
_cell_formula_units_Z 56
_cell_length_a 32.700506
_cell_length_b 15.888695
_cell_length_c 5.109258
_cell_angle_alpha 90.000000
_cell_angle_beta 90.000000
_cell_angle_gamma 90.000000
_cell_volume 2654.608831
_symmetry_space_group_name_H-M "P C C N"
_symmetry_group_IT_number 56
_symmetry_cell_setting 'orthorhombic'
loop_
_space_group_symop_operation_xyz
x,y,z
1/2-x,1/2-y,z
1/2+x,-y,1/2-z
-x,1/2+y,1/2-z
-x,-y,-z
1/2+x,1/2+y,-z
1/2-x,y,1/2+z
x,1/2-y,1/2+z
loop_
_atom_site_type_symbol
_atom_site_label
_atom_site_fract_x
_atom_site_fract_y
_atom_site_fract_z
Si Si1 0.643501 0.719195 0.830714
Si Si2 0.224229 0.544322 0.931841
Si Si3 0.027311 0.485288 0.250126
Si Si4 0.356021 0.471858 0.197578
Si Si5 0.388873 0.551586 0.678470
Si Si6 0.330801 0.694846 0.546668
Si Si7 0.053845 0.293694 0.234087
O O1 0.668460 0.733036 0.560691
O O2 0.636877 0.622438 0.899143
O O3 0.601971 0.770726 0.752793
O O4 0.260709 0.526928 0.727320
O O5 0.187843 0.484536 0.835203
O O6 0.208187 0.640072 0.955099
O O7 0.063704 0.554663 0.260812
O O8 0.047441 0.393152 0.253547
O O9 0.000000 0.500000 0.500000
O O10 0.000000 0.500000 0.000000
O O11 0.388032 0.486569 0.433423
O O12 0.361784 0.528770 0.936396
O O13 0.371849 0.637755 0.548791
O O14 0.330506 0.770733 0.341972
O O15 0.032655 0.246117 0.478517
#
# Coordination Sequence:
#
# PCOD8228090 Si02
#       7
#     8   8   8   8   8   8   8
#     4  10  19  32  58  91 114 146 199 258 302 348
#     4  11  23  39  62  94 129 165 201 251 320 380
#     4  12  25  41  62  93 129 167 210 267 336 396
#     4  11  21  39  66  93 123 163 212 257 311 385
#     4  11  22  41  63  86 122 169 216 264 316 384
#     4  11  23  40  62  90 123 166 219 266 309 373
#     4  10  19  36  59  86 116 148 199 261 308 360
#
# _framework density 21.095389000000001
#
# number of rings (size 3 to 8) (size 9 to 14) (size 15 to 20)
#    0.000    1.143    0.000   10.286    0.000    1.714 
#    0.000    4.286    0.000    2.571    0.000    0.000 
#    0.000    0.000    0.000    0.000    0.000    0.000 
#
# Total GULP energy -693802.934568 kJ/mol
# GULP energy per Si atom -12389.338117 kJ/mol
# Density = 2.104738 g / cm^3
# Si number density = 21.095389 Si / 1000 Ang^3
#
#
#
# Elastic Constant Matrix: (Units=GPa)
#
#
# Indices 1 2 3 4 5 6 
#
# 1 81.1616 18.7557 18.4715 0.0000 0.0000 0.0000
# 2 18.7557 76.5096 21.4793 0.0000 0.0000 0.0000
# 3 18.4715 21.4793 154.9682 0.0000 0.0000 0.0000
# 4 0.0000 0.0000 0.0000 39.2306 0.0000 0.0000
# 5 0.0000 0.0000 0.0000 0.0000 35.1296 0.0000
# 6 0.0000 0.0000 0.0000 0.0000 0.0000 26.7921
#
#
#
# Elastic Compliance Matrix: (Units=1/GPa)
#
#
# Indices 1 2 3 4 5 6 
#
# 1 0.013264 -0.002921 -0.001176 0.000000 0.000000 0.000000
# 2 -0.002921 0.014243 -0.001626 0.000000 0.000000 0.000000
# 3 -0.001176 -0.001626 0.006818 0.000000 0.000000 0.000000
# 4 0.000000 0.000000 0.000000 0.025490 0.000000 0.000000
# 5 0.000000 0.000000 0.000000 0.000000 0.028466 0.000000
# 6 0.000000 0.000000 0.000000 0.000000 0.000000 0.037324
#
#
# Mechanical properties :
#
#
# Convention : Reuss Voigt Hill
#
# Bulk Modulus (GPa) = 43.70913 47.78358 45.74635
# Shear Modulus (GPa) = 34.55931 37.15932 35.85932
#
# Velocity S-wave (km/s) = 4.05191 4.20156 4.12742
# Velocity P-wave (km/s) = 6.53111 6.79985 6.66683
#
# Compressibility (1/GPa) = 0.02287852
#
# Stress axis : x y z
#
# Youngs Moduli (GPa) = 75.39288 70.21060 146.66026
#
# Poissons Ratio (x) = 0.20511 0.17248
# Poissons Ratio (y) = 0.22025 0.23846
# Poissons Ratio (z) = 0.08867 0.11416
#
# Static dielectric constant tensor:
#      x y z
#    x 3.571860 0.000000 0.000000 
#    y 0.000000 3.676130 0.000000 
#    z 0.000000 0.000000 4.370810 
# 
# 
# High freq. dielectric constant tensor:
#      x y z
#    x 1.788080 0.000000 0.000000 
#    y 0.000000 1.818430 0.000000 
#    z 0.000000 0.000000 1.870200 
# 
# From -- ./inp_files/1340.got.cif
#   From: 2010.03.12/outbox.cif.g09.slc.cpg/sg56_1_cif.got.tgz:1340.got - 2010.04.16 15:33:40.
