data_PCOD8228009
_publ_section_title
;
Structure prediction by ZEFSAII (Michael W. Deem and Ramdas Pophale) SiO2 
 PCOD8228009
Probable space group: P C C N
;
_chemical_formula_sum "Si O2"
_cell_formula_units_Z 40
_cell_length_a 22.300869
_cell_length_b 4.963978
_cell_length_c 13.011691
_cell_angle_alpha 90.000000
_cell_angle_beta 90.000000
_cell_angle_gamma 90.000000
_cell_volume 1440.407506
_symmetry_space_group_name_H-M "P C C N"
_symmetry_group_IT_number 56
_symmetry_cell_setting 'orthorhombic'
loop_
_space_group_symop_operation_xyz
x,y,z
1/2-x,1/2-y,z
1/2+x,-y,1/2-z
-x,1/2+y,1/2-z
-x,-y,-z
1/2+x,1/2+y,-z
1/2-x,y,1/2+z
x,1/2-y,1/2+z
loop_
_atom_site_type_symbol
_atom_site_label
_atom_site_fract_x
_atom_site_fract_y
_atom_site_fract_z
Si Si1 0.429987 0.994325 0.982088
Si Si2 0.379726 0.831874 0.773662
Si Si3 0.024789 0.478032 0.199962
Si Si4 0.250000 0.750000 0.753000
Si Si5 0.250000 0.250000 0.610668
Si Si6 0.366021 0.488905 0.055819
O O1 0.483956 0.955104 0.073216
O O2 0.376271 0.792250 0.016301
O O3 0.413455 0.304684 0.996170
O O4 0.430414 0.932071 0.857531
O O5 0.406088 0.554167 0.726238
O O6 0.311473 0.801035 0.819204
O O7 0.374720 0.039626 0.678727
O O8 0.017482 0.166609 0.229335
O O9 0.269790 0.499733 0.682078
O O10 0.199340 0.365282 0.533104
#
# Coordination Sequence:
#
# PCOD8228009 Si02
#       6
#     8   8   8   4   4   8
#     4  11  24  41  66  95 125 170 214 263 330 382
#     4  10  24  44  67  96 136 170 216 273 326 389
#     4  11  24  43  67  96 131 171 221 272 322 387
#     4  10  22  38  66  96 128 176 214 260 328 390
#     4  10  18  36  60  86 130 176 208 260 316 364
#     4  10  22  39  61  92 129 167 214 261 312 385
#
# _framework density 27.769915000000001
#
# number of rings (size 3 to 8) (size 9 to 14) (size 15 to 20)
#    0.000    1.600    0.000    6.000    0.000   12.800 
#    0.000    2.000    0.000    0.000    0.000    0.000 
#    0.000    0.000    0.000    0.000    0.000    0.000 
#
# Total GULP energy -495538.720591 kJ/mol
# GULP energy per Si atom -12388.468015 kJ/mol
# Density = 2.770671 g / cm^3
# Si number density = 27.769915 Si / 1000 Ang^3
#
#
#
# Elastic Constant Matrix: (Units=GPa)
#
#
# Indices 1 2 3 4 5 6 
#
# 1 162.2474 -6.0772 62.4683 0.0000 0.0000 0.0000
# 2 -6.0772 85.0912 21.7484 0.0000 0.0000 0.0000
# 3 62.4683 21.7484 150.5270 0.0000 0.0000 0.0000
# 4 0.0000 0.0000 0.0000 35.5494 0.0000 0.0000
# 5 0.0000 0.0000 0.0000 0.0000 -43.5826 0.0000
# 6 0.0000 0.0000 0.0000 0.0000 0.0000 44.7782
#
#
#
# Elastic Compliance Matrix: (Units=1/GPa)
#
#
# Indices 1 2 3 4 5 6 
#
# 1 0.007488 0.001380 -0.003307 0.000000 0.000000 0.000000
# 2 0.001380 0.012457 -0.002373 0.000000 0.000000 0.000000
# 3 -0.003307 -0.002373 0.008359 0.000000 0.000000 0.000000
# 4 0.000000 0.000000 0.000000 0.028130 0.000000 0.000000
# 5 0.000000 0.000000 0.000000 0.000000 -0.022945 0.000000
# 6 0.000000 0.000000 0.000000 0.000000 0.000000 0.022332
#
#
# Mechanical properties :
#
#
# Convention : Reuss Voigt Hill
#
# Bulk Modulus (GPa) = 50.74871 61.57160 56.16016
# Shear Modulus (GPa) = 70.43389 28.66410 49.54900
#
# Velocity S-wave (km/s) = 5.04167 3.21627 4.22864
# Velocity P-wave (km/s) = 7.22535 6.00106 6.64147
#
# Compressibility (1/GPa) = 0.01970493
#
# Stress axis : x y z
#
# Youngs Moduli (GPa) = 133.53991 80.27581 119.63824
#
# Poissons Ratio (x) = -0.11079 0.39565
# Poissons Ratio (y) = -0.18429 0.28385
# Poissons Ratio (z) = 0.44162 0.19046
#
# Static dielectric constant tensor:
#      x y z
#    x 5.512490 0.000000 0.000000 
#    y 0.000000 7.063310 0.000000 
#    z 0.000000 0.000000 5.202300 
# 
# 
# High freq. dielectric constant tensor:
#      x y z
#    x 2.167750 0.000000 0.000000 
#    y 0.000000 2.115720 0.000000 
#    z 0.000000 0.000000 2.124950 
# 
# From -- ./inp_files/13180.got.cif
#   From: 2010.03.12/outbox.cif.g09.slc.cpg/sg56_7_cif.got.tgz:13180.got - 2010.04.16 15:33:40.
