data_PCOD8228825
_publ_section_title
;
Structure prediction by ZEFSAII (Michael W. Deem and Ramdas Pophale) SiO2 
 PCOD8228825
Probable space group: P C C N
;
_chemical_formula_sum "Si O2"
_cell_formula_units_Z 60
_cell_length_a 8.090089
_cell_length_b 11.995347
_cell_length_c 28.341177
_cell_angle_alpha 90.000000
_cell_angle_beta 90.000000
_cell_angle_gamma 90.000000
_cell_volume 2750.324879
_symmetry_space_group_name_H-M "P C C N"
_symmetry_group_IT_number 56
_symmetry_cell_setting 'orthorhombic'
loop_
_space_group_symop_operation_xyz
x,y,z
1/2-x,1/2-y,z
1/2+x,-y,1/2-z
-x,1/2+y,1/2-z
-x,-y,-z
1/2+x,1/2+y,-z
1/2-x,y,1/2+z
x,1/2-y,1/2+z
loop_
_atom_site_type_symbol
_atom_site_label
_atom_site_fract_x
_atom_site_fract_y
_atom_site_fract_z
Si Si1 0.000093 0.175938 0.926548
Si Si2 0.156827 0.464319 0.608949
Si Si3 0.571692 0.703902 0.970160
Si Si4 0.212204 0.375355 0.785837
Si Si5 0.477169 0.879179 0.897684
Si Si6 0.750000 0.250000 0.674574
Si Si7 0.862809 0.885575 0.608200
Si Si8 0.469749 0.939812 0.294779
O O1 0.180785 0.145509 0.908005
O O2 0.989453 0.307163 0.912564
O O3 0.976861 0.165661 0.982854
O O4 0.862021 0.097185 0.901806
O O5 0.079219 0.401407 0.564279
O O6 0.341226 0.420443 0.618240
O O7 0.055371 0.430490 0.654680
O O8 0.750000 0.750000 0.985479
O O9 0.475615 0.803566 0.944214
O O10 0.250000 0.250000 0.770138
O O11 0.117392 0.379329 0.835492
O O12 0.383975 0.440769 0.789683
O O13 0.099930 0.433142 0.746911
O O14 0.389759 0.812258 0.855879
O O15 0.378224 0.989591 0.911101
O O16 0.663338 0.159885 0.708468
#
# Coordination Sequence:
#
# PCOD8228825 Si02
#       8
#     8   8   8   8   8   4   8   8
#     4  11  21  45  71  94 143 190 231 281 362 424
#     4  11  23  44  70 102 139 184 233 296 356 418
#     4  10  21  40  68 105 135 186 236 285 350 431
#     4  12  27  47  71 109 140 188 243 293 363 438
#     4  11  25  41  71 102 140 177 243 291 351 424
#     4  12  24  50  70 102 138 192 228 306 368 420
#     4  11  22  45  70  94 141 193 226 289 357 430
#     4  12  28  44  77 102 141 185 241 294 369 426
#
# _framework density 21.815602999999999
#
# number of rings (size 3 to 8) (size 9 to 14) (size 15 to 20)
#    0.000    0.800    6.667    0.400    5.600    1.067 
#    0.000    0.000    0.000    0.000    0.000    0.000 
#    0.000    0.000    0.000    0.000    0.000    0.000 
#
# Total GULP energy -744040.432313 kJ/mol
# GULP energy per Si atom -12400.673872 kJ/mol
# Density = 2.176595 g / cm^3
# Si number density = 21.815603 Si / 1000 Ang^3
#
#
#
# Elastic Constant Matrix: (Units=GPa)
#
#
# Indices 1 2 3 4 5 6 
#
# 1 74.9572 30.6568 29.2474 0.0000 0.0000 0.0000
# 2 30.6568 119.9182 12.9131 0.0000 0.0000 0.0000
# 3 29.2474 12.9131 103.6625 0.0000 0.0000 0.0000
# 4 0.0000 0.0000 0.0000 47.7081 0.0000 0.0000
# 5 0.0000 0.0000 0.0000 0.0000 150.2144 0.0000
# 6 0.0000 0.0000 0.0000 0.0000 0.0000 42.6707
#
#
#
# Elastic Compliance Matrix: (Units=1/GPa)
#
#
# Indices 1 2 3 4 5 6 
#
# 1 0.016519 -0.003772 -0.004191 0.000000 0.000000 0.000000
# 2 -0.003772 0.009314 -0.000096 0.000000 0.000000 0.000000
# 3 -0.004191 -0.000096 0.010841 0.000000 0.000000 0.000000
# 4 0.000000 0.000000 0.000000 0.020961 0.000000 0.000000
# 5 0.000000 0.000000 0.000000 0.000000 0.006657 0.000000
# 6 0.000000 0.000000 0.000000 0.000000 0.000000 0.023435
#
#
# Mechanical properties :
#
#
# Convention : Reuss Voigt Hill
#
# Bulk Modulus (GPa) = 48.64677 49.35250 48.99964
# Shear Modulus (GPa) = 45.16887 63.16667 54.16777
#
# Velocity S-wave (km/s) = 4.55519 5.38681 4.98836
# Velocity P-wave (km/s) = 7.07205 7.83338 7.46243
#
# Compressibility (1/GPa) = 0.02055635
#
# Stress axis : x y z
#
# Youngs Moduli (GPa) = 60.53737 107.37004 92.24210
#
# Poissons Ratio (x) = 0.40497 0.38656
# Poissons Ratio (y) = 0.22833 0.00886
# Poissons Ratio (z) = 0.25370 0.01031
#
# Static dielectric constant tensor:
#      x y z
#    x 3.902150 0.000000 0.000000 
#    y 0.000000 4.583280 0.000000 
#    z 0.000000 0.000000 3.914480 
# 
# 
# High freq. dielectric constant tensor:
#      x y z
#    x 1.844620 0.000000 0.000000 
#    y 0.000000 1.880360 0.000000 
#    z 0.000000 0.000000 1.854940 
# 
# From -- ./inp_files/22090.got.cif
#   From: 2010.03.12/outbox.cif.g09.slc.cpg/sg56_12_cif.got.tgz:22090.got - 2010.04.16 15:33:40.
