data_PCOD8228527
_publ_section_title
;
Structure prediction by ZEFSAII (Michael W. Deem and Ramdas Pophale) SiO2 
 PCOD8228527
Probable space group: P C C N
;
_chemical_formula_sum "Si O2"
_cell_formula_units_Z 64
_cell_length_a 27.049218
_cell_length_b 8.947402
_cell_length_c 12.747240
_cell_angle_alpha 90.000000
_cell_angle_beta 90.000000
_cell_angle_gamma 90.000000
_cell_volume 3085.089921
_symmetry_space_group_name_H-M "P C C N"
_symmetry_group_IT_number 56
_symmetry_cell_setting 'orthorhombic'
loop_
_space_group_symop_operation_xyz
x,y,z
1/2-x,1/2-y,z
1/2+x,-y,1/2-z
-x,1/2+y,1/2-z
-x,-y,-z
1/2+x,1/2+y,-z
1/2-x,y,1/2+z
x,1/2-y,1/2+z
loop_
_atom_site_type_symbol
_atom_site_label
_atom_site_fract_x
_atom_site_fract_y
_atom_site_fract_z
Si Si1 0.164551 0.010972 0.522934
Si Si2 0.091278 0.644225 0.339557
Si Si3 0.985217 0.571405 0.608624
Si Si4 0.738850 0.416756 0.088281
Si Si5 0.147721 0.834723 0.042578
Si Si6 0.832091 0.940117 0.244119
Si Si7 0.416081 0.930006 0.725548
Si Si8 0.100759 0.300307 0.865609
O O1 0.177314 0.094663 0.632961
O O2 0.122450 0.104941 0.462637
O O3 0.213031 0.004318 0.450683
O O4 0.146505 0.844068 0.547758
O O5 0.039852 0.558097 0.320655
O O6 0.108128 0.608383 0.457655
O O7 0.131438 0.582365 0.257823
O O8 0.087671 0.821048 0.325292
O O9 0.946843 0.708455 0.593523
O O10 0.000000 0.500000 0.500000
O O11 0.034800 0.622914 0.665722
O O12 0.750000 0.250000 0.131572
O O13 0.718325 0.514821 0.184724
O O14 0.701212 0.399102 0.990232
O O15 0.132043 0.908567 0.152357
O O16 0.856516 0.803133 0.181998
O O17 0.417866 0.096411 0.769914
#
# Coordination Sequence:
#
# PCOD8228527 Si02
#       8
#     8   8   8   8   8   8   8   8
#     4  11  22  43  66  95 133 170 227 273 330 403
#     4  10  20  41  61  90 130 166 224 261 329 405
#     4  11  24  42  64  93 130 176 219 272 345 406
#     4   9  22  40  67 100 134 172 231 270 320 413
#     4  10  20  39  66  98 122 177 218 270 325 396
#     4  10  23  41  65  93 132 178 210 277 340 385
#     4  12  22  41  68  94 132 171 220 284 335 391
#     4  11  27  42  65 101 134 170 228 283 340 407
#
# _framework density 20.744938999999999
#
# number of rings (size 3 to 8) (size 9 to 14) (size 15 to 20)
#    0.000    1.500    3.750    0.750    1.750    3.000 
#    0.000    2.500    0.000    0.000    0.000    0.000 
#    0.000    0.000    0.000    0.000    0.000    0.000 
#
# Total GULP energy -793552.458292 kJ/mol
# GULP energy per Si atom -12399.257161 kJ/mol
# Density = 2.069772 g / cm^3
# Si number density = 20.744939 Si / 1000 Ang^3
#
#
#
# Elastic Constant Matrix: (Units=GPa)
#
#
# Indices 1 2 3 4 5 6 
#
# 1 105.0712 41.0246 43.4973 0.0000 0.0000 0.0000
# 2 41.0246 99.1388 40.8883 0.0000 0.0000 0.0000
# 3 43.4973 40.8883 112.0243 0.0000 0.0000 0.0000
# 4 0.0000 0.0000 0.0000 32.9472 0.0000 0.0000
# 5 0.0000 0.0000 0.0000 0.0000 25.6092 0.0000
# 6 0.0000 0.0000 0.0000 0.0000 0.0000 34.4618
#
#
#
# Elastic Compliance Matrix: (Units=1/GPa)
#
#
# Indices 1 2 3 4 5 6 
#
# 1 0.012396 -0.003702 -0.003462 0.000000 0.000000 0.000000
# 2 -0.003702 0.012980 -0.003300 0.000000 0.000000 0.000000
# 3 -0.003462 -0.003300 0.011475 0.000000 0.000000 0.000000
# 4 0.000000 0.000000 0.000000 0.030352 0.000000 0.000000
# 5 0.000000 0.000000 0.000000 0.000000 0.039048 0.000000
# 6 0.000000 0.000000 0.000000 0.000000 0.000000 0.029018
#
#
# Mechanical properties :
#
#
# Convention : Reuss Voigt Hill
#
# Bulk Modulus (GPa) = 62.80140 63.00607 62.90373
# Shear Modulus (GPa) = 30.95890 31.32525 31.14207
#
# Velocity S-wave (km/s) = 3.86730 3.89011 3.87872
# Velocity P-wave (km/s) = 7.09085 7.11442 7.10265
#
# Compressibility (1/GPa) = 0.01592321
#
# Stress axis : x y z
#
# Youngs Moduli (GPa) = 80.67203 77.04275 87.14245
#
# Poissons Ratio (x) = 0.28519 0.30169
# Poissons Ratio (y) = 0.29862 0.28759
# Poissons Ratio (z) = 0.27929 0.25426
#
# Static dielectric constant tensor:
#      x y z
#    x 3.907380 0.000000 0.000000 
#    y 0.000000 3.730270 0.000000 
#    z 0.000000 0.000000 3.660390 
# 
# 
# High freq. dielectric constant tensor:
#      x y z
#    x 1.814650 0.000000 0.000000 
#    y 0.000000 1.810210 0.000000 
#    z 0.000000 0.000000 1.808280 
# 
# From -- ./inp_files/9183.got.cif
#   From: 2010.03.12/outbox.cif.g09.slc.cpg/sg56_5_cif.got.tgz:9183.got - 2010.04.16 15:33:40.
