data_PCOD8228131
_publ_section_title
;
Structure prediction by ZEFSAII (Michael W. Deem and Ramdas Pophale) SiO2 
 PCOD8228131
Probable space group: P C C N
;
_chemical_formula_sum "Si O2"
_cell_formula_units_Z 52
_cell_length_a 18.688286
_cell_length_b 8.311611
_cell_length_c 16.298570
_cell_angle_alpha 90.000000
_cell_angle_beta 90.000000
_cell_angle_gamma 90.000000
_cell_volume 2531.653023
_symmetry_space_group_name_H-M "P C C N"
_symmetry_group_IT_number 56
_symmetry_cell_setting 'orthorhombic'
loop_
_space_group_symop_operation_xyz
x,y,z
1/2-x,1/2-y,z
1/2+x,-y,1/2-z
-x,1/2+y,1/2-z
-x,-y,-z
1/2+x,1/2+y,-z
1/2-x,y,1/2+z
x,1/2-y,1/2+z
loop_
_atom_site_type_symbol
_atom_site_label
_atom_site_fract_x
_atom_site_fract_y
_atom_site_fract_z
Si Si1 0.126775 0.402182 0.868223
Si Si2 0.146034 0.008145 0.699684
Si Si3 0.479423 0.174842 0.294410
Si Si4 0.891487 0.246766 0.185309
Si Si5 0.070319 0.413491 0.038786
Si Si6 0.750000 0.750000 0.236292
Si Si7 0.003049 0.909519 0.915720
O O1 0.048339 0.333031 0.843548
O O2 0.140901 0.584671 0.840546
O O3 0.189328 0.304723 0.826139
O O4 0.128796 0.389493 0.966914
O O5 0.089245 0.094097 0.756530
O O6 0.112876 0.983507 0.608524
O O7 0.219507 0.111447 0.702656
O O8 0.160155 0.838086 0.747293
O O9 0.529968 0.237293 0.223992
O O10 0.522158 0.044709 0.349930
O O11 0.913959 0.143431 0.104046
O O12 0.049831 0.243771 0.080546
O O13 0.000000 0.500000 0.000000
O O14 0.000000 0.000000 0.000000
#
# Coordination Sequence:
#
# PCOD8228131 Si02
#       7
#     8   8   8   8   8   4   8
#     4  11  22  39  64  86 131 162 209 259 311 382
#     4  10  23  39  62  86 127 167 219 250 308 392
#     4  10  19  35  57  97 125 161 198 258 328 379
#     4  11  21  36  64  93 123 165 202 272 324 376
#     4  12  21  39  64 102 128 157 200 278 335 373
#     4  10  26  46  60  86 118 186 220 244 302 384
#     4  11  21  32  56  95 137 155 190 248 340 387
#
# _framework density 20.539937999999999
#
# number of rings (size 3 to 8) (size 9 to 14) (size 15 to 20)
#    0.000    1.231    4.615    2.769    2.154    1.231 
#    0.000    0.000    0.000    1.846    0.000    0.000 
#    0.000    0.000    0.000    0.000    0.000    0.000 
#
# Total GULP energy -644316.528689 kJ/mol
# GULP energy per Si atom -12390.702475 kJ/mol
# Density = 2.049319 g / cm^3
# Si number density = 20.539938 Si / 1000 Ang^3
#
#
#
# Elastic Constant Matrix: (Units=GPa)
#
#
# Indices 1 2 3 4 5 6 
#
# 1 61.3427 21.7182 30.3828 0.0000 0.0000 0.0000
# 2 21.7182 100.1284 33.6825 0.0000 0.0000 0.0000
# 3 30.3828 33.6825 119.5973 0.0000 0.0000 0.0000
# 4 0.0000 0.0000 0.0000 34.5684 0.0000 0.0000
# 5 0.0000 0.0000 0.0000 0.0000 25.5278 0.0000
# 6 0.0000 0.0000 0.0000 0.0000 0.0000 21.5623
#
#
#
# Elastic Compliance Matrix: (Units=1/GPa)
#
#
# Indices 1 2 3 4 5 6 
#
# 1 0.019337 -0.002808 -0.004122 0.000000 0.000000 0.000000
# 2 -0.002808 0.011440 -0.002509 0.000000 0.000000 0.000000
# 3 -0.004122 -0.002509 0.010115 0.000000 0.000000 0.000000
# 4 0.000000 0.000000 0.000000 0.028928 0.000000 0.000000
# 5 0.000000 0.000000 0.000000 0.000000 0.039173 0.000000
# 6 0.000000 0.000000 0.000000 0.000000 0.000000 0.046377
#
#
# Mechanical properties :
#
#
# Convention : Reuss Voigt Hill
#
# Bulk Modulus (GPa) = 45.42115 50.29282 47.85698
# Shear Modulus (GPa) = 27.53514 29.35067 28.44291
#
# Velocity S-wave (km/s) = 3.66535 3.78425 3.72527
# Velocity P-wave (km/s) = 6.33045 6.60550 6.46944
#
# Compressibility (1/GPa) = 0.02201618
#
# Stress axis : x y z
#
# Youngs Moduli (GPa) = 51.71306 87.41195 98.86307
#
# Poissons Ratio (x) = 0.24544 0.40749
# Poissons Ratio (y) = 0.14520 0.24801
# Poissons Ratio (z) = 0.21315 0.21928
#
# Static dielectric constant tensor:
#      x y z
#    x 3.462830 0.000000 0.000000 
#    y 0.000000 4.831570 0.000000 
#    z 0.000000 0.000000 4.178740 
# 
# 
# High freq. dielectric constant tensor:
#      x y z
#    x 1.751500 0.000000 0.000000 
#    y 0.000000 1.819250 0.000000 
#    z 0.000000 0.000000 1.813850 
# 
# From -- ./inp_files/13010.got.cif
#   From: 2010.03.12/outbox.cif.g09.slc.cpg/sg56_7_cif.got.tgz:13010.got - 2010.04.16 15:33:40.
