data_PCOD8228065
_publ_section_title
;
Structure prediction by ZEFSAII (Michael W. Deem and Ramdas Pophale) SiO2 
 PCOD8228065
Probable space group: P C C N
;
_chemical_formula_sum "Si O2"
_cell_formula_units_Z 48
_cell_length_a 4.947238
_cell_length_b 20.840126
_cell_length_c 25.686990
_cell_angle_alpha 90.000000
_cell_angle_beta 90.000000
_cell_angle_gamma 90.000000
_cell_volume 2648.355981
_symmetry_space_group_name_H-M "P C C N"
_symmetry_group_IT_number 56
_symmetry_cell_setting 'orthorhombic'
loop_
_space_group_symop_operation_xyz
x,y,z
1/2-x,1/2-y,z
1/2+x,-y,1/2-z
-x,1/2+y,1/2-z
-x,-y,-z
1/2+x,1/2+y,-z
1/2-x,y,1/2+z
x,1/2-y,1/2+z
loop_
_atom_site_type_symbol
_atom_site_label
_atom_site_fract_x
_atom_site_fract_y
_atom_site_fract_z
Si Si1 0.449746 0.003501 0.818500
Si Si2 0.227752 0.489879 0.931591
Si Si3 0.954776 0.425497 0.279982
Si Si4 0.993683 0.706571 0.559295
Si Si5 0.232731 0.923439 0.028716
Si Si6 0.008674 0.207510 0.825134
O O1 0.357571 0.981845 0.875798
O O2 0.750191 0.033057 0.815845
O O3 0.256960 0.059620 0.798051
O O4 0.416423 0.941718 0.781022
O O5 0.534949 0.465993 0.935197
O O6 0.027466 0.429220 0.944109
O O7 0.211256 0.549296 0.971251
O O8 0.923004 0.349860 0.287123
O O9 0.750000 0.750000 0.534347
O O10 0.250000 0.750000 0.565843
O O11 0.096235 0.646790 0.524100
O O12 0.903772 0.682022 0.617041
O O13 0.750000 0.250000 0.831569
O O14 0.250000 0.250000 0.800688
#
# Coordination Sequence:
#
# PCOD8228065 Si02
#       6
#     8   8   8   8   8   8
#     4  10  19  32  51  73  98 127 158 201 249 291
#     4  10  19  32  51  73  98 127 158 201 249 292
#     4  10  20  32  49  74  99 126 162 200 244 294
#     4  10  19  30  46  68  96 128 157 192 237 283
#     4  10  20  32  49  74  99 126 162 200 244 295
#     4  10  19  30  46  68  96 128 157 192 237 283
#
# _framework density 18.124452000000002
#
# number of rings (size 3 to 8) (size 9 to 14) (size 15 to 20)
#    0.000    2.000    0.000    5.000    0.000    2.667 
#    0.000    0.000    0.000    1.000    0.000    2.333 
#    0.000    0.000    0.000    0.000    0.000    0.000 
#
# Total GULP energy -594854.218494 kJ/mol
# GULP energy per Si atom -12392.796219 kJ/mol
# Density = 1.808320 g / cm^3
# Si number density = 18.124452 Si / 1000 Ang^3
#
#
#
# Elastic Constant Matrix: (Units=GPa)
#
#
# Indices 1 2 3 4 5 6 
#
# 1 86.4380 22.4664 25.5764 0.0000 0.0000 0.0000
# 2 22.4664 101.3268 47.9635 0.0000 0.0000 0.0000
# 3 25.5764 47.9635 97.0070 0.0000 0.0000 0.0000
# 4 0.0000 0.0000 0.0000 35.2030 0.0000 0.0000
# 5 0.0000 0.0000 0.0000 0.0000 20.5010 0.0000
# 6 0.0000 0.0000 0.0000 0.0000 0.0000 30.9117
#
#
#
# Elastic Compliance Matrix: (Units=1/GPa)
#
#
# Indices 1 2 3 4 5 6 
#
# 1 0.012747 -0.001613 -0.002563 0.000000 0.000000 0.000000
# 2 -0.001613 0.013089 -0.006046 0.000000 0.000000 0.000000
# 3 -0.002563 -0.006046 0.013974 0.000000 0.000000 0.000000
# 4 0.000000 0.000000 0.000000 0.028407 0.000000 0.000000
# 5 0.000000 0.000000 0.000000 0.000000 0.048778 0.000000
# 6 0.000000 0.000000 0.000000 0.000000 0.000000 0.032350
#
#
# Mechanical properties :
#
#
# Convention : Reuss Voigt Hill
#
# Bulk Modulus (GPa) = 51.64120 52.97605 52.30862
# Shear Modulus (GPa) = 28.36981 29.90751 29.13866
#
# Velocity S-wave (km/s) = 3.96065 4.06657 4.01396
# Velocity P-wave (km/s) = 7.03350 7.16532 7.09972
#
# Compressibility (1/GPa) = 0.01936439
#
# Stress axis : x y z
#
# Youngs Moduli (GPa) = 78.45198 76.40197 71.56249
#
# Poissons Ratio (x) = 0.12323 0.18343
# Poissons Ratio (y) = 0.12653 0.43268
# Poissons Ratio (z) = 0.20109 0.46194
#
# Static dielectric constant tensor:
#      x y z
#    x 3.591780 0.000000 0.000000 
#    y 0.000000 2.962050 0.000000 
#    z 0.000000 0.000000 3.295610 
# 
# 
# High freq. dielectric constant tensor:
#      x y z
#    x 1.730870 0.000000 0.000000 
#    y 0.000000 1.679360 0.000000 
#    z 0.000000 0.000000 1.671970 
# 
# From -- ./inp_files/20104.got.cif
#   From: 2010.03.12/outbox.cif.g09.slc.cpg/sg56_11_cif.got.tgz:20104.got - 2010.04.16 15:33:40.
