data_PCOD8228583
_publ_section_title
;
Structure prediction by ZEFSAII (Michael W. Deem and Ramdas Pophale) SiO2 
 PCOD8228583
Probable space group: P C C N
;
_chemical_formula_sum "Si O2"
_cell_formula_units_Z 48
_cell_length_a 8.646706
_cell_length_b 25.192549
_cell_length_c 9.806551
_cell_angle_alpha 90.000000
_cell_angle_beta 90.000000
_cell_angle_gamma 90.000000
_cell_volume 2136.186154
_symmetry_space_group_name_H-M "P C C N"
_symmetry_group_IT_number 56
_symmetry_cell_setting 'orthorhombic'
loop_
_space_group_symop_operation_xyz
x,y,z
1/2-x,1/2-y,z
1/2+x,-y,1/2-z
-x,1/2+y,1/2-z
-x,-y,-z
1/2+x,1/2+y,-z
1/2-x,y,1/2+z
x,1/2-y,1/2+z
loop_
_atom_site_type_symbol
_atom_site_label
_atom_site_fract_x
_atom_site_fract_y
_atom_site_fract_z
Si Si1 0.593313 0.719412 0.401372
Si Si2 0.866796 0.038655 0.775953
Si Si3 0.476776 0.890070 0.952545
Si Si4 0.416983 0.769190 0.635973
Si Si5 0.372241 0.622374 0.996903
Si Si6 0.019936 0.568506 0.251925
O O1 0.750000 0.750000 0.440889
O O2 0.601104 0.655019 0.407098
O O3 0.461202 0.733060 0.509427
O O4 0.540863 0.740059 0.254547
O O5 0.979319 0.062155 0.657438
O O6 0.890802 0.067923 0.919382
O O7 0.689480 0.043578 0.733177
O O8 0.898593 0.976440 0.794480
O O9 0.303866 0.865799 0.952171
O O10 0.522564 0.910650 0.102202
O O11 0.250000 0.750000 0.688826
O O12 0.425925 0.830646 0.594731
O O13 0.481650 0.616990 0.862261
#
# Coordination Sequence:
#
# PCOD8228583 Si02
#       6
#     8   8   8   8   8   8
#     4  12  27  46  66 101 143 174 222 294 354 402
#     4  10  20  41  62  94 132 172 223 278 327 399
#     4  10  21  40  66  91 133 176 221 272 335 401
#     4  12  25  44  75  98 129 183 241 276 335 420
#     4  10  21  40  66  97 126 173 233 278 313 402
#     4  10  22  38  67  95 131 174 223 275 336 393
#
# _framework density 22.469953
#
# number of rings (size 3 to 8) (size 9 to 14) (size 15 to 20)
#    0.000    1.333    3.333    2.000    2.333    0.000 
#    6.000    0.000    0.000    0.000    0.000    0.000 
#    0.000    0.000    0.000    0.000    0.000    0.000 
#
# Total GULP energy -595313.342355 kJ/mol
# GULP energy per Si atom -12402.361299 kJ/mol
# Density = 2.241881 g / cm^3
# Si number density = 22.469953 Si / 1000 Ang^3
#
#
#
# Elastic Constant Matrix: (Units=GPa)
#
#
# Indices 1 2 3 4 5 6 
#
# 1 58.1020 28.4462 16.7576 0.0000 0.0000 0.0000
# 2 28.4462 89.6317 19.8415 0.0000 0.0000 0.0000
# 3 16.7576 19.8415 105.4184 0.0000 0.0000 0.0000
# 4 0.0000 0.0000 0.0000 37.7244 0.0000 0.0000
# 5 0.0000 0.0000 0.0000 0.0000 22.6253 0.0000
# 6 0.0000 0.0000 0.0000 0.0000 0.0000 37.1065
#
#
#
# Elastic Compliance Matrix: (Units=1/GPa)
#
#
# Indices 1 2 3 4 5 6 
#
# 1 0.020837 -0.006135 -0.002158 0.000000 0.000000 0.000000
# 2 -0.006135 0.013448 -0.001556 0.000000 0.000000 0.000000
# 3 -0.002158 -0.001556 0.010122 0.000000 0.000000 0.000000
# 4 0.000000 0.000000 0.000000 0.026508 0.000000 0.000000
# 5 0.000000 0.000000 0.000000 0.000000 0.044198 0.000000
# 6 0.000000 0.000000 0.000000 0.000000 0.000000 0.026949
#
#
# Mechanical properties :
#
#
# Convention : Reuss Voigt Hill
#
# Bulk Modulus (GPa) = 40.47003 42.58252 41.52627
# Shear Modulus (GPa) = 29.41218 32.03169 30.72193
#
# Velocity S-wave (km/s) = 3.62187 3.77972 3.70164
# Velocity P-wave (km/s) = 5.96158 6.16769 6.06551
#
# Compressibility (1/GPa) = 0.02470964
#
# Stress axis : x y z
#
# Youngs Moduli (GPa) = 47.99100 74.35836 98.79642
#
# Poissons Ratio (x) = 0.45622 0.21316
# Poissons Ratio (y) = 0.29445 0.15372
# Poissons Ratio (z) = 0.10354 0.11569
#
# Static dielectric constant tensor:
#      x y z
#    x 3.668020 0.000000 0.000000 
#    y 0.000000 3.954230 0.000000 
#    z 0.000000 0.000000 4.160570 
# 
# 
# High freq. dielectric constant tensor:
#      x y z
#    x 1.852620 0.000000 0.000000 
#    y 0.000000 1.885730 0.000000 
#    z 0.000000 0.000000 1.902980 
# 
# From -- ./inp_files/6422.got.cif
#   From: 2010.03.12/outbox.cif.g09.slc.cpg/sg56_4_cif.got.tgz:6422.got - 2010.04.16 15:33:40.
