data_PCOD8228052
_publ_section_title
;
Structure prediction by ZEFSAII (Michael W. Deem and Ramdas Pophale) SiO2 
 PCOD8228052
Probable space group: P C C N
;
_chemical_formula_sum "Si O2"
_cell_formula_units_Z 48
_cell_length_a 9.033390
_cell_length_b 13.893688
_cell_length_c 17.508099
_cell_angle_alpha 90.000000
_cell_angle_beta 90.000000
_cell_angle_gamma 90.000000
_cell_volume 2197.390771
_symmetry_space_group_name_H-M "P C C N"
_symmetry_group_IT_number 56
_symmetry_cell_setting 'orthorhombic'
loop_
_space_group_symop_operation_xyz
x,y,z
1/2-x,1/2-y,z
1/2+x,-y,1/2-z
-x,1/2+y,1/2-z
-x,-y,-z
1/2+x,1/2+y,-z
1/2-x,y,1/2+z
x,1/2-y,1/2+z
loop_
_atom_site_type_symbol
_atom_site_label
_atom_site_fract_x
_atom_site_fract_y
_atom_site_fract_z
Si Si1 0.983918 0.369073 0.738112
Si Si2 0.099628 0.303405 0.318403
Si Si3 0.208295 0.463513 0.214329
Si Si4 0.114679 0.440054 0.047002
Si Si5 0.084644 0.405898 0.471856
Si Si6 0.926220 0.757292 0.904898
O O1 0.986896 0.285864 0.803659
O O2 0.123097 0.442677 0.738481
O O3 0.980981 0.309200 0.660403
O O4 0.840223 0.436814 0.744910
O O5 0.250000 0.250000 0.342428
O O6 0.116612 0.368473 0.241523
O O7 0.049422 0.378268 0.384081
O O8 0.188399 0.484467 0.123746
O O9 0.019437 0.349163 0.076061
O O10 0.240563 0.417301 0.985243
O O11 0.000000 0.500000 0.000000
O O12 0.032573 0.315620 0.520034
O O13 0.000000 0.500000 0.500000
O O14 0.750000 0.750000 0.884489
#
# Coordination Sequence:
#
# PCOD8228052 Si02
#       6
#     8   8   8   8   8   8
#     4  11  21  41  66  95 127 168 219 264 322 380
#     4  10  21  38  65  97 119 170 226 255 305 403
#     4  11  23  39  67  94 129 167 213 271 316 379
#     4  11  24  41  65  95 128 168 215 264 321 382
#     4  11  23  40  67  93 126 169 216 264 323 382
#     4  10  18  41  66  86 122 174 210 255 313 386
#
# _framework density 21.844090999999999
#
# number of rings (size 3 to 8) (size 9 to 14) (size 15 to 20)
#    0.000    1.333    5.000    3.000    7.000    0.000 
#    0.000    1.667    0.000    0.000    0.000    0.000 
#    0.000    0.000    0.000    0.000    0.000    0.000 
#
# Total GULP energy -594762.228284 kJ/mol
# GULP energy per Si atom -12390.879756 kJ/mol
# Density = 2.179437 g / cm^3
# Si number density = 21.844091 Si / 1000 Ang^3
#
#
#
# Elastic Constant Matrix: (Units=GPa)
#
#
# Indices 1 2 3 4 5 6 
#
# 1 35.1687 39.0668 32.0685 0.0000 0.0000 0.0000
# 2 39.0668 125.3320 44.9035 0.0000 0.0000 0.0000
# 3 32.0685 44.9035 123.3561 0.0000 0.0000 0.0000
# 4 0.0000 0.0000 0.0000 51.6686 0.0000 0.0000
# 5 0.0000 0.0000 0.0000 0.0000 21.2674 0.0000
# 6 0.0000 0.0000 0.0000 0.0000 0.0000 39.2742
#
#
#
# Elastic Compliance Matrix: (Units=1/GPa)
#
#
# Indices 1 2 3 4 5 6 
#
# 1 0.050134 -0.012601 -0.008446 0.000000 0.000000 0.000000
# 2 -0.012601 0.012343 -0.001217 0.000000 0.000000 0.000000
# 3 -0.008446 -0.001217 0.010745 0.000000 0.000000 0.000000
# 4 0.000000 0.000000 0.000000 0.019354 0.000000 0.000000
# 5 0.000000 0.000000 0.000000 0.000000 0.047020 0.000000
# 6 0.000000 0.000000 0.000000 0.000000 0.000000 0.025462
#
#
# Mechanical properties :
#
#
# Convention : Reuss Voigt Hill
#
# Bulk Modulus (GPa) = 34.85137 57.32605 46.08871
# Shear Modulus (GPa) = 22.81536 33.62992 28.22264
#
# Velocity S-wave (km/s) = 3.23532 3.92796 3.59834
# Velocity P-wave (km/s) = 5.47226 6.84632 6.19749
#
# Compressibility (1/GPa) = 0.02869328
#
# Stress axis : x y z
#
# Youngs Moduli (GPa) = 19.94673 81.01987 93.06332
#
# Poissons Ratio (x) = 1.02092 0.78603
# Poissons Ratio (y) = 0.25135 0.11327
# Poissons Ratio (z) = 0.16847 0.09861
#
# Static dielectric constant tensor:
#      x y z
#    x 3.107250 0.000000 0.000000 
#    y 0.000000 4.444320 0.000000 
#    z 0.000000 0.000000 3.999850 
# 
# 
# High freq. dielectric constant tensor:
#      x y z
#    x 1.802470 0.000000 0.000000 
#    y 0.000000 1.878500 0.000000 
#    z 0.000000 0.000000 1.868680 
# 
# From -- ./inp_files/14791.got.cif
#   From: 2010.03.12/outbox.cif.g09.slc.cpg/sg56_8_cif.got.tgz:14791.got - 2010.04.16 15:33:40.
