data_PCOD8228730
_publ_section_title
;
Structure prediction by ZEFSAII (Michael W. Deem and Ramdas Pophale) SiO2 
 PCOD8228730
Probable space group: P C C N
;
_chemical_formula_sum "Si O2"
_cell_formula_units_Z 60
_cell_length_a 8.727346
_cell_length_b 15.379562
_cell_length_c 21.665882
_cell_angle_alpha 90.000000
_cell_angle_beta 90.000000
_cell_angle_gamma 90.000000
_cell_volume 2908.054456
_symmetry_space_group_name_H-M "P C C N"
_symmetry_group_IT_number 56
_symmetry_cell_setting 'orthorhombic'
loop_
_space_group_symop_operation_xyz
x,y,z
1/2-x,1/2-y,z
1/2+x,-y,1/2-z
-x,1/2+y,1/2-z
-x,-y,-z
1/2+x,1/2+y,-z
1/2-x,y,1/2+z
x,1/2-y,1/2+z
loop_
_atom_site_type_symbol
_atom_site_label
_atom_site_fract_x
_atom_site_fract_y
_atom_site_fract_z
Si Si1 0.681446 0.886061 0.742385
Si Si2 0.894912 0.604207 0.419761
Si Si3 0.305156 0.340317 0.892010
Si Si4 0.674861 0.518213 0.517268
Si Si5 0.307088 0.657672 0.979545
Si Si6 0.250000 0.250000 0.163306
Si Si7 0.328251 0.835854 0.617914
Si Si8 0.596126 0.011811 0.310368
O O1 0.747429 0.847578 0.678948
O O2 0.642708 0.808979 0.791430
O O3 0.533691 0.945162 0.731372
O O4 0.815931 0.944514 0.768773
O O5 0.763215 0.550414 0.455448
O O6 0.842239 0.687379 0.381482
O O7 0.973083 0.537136 0.371156
O O8 0.011841 0.643746 0.469809
O O9 0.250000 0.250000 0.920907
O O10 0.488945 0.339617 0.892252
O O11 0.212057 0.412123 0.930162
O O12 0.500000 0.500000 0.500000
O O13 0.728368 0.427533 0.548590
O O14 0.250000 0.750000 0.950636
O O15 0.254493 0.653553 0.050733
O O16 0.250000 0.750000 0.647559
O O17 0.286911 0.913737 0.664702
#
# Coordination Sequence:
#
# PCOD8228730 Si02
#       8
#     8   8   8   8   8   4   8   8
#     4  10  22  45  64  93 125 170 227 260 327 380
#     4  11  23  44  68  93 138 172 214 272 348 387
#     4  11  24  40  68  93 132 169 215 271 323 391
#     4  12  27  40  66 104 134 169 222 271 339 409
#     4  11  23  42  64  94 135 168 213 267 332 406
#     4  10  24  42  68  94 132 178 214 280 326 392
#     4  10  21  38  65  94 126 168 214 259 325 387
#     4  10  22  42  68  90 127 174 212 277 318 389
#
# _framework density 20.632352000000001
#
# number of rings (size 3 to 8) (size 9 to 14) (size 15 to 20)
#    0.000    1.333    3.333    2.000    6.533    3.200 
#    4.800    0.000    0.000    0.000    0.000    0.000 
#    0.000    0.000    0.000    0.000    0.000    0.000 
#
# Total GULP energy -743364.844875 kJ/mol
# GULP energy per Si atom -12389.414081 kJ/mol
# Density = 2.058539 g / cm^3
# Si number density = 20.632352 Si / 1000 Ang^3
#
#
#
# Elastic Constant Matrix: (Units=GPa)
#
#
# Indices 1 2 3 4 5 6 
#
# 1 94.3234 51.0265 25.7053 0.0000 0.0000 0.0000
# 2 51.0265 164.5497 43.1636 0.0000 0.0000 0.0000
# 3 25.7053 43.1636 82.9208 0.0000 0.0000 0.0000
# 4 0.0000 0.0000 0.0000 35.5592 0.0000 0.0000
# 5 0.0000 0.0000 0.0000 0.0000 19.8957 0.0000
# 6 0.0000 0.0000 0.0000 0.0000 0.0000 35.6330
#
#
#
# Elastic Compliance Matrix: (Units=1/GPa)
#
#
# Indices 1 2 3 4 5 6 
#
# 1 0.013092 -0.003469 -0.002253 0.000000 0.000000 0.000000
# 2 -0.003469 0.007957 -0.003067 0.000000 0.000000 0.000000
# 3 -0.002253 -0.003067 0.014354 0.000000 0.000000 0.000000
# 4 0.000000 0.000000 0.000000 0.028122 0.000000 0.000000
# 5 0.000000 0.000000 0.000000 0.000000 0.050262 0.000000
# 6 0.000000 0.000000 0.000000 0.000000 0.000000 0.028064
#
#
# Mechanical properties :
#
#
# Convention : Reuss Voigt Hill
#
# Bulk Modulus (GPa) = 56.09464 64.62054 60.35759
# Shear Modulus (GPa) = 30.23490 33.01082 31.62286
#
# Velocity S-wave (km/s) = 3.83222 4.00428 3.91920
# Velocity P-wave (km/s) = 6.84310 7.26409 7.05673
#
# Compressibility (1/GPa) = 0.01782702
#
# Stress axis : x y z
#
# Youngs Moduli (GPa) = 76.38018 125.66977 69.66477
#
# Poissons Ratio (x) = 0.43594 0.15695
# Poissons Ratio (y) = 0.26496 0.21364
# Poissons Ratio (z) = 0.17208 0.38540
#
# Static dielectric constant tensor:
#      x y z
#    x 3.472350 0.000000 0.000000 
#    y 0.000000 4.414830 0.000000 
#    z 0.000000 0.000000 3.962550 
# 
# 
# High freq. dielectric constant tensor:
#      x y z
#    x 1.778170 0.000000 0.000000 
#    y 0.000000 1.839530 0.000000 
#    z 0.000000 0.000000 1.808130 
# 
# From -- ./inp_files/20618.got.cif
#   From: 2010.03.12/outbox.cif.g09.slc.cpg/sg56_11_cif.got.tgz:20618.got - 2010.04.16 15:33:40.
