data_PCOD8228652
_publ_section_title
;
Structure prediction by ZEFSAII (Michael W. Deem and Ramdas Pophale) SiO2 
 PCOD8228652
Probable space group: P C C N
;
_chemical_formula_sum "Si O2"
_cell_formula_units_Z 64
_cell_length_a 11.242088
_cell_length_b 14.283302
_cell_length_c 18.961809
_cell_angle_alpha 90.000000
_cell_angle_beta 90.000000
_cell_angle_gamma 90.000000
_cell_volume 3044.776135
_symmetry_space_group_name_H-M "P C C N"
_symmetry_group_IT_number 56
_symmetry_cell_setting 'orthorhombic'
loop_
_space_group_symop_operation_xyz
x,y,z
1/2-x,1/2-y,z
1/2+x,-y,1/2-z
-x,1/2+y,1/2-z
-x,-y,-z
1/2+x,1/2+y,-z
1/2-x,y,1/2+z
x,1/2-y,1/2+z
loop_
_atom_site_type_symbol
_atom_site_label
_atom_site_fract_x
_atom_site_fract_y
_atom_site_fract_z
Si Si1 0.076910 0.092858 0.997729
Si Si2 0.356349 0.487498 0.626464
Si Si3 0.348175 0.452170 0.470307
Si Si4 0.952922 0.663785 0.237405
Si Si5 0.169733 0.329848 0.625827
Si Si6 0.891425 0.471845 0.177027
Si Si7 0.108858 0.260725 0.904936
Si Si8 0.784433 0.355088 0.774336
O O1 0.213110 0.066500 0.990110
O O2 0.044169 0.169522 0.938389
O O3 0.062566 0.143739 0.073277
O O4 0.000000 0.000000 0.000000
O O5 0.401708 0.494617 0.544018
O O6 0.249302 0.419004 0.641413
O O7 0.467325 0.450155 0.673358
O O8 0.305480 0.587382 0.653066
O O9 0.346376 0.523177 0.404187
O O10 0.416437 0.355618 0.449538
O O11 0.885117 0.711077 0.302556
O O12 0.878324 0.571703 0.215306
O O13 0.952679 0.734319 0.171488
O O14 0.086996 0.643234 0.263856
O O15 0.250000 0.250000 0.589077
O O16 0.815777 0.396441 0.221323
O O17 0.250000 0.250000 0.896639
O O18 0.750000 0.250000 0.795425
#
# Coordination Sequence:
#
# PCOD8228652 Si02
#       8
#     8   8   8   8   8   8   8   8
#     4  10  21  35  58  93 133 165 201 270 327 379
#     4  10  21  41  65  92 123 167 212 265 325 387
#     4   9  19  37  65  88 122 164 217 266 317 389
#     4  10  22  39  64  89 122 168 217 265 317 390
#     4  11  22  38  63  97 125 160 221 268 319 382
#     4  10  21  41  61  88 123 167 213 266 324 390
#     4   9  18  39  60  93 126 161 216 265 325 383
#     4  11  25  42  59  89 133 169 212 267 331 385
#
# _framework density 21.019608000000002
#
# number of rings (size 3 to 8) (size 9 to 14) (size 15 to 20)
#    0.000    2.000    1.250    2.625    3.500    2.000 
#    0.000    0.625    0.000    0.000    0.000    0.000 
#    0.000    0.000    0.000    0.000    0.000    0.000 
#
# Total GULP energy -793148.072502 kJ/mol
# GULP energy per Si atom -12392.938633 kJ/mol
# Density = 2.097177 g / cm^3
# Si number density = 21.019608 Si / 1000 Ang^3
#
#
#
# Elastic Constant Matrix: (Units=GPa)
#
#
# Indices 1 2 3 4 5 6 
#
# 1 58.4092 37.5546 50.9382 0.0000 0.0000 0.0000
# 2 37.5546 129.4954 64.4492 0.0000 0.0000 0.0000
# 3 50.9382 64.4492 144.8668 0.0000 0.0000 0.0000
# 4 0.0000 0.0000 0.0000 27.0459 0.0000 0.0000
# 5 0.0000 0.0000 0.0000 0.0000 25.7054 0.0000
# 6 0.0000 0.0000 0.0000 0.0000 0.0000 35.7981
#
#
#
# Elastic Compliance Matrix: (Units=1/GPa)
#
#
# Indices 1 2 3 4 5 6 
#
# 1 0.026111 -0.003857 -0.007465 0.000000 0.000000 0.000000
# 2 -0.003857 0.010488 -0.003310 0.000000 0.000000 0.000000
# 3 -0.007465 -0.003310 0.011000 0.000000 0.000000 0.000000
# 4 0.000000 0.000000 0.000000 0.036974 0.000000 0.000000
# 5 0.000000 0.000000 0.000000 0.000000 0.038902 0.000000
# 6 0.000000 0.000000 0.000000 0.000000 0.000000 0.027934
#
#
# Mechanical properties :
#
#
# Convention : Reuss Voigt Hill
#
# Bulk Modulus (GPa) = 54.53972 70.96170 62.75071
# Shear Modulus (GPa) = 26.76863 29.69851 28.23357
#
# Velocity S-wave (km/s) = 3.57250 3.76293 3.66895
# Velocity P-wave (km/s) = 6.55899 7.26034 6.91856
#
# Compressibility (1/GPa) = 0.01833526
#
# Stress axis : x y z
#
# Youngs Moduli (GPa) = 38.29844 95.34613 90.90650
#
# Poissons Ratio (x) = 0.36774 0.67863
# Poissons Ratio (y) = 0.14771 0.30089
# Poissons Ratio (z) = 0.28591 0.31558
#
# Static dielectric constant tensor:
#      x y z
#    x 3.949400 0.000000 0.000000 
#    y 0.000000 3.921250 0.000000 
#    z 0.000000 0.000000 4.127450 
# 
# 
# High freq. dielectric constant tensor:
#      x y z
#    x 1.814660 0.000000 0.000000 
#    y 0.000000 1.812680 0.000000 
#    z 0.000000 0.000000 1.830220 
# 
# From -- ./inp_files/15827.got.cif
#   From: 2010.03.12/outbox.cif.g09.slc.cpg/sg56_8_cif.got.tgz:15827.got - 2010.04.16 15:33:40.
