data_PCOD8228869
_publ_section_title
;
Structure prediction by ZEFSAII (Michael W. Deem and Ramdas Pophale) SiO2 
 PCOD8228869
Probable space group: P C C N
;
_chemical_formula_sum "Si O2"
_cell_formula_units_Z 64
_cell_length_a 13.114090
_cell_length_b 13.305574
_cell_length_c 16.981363
_cell_angle_alpha 90.000000
_cell_angle_beta 90.000000
_cell_angle_gamma 90.000000
_cell_volume 2963.086435
_symmetry_space_group_name_H-M "P C C N"
_symmetry_group_IT_number 56
_symmetry_cell_setting 'orthorhombic'
loop_
_space_group_symop_operation_xyz
x,y,z
1/2-x,1/2-y,z
1/2+x,-y,1/2-z
-x,1/2+y,1/2-z
-x,-y,-z
1/2+x,1/2+y,-z
1/2-x,y,1/2+z
x,1/2-y,1/2+z
loop_
_atom_site_type_symbol
_atom_site_label
_atom_site_fract_x
_atom_site_fract_y
_atom_site_fract_z
Si Si1 0.857040 0.802440 0.295671
Si Si2 0.509068 0.762508 0.436940
Si Si3 0.576670 0.061122 0.665375
Si Si4 0.511436 0.091044 0.442355
Si Si5 0.268258 0.632587 0.112068
Si Si6 0.943535 0.404984 0.962367
Si Si7 0.053794 0.363934 0.803185
Si Si8 0.253611 0.008797 0.755429
O O1 0.750000 0.750000 0.298961
O O2 0.925818 0.750256 0.227263
O O3 0.904841 0.785195 0.381940
O O4 0.836565 0.919586 0.280231
O O5 0.444231 0.847137 0.392595
O O6 0.552625 0.817232 0.516906
O O7 0.435772 0.673869 0.466109
O O8 0.533084 0.085031 0.751322
O O9 0.698863 0.052316 0.674248
O O10 0.532561 0.951365 0.639608
O O11 0.629578 0.125209 0.439118
O O12 0.500000 0.000000 0.500000
O O13 0.250000 0.750000 0.132521
O O14 0.172369 0.579969 0.067740
O O15 0.292799 0.569022 0.190420
O O16 0.014593 0.361407 0.892253
O O17 0.000000 0.500000 0.000000
O O18 0.155631 0.429158 0.793865
#
# Coordination Sequence:
#
# PCOD8228869 Si02
#       8
#     8   8   8   8   8   8   8   8
#     4   9  21  41  69  94 133 177 226 286 333 400
#     4  10  22  42  62  97 134 174 220 279 338 402
#     4  10  21  41  69  95 124 173 232 273 330 407
#     4  10  22  41  70  92 132 181 225 279 334 417
#     4  12  24  43  68  99 138 183 223 282 355 412
#     4  12  26  44  66  99 143 179 219 284 350 407
#     4  10  22  43  66  98 132 174 233 276 336 406
#     4  11  22  42  70 100 130 176 230 285 337 407
#
# _framework density 21.599098999999999
#
# number of rings (size 3 to 8) (size 9 to 14) (size 15 to 20)
#    0.000    1.500    3.750    0.750    3.500    2.000 
#    4.500    0.000    0.000    0.000    0.000    0.000 
#    0.000    0.000    0.000    0.000    0.000    0.000 
#
# Total GULP energy -792984.873828 kJ/mol
# GULP energy per Si atom -12390.388654 kJ/mol
# Density = 2.154994 g / cm^3
# Si number density = 21.599099 Si / 1000 Ang^3
#
#
#
# Elastic Constant Matrix: (Units=GPa)
#
#
# Indices 1 2 3 4 5 6 
#
# 1 69.0588 13.5849 27.3997 0.0000 0.0000 0.0000
# 2 13.5849 78.0096 32.6284 0.0000 0.0000 0.0000
# 3 27.3997 32.6284 84.9017 0.0000 0.0000 0.0000
# 4 0.0000 0.0000 0.0000 26.2062 0.0000 0.0000
# 5 0.0000 0.0000 0.0000 0.0000 28.1007 0.0000
# 6 0.0000 0.0000 0.0000 0.0000 0.0000 17.9491
#
#
#
# Elastic Compliance Matrix: (Units=1/GPa)
#
#
# Indices 1 2 3 4 5 6 
#
# 1 0.016646 -0.000777 -0.005074 0.000000 0.000000 0.000000
# 2 -0.000777 0.015310 -0.005633 0.000000 0.000000 0.000000
# 3 -0.005074 -0.005633 0.015581 0.000000 0.000000 0.000000
# 4 0.000000 0.000000 0.000000 0.038159 0.000000 0.000000
# 5 0.000000 0.000000 0.000000 0.000000 0.035586 0.000000
# 6 0.000000 0.000000 0.000000 0.000000 0.000000 0.055713
#
#
# Mechanical properties :
#
#
# Convention : Reuss Voigt Hill
#
# Bulk Modulus (GPa) = 40.70000 42.13289 41.41644
# Shear Modulus (GPa) = 24.02083 25.00834 24.51458
#
# Velocity S-wave (km/s) = 3.33847 3.40640 3.37260
# Velocity P-wave (km/s) = 5.80902 5.91781 5.86367
#
# Compressibility (1/GPa) = 0.02457003
#
# Stress axis : x y z
#
# Youngs Moduli (GPa) = 60.07373 65.31528 64.18242
#
# Poissons Ratio (x) = 0.05073 0.32564
# Poissons Ratio (y) = 0.04666 0.36155
# Poissons Ratio (z) = 0.30479 0.36794
#
# Static dielectric constant tensor:
#      x y z
#    x 3.812060 0.000000 0.000000 
#    y 0.000000 4.652640 0.000000 
#    z 0.000000 0.000000 4.349470 
# 
# 
# High freq. dielectric constant tensor:
#      x y z
#    x 1.833610 0.000000 0.000000 
#    y 0.000000 1.864650 0.000000 
#    z 0.000000 0.000000 1.851370 
# 
# From -- ./inp_files/16353.got.cif
#   From: 2010.03.12/outbox.cif.g09.slc.cpg/sg56_9_cif.got.tgz:16353.got - 2010.04.16 15:33:40.
