data_PCOD8228761
_publ_section_title
;
Structure prediction by ZEFSAII (Michael W. Deem and Ramdas Pophale) SiO2 
 PCOD8228761
Probable space group: P C C N
;
_chemical_formula_sum "Si O2"
_cell_formula_units_Z 36
_cell_length_a 7.824585
_cell_length_b 14.682003
_cell_length_c 13.906760
_cell_angle_alpha 90.000000
_cell_angle_beta 90.000000
_cell_angle_gamma 90.000000
_cell_volume 1597.616661
_symmetry_space_group_name_H-M "P C C N"
_symmetry_group_IT_number 56
_symmetry_cell_setting 'orthorhombic'
loop_
_space_group_symop_operation_xyz
x,y,z
1/2-x,1/2-y,z
1/2+x,-y,1/2-z
-x,1/2+y,1/2-z
-x,-y,-z
1/2+x,1/2+y,-z
1/2-x,y,1/2+z
x,1/2-y,1/2+z
loop_
_atom_site_type_symbol
_atom_site_label
_atom_site_fract_x
_atom_site_fract_y
_atom_site_fract_z
Si Si1 0.193870 0.885480 0.931361
Si Si2 0.610537 0.544635 0.833423
Si Si3 0.516752 0.921266 0.832575
Si Si4 0.750000 0.250000 0.901830
Si Si5 0.973434 0.221506 0.225726
O O1 0.372528 0.938931 0.914244
O O2 0.183212 0.813315 0.842584
O O3 0.023196 0.949266 0.923476
O O4 0.198152 0.837075 0.034338
O O5 0.550884 0.461807 0.767398
O O6 0.614442 0.640751 0.774893
O O7 0.807014 0.529581 0.867227
O O8 0.551451 0.813937 0.817196
O O9 0.587482 0.229117 0.835591
#
# Coordination Sequence:
#
# PCOD8228761 Si02
#       5
#     8   8   8   4   8
#     4  10  21  39  63  90 117 167 197 252 305 354
#     4  10  22  37  67  91 119 168 205 250 309 363
#     4  12  18  41  67  86 128 161 208 251 306 367
#     4  12  18  40  70  86 128 160 206 250 316 362
#     4  10  21  39  63  91 119 168 199 252 308 358
#
# _framework density 22.533567000000001
#
# number of rings (size 3 to 8) (size 9 to 14) (size 15 to 20)
#    1.333    0.000    6.667    0.667    0.000    0.000 
#    0.000    6.667    0.000    0.000    0.000    0.000 
#    0.000    0.000    0.000    0.000    0.000    0.000 
#
# Total GULP energy -445981.803867 kJ/mol
# GULP energy per Si atom -12388.383441 kJ/mol
# Density = 2.248228 g / cm^3
# Si number density = 22.533567 Si / 1000 Ang^3
#
#
#
# Elastic Constant Matrix: (Units=GPa)
#
#
# Indices 1 2 3 4 5 6 
#
# 1 155.5195 -2.7723 20.6906 0.0000 0.0000 0.0000
# 2 -2.7723 46.4893 -12.7930 0.0000 0.0000 0.0000
# 3 20.6906 -12.7930 92.1248 0.0000 0.0000 0.0000
# 4 0.0000 0.0000 0.0000 -18.8327 0.0000 0.0000
# 5 0.0000 0.0000 0.0000 0.0000 -11.5490 0.0000
# 6 0.0000 0.0000 0.0000 0.0000 0.0000 27.8950
#
#
#
# Elastic Compliance Matrix: (Units=1/GPa)
#
#
# Indices 1 2 3 4 5 6 
#
# 1 0.006628 -0.000015 -0.001491 0.000000 0.000000 0.000000
# 2 -0.000015 0.022365 0.003109 0.000000 0.000000 0.000000
# 3 -0.001491 0.003109 0.011621 0.000000 0.000000 0.000000
# 4 0.000000 0.000000 0.000000 -0.053099 0.000000 0.000000
# 5 0.000000 0.000000 0.000000 0.000000 -0.086587 0.000000
# 6 0.000000 0.000000 0.000000 0.000000 0.000000 0.035849
#
#
# Mechanical properties :
#
#
# Convention : Reuss Voigt Hill
#
# Bulk Modulus (GPa) = 22.81990 33.82045 28.32018
# Shear Modulus (GPa) = -96.48218 18.76988 -38.85615
#
# Velocity S-wave (km/s) = -6.55058 2.88926 -4.15706
# Velocity P-wave (km/s) = 6.86035 5.11585 3.23206
#
# Compressibility (1/GPa) = 0.04382139
#
# Stress axis : x y z
#
# Youngs Moduli (GPa) = 150.87230 44.71270 86.04821
#
# Poissons Ratio (x) = 0.00067 0.12827
# Poissons Ratio (y) = 0.00226 -0.26753
# Poissons Ratio (z) = 0.22491 -0.13902
#
# Static dielectric constant tensor:
#      x y z
#    x 4.030720 0.000000 0.000000 
#    y 0.000000 4.011010 0.000000 
#    z 0.000000 0.000000 3.538530 
# 
# 
# High freq. dielectric constant tensor:
#      x y z
#    x 1.891380 0.000000 0.000000 
#    y 0.000000 1.893150 0.000000 
#    z 0.000000 0.000000 1.855580 
# 
# From -- ./inp_files/10272.got.cif
#   From: 2010.03.12/outbox.cif.g09.slc.cpg/sg56_6_cif.got.tgz:10272.got - 2010.04.16 15:33:40.
