data_PCOD8228436
_publ_section_title
;
Structure prediction by ZEFSAII (Michael W. Deem and Ramdas Pophale) SiO2 
 PCOD8228436
Probable space group: P C C N
;
_chemical_formula_sum "Si O2"
_cell_formula_units_Z 52
_cell_length_a 9.433792
_cell_length_b 14.656936
_cell_length_c 17.343815
_cell_angle_alpha 90.000000
_cell_angle_beta 90.000000
_cell_angle_gamma 90.000000
_cell_volume 2398.137722
_symmetry_space_group_name_H-M "P C C N"
_symmetry_group_IT_number 56
_symmetry_cell_setting 'orthorhombic'
loop_
_space_group_symop_operation_xyz
x,y,z
1/2-x,1/2-y,z
1/2+x,-y,1/2-z
-x,1/2+y,1/2-z
-x,-y,-z
1/2+x,1/2+y,-z
1/2-x,y,1/2+z
x,1/2-y,1/2+z
loop_
_atom_site_type_symbol
_atom_site_label
_atom_site_fract_x
_atom_site_fract_y
_atom_site_fract_z
Si Si1 0.701159 0.444429 0.921309
Si Si2 0.250000 0.750000 0.369706
Si Si3 0.963117 0.194629 0.256551
Si Si4 0.750000 0.250000 0.874923
Si Si5 0.406449 0.423656 0.841669
Si Si6 0.701668 0.053828 0.086243
Si Si7 0.250000 0.250000 0.307592
Si Si8 0.065440 0.493749 0.181175
O O1 0.762306 0.341313 0.924580
O O2 0.534975 0.439349 0.901518
O O3 0.777965 0.506770 0.856834
O O4 0.742455 0.486485 0.004526
O O5 0.386750 0.782878 0.322721
O O6 0.205540 0.836602 0.420236
O O7 0.890788 0.259235 0.321728
O O8 0.953308 0.090288 0.278982
O O9 0.128797 0.215132 0.250131
O O10 0.305326 0.511869 0.849298
O O11 0.315824 0.331559 0.860857
O O12 0.451328 0.419443 0.750394
O O13 0.543931 0.023632 0.111142
#
# Coordination Sequence:
#
# PCOD8228436 Si02
#       8
#     8   4   8   4   8   8   4   8
#     4  11  24  41  64  96 135 176 221 276 340 398
#     4  11  23  42  64  98 132 174 222 278 336 392
#     4  10  20  37  65  93 127 167 225 277 321 386
#     4   9  19  38  62  90 124 174 218 272 324 392
#     4  12  24  42  65  98 133 175 221 282 329 401
#     4  12  24  42  66  95 135 176 218 276 341 402
#     4  12  22  38  64  98 126 166 226 270 332 386
#     4  11  23  42  67  95 128 173 228 276 332 393
#
# _framework density 21.683492000000001
#
# number of rings (size 3 to 8) (size 9 to 14) (size 15 to 20)
#    0.000    0.923    4.615    3.231    2.154    0.000 
#    0.000    0.000    0.000    1.846    0.000    0.000 
#    0.000    0.000    0.000    0.000    0.000    0.000 
#
# Total GULP energy -644554.847642 kJ/mol
# GULP energy per Si atom -12395.285532 kJ/mol
# Density = 2.163414 g / cm^3
# Si number density = 21.683492 Si / 1000 Ang^3
#
#
#
# Elastic Constant Matrix: (Units=GPa)
#
#
# Indices 1 2 3 4 5 6 
#
# 1 146.3501 30.8132 33.0598 0.0000 0.0000 0.0000
# 2 30.8132 74.9731 30.5552 0.0000 0.0000 0.0000
# 3 33.0598 30.5552 87.0158 0.0000 0.0000 0.0000
# 4 0.0000 0.0000 0.0000 21.0449 0.0000 0.0000
# 5 0.0000 0.0000 0.0000 0.0000 26.6064 0.0000
# 6 0.0000 0.0000 0.0000 0.0000 0.0000 28.3658
#
#
#
# Elastic Compliance Matrix: (Units=1/GPa)
#
#
# Indices 1 2 3 4 5 6 
#
# 1 0.007810 -0.002335 -0.002147 0.000000 0.000000 0.000000
# 2 -0.002335 0.016264 -0.004824 0.000000 0.000000 0.000000
# 3 -0.002147 -0.004824 0.014002 0.000000 0.000000 0.000000
# 4 0.000000 0.000000 0.000000 0.047517 0.000000 0.000000
# 5 0.000000 0.000000 0.000000 0.000000 0.037585 0.000000
# 6 0.000000 0.000000 0.000000 0.000000 0.000000 0.035254
#
#
# Mechanical properties :
#
#
# Convention : Reuss Voigt Hill
#
# Bulk Modulus (GPa) = 51.37826 55.24393 53.31110
# Shear Modulus (GPa) = 27.24345 29.46414 28.35379
#
# Velocity S-wave (km/s) = 3.54844 3.69023 3.62003
# Velocity P-wave (km/s) = 6.36668 6.60982 6.48939
#
# Compressibility (1/GPa) = 0.01946349
#
# Stress axis : x y z
#
# Youngs Moduli (GPa) = 128.04895 61.48719 71.41893
#
# Poissons Ratio (x) = 0.14354 0.15336
# Poissons Ratio (y) = 0.29893 0.34452
# Poissons Ratio (z) = 0.27496 0.29661
#
# Static dielectric constant tensor:
#      x y z
#    x 4.022150 0.000000 0.000000 
#    y 0.000000 3.972030 0.000000 
#    z 0.000000 0.000000 3.597310 
# 
# 
# High freq. dielectric constant tensor:
#      x y z
#    x 1.859500 0.000000 0.000000 
#    y 0.000000 1.856460 0.000000 
#    z 0.000000 0.000000 1.824730 
# 
# From -- ./inp_files/15074.got.cif
#   From: 2010.03.12/outbox.cif.g09.slc.cpg/sg56_8_cif.got.tgz:15074.got - 2010.04.16 15:33:40.
