data_PCOD8228257
_publ_section_title
;
Structure prediction by ZEFSAII (Michael W. Deem and Ramdas Pophale) SiO2 
 PCOD8228257
Probable space group: P C C N
;
_chemical_formula_sum "Si O2"
_cell_formula_units_Z 64
_cell_length_a 13.401442
_cell_length_b 13.251535
_cell_length_c 17.755728
_cell_angle_alpha 90.000000
_cell_angle_beta 90.000000
_cell_angle_gamma 90.000000
_cell_volume 3153.234013
_symmetry_space_group_name_H-M "P C C N"
_symmetry_group_IT_number 56
_symmetry_cell_setting 'orthorhombic'
loop_
_space_group_symop_operation_xyz
x,y,z
1/2-x,1/2-y,z
1/2+x,-y,1/2-z
-x,1/2+y,1/2-z
-x,-y,-z
1/2+x,1/2+y,-z
1/2-x,y,1/2+z
x,1/2-y,1/2+z
loop_
_atom_site_type_symbol
_atom_site_label
_atom_site_fract_x
_atom_site_fract_y
_atom_site_fract_z
Si Si1 0.189999 0.028141 0.481309
Si Si2 0.171156 0.168634 0.073584
Si Si3 0.009305 0.633533 0.826895
Si Si4 0.973204 0.685515 0.992777
Si Si5 0.680719 0.517192 0.689683
Si Si6 0.164911 0.832525 0.573220
Si Si7 0.130466 0.540110 0.216728
Si Si8 0.046740 0.346380 0.718981
O O1 0.273790 0.076694 0.534086
O O2 0.082604 0.081905 0.485982
O O3 0.222179 0.030029 0.394376
O O4 0.180572 0.914183 0.508008
O O5 0.250000 0.250000 0.107163
O O6 0.105685 0.223094 0.009203
O O7 0.102094 0.127399 0.140710
O O8 0.024021 0.674533 0.910993
O O9 0.920320 0.552344 0.827435
O O10 0.979091 0.727532 0.773177
O O11 0.111724 0.582159 0.799949
O O12 0.055708 0.714162 0.055354
O O13 0.774187 0.505257 0.743205
O O14 0.618256 0.617505 0.712735
O O15 0.250000 0.750000 0.566467
O O16 0.165573 0.877228 0.656656
O O17 0.056156 0.590295 0.277570
#
# Coordination Sequence:
#
# PCOD8228257 Si02
#       8
#     8   8   8   8   8   8   8   8
#     4  11  21  43  68  93 129 166 221 269 325 399
#     4   9  21  40  68  96 123 166 216 278 325 379
#     4  10  21  42  68  90 126 177 217 263 321 400
#     4  10  19  42  68  91 119 168 223 260 318 389
#     4  11  24  40  64  98 130 176 212 267 338 399
#     4  12  25  40  67  98 126 173 219 271 323 398
#     4  11  25  44  60  94 138 171 212 273 340 386
#     4  10  23  40  65  97 127 172 224 264 324 397
#
# _framework density 20.296623
#
# number of rings (size 3 to 8) (size 9 to 14) (size 15 to 20)
#    0.000    1.500    2.500    2.625    5.250    2.000 
#    9.000    1.250    0.000    0.000    0.000    0.000 
#    0.000    0.000    0.000    0.000    0.000    0.000 
#
# Total GULP energy -793753.206728 kJ/mol
# GULP energy per Si atom -12402.393855 kJ/mol
# Density = 2.025043 g / cm^3
# Si number density = 20.296623 Si / 1000 Ang^3
#
#
#
# Elastic Constant Matrix: (Units=GPa)
#
#
# Indices 1 2 3 4 5 6 
#
# 1 93.9482 38.6855 22.2626 0.0000 0.0000 0.0000
# 2 38.6855 73.4272 17.2661 0.0000 0.0000 0.0000
# 3 22.2626 17.2661 81.2033 0.0000 0.0000 0.0000
# 4 0.0000 0.0000 0.0000 0.3849 0.0000 0.0000
# 5 0.0000 0.0000 0.0000 0.0000 20.9035 0.0000
# 6 0.0000 0.0000 0.0000 0.0000 0.0000 27.8614
#
#
#
# Elastic Compliance Matrix: (Units=1/GPa)
#
#
# Indices 1 2 3 4 5 6 
#
# 1 0.014021 -0.006825 -0.002393 0.000000 0.000000 0.000000
# 2 -0.006825 0.017657 -0.001883 0.000000 0.000000 0.000000
# 3 -0.002393 -0.001883 0.013371 0.000000 0.000000 0.000000
# 4 0.000000 0.000000 0.000000 2.597772 0.000000 0.000000
# 5 0.000000 0.000000 0.000000 0.000000 0.047839 0.000000
# 6 0.000000 0.000000 0.000000 0.000000 0.000000 0.035892
#
#
# Mechanical properties :
#
#
# Convention : Reuss Voigt Hill
#
# Bulk Modulus (GPa) = 43.76735 45.00082 44.38409
# Shear Modulus (GPa) = 1.81398 21.18759 11.50079
#
# Velocity S-wave (km/s) = 0.94640 3.23445 2.38299
# Velocity P-wave (km/s) = 4.77545 6.01403 5.43017
#
# Compressibility (1/GPa) = 0.02284808
#
# Stress axis : x y z
#
# Youngs Moduli (GPa) = 71.31951 56.63354 74.78700
#
# Poissons Ratio (x) = 0.38650 0.17897
# Poissons Ratio (y) = 0.48672 0.14086
# Poissons Ratio (z) = 0.17067 0.10667
#
# Static dielectric constant tensor:
#      x y z
#    x 3.817830 0.000000 0.000000 
#    y 0.000000 3.733810 0.000000 
#    z 0.000000 0.000000 3.597530 
# 
# 
# High freq. dielectric constant tensor:
#      x y z
#    x 1.800520 0.000000 0.000000 
#    y 0.000000 1.786060 0.000000 
#    z 0.000000 0.000000 1.787390 
# 
# From -- ./inp_files/15822.got.cif
#   From: 2010.03.12/outbox.cif.g09.slc.cpg/sg56_8_cif.got.tgz:15822.got - 2010.04.16 15:33:40.
