data_PCOD8228975
_publ_section_title
;
Structure prediction by ZEFSAII (Michael W. Deem and Ramdas Pophale) SiO2 
 PCOD8228975
Probable space group: P C C N
;
_chemical_formula_sum "Si O2"
_cell_formula_units_Z 56
_cell_length_a 20.061744
_cell_length_b 8.549302
_cell_length_c 15.125395
_cell_angle_alpha 90.000000
_cell_angle_beta 90.000000
_cell_angle_gamma 90.000000
_cell_volume 2594.215608
_symmetry_space_group_name_H-M "P C C N"
_symmetry_group_IT_number 56
_symmetry_cell_setting 'orthorhombic'
loop_
_space_group_symop_operation_xyz
x,y,z
1/2-x,1/2-y,z
1/2+x,-y,1/2-z
-x,1/2+y,1/2-z
-x,-y,-z
1/2+x,1/2+y,-z
1/2-x,y,1/2+z
x,1/2-y,1/2+z
loop_
_atom_site_type_symbol
_atom_site_label
_atom_site_fract_x
_atom_site_fract_y
_atom_site_fract_z
Si Si1 0.767392 0.574960 0.787304
Si Si2 0.061320 0.698335 0.068559
Si Si3 0.696033 0.382493 0.929403
Si Si4 0.944952 0.869647 0.166622
Si Si5 0.198821 0.107620 0.901112
Si Si6 0.906181 0.871355 0.363384
Si Si7 0.000335 0.365160 0.573235
O O1 0.750000 0.750000 0.762597
O O2 0.711456 0.477924 0.838875
O O3 0.781728 0.506939 0.688318
O O4 0.828966 0.589857 0.854428
O O5 0.126654 0.798560 0.092354
O O6 0.065998 0.514177 0.080148
O O7 0.001280 0.756055 0.129947
O O8 0.045461 0.725062 0.964537
O O9 0.750000 0.250000 0.947219
O O10 0.695819 0.494259 0.014565
O O11 0.875572 0.826677 0.117407
O O12 0.941525 0.847878 0.270298
O O13 0.965646 0.053670 0.157017
O O14 0.250000 0.250000 0.922177
O O15 0.925153 0.706282 0.411164
O O16 0.000000 0.500000 0.500000
#
# Coordination Sequence:
#
# PCOD8228975 Si02
#       7
#     8   8   8   8   8   8   8
#     4  10  24  41  68  96 129 177 230 278 329 405
#     4  11  23  41  64  96 132 170 221 271 336 396
#     4  12  24  43  66  97 136 181 219 278 345 397
#     4  10  22  42  67  94 128 169 218 278 331 395
#     4  10  23  46  67  98 130 175 231 278 335 403
#     4  11  22  42  63  94 133 168 220 271 334 398
#     4  10  22  38  63  91 126 166 209 268 320 390
#
# _framework density 21.586487000000002
#
# number of rings (size 3 to 8) (size 9 to 14) (size 15 to 20)
#    0.000    1.429    2.857    1.714    4.000    2.857 
#    5.143    0.000    0.000    0.000    0.000    0.000 
#    0.000    0.000    0.000    0.000    0.000    0.000 
#
# Total GULP energy -693850.777967 kJ/mol
# GULP energy per Si atom -12390.192464 kJ/mol
# Density = 2.153736 g / cm^3
# Si number density = 21.586487 Si / 1000 Ang^3
#
#
#
# Elastic Constant Matrix: (Units=GPa)
#
#
# Indices 1 2 3 4 5 6 
#
# 1 94.4799 24.6496 15.2295 0.0000 0.0000 0.0000
# 2 24.6496 90.0213 31.5986 0.0000 0.0000 0.0000
# 3 15.2295 31.5986 88.4315 0.0000 0.0000 0.0000
# 4 0.0000 0.0000 0.0000 47.5407 0.0000 0.0000
# 5 0.0000 0.0000 0.0000 0.0000 33.3928 0.0000
# 6 0.0000 0.0000 0.0000 0.0000 0.0000 43.7627
#
#
#
# Elastic Compliance Matrix: (Units=1/GPa)
#
#
# Indices 1 2 3 4 5 6 
#
# 1 0.011472 -0.002799 -0.000976 0.000000 0.000000 0.000000
# 2 -0.002799 0.013384 -0.004301 0.000000 0.000000 0.000000
# 3 -0.000976 -0.004301 0.013013 0.000000 0.000000 0.000000
# 4 0.000000 0.000000 0.000000 0.021035 0.000000 0.000000
# 5 0.000000 0.000000 0.000000 0.000000 0.029947 0.000000
# 6 0.000000 0.000000 0.000000 0.000000 0.000000 0.022851
#
#
# Mechanical properties :
#
#
# Convention : Reuss Voigt Hill
#
# Bulk Modulus (GPa) = 46.04214 46.20978 46.12596
# Shear Modulus (GPa) = 37.01232 38.36957 37.69094
#
# Velocity S-wave (km/s) = 4.14527 4.22059 4.18310
# Velocity P-wave (km/s) = 6.65481 6.72343 6.68921
#
# Compressibility (1/GPa) = 0.02171923
#
# Stress axis : x y z
#
# Youngs Moduli (GPa) = 87.17097 74.71400 76.84697
#
# Poissons Ratio (x) = 0.20911 0.07497
# Poissons Ratio (y) = 0.24397 0.33048
# Poissons Ratio (z) = 0.08504 0.32131
#
# Static dielectric constant tensor:
#      x y z
#    x 4.039450 0.000000 0.000000 
#    y 0.000000 3.960460 0.000000 
#    z 0.000000 0.000000 4.261290 
# 
# 
# High freq. dielectric constant tensor:
#      x y z
#    x 1.856170 0.000000 0.000000 
#    y 0.000000 1.841720 0.000000 
#    z 0.000000 0.000000 1.856490 
# 
# From -- ./inp_files/13054.got.cif
#   From: 2010.03.12/outbox.cif.g09.slc.cpg/sg56_7_cif.got.tgz:13054.got - 2010.04.16 15:33:40.
