data_PCOD8228395
_publ_section_title
;
Structure prediction by ZEFSAII (Michael W. Deem and Ramdas Pophale) SiO2 
 PCOD8228395
Probable space group: P C C N
;
_chemical_formula_sum "Si O2"
_cell_formula_units_Z 40
_cell_length_a 14.183689
_cell_length_b 10.160697
_cell_length_c 11.206434
_cell_angle_alpha 90.000000
_cell_angle_beta 90.000000
_cell_angle_gamma 90.000000
_cell_volume 1615.028306
_symmetry_space_group_name_H-M "P C C N"
_symmetry_group_IT_number 56
_symmetry_cell_setting 'orthorhombic'
loop_
_space_group_symop_operation_xyz
x,y,z
1/2-x,1/2-y,z
1/2+x,-y,1/2-z
-x,1/2+y,1/2-z
-x,-y,-z
1/2+x,1/2+y,-z
1/2-x,y,1/2+z
x,1/2-y,1/2+z
loop_
_atom_site_type_symbol
_atom_site_label
_atom_site_fract_x
_atom_site_fract_y
_atom_site_fract_z
Si Si1 0.396690 0.884931 0.030060
Si Si2 0.955541 0.730287 0.851231
Si Si3 0.242777 0.989465 0.338489
Si Si4 0.750000 0.250000 0.832308
Si Si5 0.250000 0.250000 0.699239
Si Si6 0.448479 0.992043 0.282588
O O1 0.339697 0.763096 0.082797
O O2 0.429141 0.972850 0.140907
O O3 0.486349 0.827086 0.961913
O O4 0.324191 0.972249 0.951989
O O5 0.843076 0.718593 0.879650
O O6 0.981916 0.645775 0.729031
O O7 0.977978 0.885168 0.830443
O O8 0.219064 0.129283 0.282089
O O9 0.220834 0.873462 0.246751
O O10 0.355406 0.981274 0.365707
#
# Coordination Sequence:
#
# PCOD8228395 Si02
#       6
#     8   8   8   4   4   8
#     4  11  20  37  64  93 121 162 209 254 308 374
#     4  11  22  41  61  87 125 164 206 257 305 368
#     4  10  21  41  65  92 128 160 205 263 311 373
#     4  10  20  36  64  98 122 160 210 260 310 364
#     4  10  24  42  60  86 128 170 204 258 322 360
#     4  10  23  40  64  93 122 164 205 252 315 366
#
# _framework density 24.767368000000001
#
# number of rings (size 3 to 8) (size 9 to 14) (size 15 to 20)
#    0.000    1.600    0.000    6.000    0.000    0.000 
#    0.000   26.000    0.000    2.400    0.000    0.000 
#    0.000    0.000    0.000    0.000    0.000    0.000 
#
# Total GULP energy -495585.119326 kJ/mol
# GULP energy per Si atom -12389.627983 kJ/mol
# Density = 2.471100 g / cm^3
# Si number density = 24.767368 Si / 1000 Ang^3
#
#
#
# Elastic Constant Matrix: (Units=GPa)
#
#
# Indices 1 2 3 4 5 6 
#
# 1 102.1632 2.8154 19.7006 0.0000 0.0000 0.0000
# 2 2.8154 99.9559 -9.6297 0.0000 0.0000 0.0000
# 3 19.7006 -9.6297 62.2738 0.0000 0.0000 0.0000
# 4 0.0000 0.0000 0.0000 -65.6264 0.0000 0.0000
# 5 0.0000 0.0000 0.0000 0.0000 26.9268 0.0000
# 6 0.0000 0.0000 0.0000 0.0000 0.0000 39.9338
#
#
#
# Elastic Compliance Matrix: (Units=1/GPa)
#
#
# Indices 1 2 3 4 5 6 
#
# 1 0.010462 -0.000623 -0.003406 0.000000 0.000000 0.000000
# 2 -0.000623 0.010193 0.001773 0.000000 0.000000 0.000000
# 3 -0.003406 0.001773 0.017410 0.000000 0.000000 0.000000
# 4 0.000000 0.000000 0.000000 -0.015238 0.000000 0.000000
# 5 0.000000 0.000000 0.000000 0.000000 0.037138 0.000000
# 6 0.000000 0.000000 0.000000 0.000000 0.000000 0.025041
#
#
# Mechanical properties :
#
#
# Convention : Reuss Voigt Hill
#
# Bulk Modulus (GPa) = 29.80322 32.24063 31.02192
# Shear Modulus (GPa) = 49.65137 17.01395 33.33266
#
# Velocity S-wave (km/s) = 4.48226 2.62382 3.67254
# Velocity P-wave (km/s) = 6.23273 4.71433 5.52593
#
# Compressibility (1/GPa) = 0.03355342
#
# Stress axis : x y z
#
# Youngs Moduli (GPa) = 95.58187 98.10864 57.43878
#
# Poissons Ratio (x) = 0.06111 0.19564
# Poissons Ratio (y) = 0.05953 -0.10185
# Poissons Ratio (z) = 0.32556 -0.17397
#
# Static dielectric constant tensor:
#      x y z
#    x 4.631040 0.000000 0.000000 
#    y 0.000000 5.108010 0.000000 
#    z 0.000000 0.000000 4.110100 
# 
# 
# High freq. dielectric constant tensor:
#      x y z
#    x 1.999120 0.000000 0.000000 
#    y 0.000000 2.011070 0.000000 
#    z 0.000000 0.000000 1.949840 
# 
# From -- ./inp_files/7690.got.cif
#   From: 2010.03.12/outbox.cif.g09.slc.cpg/sg56_4_cif.got.tgz:7690.got - 2010.04.16 15:33:40.
