data_PCOD8228737
_publ_section_title
;
Structure prediction by ZEFSAII (Michael W. Deem and Ramdas Pophale) SiO2 
 PCOD8228737
Probable space group: P C C N
;
_chemical_formula_sum "Si O2"
_cell_formula_units_Z 36
_cell_length_a 15.654892
_cell_length_b 4.988775
_cell_length_c 21.787273
_cell_angle_alpha 90.000000
_cell_angle_beta 90.000000
_cell_angle_gamma 90.000000
_cell_volume 1701.558435
_symmetry_space_group_name_H-M "P C C N"
_symmetry_group_IT_number 56
_symmetry_cell_setting 'orthorhombic'
loop_
_space_group_symop_operation_xyz
x,y,z
1/2-x,1/2-y,z
1/2+x,-y,1/2-z
-x,1/2+y,1/2-z
-x,-y,-z
1/2+x,1/2+y,-z
1/2-x,y,1/2+z
x,1/2-y,1/2+z
loop_
_atom_site_type_symbol
_atom_site_label
_atom_site_fract_x
_atom_site_fract_y
_atom_site_fract_z
Si Si1 0.944850 0.402000 0.442855
Si Si2 0.669098 0.600187 0.427172
Si Si3 0.250000 0.750000 0.676210
Si Si4 0.106584 0.878520 0.267224
Si Si5 0.049702 0.126918 0.823894
O O1 0.895756 0.657574 0.414619
O O2 0.000000 0.500000 0.500000
O O3 0.010670 0.313611 0.390710
O O4 0.880209 0.152119 0.460421
O O5 0.750000 0.750000 0.462337
O O6 0.704911 0.481027 0.363815
O O7 0.182555 0.608669 0.719303
O O8 0.115398 0.135995 0.310132
O O9 0.020988 0.871706 0.228308
O O10 0.106371 0.639158 0.317084
#
# Coordination Sequence:
#
# PCOD8228737 Si02
#       5
#     8   8   4   8   8
#     4  12  25  43  70  99 132 183 232 276 331 401
#     4  12  23  41  69 101 130 164 228 291 330 391
#     4  12  24  38  70 100 132 168 224 274 354 392
#     4  10  22  34  64  91 132 160 206 270 329 395
#     4  10  21  39  58  94 128 169 205 265 329 387
#
# _framework density 21.157076
#
# number of rings (size 3 to 8) (size 9 to 14) (size 15 to 20)
#    0.000    0.889    4.444    2.000    9.333    0.000 
#    0.000    0.000    9.778    0.000    0.000    0.000 
#    0.000    0.000    0.000    0.000    0.000    0.000 
#
# Total GULP energy -445970.838652 kJ/mol
# GULP energy per Si atom -12388.078851 kJ/mol
# Density = 2.110892 g / cm^3
# Si number density = 21.157076 Si / 1000 Ang^3
#
#
#
# Elastic Constant Matrix: (Units=GPa)
#
#
# Indices 1 2 3 4 5 6 
#
# 1 96.4736 62.4824 42.9399 0.0000 0.0000 0.0000
# 2 62.4824 142.3961 56.5725 0.0000 0.0000 0.0000
# 3 42.9399 56.5725 79.4258 0.0000 0.0000 0.0000
# 4 0.0000 0.0000 0.0000 28.7612 0.0000 0.0000
# 5 0.0000 0.0000 0.0000 0.0000 21.2208 0.0000
# 6 0.0000 0.0000 0.0000 0.0000 0.0000 43.4781
#
#
#
# Elastic Compliance Matrix: (Units=1/GPa)
#
#
# Indices 1 2 3 4 5 6 
#
# 1 0.015799 -0.004936 -0.005026 0.000000 0.000000 0.000000
# 2 -0.004936 0.011336 -0.005406 0.000000 0.000000 0.000000
# 3 -0.005026 -0.005406 0.019158 0.000000 0.000000 0.000000
# 4 0.000000 0.000000 0.000000 0.034769 0.000000 0.000000
# 5 0.000000 0.000000 0.000000 0.000000 0.047123 0.000000
# 6 0.000000 0.000000 0.000000 0.000000 0.000000 0.023000
#
#
# Mechanical properties :
#
#
# Convention : Reuss Voigt Hill
#
# Bulk Modulus (GPa) = 64.27529 71.36500 67.82015
# Shear Modulus (GPa) = 26.72258 29.11208 27.91733
#
# Velocity S-wave (km/s) = 3.55781 3.71347 3.63647
# Velocity P-wave (km/s) = 6.87919 7.22431 7.05387
#
# Compressibility (1/GPa) = 0.01555808
#
# Stress axis : x y z
#
# Youngs Moduli (GPa) = 63.29381 88.21286 52.19749
#
# Poissons Ratio (x) = 0.43541 0.26234
# Poissons Ratio (y) = 0.31241 0.28218
# Poissons Ratio (z) = 0.31811 0.47687
#
# Static dielectric constant tensor:
#      x y z
#    x 4.127230 0.000000 0.000000 
#    y 0.000000 4.532400 0.000000 
#    z 0.000000 0.000000 3.495960 
# 
# 
# High freq. dielectric constant tensor:
#      x y z
#    x 1.822490 0.000000 0.000000 
#    y 0.000000 1.861260 0.000000 
#    z 0.000000 0.000000 1.783290 
# 
# From -- ./inp_files/21049.got.cif
#   From: 2010.03.12/outbox.cif.g09.slc.cpg/sg56_11_cif.got.tgz:21049.got - 2010.04.16 15:33:40.
