data_PCOD8228116
_publ_section_title
;
Structure prediction by ZEFSAII (Michael W. Deem and Ramdas Pophale) SiO2 
 PCOD8228116
Probable space group: P C C N
;
_chemical_formula_sum "Si O2"
_cell_formula_units_Z 64
_cell_length_a 18.283594
_cell_length_b 13.533398
_cell_length_c 13.965307
_cell_angle_alpha 90.000000
_cell_angle_beta 90.000000
_cell_angle_gamma 90.000000
_cell_volume 3455.563756
_symmetry_space_group_name_H-M "P C C N"
_symmetry_group_IT_number 56
_symmetry_cell_setting 'orthorhombic'
loop_
_space_group_symop_operation_xyz
x,y,z
1/2-x,1/2-y,z
1/2+x,-y,1/2-z
-x,1/2+y,1/2-z
-x,-y,-z
1/2+x,1/2+y,-z
1/2-x,y,1/2+z
x,1/2-y,1/2+z
loop_
_atom_site_type_symbol
_atom_site_label
_atom_site_fract_x
_atom_site_fract_y
_atom_site_fract_z
Si Si1 0.172778 0.925782 0.161941
Si Si2 0.733415 0.360154 0.160606
Si Si3 0.478355 0.696403 0.403673
Si Si4 0.931508 0.140305 0.229153
Si Si5 0.712181 0.049113 0.973742
Si Si6 0.429259 0.431512 0.482369
Si Si7 0.376140 0.774327 0.081033
Si Si8 0.049675 0.500980 0.785888
O O1 0.214996 0.875329 0.249052
O O2 0.144151 0.839954 0.091078
O O3 0.107438 0.994609 0.199489
O O4 0.225181 0.995030 0.096425
O O5 0.750000 0.250000 0.122107
O O6 0.648595 0.376873 0.185420
O O7 0.757001 0.438927 0.080583
O O8 0.483271 0.796160 0.342145
O O9 0.553510 0.671824 0.462428
O O10 0.413878 0.707683 0.479557
O O11 0.457535 0.609326 0.330615
O O12 0.927883 0.196006 0.330533
O O13 0.971994 0.035586 0.243991
O O14 0.642791 0.977204 0.970469
O O15 0.694106 0.154193 0.922933
O O16 0.500000 0.500000 0.500000
O O17 0.420964 0.423541 0.367226
#
# Coordination Sequence:
#
# PCOD8228116 Si02
#       8
#     8   8   8   8   8   8   8   8
#     4  12  22  33  55  88 126 155 190 246 297 358
#     4  12  21  34  53  90 128 152 186 240 308 372
#     4  11  21  38  59  86 119 156 204 240 285 363
#     4  12  23  36  61  91 119 160 198 245 304 359
#     4  12  21  34  55  84 119 161 193 238 302 358
#     4  10  19  34  58  81 111 156 202 236 279 354
#     4  12  19  35  56  86 122 157 186 234 304 369
#     4  11  21  40  58  84 122 160 205 241 291 358
#
# _framework density 18.520855999999998
#
# number of rings (size 3 to 8) (size 9 to 14) (size 15 to 20)
#    0.000    0.500    8.750    3.375    0.000    0.000 
#    0.000    2.500    0.000    0.750    0.000    1.750 
#    0.000    0.000    0.000    0.000    0.000    0.000 
#
# Total GULP energy -793431.468992 kJ/mol
# GULP energy per Si atom -12397.366703 kJ/mol
# Density = 1.847870 g / cm^3
# Si number density = 18.520856 Si / 1000 Ang^3
#
#
#
# Elastic Constant Matrix: (Units=GPa)
#
#
# Indices 1 2 3 4 5 6 
#
# 1 118.8729 41.2863 42.3444 0.0000 0.0000 0.0000
# 2 41.2863 39.7714 28.3294 0.0000 0.0000 0.0000
# 3 42.3444 28.3294 77.4563 0.0000 0.0000 0.0000
# 4 0.0000 0.0000 0.0000 22.1109 0.0000 0.0000
# 5 0.0000 0.0000 0.0000 0.0000 33.3617 0.0000
# 6 0.0000 0.0000 0.0000 0.0000 0.0000 30.7231
#
#
#
# Elastic Compliance Matrix: (Units=1/GPa)
#
#
# Indices 1 2 3 4 5 6 
#
# 1 0.013681 -0.012001 -0.003090 0.000000 0.000000 0.000000
# 2 -0.012001 0.044530 -0.009726 0.000000 0.000000 0.000000
# 3 -0.003090 -0.009726 0.018157 0.000000 0.000000 0.000000
# 4 0.000000 0.000000 0.000000 0.045227 0.000000 0.000000
# 5 0.000000 0.000000 0.000000 0.000000 0.029975 0.000000
# 6 0.000000 0.000000 0.000000 0.000000 0.000000 0.032549
#
#
# Mechanical properties :
#
#
# Convention : Reuss Voigt Hill
#
# Bulk Modulus (GPa) = 37.40543 51.11342 44.25943
# Shear Modulus (GPa) = 20.60469 25.51517 23.05993
#
# Velocity S-wave (km/s) = 3.33905 3.71569 3.53240
# Velocity P-wave (km/s) = 5.92503 6.78721 6.37072
#
# Compressibility (1/GPa) = 0.02673408
#
# Stress axis : x y z
#
# Youngs Moduli (GPa) = 73.09244 22.45682 55.07573
#
# Poissons Ratio (x) = 0.26951 0.17018
# Poissons Ratio (y) = 0.87722 0.53564
# Poissons Ratio (z) = 0.22585 0.21841
#
# Static dielectric constant tensor:
#      x y z
#    x 3.512000 0.000000 0.000000 
#    y 0.000000 3.110550 0.000000 
#    z 0.000000 0.000000 3.808240 
# 
# 
# High freq. dielectric constant tensor:
#      x y z
#    x 1.713000 0.000000 0.000000 
#    y 0.000000 1.659760 0.000000 
#    z 0.000000 0.000000 1.742750 
# 
# From -- ./inp_files/12908.got.cif
#   From: 2010.03.12/outbox.cif.g09.slc.cpg/sg56_7_cif.got.tgz:12908.got - 2010.04.16 15:33:40.
