data_PCOD8228635
_publ_section_title
;
Structure prediction by ZEFSAII (Michael W. Deem and Ramdas Pophale) SiO2 
 PCOD8228635
Probable space group: P C C N
;
_chemical_formula_sum "Si O2"
_cell_formula_units_Z 56
_cell_length_a 13.267891
_cell_length_b 23.432799
_cell_length_c 9.759657
_cell_angle_alpha 90.000000
_cell_angle_beta 90.000000
_cell_angle_gamma 90.000000
_cell_volume 3034.314672
_symmetry_space_group_name_H-M "P C C N"
_symmetry_group_IT_number 56
_symmetry_cell_setting 'orthorhombic'
loop_
_space_group_symop_operation_xyz
x,y,z
1/2-x,1/2-y,z
1/2+x,-y,1/2-z
-x,1/2+y,1/2-z
-x,-y,-z
1/2+x,1/2+y,-z
1/2-x,y,1/2+z
x,1/2-y,1/2+z
loop_
_atom_site_type_symbol
_atom_site_label
_atom_site_fract_x
_atom_site_fract_y
_atom_site_fract_z
Si Si1 0.296538 0.687533 0.659924
Si Si2 0.032571 0.971046 0.361453
Si Si3 0.661592 0.907470 0.869850
Si Si4 0.026662 0.306393 0.799328
Si Si5 0.947331 0.794568 0.389489
Si Si6 0.849982 0.358244 0.128412
Si Si7 0.356163 0.077711 0.810690
O O1 0.250000 0.750000 0.663764
O O2 0.407587 0.688072 0.724917
O O3 0.294766 0.663786 0.507012
O O4 0.228211 0.644744 0.747717
O O5 0.116627 0.923358 0.392377
O O6 0.931899 0.941775 0.299905
O O7 0.080497 0.020991 0.268152
O O8 0.000000 0.000000 0.500000
O O9 0.640784 0.839829 0.857903
O O10 0.759695 0.922468 0.785376
O O11 0.675639 0.924132 0.029548
O O12 0.076349 0.263913 0.689272
O O13 0.074509 0.368232 0.779195
O O14 0.048902 0.281230 0.949285
O O15 0.053882 0.819032 0.338223
#
# Coordination Sequence:
#
# PCOD8228635 Si02
#       7
#     8   8   8   8   8   8   8
#     4  11  20  33  54  83 118 145 185 229 282 340
#     4   9  19  39  60  78 112 149 188 227 282 338
#     4   9  20  38  59  77 109 143 184 226 281 326
#     4  10  21  34  55  79 113 146 184 224 287 327
#     4   9  19  36  52  77 108 146 181 227 276 340
#     4  10  21  33  54  84 111 152 182 228 285 334
#     4  10  21  38  59  83 106 148 185 234 272 334
#
# _framework density 18.455568
#
# number of rings (size 3 to 8) (size 9 to 14) (size 15 to 20)
#    0.000    2.286    1.429    3.000    2.000    5.143 
#    0.000    5.000    0.000    0.000    0.000    0.000 
#    0.000    0.000    0.000    0.000    0.000    0.000 
#
# Total GULP energy -694352.183879 kJ/mol
# GULP energy per Si atom -12399.146141 kJ/mol
# Density = 1.841356 g / cm^3
# Si number density = 18.455568 Si / 1000 Ang^3
#
#
#
# Elastic Constant Matrix: (Units=GPa)
#
#
# Indices 1 2 3 4 5 6 
#
# 1 101.6305 65.9843 42.4071 0.0000 0.0000 0.0000
# 2 65.9843 126.5569 46.6510 0.0000 0.0000 0.0000
# 3 42.4071 46.6510 53.1294 0.0000 0.0000 0.0000
# 4 0.0000 0.0000 0.0000 24.6728 0.0000 0.0000
# 5 0.0000 0.0000 0.0000 0.0000 34.4494 0.0000
# 6 0.0000 0.0000 0.0000 0.0000 0.0000 26.1055
#
#
#
# Elastic Compliance Matrix: (Units=1/GPa)
#
#
# Indices 1 2 3 4 5 6 
#
# 1 0.017204 -0.005778 -0.008658 0.000000 0.000000 0.000000
# 2 -0.005778 0.013624 -0.007350 0.000000 0.000000 0.000000
# 3 -0.008658 -0.007350 0.032187 0.000000 0.000000 0.000000
# 4 0.000000 0.000000 0.000000 0.040530 0.000000 0.000000
# 5 0.000000 0.000000 0.000000 0.000000 0.029028 0.000000
# 6 0.000000 0.000000 0.000000 0.000000 0.000000 0.038306
#
#
# Mechanical properties :
#
#
# Convention : Reuss Voigt Hill
#
# Bulk Modulus (GPa) = 51.43805 65.71129 58.57467
# Shear Modulus (GPa) = 22.63126 25.46385 24.04755
#
# Velocity S-wave (km/s) = 3.50559 3.71851 3.61362
# Velocity P-wave (km/s) = 6.65713 7.35655 7.01556
#
# Compressibility (1/GPa) = 0.01944086
#
# Stress axis : x y z
#
# Youngs Moduli (GPa) = 58.12629 73.40129 31.06840
#
# Poissons Ratio (x) = 0.42413 0.26900
# Poissons Ratio (y) = 0.33587 0.22837
# Poissons Ratio (z) = 0.50327 0.53953
#
# Static dielectric constant tensor:
#      x y z
#    x 3.482660 0.000000 0.000000 
#    y 0.000000 3.953400 0.000000 
#    z 0.000000 0.000000 3.196620 
# 
# 
# High freq. dielectric constant tensor:
#      x y z
#    x 1.717460 0.000000 0.000000 
#    y 0.000000 1.726110 0.000000 
#    z 0.000000 0.000000 1.694920 
# 
# From -- ./inp_files/3578.got.cif
#   From: 2010.03.12/outbox.cif.g09.slc.cpg/sg56_2_cif.got.tgz:3578.got - 2010.04.16 15:33:40.
