data_PCOD8228892
_publ_section_title
;
Structure prediction by ZEFSAII (Michael W. Deem and Ramdas Pophale) SiO2 
 PCOD8228892
Probable space group: P C C N
;
_chemical_formula_sum "Si O2"
_cell_formula_units_Z 40
_cell_length_a 9.109825
_cell_length_b 14.399765
_cell_length_c 14.697132
_cell_angle_alpha 90.000000
_cell_angle_beta 90.000000
_cell_angle_gamma 90.000000
_cell_volume 1927.960064
_symmetry_space_group_name_H-M "P C C N"
_symmetry_group_IT_number 56
_symmetry_cell_setting 'orthorhombic'
loop_
_space_group_symop_operation_xyz
x,y,z
1/2-x,1/2-y,z
1/2+x,-y,1/2-z
-x,1/2+y,1/2-z
-x,-y,-z
1/2+x,1/2+y,-z
1/2-x,y,1/2+z
x,1/2-y,1/2+z
loop_
_atom_site_type_symbol
_atom_site_label
_atom_site_fract_x
_atom_site_fract_y
_atom_site_fract_z
Si Si1 0.959331 0.434297 0.584494
Si Si2 0.092902 0.724304 0.541005
Si Si3 0.743104 0.645846 0.827207
Si Si4 0.331369 0.388272 0.871680
Si Si5 0.076479 0.402526 0.016027
O O1 0.876558 0.343819 0.545321
O O2 0.861101 0.501977 0.647005
O O3 0.000000 0.500000 0.500000
O O4 0.092858 0.403624 0.647056
O O5 0.250000 0.750000 0.588212
O O6 0.977986 0.673559 0.608930
O O7 0.035876 0.821179 0.503417
O O8 0.750000 0.750000 0.865816
O O9 0.756913 0.649269 0.718874
O O10 0.876460 0.593756 0.877967
O O11 0.222080 0.381315 0.956826
O O12 0.000000 0.500000 0.000000
#
# Coordination Sequence:
#
# PCOD8228892 Si02
#       5
#     8   8   8   8   8
#     4  10  21  42  68  94 133 178 225 283 336 401
#     4  11  22  43  70  97 137 180 225 284 346 407
#     4  12  23  44  70  96 139 182 224 281 347 409
#     4  11  25  44  69 103 136 179 231 287 342 414
#     4  12  24  42  67 100 135 181 230 275 346 413
#
# _framework density 20.747319000000001
#
# number of rings (size 3 to 8) (size 9 to 14) (size 15 to 20)
#    0.000    0.800    6.000    3.000    5.600    0.000 
#    0.000    1.000    0.000    0.000    0.000    0.000 
#    0.000    0.000    0.000    0.000    0.000    0.000 
#
# Total GULP energy -495734.360301 kJ/mol
# GULP energy per Si atom -12393.359008 kJ/mol
# Density = 2.070010 g / cm^3
# Si number density = 20.747319 Si / 1000 Ang^3
#
#
#
# Elastic Constant Matrix: (Units=GPa)
#
#
# Indices 1 2 3 4 5 6 
#
# 1 111.0563 39.1217 30.5060 0.0000 0.0000 0.0000
# 2 39.1217 149.1661 18.3863 0.0000 0.0000 0.0000
# 3 30.5060 18.3863 86.9172 0.0000 0.0000 0.0000
# 4 0.0000 0.0000 0.0000 25.7011 0.0000 0.0000
# 5 0.0000 0.0000 0.0000 0.0000 31.9133 0.0000
# 6 0.0000 0.0000 0.0000 0.0000 0.0000 48.1008
#
#
#
# Elastic Compliance Matrix: (Units=1/GPa)
#
#
# Indices 1 2 3 4 5 6 
#
# 1 0.010752 -0.002418 -0.003262 0.000000 0.000000 0.000000
# 2 -0.002418 0.007427 -0.000722 0.000000 0.000000 0.000000
# 3 -0.003262 -0.000722 0.012803 0.000000 0.000000 0.000000
# 4 0.000000 0.000000 0.000000 0.038909 0.000000 0.000000
# 5 0.000000 0.000000 0.000000 0.000000 0.031335 0.000000
# 6 0.000000 0.000000 0.000000 0.000000 0.000000 0.020790
#
#
# Mechanical properties :
#
#
# Convention : Reuss Voigt Hill
#
# Bulk Modulus (GPa) = 55.01447 58.12973 56.57210
# Shear Modulus (GPa) = 35.49111 38.41808 36.95460
#
# Velocity S-wave (km/s) = 4.14047 4.30782 4.22498
# Velocity P-wave (km/s) = 7.03079 7.26787 7.15031
#
# Compressibility (1/GPa) = 0.01817703
#
# Stress axis : x y z
#
# Youngs Moduli (GPa) = 93.00315 134.64145 78.10645
#
# Poissons Ratio (x) = 0.32555 0.25481
# Poissons Ratio (y) = 0.22487 0.05643
# Poissons Ratio (z) = 0.30341 0.09728
#
# Static dielectric constant tensor:
#      x y z
#    x 3.867580 0.000000 0.000000 
#    y 0.000000 5.328030 0.000000 
#    z 0.000000 0.000000 3.561820 
# 
# 
# High freq. dielectric constant tensor:
#      x y z
#    x 1.808420 0.000000 0.000000 
#    y 0.000000 1.842400 0.000000 
#    z 0.000000 0.000000 1.788250 
# 
# From -- ./inp_files/10357.got.cif
#   From: 2010.03.12/outbox.cif.g09.slc.cpg/sg56_6_cif.got.tgz:10357.got - 2010.04.16 15:33:40.
