data_PCOD8228205
_publ_section_title
;
Structure prediction by ZEFSAII (Michael W. Deem and Ramdas Pophale) SiO2 
 PCOD8228205
Probable space group: P C C N
;
_chemical_formula_sum "Si O2"
_cell_formula_units_Z 48
_cell_length_a 9.818805
_cell_length_b 13.742308
_cell_length_c 17.904544
_cell_angle_alpha 90.000000
_cell_angle_beta 90.000000
_cell_angle_gamma 90.000000
_cell_volume 2415.914597
_symmetry_space_group_name_H-M "P C C N"
_symmetry_group_IT_number 56
_symmetry_cell_setting 'orthorhombic'
loop_
_space_group_symop_operation_xyz
x,y,z
1/2-x,1/2-y,z
1/2+x,-y,1/2-z
-x,1/2+y,1/2-z
-x,-y,-z
1/2+x,1/2+y,-z
1/2-x,y,1/2+z
x,1/2-y,1/2+z
loop_
_atom_site_type_symbol
_atom_site_label
_atom_site_fract_x
_atom_site_fract_y
_atom_site_fract_z
Si Si1 0.936591 0.594742 0.963720
Si Si2 0.787087 0.536929 0.691873
Si Si3 0.440799 0.344054 0.377992
Si Si4 0.797193 0.027235 0.356728
Si Si5 0.158488 0.657634 0.848107
Si Si6 0.944812 0.355040 0.318813
O O1 0.800706 0.558584 0.919214
O O2 0.036720 0.650751 0.907334
O O3 0.903941 0.664135 0.033783
O O4 0.000000 0.500000 0.000000
O O5 0.696006 0.627932 0.665825
O O6 0.759325 0.522298 0.778951
O O7 0.749803 0.439686 0.646016
O O8 0.945264 0.558829 0.679302
O O9 0.553394 0.424726 0.356503
O O10 0.492956 0.239948 0.354542
O O11 0.682265 0.109568 0.370220
O O12 0.250000 0.750000 0.869331
O O13 0.099359 0.670452 0.765194
#
# Coordination Sequence:
#
# PCOD8228205 Si02
#       6
#     8   8   8   8   8   8
#     4  10  20  40  64  89 128 166 208 265 327 368
#     4  11  20  39  63  89 129 165 203 269 314 375
#     4  11  22  39  65  90 127 168 212 260 322 382
#     4  10  19  38  63  92 121 166 214 256 312 373
#     4  11  22  38  67  96 124 167 226 257 313 393
#     4  11  22  37  66  95 123 165 219 261 312 384
#
# _framework density 19.868251999999998
#
# number of rings (size 3 to 8) (size 9 to 14) (size 15 to 20)
#    0.000    1.333    5.000    4.000    0.000    2.667 
#    0.000    0.833   11.000    0.000    0.000    0.000 
#    0.000    0.000    0.000    0.000    0.000    0.000 
#
# Total GULP energy -595113.481175 kJ/mol
# GULP energy per Si atom -12398.197524 kJ/mol
# Density = 1.982303 g / cm^3
# Si number density = 19.868252 Si / 1000 Ang^3
#
#
#
# Elastic Constant Matrix: (Units=GPa)
#
#
# Indices 1 2 3 4 5 6 
#
# 1 79.6512 31.6547 24.0437 0.0000 0.0000 0.0000
# 2 31.6547 89.3588 47.7904 0.0000 0.0000 0.0000
# 3 24.0437 47.7904 102.1651 0.0000 0.0000 0.0000
# 4 0.0000 0.0000 0.0000 20.1740 0.0000 0.0000
# 5 0.0000 0.0000 0.0000 0.0000 31.3174 0.0000
# 6 0.0000 0.0000 0.0000 0.0000 0.0000 38.1246
#
#
#
# Elastic Compliance Matrix: (Units=1/GPa)
#
#
# Indices 1 2 3 4 5 6 
#
# 1 0.014754 -0.004494 -0.001370 0.000000 0.000000 0.000000
# 2 -0.004494 0.016293 -0.006564 0.000000 0.000000 0.000000
# 3 -0.001370 -0.006564 0.013181 0.000000 0.000000 0.000000
# 4 0.000000 0.000000 0.000000 0.049569 0.000000 0.000000
# 5 0.000000 0.000000 0.000000 0.000000 0.031931 0.000000
# 6 0.000000 0.000000 0.000000 0.000000 0.000000 0.026230
#
#
# Mechanical properties :
#
#
# Convention : Reuss Voigt Hill
#
# Bulk Modulus (GPa) = 51.61946 53.12806 52.37376
# Shear Modulus (GPa) = 27.28189 29.10229 28.19209
#
# Velocity S-wave (km/s) = 3.70961 3.83137 3.77098
# Velocity P-wave (km/s) = 6.66225 6.80961 6.73633
#
# Compressibility (1/GPa) = 0.01937254
#
# Stress axis : x y z
#
# Youngs Moduli (GPa) = 67.77712 61.37507 75.86660
#
# Poissons Ratio (x) = 0.27581 0.10395
# Poissons Ratio (y) = 0.30457 0.49799
# Poissons Ratio (z) = 0.09287 0.40287
#
# Static dielectric constant tensor:
#      x y z
#    x 3.798930 0.000000 0.000000 
#    y 0.000000 3.738960 0.000000 
#    z 0.000000 0.000000 5.151070 
# 
# 
# High freq. dielectric constant tensor:
#      x y z
#    x 1.770530 0.000000 0.000000 
#    y 0.000000 1.771910 0.000000 
#    z 0.000000 0.000000 1.774160 
# 
# From -- ./inp_files/14846.got.cif
#   From: 2010.03.12/outbox.cif.g09.slc.cpg/sg56_8_cif.got.tgz:14846.got - 2010.04.16 15:33:40.
