data_PCOD8228631
_publ_section_title
;
Structure prediction by ZEFSAII (Michael W. Deem and Ramdas Pophale) SiO2 
 PCOD8228631
Probable space group: P C C N
;
_chemical_formula_sum "Si O2"
_cell_formula_units_Z 48
_cell_length_a 23.509590
_cell_length_b 12.011966
_cell_length_c 9.524466
_cell_angle_alpha 90.000000
_cell_angle_beta 90.000000
_cell_angle_gamma 90.000000
_cell_volume 2689.674870
_symmetry_space_group_name_H-M "P C C N"
_symmetry_group_IT_number 56
_symmetry_cell_setting 'orthorhombic'
loop_
_space_group_symop_operation_xyz
x,y,z
1/2-x,1/2-y,z
1/2+x,-y,1/2-z
-x,1/2+y,1/2-z
-x,-y,-z
1/2+x,1/2+y,-z
1/2-x,y,1/2+z
x,1/2-y,1/2+z
loop_
_atom_site_type_symbol
_atom_site_label
_atom_site_fract_x
_atom_site_fract_y
_atom_site_fract_z
Si Si1 0.976571 0.663886 0.589229
Si Si2 0.876756 0.820162 0.311489
Si Si3 0.322594 0.418129 0.130863
Si Si4 0.458679 0.098442 0.959122
Si Si5 0.562501 0.989848 0.339387
Si Si6 0.732013 0.875725 0.654140
O O1 0.920728 0.682175 0.682801
O O2 0.995057 0.786586 0.537609
O O3 0.966052 0.589451 0.453646
O O4 0.027807 0.605497 0.675554
O O5 0.857294 0.699193 0.367616
O O6 0.904439 0.890280 0.438163
O O7 0.821440 0.885277 0.258286
O O8 0.371241 0.513576 0.122177
O O9 0.284759 0.436662 0.270008
O O10 0.282111 0.430111 0.995500
O O11 0.435244 0.076824 0.805086
O O12 0.500000 0.000000 0.000000
O O13 0.750000 0.750000 0.624013
#
# Coordination Sequence:
#
# PCOD8228631 Si02
#       6
#     8   8   8   8   8   8
#     4  11  21  38  55  80 113 158 189 226 292 350
#     4  11  19  35  52  78 118 147 186 232 282 345
#     4  11  21  34  53  79 118 154 188 232 291 341
#     4  12  22  35  57  85 114 150 190 233 279 343
#     4  11  23  35  56  77 118 155 185 233 290 337
#     4  10  21  32  50  79 112 153 188 228 287 350
#
# _framework density 17.846022999999999
#
# number of rings (size 3 to 8) (size 9 to 14) (size 15 to 20)
#    0.000    1.000    6.667    1.500    4.667    0.000 
#    0.000    0.000    0.000    0.000    0.000    1.167 
#    0.000    0.000    0.000    0.000    0.000    0.000 
#
# Total GULP energy -595019.786758 kJ/mol
# GULP energy per Si atom -12396.245557 kJ/mol
# Density = 1.780540 g / cm^3
# Si number density = 17.846023 Si / 1000 Ang^3
#
#
#
# Elastic Constant Matrix: (Units=GPa)
#
#
# Indices 1 2 3 4 5 6 
#
# 1 109.1346 40.6175 28.6216 0.0000 0.0000 0.0000
# 2 40.6175 67.6433 18.7445 0.0000 0.0000 0.0000
# 3 28.6216 18.7445 92.8481 0.0000 0.0000 0.0000
# 4 0.0000 0.0000 0.0000 17.6499 0.0000 0.0000
# 5 0.0000 0.0000 0.0000 0.0000 40.5265 0.0000
# 6 0.0000 0.0000 0.0000 0.0000 0.0000 23.9847
#
#
#
# Elastic Compliance Matrix: (Units=1/GPa)
#
#
# Indices 1 2 3 4 5 6 
#
# 1 0.012299 -0.006710 -0.002437 0.000000 0.000000 0.000000
# 2 -0.006710 0.019320 -0.001832 0.000000 0.000000 0.000000
# 3 -0.002437 -0.001832 0.011891 0.000000 0.000000 0.000000
# 4 0.000000 0.000000 0.000000 0.056658 0.000000 0.000000
# 5 0.000000 0.000000 0.000000 0.000000 0.024675 0.000000
# 6 0.000000 0.000000 0.000000 0.000000 0.000000 0.041693
#
#
# Mechanical properties :
#
#
# Convention : Reuss Voigt Hill
#
# Bulk Modulus (GPa) = 46.39672 49.51034 47.95353
# Shear Modulus (GPa) = 25.55200 28.54169 27.04684
#
# Velocity S-wave (km/s) = 3.78802 4.00350 3.89725
# Velocity P-wave (km/s) = 6.72212 7.01242 6.86880
#
# Compressibility (1/GPa) = 0.02155325
#
# Stress axis : x y z
#
# Youngs Moduli (GPa) = 81.30461 51.75910 84.09510
#
# Poissons Ratio (x) = 0.34731 0.20492
# Poissons Ratio (y) = 0.54556 0.15406
# Poissons Ratio (z) = 0.19812 0.09482
#
# Static dielectric constant tensor:
#      x y z
#    x 3.621480 0.000000 0.000000 
#    y 0.000000 3.066990 0.000000 
#    z 0.000000 0.000000 3.565430 
# 
# 
# High freq. dielectric constant tensor:
#      x y z
#    x 1.696120 0.000000 0.000000 
#    y 0.000000 1.630590 0.000000 
#    z 0.000000 0.000000 1.716850 
# 
# From -- ./inp_files/2765.got.cif
#   From: 2010.03.12/outbox.cif.g09.slc.cpg/sg56_2_cif.got.tgz:2765.got - 2010.04.16 15:33:40.
