data_PCOD8228946
_publ_section_title
;
Structure prediction by ZEFSAII (Michael W. Deem and Ramdas Pophale) SiO2 
 PCOD8228946
Probable space group: P C C N
;
_chemical_formula_sum "Si O2"
_cell_formula_units_Z 56
_cell_length_a 17.437026
_cell_length_b 13.906729
_cell_length_c 9.261787
_cell_angle_alpha 90.000000
_cell_angle_beta 90.000000
_cell_angle_gamma 90.000000
_cell_volume 2245.909208
_symmetry_space_group_name_H-M "P C C N"
_symmetry_group_IT_number 56
_symmetry_cell_setting 'orthorhombic'
loop_
_space_group_symop_operation_xyz
x,y,z
1/2-x,1/2-y,z
1/2+x,-y,1/2-z
-x,1/2+y,1/2-z
-x,-y,-z
1/2+x,1/2+y,-z
1/2-x,y,1/2+z
x,1/2-y,1/2+z
loop_
_atom_site_type_symbol
_atom_site_label
_atom_site_fract_x
_atom_site_fract_y
_atom_site_fract_z
Si Si1 0.777234 0.546231 0.721607
Si Si2 0.250000 0.750000 0.177995
Si Si3 0.750000 0.750000 0.588400
Si Si4 0.500005 0.286425 0.307542
Si Si5 0.401878 0.293894 0.046045
Si Si6 0.367549 0.589315 0.586876
Si Si7 0.346970 0.495608 0.057055
Si Si8 0.386294 0.866867 0.775413
O O1 0.774811 0.659978 0.687660
O O2 0.841654 0.510746 0.836975
O O3 0.788244 0.481009 0.575108
O O4 0.695922 0.525154 0.791898
O O5 0.196745 0.674683 0.088080
O O6 0.195613 0.814039 0.277430
O O7 0.823296 0.767025 0.481888
O O8 0.473644 0.251083 0.463887
O O9 0.555326 0.378209 0.327733
O O10 0.544670 0.207010 0.215687
O O11 0.422218 0.303673 0.215664
O O12 0.392524 0.404533 0.994372
O O13 0.389145 0.567429 0.419826
O O14 0.399567 0.581879 0.116272
#
# Coordination Sequence:
#
# PCOD8228946 Si02
#       8
#     8   4   4   8   8   8   8   8
#     4  11  24  44  73 115 147 192 257 322 381 457
#     4  10  22  36  78 108 154 196 248 300 388 468
#     4  10  26  50  82 104 140 208 268 340 382 444
#     4  11  25  46  76 109 157 209 254 314 407 476
#     4  11  25  50  77 108 147 204 272 323 389 470
#     4  11  23  43  73 114 163 195 251 315 396 480
#     4  11  25  42  73 107 153 190 257 316 383 452
#     4  11  23  43  69 114 157 205 245 315 395 480
#
# _framework density 24.934221999999998
#
# number of rings (size 3 to 8) (size 9 to 14) (size 15 to 20)
#    0.000    1.143    2.857    2.143    2.000    9.143 
#    2.571    5.000    0.000    0.857    0.000    0.000 
#    0.000    0.000    0.000    0.000    0.000    0.000 
#
# Total GULP energy -693760.589674 kJ/mol
# GULP energy per Si atom -12388.581958 kJ/mol
# Density = 2.487747 g / cm^3
# Si number density = 24.934222 Si / 1000 Ang^3
#
#
#
# Elastic Constant Matrix: (Units=GPa)
#
#
# Indices 1 2 3 4 5 6 
#
# 1 98.7934 26.3917 18.9145 0.0000 0.0000 0.0000
# 2 26.3917 95.7159 24.0895 0.0000 0.0000 0.0000
# 3 18.9145 24.0895 115.2973 0.0000 0.0000 0.0000
# 4 0.0000 0.0000 0.0000 28.4992 0.0000 0.0000
# 5 0.0000 0.0000 0.0000 0.0000 29.1140 0.0000
# 6 0.0000 0.0000 0.0000 0.0000 0.0000 27.5864
#
#
#
# Elastic Compliance Matrix: (Units=1/GPa)
#
#
# Indices 1 2 3 4 5 6 
#
# 1 0.011094 -0.002745 -0.001246 0.000000 0.000000 0.000000
# 2 -0.002745 0.011707 -0.001996 0.000000 0.000000 0.000000
# 3 -0.001246 -0.001996 0.009295 0.000000 0.000000 0.000000
# 4 0.000000 0.000000 0.000000 0.035089 0.000000 0.000000
# 5 0.000000 0.000000 0.000000 0.000000 0.034348 0.000000
# 6 0.000000 0.000000 0.000000 0.000000 0.000000 0.036250
#
#
# Mechanical properties :
#
#
# Convention : Reuss Voigt Hill
#
# Bulk Modulus (GPa) = 49.69927 49.84422 49.77174
# Shear Modulus (GPa) = 31.95636 33.06731 32.51184
#
# Velocity S-wave (km/s) = 3.58387 3.64563 3.61488
# Velocity P-wave (km/s) = 6.09105 6.14447 6.11782
#
# Compressibility (1/GPa) = 0.02012102
#
# Stress axis : x y z
#
# Youngs Moduli (GPa) = 90.13772 85.42060 107.58885
#
# Poissons Ratio (x) = 0.23450 0.13410
# Poissons Ratio (y) = 0.24745 0.21470
# Poissons Ratio (z) = 0.11235 0.17046
#
# Static dielectric constant tensor:
#      x y z
#    x 4.508540 0.000000 0.000000 
#    y 0.000000 4.480700 0.000000 
#    z 0.000000 0.000000 4.424300 
# 
# 
# High freq. dielectric constant tensor:
#      x y z
#    x 1.987690 0.000000 0.000000 
#    y 0.000000 1.974090 0.000000 
#    z 0.000000 0.000000 2.003490 
# 
# From -- ./inp_files/4510.got.cif
#   From: 2010.03.12/outbox.cif.g09.slc.cpg/sg56_3_cif.got.tgz:4510.got - 2010.04.16 15:33:40.
