data_PCOD8228701
_publ_section_title
;
Structure prediction by ZEFSAII (Michael W. Deem and Ramdas Pophale) SiO2 
 PCOD8228701
Probable space group: P C C N
;
_chemical_formula_sum "Si O2"
_cell_formula_units_Z 64
_cell_length_a 16.073223
_cell_length_b 11.498235
_cell_length_c 17.582191
_cell_angle_alpha 90.000000
_cell_angle_beta 90.000000
_cell_angle_gamma 90.000000
_cell_volume 3249.429690
_symmetry_space_group_name_H-M "P C C N"
_symmetry_group_IT_number 56
_symmetry_cell_setting 'orthorhombic'
loop_
_space_group_symop_operation_xyz
x,y,z
1/2-x,1/2-y,z
1/2+x,-y,1/2-z
-x,1/2+y,1/2-z
-x,-y,-z
1/2+x,1/2+y,-z
1/2-x,y,1/2+z
x,1/2-y,1/2+z
loop_
_atom_site_type_symbol
_atom_site_label
_atom_site_fract_x
_atom_site_fract_y
_atom_site_fract_z
Si Si1 0.078479 0.915515 0.001450
Si Si2 0.846118 0.368406 0.796377
Si Si3 0.658287 0.386798 0.836005
Si Si4 0.522381 0.693116 0.504176
Si Si5 0.636375 0.525117 0.688413
Si Si6 0.682290 0.480660 0.142318
Si Si7 0.844262 0.735880 0.623257
Si Si8 0.530622 0.507953 0.389902
O O1 0.045892 0.787794 0.981537
O O2 0.149074 0.944435 0.939958
O O3 0.121808 0.924161 0.083398
O O4 0.000000 0.000000 0.000000
O O5 0.757799 0.380031 0.838235
O O6 0.880560 0.238296 0.811450
O O7 0.843724 0.387065 0.705714
O O8 0.904216 0.471356 0.826055
O O9 0.633528 0.486090 0.775792
O O10 0.597211 0.753108 0.549786
O O11 0.559457 0.628309 0.429709
O O12 0.471830 0.597352 0.550916
O O13 0.717551 0.483008 0.642244
O O14 0.631765 0.666269 0.685692
O O15 0.559271 0.467988 0.645764
O O16 0.645226 0.609039 0.161617
O O17 0.750000 0.750000 0.593788
#
# Coordination Sequence:
#
# PCOD8228701 Si02
#       8
#     8   8   8   8   8   8   8   8
#     4  12  24  40  62  92 128 162 200 262 312 369
#     4  10  22  43  65  89 122 166 202 263 302 374
#     4  10  23  43  62  92 127 156 211 253 317 364
#     4  10  21  38  56  92 119 152 213 243 311 372
#     4   9  21  40  64  89 119 165 209 255 301 377
#     4  10  22  40  62  92 124 161 209 250 320 366
#     4   9  18  38  60  83 122 164 200 259 309 368
#     4  10  21  39  63  84 119 162 204 256 301 369
#
# _framework density 19.695764
#
# number of rings (size 3 to 8) (size 9 to 14) (size 15 to 20)
#    0.000    2.000    2.500    0.000    3.500    4.000 
#    2.250    0.000    0.000    0.000    0.000    0.000 
#    0.000    0.000    0.000    0.000    0.000    0.000 
#
# Total GULP energy -793525.244618 kJ/mol
# GULP energy per Si atom -12398.831947 kJ/mol
# Density = 1.965094 g / cm^3
# Si number density = 19.695764 Si / 1000 Ang^3
#
#
#
# Elastic Constant Matrix: (Units=GPa)
#
#
# Indices 1 2 3 4 5 6 
#
# 1 78.1510 43.9942 59.8389 0.0000 0.0000 0.0000
# 2 43.9942 90.9158 65.5175 0.0000 0.0000 0.0000
# 3 59.8389 65.5175 133.5865 0.0000 0.0000 0.0000
# 4 0.0000 0.0000 0.0000 31.9112 0.0000 0.0000
# 5 0.0000 0.0000 0.0000 0.0000 31.5955 0.0000
# 6 0.0000 0.0000 0.0000 0.0000 0.0000 24.8143
#
#
#
# Elastic Compliance Matrix: (Units=1/GPa)
#
#
# Indices 1 2 3 4 5 6 
#
# 1 0.020965 -0.005224 -0.006829 0.000000 0.000000 0.000000
# 2 -0.005224 0.018313 -0.006642 0.000000 0.000000 0.000000
# 3 -0.006829 -0.006642 0.013802 0.000000 0.000000 0.000000
# 4 0.000000 0.000000 0.000000 0.031337 0.000000 0.000000
# 5 0.000000 0.000000 0.000000 0.000000 0.031650 0.000000
# 6 0.000000 0.000000 0.000000 0.000000 0.000000 0.040299
#
#
# Mechanical properties :
#
#
# Convention : Reuss Voigt Hill
#
# Bulk Modulus (GPa) = 63.72909 71.26163 67.49536
# Shear Modulus (GPa) = 25.12716 26.55105 25.83911
#
# Velocity S-wave (km/s) = 3.57566 3.67558 3.62596
# Velocity P-wave (km/s) = 7.03378 7.36701 7.20233
#
# Compressibility (1/GPa) = 0.01569142
#
# Stress axis : x y z
#
# Youngs Moduli (GPa) = 47.69750 54.60499 72.45103
#
# Poissons Ratio (x) = 0.28524 0.49479
# Poissons Ratio (y) = 0.24916 0.48121
# Poissons Ratio (z) = 0.32574 0.36268
#
# Static dielectric constant tensor:
#      x y z
#    x 3.568380 0.000000 0.000000 
#    y 0.000000 3.849650 0.000000 
#    z 0.000000 0.000000 3.451220 
# 
# 
# High freq. dielectric constant tensor:
#      x y z
#    x 1.768540 0.000000 0.000000 
#    y 0.000000 1.777300 0.000000 
#    z 0.000000 0.000000 1.753280 
# 
# From -- ./inp_files/12864.got.cif
#   From: 2010.03.12/outbox.cif.g09.slc.cpg/sg56_7_cif.got.tgz:12864.got - 2010.04.16 15:33:40.
