data_PCOD8228192
_publ_section_title
;
Structure prediction by ZEFSAII (Michael W. Deem and Ramdas Pophale) SiO2 
 PCOD8228192
Probable space group: P C C N
;
_chemical_formula_sum "Si O2"
_cell_formula_units_Z 48
_cell_length_a 16.449888
_cell_length_b 9.309032
_cell_length_c 14.725445
_cell_angle_alpha 90.000000
_cell_angle_beta 90.000000
_cell_angle_gamma 90.000000
_cell_volume 2254.944704
_symmetry_space_group_name_H-M "P C C N"
_symmetry_group_IT_number 56
_symmetry_cell_setting 'orthorhombic'
loop_
_space_group_symop_operation_xyz
x,y,z
1/2-x,1/2-y,z
1/2+x,-y,1/2-z
-x,1/2+y,1/2-z
-x,-y,-z
1/2+x,1/2+y,-z
1/2-x,y,1/2+z
x,1/2-y,1/2+z
loop_
_atom_site_type_symbol
_atom_site_label
_atom_site_fract_x
_atom_site_fract_y
_atom_site_fract_z
Si Si1 0.400789 0.459232 0.947343
Si Si2 0.838436 0.768757 0.898271
Si Si3 0.942854 0.175250 0.908234
Si Si4 0.193045 0.533261 0.708717
Si Si5 0.649794 0.043607 0.905691
Si Si6 0.735009 0.084189 0.091718
O O1 0.466129 0.380012 0.880767
O O2 0.317600 0.491392 0.894952
O O3 0.394570 0.352934 0.032458
O O4 0.428937 0.612457 0.989929
O O5 0.750000 0.750000 0.944853
O O6 0.822176 0.863395 0.807438
O O7 0.880251 0.615360 0.875134
O O8 0.927143 0.347643 0.906660
O O9 0.880159 0.118370 0.835424
O O10 0.277285 0.589915 0.662764
O O11 0.187267 0.566061 0.814831
O O12 0.684272 0.024023 0.007502
O O13 0.750000 0.250000 0.069891
#
# Coordination Sequence:
#
# PCOD8228192 Si02
#       6
#     8   8   8   8   8   8
#     4  10  20  35  62  91 119 164 205 260 332 370
#     4   9  18  37  56  86 119 158 209 259 318 378
#     4  10  19  37  63  87 126 159 204 270 320 375
#     4  10  21  37  62  90 121 164 214 269 311 385
#     4  11  19  38  61  90 121 164 221 252 317 385
#     4  12  20  35  67  95 120 170 227 260 312 401
#
# _framework density 21.286552
#
# number of rings (size 3 to 8) (size 9 to 14) (size 15 to 20)
#    0.000    1.667    6.667    1.500    0.000    0.667 
#    9.000    0.000   14.667    0.000    0.000    0.000 
#    0.000    0.000    0.000    0.000    0.000    0.000 
#
# Total GULP energy -594770.378921 kJ/mol
# GULP energy per Si atom -12391.049561 kJ/mol
# Density = 2.123810 g / cm^3
# Si number density = 21.286552 Si / 1000 Ang^3
#
#
#
# Elastic Constant Matrix: (Units=GPa)
#
#
# Indices 1 2 3 4 5 6 
#
# 1 64.8067 21.5935 -4.1696 0.0000 0.0000 0.0000
# 2 21.5935 123.6827 -6.6458 0.0000 0.0000 0.0000
# 3 -4.1696 -6.6458 65.8041 0.0000 0.0000 0.0000
# 4 0.0000 0.0000 0.0000 15.7756 0.0000 0.0000
# 5 0.0000 0.0000 0.0000 0.0000 15.4045 0.0000
# 6 0.0000 0.0000 0.0000 0.0000 0.0000 37.8001
#
#
#
# Elastic Compliance Matrix: (Units=1/GPa)
#
#
# Indices 1 2 3 4 5 6 
#
# 1 0.016421 -0.002826 0.000755 0.000000 0.000000 0.000000
# 2 -0.002826 0.008616 0.000691 0.000000 0.000000 0.000000
# 3 0.000755 0.000691 0.015314 0.000000 0.000000 0.000000
# 4 0.000000 0.000000 0.000000 0.063389 0.000000 0.000000
# 5 0.000000 0.000000 0.000000 0.000000 0.064916 0.000000
# 6 0.000000 0.000000 0.000000 0.000000 0.000000 0.026455
#
#
# Mechanical properties :
#
#
# Convention : Reuss Voigt Hill
#
# Bulk Modulus (GPa) = 26.60252 30.64996 28.62624
# Shear Modulus (GPa) = 23.76407 30.03040 26.89723
#
# Velocity S-wave (km/s) = 3.34487 3.76009 3.55854
# Velocity P-wave (km/s) = 5.23851 5.76898 5.51013
#
# Compressibility (1/GPa) = 0.03759042
#
# Stress axis : x y z
#
# Youngs Moduli (GPa) = 60.89836 116.06613 65.29864
#
# Poissons Ratio (x) = 0.32804 -0.04930
# Poissons Ratio (y) = 0.17212 -0.04513
# Poissons Ratio (z) = -0.04598 -0.08021
#
# Static dielectric constant tensor:
#      x y z
#    x 3.752400 0.000000 0.000000 
#    y 0.000000 4.452080 0.000000 
#    z 0.000000 0.000000 3.394010 
# 
# 
# High freq. dielectric constant tensor:
#      x y z
#    x 1.813000 0.000000 0.000000 
#    y 0.000000 1.850550 0.000000 
#    z 0.000000 0.000000 1.798160 
# 
# From -- ./inp_files/12711.got.cif
#   From: 2010.03.12/outbox.cif.g09.slc.cpg/sg56_7_cif.got.tgz:12711.got - 2010.04.16 15:33:40.
