data_PCOD8228738
_publ_section_title
;
Structure prediction by ZEFSAII (Michael W. Deem and Ramdas Pophale) SiO2 
 PCOD8228738
Probable space group: P C C N
;
_chemical_formula_sum "Si O2"
_cell_formula_units_Z 36
_cell_length_a 11.936279
_cell_length_b 4.991728
_cell_length_c 29.746656
_cell_angle_alpha 90.000000
_cell_angle_beta 90.000000
_cell_angle_gamma 90.000000
_cell_volume 1772.384834
_symmetry_space_group_name_H-M "P C C N"
_symmetry_group_IT_number 56
_symmetry_cell_setting 'orthorhombic'
loop_
_space_group_symop_operation_xyz
x,y,z
1/2-x,1/2-y,z
1/2+x,-y,1/2-z
-x,1/2+y,1/2-z
-x,-y,-z
1/2+x,1/2+y,-z
1/2-x,y,1/2+z
x,1/2-y,1/2+z
loop_
_atom_site_type_symbol
_atom_site_label
_atom_site_fract_x
_atom_site_fract_y
_atom_site_fract_z
Si Si1 0.055464 0.435542 0.729794
Si Si2 0.621370 0.757716 0.033420
Si Si3 0.750000 0.250000 0.794946
Si Si4 0.509748 0.766287 0.443164
Si Si5 0.373422 0.353688 0.647264
O O1 0.185338 0.535011 0.736902
O O2 0.049360 0.338797 0.678080
O O3 0.968820 0.679011 0.738418
O O4 0.750000 0.750000 0.047114
O O5 0.552154 0.550635 0.065275
O O6 0.582740 0.061424 0.039231
O O7 0.604618 0.680100 0.980931
O O8 0.850976 0.368727 0.825976
O O9 0.563095 0.626249 0.399571
O O10 0.250000 0.250000 0.637118
#
# Coordination Sequence:
#
# PCOD8228738 Si02
#       5
#     8   8   4   8   8
#     4  11  22  39  64  88 121 156 191 251 308 365
#     4  10  21  39  59  86 124 163 197 245 294 361
#     4  10  22  40  64  94 118 154 200 264 302 352
#     4  10  22  37  63  89 117 160 204 244 300 348
#     4  10  22  38  64  93 118 153 203 262 296 353
#
# _framework density 20.311613999999999
#
# number of rings (size 3 to 8) (size 9 to 14) (size 15 to 20)
#    0.000    1.778    2.222    1.333    6.222    0.000 
#    4.000    0.000    9.778    1.333    0.000    0.000 
#    0.000    0.000    0.000    0.000    0.000    0.000 
#
# Total GULP energy -446038.287436 kJ/mol
# GULP energy per Si atom -12389.952429 kJ/mol
# Density = 2.026538 g / cm^3
# Si number density = 20.311614 Si / 1000 Ang^3
#
#
#
# Elastic Constant Matrix: (Units=GPa)
#
#
# Indices 1 2 3 4 5 6 
#
# 1 81.6504 28.4241 51.5078 0.0000 0.0000 0.0000
# 2 28.4241 112.2590 27.9559 0.0000 0.0000 0.0000
# 3 51.5078 27.9559 86.9130 0.0000 0.0000 0.0000
# 4 0.0000 0.0000 0.0000 24.1952 0.0000 0.0000
# 5 0.0000 0.0000 0.0000 0.0000 24.6749 0.0000
# 6 0.0000 0.0000 0.0000 0.0000 0.0000 40.9851
#
#
#
# Elastic Compliance Matrix: (Units=1/GPa)
#
#
# Indices 1 2 3 4 5 6 
#
# 1 0.020095 -0.002307 -0.011167 0.000000 0.000000 0.000000
# 2 -0.002307 0.009949 -0.001833 0.000000 0.000000 0.000000
# 3 -0.011167 -0.001833 0.018713 0.000000 0.000000 0.000000
# 4 0.000000 0.000000 0.000000 0.041331 0.000000 0.000000
# 5 0.000000 0.000000 0.000000 0.000000 0.040527 0.000000
# 6 0.000000 0.000000 0.000000 0.000000 0.000000 0.024399
#
#
# Mechanical properties :
#
#
# Convention : Reuss Voigt Hill
#
# Bulk Modulus (GPa) = 55.11716 55.17758 55.14737
# Shear Modulus (GPa) = 26.08589 29.50002 27.79295
#
# Velocity S-wave (km/s) = 3.58758 3.81513 3.70311
# Velocity P-wave (km/s) = 6.66000 6.82873 6.74489
#
# Compressibility (1/GPa) = 0.01814317
#
# Stress axis : x y z
#
# Youngs Moduli (GPa) = 49.76374 100.51720 53.43839
#
# Poissons Ratio (x) = 0.23191 0.59674
# Poissons Ratio (y) = 0.11481 0.09794
# Poissons Ratio (z) = 0.55571 0.18422
#
# Static dielectric constant tensor:
#      x y z
#    x 3.590150 0.000000 0.000000 
#    y 0.000000 3.994340 0.000000 
#    z 0.000000 0.000000 3.512350 
# 
# 
# High freq. dielectric constant tensor:
#      x y z
#    x 1.780540 0.000000 0.000000 
#    y 0.000000 1.817360 0.000000 
#    z 0.000000 0.000000 1.760860 
# 
# From -- ./inp_files/20782.got.cif
#   From: 2010.03.12/outbox.cif.g09.slc.cpg/sg56_11_cif.got.tgz:20782.got - 2010.04.16 15:33:40.
