data_PCOD8228858
_publ_section_title
;
Structure prediction by ZEFSAII (Michael W. Deem and Ramdas Pophale) SiO2 
 PCOD8228858
Probable space group: P C C N
;
_chemical_formula_sum "Si O2"
_cell_formula_units_Z 64
_cell_length_a 15.814083
_cell_length_b 8.980746
_cell_length_c 21.285856
_cell_angle_alpha 90.000000
_cell_angle_beta 90.000000
_cell_angle_gamma 90.000000
_cell_volume 3023.065431
_symmetry_space_group_name_H-M "P C C N"
_symmetry_group_IT_number 56
_symmetry_cell_setting 'orthorhombic'
loop_
_space_group_symop_operation_xyz
x,y,z
1/2-x,1/2-y,z
1/2+x,-y,1/2-z
-x,1/2+y,1/2-z
-x,-y,-z
1/2+x,1/2+y,-z
1/2-x,y,1/2+z
x,1/2-y,1/2+z
loop_
_atom_site_type_symbol
_atom_site_label
_atom_site_fract_x
_atom_site_fract_y
_atom_site_fract_z
Si Si1 0.931471 0.258294 0.835444
Si Si2 0.667630 0.854224 0.024888
Si Si3 0.443999 0.517914 0.060218
Si Si4 0.265496 0.919867 0.539010
Si Si5 0.067106 0.297034 0.101597
Si Si6 0.311839 0.613375 0.261278
Si Si7 0.802322 0.984940 0.339171
Si Si8 0.072179 0.030897 0.360734
O O1 0.958776 0.160218 0.895285
O O2 0.895981 0.161506 0.777433
O O3 0.854536 0.365042 0.854110
O O4 0.012344 0.361972 0.817584
O O5 0.750000 0.750000 0.031726
O O6 0.611432 0.859702 0.087092
O O7 0.607173 0.810730 0.967513
O O8 0.700339 0.022721 0.013260
O O9 0.359603 0.542015 0.019610
O O10 0.454130 0.377096 0.107631
O O11 0.500000 0.500000 0.000000
O O12 0.250000 0.750000 0.552968
O O13 0.261280 0.019968 0.602615
O O14 0.134470 0.342985 0.156781
O O15 0.983033 0.398010 0.108269
O O16 0.250000 0.750000 0.279701
O O17 0.252535 0.493817 0.224438
O O18 0.348643 0.535511 0.322747
#
# Coordination Sequence:
#
# PCOD8228858 Si02
#       8
#     8   8   8   8   8   8   8   8
#     4  10  21  41  66  91 126 167 213 258 320 380
#     4  11  23  41  62  92 133 166 213 263 319 386
#     4  12  23  36  62 100 133 166 212 265 311 380
#     4  11  20  36  64  92 124 167 214 256 311 374
#     4  10  23  41  64  97 126 173 216 259 317 397
#     4  10  21  44  70  94 121 166 225 274 317 385
#     4   9  18  40  71  89 116 165 223 268 303 373
#     4  11  25  43  66  94 134 170 206 272 338 381
#
# _framework density 21.170563000000001
#
# number of rings (size 3 to 8) (size 9 to 14) (size 15 to 20)
#    0.000    1.500    3.750    1.500    1.750    1.500 
#    0.000    5.000    0.000    1.500    0.000    0.000 
#    0.000    0.000    0.000    0.000    0.000    0.000 
#
# Total GULP energy -792928.915533 kJ/mol
# GULP energy per Si atom -12389.514305 kJ/mol
# Density = 2.112238 g / cm^3
# Si number density = 21.170563 Si / 1000 Ang^3
#
#
#
# Elastic Constant Matrix: (Units=GPa)
#
#
# Indices 1 2 3 4 5 6 
#
# 1 118.5919 36.4372 50.1650 0.0000 0.0000 0.0000
# 2 36.4372 85.9946 25.7833 0.0000 0.0000 0.0000
# 3 50.1650 25.7833 77.3670 0.0000 0.0000 0.0000
# 4 0.0000 0.0000 0.0000 32.6992 0.0000 0.0000
# 5 0.0000 0.0000 0.0000 0.0000 -21.2757 0.0000
# 6 0.0000 0.0000 0.0000 0.0000 0.0000 31.2512
#
#
#
# Elastic Compliance Matrix: (Units=1/GPa)
#
#
# Indices 1 2 3 4 5 6 
#
# 1 0.012339 -0.003144 -0.006953 0.000000 0.000000 0.000000
# 2 -0.003144 0.013720 -0.002534 0.000000 0.000000 0.000000
# 3 -0.006953 -0.002534 0.018278 0.000000 0.000000 0.000000
# 4 0.000000 0.000000 0.000000 0.030582 0.000000 0.000000
# 5 0.000000 0.000000 0.000000 0.000000 -0.047002 0.000000
# 6 0.000000 0.000000 0.000000 0.000000 0.000000 0.031999
#
#
# Mechanical properties :
#
#
# Convention : Reuss Voigt Hill
#
# Bulk Modulus (GPa) = 52.42122 56.30273 54.36197
# Shear Modulus (GPa) = 54.62217 19.83945 37.23081
#
# Velocity S-wave (km/s) = 5.08498 3.06457 4.19813
# Velocity P-wave (km/s) = 7.70007 6.25897 7.01662
#
# Compressibility (1/GPa) = 0.01907625
#
# Stress axis : x y z
#
# Youngs Moduli (GPa) = 81.04096 72.88398 54.70916
#
# Poissons Ratio (x) = 0.22912 0.38041
# Poissons Ratio (y) = 0.25476 0.13864
# Poissons Ratio (z) = 0.56350 0.18470
#
# Static dielectric constant tensor:
#      x y z
#    x 3.730900 0.000000 0.000000 
#    y 0.000000 3.917960 0.000000 
#    z 0.000000 0.000000 3.526030 
# 
# 
# High freq. dielectric constant tensor:
#      x y z
#    x 1.843620 0.000000 0.000000 
#    y 0.000000 1.834730 0.000000 
#    z 0.000000 0.000000 1.794360 
# 
# From -- ./inp_files/21158.got.cif
#   From: 2010.03.12/outbox.cif.g09.slc.cpg/sg56_11_cif.got.tgz:21158.got - 2010.04.16 15:33:40.
