data_PCOD8228377
_publ_section_title
;
Structure prediction by ZEFSAII (Michael W. Deem and Ramdas Pophale) SiO2 
 PCOD8228377
Probable space group: P C C N
;
_chemical_formula_sum "Si O2"
_cell_formula_units_Z 32
_cell_length_a 4.913506
_cell_length_b 16.504140
_cell_length_c 19.885707
_cell_angle_alpha 90.000000
_cell_angle_beta 90.000000
_cell_angle_gamma 90.000000
_cell_volume 1612.595434
_symmetry_space_group_name_H-M "P C C N"
_symmetry_group_IT_number 56
_symmetry_cell_setting 'orthorhombic'
loop_
_space_group_symop_operation_xyz
x,y,z
1/2-x,1/2-y,z
1/2+x,-y,1/2-z
-x,1/2+y,1/2-z
-x,-y,-z
1/2+x,1/2+y,-z
1/2-x,y,1/2+z
x,1/2-y,1/2+z
loop_
_atom_site_type_symbol
_atom_site_label
_atom_site_fract_x
_atom_site_fract_y
_atom_site_fract_z
Si Si1 0.250000 0.750000 0.636251
Si Si2 0.520455 0.696607 0.921691
Si Si3 0.250000 0.250000 0.450300
Si Si4 0.380019 0.425624 0.187359
Si Si5 0.873758 0.102915 0.774291
O O1 0.499372 0.712598 0.592488
O O2 0.403973 0.818690 0.679118
O O3 0.750000 0.750000 0.883686
O O4 0.516556 0.610843 0.883556
O O5 0.250000 0.750000 0.918068
O O6 0.615892 0.681837 0.999636
O O7 0.412048 0.522500 0.180346
O O8 0.570407 0.392575 0.246323
O O9 0.079369 0.398372 0.210771
#
# Coordination Sequence:
#
# PCOD8228377 Si02
#       5
#     4   8   4   8   8
#     4  12  22  38  58  82 118 160 184 228 302 338
#     4  10  20  36  62  79 111 151 192 247 269 327
#     4  10  22  38  54  84 116 148 208 236 258 346
#     4  10  21  40  56  91 113 145 194 238 293 339
#     4  10  23  36  60  85 123 145 182 243 291 360
#
# _framework density 19.843786000000001
#
# number of rings (size 3 to 8) (size 9 to 14) (size 15 to 20)
#    0.750    1.000    1.250    3.000    5.250    0.000 
#    0.000    2.500    0.000    0.000    0.000    0.000 
#    0.000    0.000    0.000    0.000    0.000    0.000 
#
# Total GULP energy -396426.443068 kJ/mol
# GULP energy per Si atom -12388.326346 kJ/mol
# Density = 1.979862 g / cm^3
# Si number density = 19.843786 Si / 1000 Ang^3
#
#
#
# Elastic Constant Matrix: (Units=GPa)
#
#
# Indices 1 2 3 4 5 6 
#
# 1 113.3010 34.0129 24.1888 0.0000 0.0000 0.0000
# 2 34.0129 98.0444 55.2866 0.0000 0.0000 0.0000
# 3 24.1888 55.2866 81.5487 0.0000 0.0000 0.0000
# 4 0.0000 0.0000 0.0000 9.4469 0.0000 0.0000
# 5 0.0000 0.0000 0.0000 0.0000 15.6236 0.0000
# 6 0.0000 0.0000 0.0000 0.0000 0.0000 23.8387
#
#
#
# Elastic Compliance Matrix: (Units=1/GPa)
#
#
# Indices 1 2 3 4 5 6 
#
# 1 0.009901 -0.002879 -0.000985 0.000000 0.000000 0.000000
# 2 -0.002879 0.017349 -0.010908 0.000000 0.000000 0.000000
# 3 -0.000985 -0.010908 0.019950 0.000000 0.000000 0.000000
# 4 0.000000 0.000000 0.000000 0.105854 0.000000 0.000000
# 5 0.000000 0.000000 0.000000 0.000000 0.064006 0.000000
# 6 0.000000 0.000000 0.000000 0.000000 0.000000 0.041949
#
#
# Mechanical properties :
#
#
# Convention : Reuss Voigt Hill
#
# Bulk Modulus (GPa) = 56.63884 57.76341 57.20112
# Shear Modulus (GPa) = 16.98151 21.74224 19.36187
#
# Velocity S-wave (km/s) = 2.92851 3.31368 3.12703
# Velocity P-wave (km/s) = 6.32765 6.61913 6.47503
#
# Compressibility (1/GPa) = 0.01765573
#
# Stress axis : x y z
#
# Youngs Moduli (GPa) = 101.00341 57.63896 50.12566
#
# Poissons Ratio (x) = 0.16597 0.04935
# Poissons Ratio (y) = 0.29084 0.54677
# Poissons Ratio (z) = 0.09944 0.62873
#
# Static dielectric constant tensor:
#      x y z
#    x 3.788370 0.000000 0.000000 
#    y 0.000000 3.359210 0.000000 
#    z 0.000000 0.000000 3.417570 
# 
# 
# High freq. dielectric constant tensor:
#      x y z
#    x 1.801130 0.000000 0.000000 
#    y 0.000000 1.739220 0.000000 
#    z 0.000000 0.000000 1.758540 
# 
# From -- ./inp_files/12524.got.cif
#   From: 2010.03.12/outbox.cif.g09.slc.cpg/sg56_7_cif.got.tgz:12524.got - 2010.04.16 15:33:40.
