data_PCOD8228178
_publ_section_title
;
Structure prediction by ZEFSAII (Michael W. Deem and Ramdas Pophale) SiO2 
 PCOD8228178
Probable space group: P C C N
;
_chemical_formula_sum "Si O2"
_cell_formula_units_Z 56
_cell_length_a 30.714481
_cell_length_b 5.523798
_cell_length_c 13.745363
_cell_angle_alpha 90.000000
_cell_angle_beta 90.000000
_cell_angle_gamma 90.000000
_cell_volume 2332.046379
_symmetry_space_group_name_H-M "P C C N"
_symmetry_group_IT_number 56
_symmetry_cell_setting 'orthorhombic'
loop_
_space_group_symop_operation_xyz
x,y,z
1/2-x,1/2-y,z
1/2+x,-y,1/2-z
-x,1/2+y,1/2-z
-x,-y,-z
1/2+x,1/2+y,-z
1/2-x,y,1/2+z
x,1/2-y,1/2+z
loop_
_atom_site_type_symbol
_atom_site_label
_atom_site_fract_x
_atom_site_fract_y
_atom_site_fract_z
Si Si1 0.250000 0.250000 0.143828
Si Si2 0.250000 0.750000 0.025041
Si Si3 0.970876 0.009680 0.402948
Si Si4 0.833038 0.099346 0.577128
Si Si5 0.996056 0.489421 0.616342
Si Si6 0.162581 0.222560 0.248160
Si Si7 0.899086 0.481001 0.612514
Si Si8 0.116159 0.195779 0.559836
O O1 0.256573 0.499236 0.083519
O O2 0.208859 0.318098 0.210978
O O3 0.291752 0.745180 0.954407
O O4 0.983484 0.255858 0.343813
O O5 0.918664 0.017706 0.418509
O O6 0.000000 0.000000 0.500000
O O7 0.979788 0.755220 0.345130
O O8 0.879802 0.228119 0.577951
O O9 0.826030 0.008526 0.686723
O O10 0.839668 0.897101 0.493298
O O11 0.946882 0.460711 0.658706
O O12 0.000000 0.500000 0.500000
O O13 0.136869 0.414965 0.313844
O O14 0.131754 0.161436 0.156236
O O15 0.908091 0.628195 0.514059
#
# Coordination Sequence:
#
# PCOD8228178 Si02
#       8
#     4   4   8   8   8   8   8   8
#     4  12  28  54  76 110 148 192 260 310 390 452
#     4  12  28  50  84 106 144 204 256 300 396 468
#     4  10  19  36  69 100 135 193 243 300 359 436
#     4  11  26  44  75 106 148 197 251 314 381 465
#     4  10  19  37  66 100 137 192 244 299 358 438
#     4  11  28  45  72 111 151 192 250 326 371 455
#     4  11  24  42  71 105 147 198 253 305 386 451
#     4  11  22  46  69 104 148 197 251 308 386 450
#
# _framework density 24.013244
#
# number of rings (size 3 to 8) (size 9 to 14) (size 15 to 20)
#    0.000    1.143    4.286    2.571    8.000    1.143 
#    0.000    1.429    0.000    0.000    0.000    0.000 
#    0.000    0.000    0.000    0.000    0.000    0.000 
#
# Total GULP energy -693822.493919 kJ/mol
# GULP energy per Si atom -12389.687391 kJ/mol
# Density = 2.395859 g / cm^3
# Si number density = 24.013244 Si / 1000 Ang^3
#
#
#
# Elastic Constant Matrix: (Units=GPa)
#
#
# Indices 1 2 3 4 5 6 
#
# 1 145.0408 38.7049 56.5172 0.0000 0.0000 0.0000
# 2 38.7049 160.9124 34.4305 0.0000 0.0000 0.0000
# 3 56.5172 34.4305 98.0689 0.0000 0.0000 0.0000
# 4 0.0000 0.0000 0.0000 7.0096 0.0000 0.0000
# 5 0.0000 0.0000 0.0000 0.0000 28.7410 0.0000
# 6 0.0000 0.0000 0.0000 0.0000 0.0000 41.2631
#
#
#
# Elastic Compliance Matrix: (Units=1/GPa)
#
#
# Indices 1 2 3 4 5 6 
#
# 1 0.009084 -0.001151 -0.004831 0.000000 0.000000 0.000000
# 2 -0.001151 0.006865 -0.001747 0.000000 0.000000 0.000000
# 3 -0.004831 -0.001747 0.013594 0.000000 0.000000 0.000000
# 4 0.000000 0.000000 0.000000 0.142662 0.000000 0.000000
# 5 0.000000 0.000000 0.000000 0.000000 0.034793 0.000000
# 6 0.000000 0.000000 0.000000 0.000000 0.000000 0.024235
#
#
# Mechanical properties :
#
#
# Convention : Reuss Voigt Hill
#
# Bulk Modulus (GPa) = 70.99496 73.70305 72.34900
# Shear Modulus (GPa) = 19.88958 33.69402 26.79180
#
# Velocity S-wave (km/s) = 2.88110 3.74992 3.34385
# Velocity P-wave (km/s) = 6.37940 7.03623 6.71585
#
# Compressibility (1/GPa) = 0.01408551
#
# Stress axis : x y z
#
# Youngs Moduli (GPa) = 110.07911 145.66087 73.56004
#
# Poissons Ratio (x) = 0.16771 0.35538
# Poissons Ratio (y) = 0.12674 0.12849
# Poissons Ratio (z) = 0.53180 0.25443
#
# Static dielectric constant tensor:
#      x y z
#    x 3.963250 0.000000 0.000000 
#    y 0.000000 5.051640 0.000000 
#    z 0.000000 0.000000 4.086200 
# 
# 
# High freq. dielectric constant tensor:
#      x y z
#    x 1.967630 0.000000 0.000000 
#    y 0.000000 1.948020 0.000000 
#    z 0.000000 0.000000 1.940890 
# 
# From -- ./inp_files/13499.got.cif
#   From: 2010.03.12/outbox.cif.g09.slc.cpg/sg56_7_cif.got.tgz:13499.got - 2010.04.16 15:33:40.
