data_PCOD8228078
_publ_section_title
;
Structure prediction by ZEFSAII (Michael W. Deem and Ramdas Pophale) SiO2 
 PCOD8228078
Probable space group: P C C N
;
_chemical_formula_sum "Si O2"
_cell_formula_units_Z 40
_cell_length_a 18.815586
_cell_length_b 20.182003
_cell_length_c 5.210483
_cell_angle_alpha 90.000000
_cell_angle_beta 90.000000
_cell_angle_gamma 90.000000
_cell_volume 1978.609083
_symmetry_space_group_name_H-M "P C C N"
_symmetry_group_IT_number 56
_symmetry_cell_setting 'orthorhombic'
loop_
_space_group_symop_operation_xyz
x,y,z
1/2-x,1/2-y,z
1/2+x,-y,1/2-z
-x,1/2+y,1/2-z
-x,-y,-z
1/2+x,1/2+y,-z
1/2-x,y,1/2+z
x,1/2-y,1/2+z
loop_
_atom_site_type_symbol
_atom_site_label
_atom_site_fract_x
_atom_site_fract_y
_atom_site_fract_z
Si Si1 0.410321 0.476832 0.271682
Si Si2 0.138799 0.718904 0.973315
Si Si3 0.961820 0.578751 0.727359
Si Si4 0.296683 0.581911 0.392732
Si Si5 0.517800 0.725743 0.077313
O O1 0.423890 0.422387 0.494965
O O2 0.473480 0.528729 0.244588
O O3 0.338272 0.513834 0.347762
O O4 0.404973 0.441271 0.994621
O O5 0.174870 0.736217 0.247180
O O6 0.055737 0.737526 0.992338
O O7 0.147798 0.642815 0.889494
O O8 0.993283 0.649984 0.655360
O O9 0.261676 0.585716 0.671782
O O10 0.559343 0.765406 0.305515
#
# Coordination Sequence:
#
# PCOD8228078 Si02
#       5
#     8   8   8   8   8
#     4  10  21  37  55  79 109 145 197 243 286 335
#     4  10  21  35  52  73 109 153 193 229 269 318
#     4  10  20  35  58  81 108 148 187 241 300 339
#     4  12  25  39  56  80 116 160 202 236 271 333
#     4  10  19  32  53  80 112 143 175 223 288 343
#
# _framework density 20.216221000000001
#
# number of rings (size 3 to 8) (size 9 to 14) (size 15 to 20)
#    0.000    1.600    0.000    6.000    0.000   12.000 
#    0.000    0.000    0.000    0.000    0.000    0.000 
#    0.000   56.000    0.000    0.000    0.000    0.000 
#
# Total GULP energy -495592.760536 kJ/mol
# GULP energy per Si atom -12389.819013 kJ/mol
# Density = 2.017021 g / cm^3
# Si number density = 20.216221 Si / 1000 Ang^3
#
#
#
# Elastic Constant Matrix: (Units=GPa)
#
#
# Indices 1 2 3 4 5 6 
#
# 1 36.6914 29.4892 12.5076 0.0000 0.0000 0.0000
# 2 29.4892 86.2199 33.9912 0.0000 0.0000 0.0000
# 3 12.5076 33.9912 168.6889 0.0000 0.0000 0.0000
# 4 0.0000 0.0000 0.0000 36.9003 0.0000 0.0000
# 5 0.0000 0.0000 0.0000 0.0000 16.2703 0.0000
# 6 0.0000 0.0000 0.0000 0.0000 0.0000 31.9435
#
#
#
# Elastic Compliance Matrix: (Units=1/GPa)
#
#
# Indices 1 2 3 4 5 6 
#
# 1 0.037593 -0.012774 -0.000213 0.000000 0.000000 0.000000
# 2 -0.012774 0.016939 -0.002466 0.000000 0.000000 0.000000
# 3 -0.000213 -0.002466 0.006441 0.000000 0.000000 0.000000
# 4 0.000000 0.000000 0.000000 0.027100 0.000000 0.000000
# 5 0.000000 0.000000 0.000000 0.000000 0.061462 0.000000
# 6 0.000000 0.000000 0.000000 0.000000 0.000000 0.031305
#
#
# Mechanical properties :
#
#
# Convention : Reuss Voigt Hill
#
# Bulk Modulus (GPa) = 33.25911 49.28627 41.27269
# Shear Modulus (GPa) = 22.54592 31.39698 26.97145
#
# Velocity S-wave (km/s) = 3.34314 3.94516 3.65656
# Velocity P-wave (km/s) = 5.60264 6.72197 6.18767
#
# Compressibility (1/GPa) = 0.03006695
#
# Stress axis : x y z
#
# Youngs Moduli (GPa) = 26.60041 59.03391 155.25905
#
# Poissons Ratio (x) = 0.75408 0.03314
# Poissons Ratio (y) = 0.33978 0.38290
# Poissons Ratio (z) = 0.00568 0.14559
#
# Static dielectric constant tensor:
#      x y z
#    x 3.139800 0.000000 0.000000 
#    y 0.000000 3.615520 0.000000 
#    z 0.000000 0.000000 5.125990 
# 
# 
# High freq. dielectric constant tensor:
#      x y z
#    x 1.720120 0.000000 0.000000 
#    y 0.000000 1.779620 0.000000 
#    z 0.000000 0.000000 1.836590 
# 
# From -- ./inp_files/830.got.cif
#   From: 2010.03.12/outbox.cif.g09.slc.cpg/sg56_1_cif.got.tgz:830.got - 2010.04.16 15:33:40.
