data_PCOD8228519
_publ_section_title
;
Structure prediction by ZEFSAII (Michael W. Deem and Ramdas Pophale) SiO2 
 PCOD8228519
Probable space group: P C C N
;
_chemical_formula_sum "Si O2"
_cell_formula_units_Z 64
_cell_length_a 11.699467
_cell_length_b 9.041998
_cell_length_c 28.860112
_cell_angle_alpha 90.000000
_cell_angle_beta 90.000000
_cell_angle_gamma 90.000000
_cell_volume 3053.011889
_symmetry_space_group_name_H-M "P C C N"
_symmetry_group_IT_number 56
_symmetry_cell_setting 'orthorhombic'
loop_
_space_group_symop_operation_xyz
x,y,z
1/2-x,1/2-y,z
1/2+x,-y,1/2-z
-x,1/2+y,1/2-z
-x,-y,-z
1/2+x,1/2+y,-z
1/2-x,y,1/2+z
x,1/2-y,1/2+z
loop_
_atom_site_type_symbol
_atom_site_label
_atom_site_fract_x
_atom_site_fract_y
_atom_site_fract_z
Si Si1 0.976400 0.981799 0.145553
Si Si2 0.804378 0.891510 0.068288
Si Si3 0.990740 0.505753 0.143031
Si Si4 0.379198 0.749180 0.596283
Si Si5 0.386136 0.251431 0.186520
Si Si6 0.616738 0.750418 0.208428
Si Si7 0.644314 0.144881 0.066291
Si Si8 0.995114 0.325985 0.492757
O O1 0.072720 0.869072 0.130866
O O2 0.882223 0.989408 0.103679
O O3 0.923212 0.913441 0.192417
O O4 0.040491 0.136603 0.154290
O O5 0.750000 0.750000 0.095810
O O6 0.878779 0.801792 0.029114
O O7 0.705329 0.995489 0.045439
O O8 0.925568 0.620783 0.175083
O O9 0.903572 0.397426 0.116638
O O10 0.063374 0.589891 0.103814
O O11 0.075576 0.413631 0.174949
O O12 0.250000 0.750000 0.610148
O O13 0.394177 0.792469 0.543035
O O14 0.250000 0.250000 0.177521
O O15 0.422278 0.284368 0.239247
O O16 0.750000 0.750000 0.207087
O O17 0.750000 0.250000 0.074409
O O18 0.540937 0.221661 0.036374
O O19 0.000000 0.500000 0.500000
#
# Coordination Sequence:
#
# PCOD8228519 Si02
#       8
#     8   8   8   8   8   8   8   8
#     4  10  20  39  64  88 126 165 208 260 316 376
#     4  11  23  41  67  94 125 169 213 261 317 377
#     4  11  24  40  63  97 122 159 219 254 310 378
#     4  10  22  40  63  83 121 168 207 254 317 375
#     4  11  23  39  62  93 129 162 205 261 319 375
#     4  10  21  40  64  91 125 166 206 257 318 381
#     4  12  23  41  65  91 130 165 207 269 314 373
#     4  11  24  42  61  92 125 167 215 260 318 373
#
# _framework density 20.962904999999999
#
# number of rings (size 3 to 8) (size 9 to 14) (size 15 to 20)
#    0.000    1.250    1.250    6.000    1.750    2.000 
#    0.000    0.000    0.000    7.500    0.000    0.000 
#    0.000    0.000    0.000    0.000    0.000    0.000 
#
# Total GULP energy -792915.284905 kJ/mol
# GULP energy per Si atom -12389.301327 kJ/mol
# Density = 2.091519 g / cm^3
# Si number density = 20.962905 Si / 1000 Ang^3
#
#
#
# Elastic Constant Matrix: (Units=GPa)
#
#
# Indices 1 2 3 4 5 6 
#
# 1 64.8701 25.7501 45.2705 0.0000 0.0000 0.0000
# 2 25.7501 108.3076 51.2513 0.0000 0.0000 0.0000
# 3 45.2705 51.2513 97.1907 0.0000 0.0000 0.0000
# 4 0.0000 0.0000 0.0000 27.5348 0.0000 0.0000
# 5 0.0000 0.0000 0.0000 0.0000 21.0060 0.0000
# 6 0.0000 0.0000 0.0000 0.0000 0.0000 38.3195
#
#
#
# Elastic Compliance Matrix: (Units=1/GPa)
#
#
# Indices 1 2 3 4 5 6 
#
# 1 0.022862 -0.000528 -0.010371 0.000000 0.000000 0.000000
# 2 -0.000528 0.012315 -0.006248 0.000000 0.000000 0.000000
# 3 -0.010371 -0.006248 0.018414 0.000000 0.000000 0.000000
# 4 0.000000 0.000000 0.000000 0.036318 0.000000 0.000000
# 5 0.000000 0.000000 0.000000 0.000000 0.047605 0.000000
# 6 0.000000 0.000000 0.000000 0.000000 0.000000 0.026096
#
#
# Mechanical properties :
#
#
# Convention : Reuss Voigt Hill
#
# Bulk Modulus (GPa) = 51.81827 57.21246 54.51537
# Shear Modulus (GPa) = 24.46932 27.24517 25.85725
#
# Velocity S-wave (km/s) = 3.42024 3.60903 3.51590
# Velocity P-wave (km/s) = 6.35374 6.68717 6.52259
#
# Compressibility (1/GPa) = 0.01929821
#
# Stress axis : x y z
#
# Youngs Moduli (GPa) = 43.74016 81.20084 54.30554
#
# Poissons Ratio (x) = 0.04289 0.56318
# Poissons Ratio (y) = 0.02310 0.33931
# Poissons Ratio (z) = 0.45361 0.50735
#
# Static dielectric constant tensor:
#      x y z
#    x 4.219440 0.000000 0.000000 
#    y 0.000000 3.923440 0.000000 
#    z 0.000000 0.000000 2.913140 
# 
# 
# High freq. dielectric constant tensor:
#      x y z
#    x 1.831190 0.000000 0.000000 
#    y 0.000000 1.833850 0.000000 
#    z 0.000000 0.000000 1.810210 
# 
# From -- ./inp_files/23543.got.cif
#   From: 2010.03.12/outbox.cif.g09.slc.cpg/sg56_12_cif.got.tgz:23543.got - 2010.04.16 15:33:40.
