data_PCOD8228126
_publ_section_title
;
Structure prediction by ZEFSAII (Michael W. Deem and Ramdas Pophale) SiO2 
 PCOD8228126
Probable space group: P C C N
;
_chemical_formula_sum "Si O2"
_cell_formula_units_Z 48
_cell_length_a 10.513125
_cell_length_b 11.070775
_cell_length_c 19.924736
_cell_angle_alpha 90.000000
_cell_angle_beta 90.000000
_cell_angle_gamma 90.000000
_cell_volume 2319.008969
_symmetry_space_group_name_H-M "P C C N"
_symmetry_group_IT_number 56
_symmetry_cell_setting 'orthorhombic'
loop_
_space_group_symop_operation_xyz
x,y,z
1/2-x,1/2-y,z
1/2+x,-y,1/2-z
-x,1/2+y,1/2-z
-x,-y,-z
1/2+x,1/2+y,-z
1/2-x,y,1/2+z
x,1/2-y,1/2+z
loop_
_atom_site_type_symbol
_atom_site_label
_atom_site_fract_x
_atom_site_fract_y
_atom_site_fract_z
Si Si1 0.559231 0.668695 0.659718
Si Si2 0.750000 0.750000 0.270368
Si Si3 0.367572 0.826831 0.938095
Si Si4 0.886631 0.303873 0.430039
Si Si5 0.750000 0.750000 0.055131
Si Si6 0.237427 0.476092 0.518470
Si Si7 0.084962 0.074857 0.640210
O O1 0.634008 0.694994 0.727901
O O2 0.471413 0.782212 0.636274
O O3 0.659676 0.663591 0.598931
O O4 0.474282 0.548767 0.670795
O O5 0.812440 0.859102 0.312481
O O6 0.250000 0.750000 0.909902
O O7 0.467444 0.837109 0.877348
O O8 0.435502 0.766554 0.003402
O O9 0.306438 0.954923 0.957689
O O10 0.750000 0.250000 0.412379
O O11 0.875867 0.446715 0.446719
O O12 0.678002 0.650921 0.008125
O O13 0.348602 0.454818 0.571078
#
# Coordination Sequence:
#
# PCOD8228126 Si02
#       7
#     8   4   8   8   4   8   8
#     4  11  23  45  63  84 134 178 215 271 313 368
#     4  11  31  44  58  94 115 181 250 260 302 379
#     4   9  18  35  66 103 124 156 199 254 340 398
#     4   9  18  36  65  97 127 160 206 251 333 399
#     4  11  21  34  64 104 135 165 200 250 340 407
#     4  10  19  34  66 105 128 159 197 258 342 400
#     4  12  21  45  65  85 136 166 213 276 319 375
#
# _framework density 20.698497
#
# number of rings (size 3 to 8) (size 9 to 14) (size 15 to 20)
#    0.000    2.000    5.000    2.000    0.000    2.000 
#    3.000    1.667    0.000    0.000    0.000    0.000 
#    0.000    0.000    0.000    0.000    0.000    0.000 
#
# Total GULP energy -594657.928714 kJ/mol
# GULP energy per Si atom -12388.706848 kJ/mol
# Density = 2.065139 g / cm^3
# Si number density = 20.698497 Si / 1000 Ang^3
#
#
#
# Elastic Constant Matrix: (Units=GPa)
#
#
# Indices 1 2 3 4 5 6 
#
# 1 72.2124 46.1624 48.0189 0.0000 0.0000 0.0000
# 2 46.1624 144.5600 48.3689 0.0000 0.0000 0.0000
# 3 48.0189 48.3689 62.0340 0.0000 0.0000 0.0000
# 4 0.0000 0.0000 0.0000 2.2532 0.0000 0.0000
# 5 0.0000 0.0000 0.0000 0.0000 21.3748 0.0000
# 6 0.0000 0.0000 0.0000 0.0000 0.0000 39.8010
#
#
#
# Elastic Compliance Matrix: (Units=1/GPa)
#
#
# Indices 1 2 3 4 5 6 
#
# 1 0.029129 -0.002378 -0.020694 0.000000 0.000000 0.000000
# 2 -0.002378 0.009553 -0.005608 0.000000 0.000000 0.000000
# 3 -0.020694 -0.005608 0.036512 0.000000 0.000000 0.000000
# 4 0.000000 0.000000 0.000000 0.443821 0.000000 0.000000
# 5 0.000000 0.000000 0.000000 0.000000 0.046784 0.000000
# 6 0.000000 0.000000 0.000000 0.000000 0.000000 0.025125
#
#
# Mechanical properties :
#
#
# Convention : Reuss Voigt Hill
#
# Bulk Modulus (GPa) = 56.07295 62.65632 59.36463
# Shear Modulus (GPa) = 7.64259 21.76954 14.70606
#
# Velocity S-wave (km/s) = 1.92363 3.24658 2.66839
# Velocity P-wave (km/s) = 5.66418 6.66261 6.18358
#
# Compressibility (1/GPa) = 0.01783391
#
# Stress axis : x y z
#
# Youngs Moduli (GPa) = 34.33030 104.67539 27.38836
#
# Poissons Ratio (x) = 0.24888 0.56677
# Poissons Ratio (y) = 0.08162 0.15361
# Poissons Ratio (z) = 0.71043 0.58706
#
# Static dielectric constant tensor:
#      x y z
#    x 3.801380 0.000000 0.000000 
#    y 0.000000 4.084150 0.000000 
#    z 0.000000 0.000000 3.435290 
# 
# 
# High freq. dielectric constant tensor:
#      x y z
#    x 1.814210 0.000000 0.000000 
#    y 0.000000 1.816530 0.000000 
#    z 0.000000 0.000000 1.772610 
# 
# From -- ./inp_files/15650.got.cif
#   From: 2010.03.12/outbox.cif.g09.slc.cpg/sg56_8_cif.got.tgz:15650.got - 2010.04.16 15:33:40.
