data_PCOD8228831
_publ_section_title
;
Structure prediction by ZEFSAII (Michael W. Deem and Ramdas Pophale) SiO2 
 PCOD8228831
Probable space group: P C C N
;
_chemical_formula_sum "Si O2"
_cell_formula_units_Z 64
_cell_length_a 25.480894
_cell_length_b 9.049586
_cell_length_c 14.046108
_cell_angle_alpha 90.000000
_cell_angle_beta 90.000000
_cell_angle_gamma 90.000000
_cell_volume 3238.913697
_symmetry_space_group_name_H-M "P C C N"
_symmetry_group_IT_number 56
_symmetry_cell_setting 'orthorhombic'
loop_
_space_group_symop_operation_xyz
x,y,z
1/2-x,1/2-y,z
1/2+x,-y,1/2-z
-x,1/2+y,1/2-z
-x,-y,-z
1/2+x,1/2+y,-z
1/2-x,y,1/2+z
x,1/2-y,1/2+z
loop_
_atom_site_type_symbol
_atom_site_label
_atom_site_fract_x
_atom_site_fract_y
_atom_site_fract_z
Si Si1 0.309453 0.732743 0.011824
Si Si2 0.882255 0.725985 0.338826
Si Si3 0.182043 0.506729 0.136433
Si Si4 0.527118 0.845019 0.479078
Si Si5 0.461413 0.151316 0.310240
Si Si6 0.697232 0.478316 0.833607
Si Si7 0.162519 0.726520 0.298896
Si Si8 0.543622 0.296303 0.182624
O O1 0.250000 0.750000 0.045789
O O2 0.335149 0.885283 0.049101
O O3 0.330451 0.593151 0.072530
O O4 0.313054 0.697063 0.901670
O O5 0.920021 0.647484 0.415872
O O6 0.913146 0.779365 0.246275
O O7 0.838127 0.614416 0.301461
O O8 0.851762 0.862494 0.386096
O O9 0.243812 0.468112 0.143487
O O10 0.165545 0.578071 0.237224
O O11 0.541633 0.781519 0.582691
O O12 0.484395 0.751221 0.417829
O O13 0.500000 0.000000 0.500000
O O14 0.515919 0.210271 0.268277
O O15 0.459595 0.973484 0.304444
O O16 0.695991 0.357454 0.749022
O O17 0.102052 0.767313 0.316753
#
# Coordination Sequence:
#
# PCOD8228831 Si02
#       8
#     8   8   8   8   8   8   8   8
#     4   9  20  38  59  85 119 157 202 245 292 366
#     4  11  22  39  62  90 121 160 201 252 312 364
#     4  10  21  41  57  91 125 152 204 254 299 359
#     4   9  22  39  60  82 118 156 199 243 303 364
#     4  10  22  42  58  86 119 150 200 253 297 364
#     4  10  23  36  63  87 121 164 196 247 306 373
#     4  11  21  37  64  88 117 158 201 244 305 365
#     4  10  22  38  62  86 115 155 195 250 301 357
#
# _framework density 19.759710999999999
#
# number of rings (size 3 to 8) (size 9 to 14) (size 15 to 20)
#    0.000    2.000    1.250    2.250    8.750    2.000 
#    0.000    1.250    0.000    4.500    0.000    0.000 
#    0.000    0.000    0.000    0.000    0.000    0.000 
#
# Total GULP energy -793261.874642 kJ/mol
# GULP energy per Si atom -12394.716791 kJ/mol
# Density = 1.971474 g / cm^3
# Si number density = 19.759711 Si / 1000 Ang^3
#
#
#
# Elastic Constant Matrix: (Units=GPa)
#
#
# Indices 1 2 3 4 5 6 
#
# 1 89.4946 23.1202 14.1301 0.0000 0.0000 0.0000
# 2 23.1202 71.3679 23.6698 0.0000 0.0000 0.0000
# 3 14.1301 23.6698 125.2089 0.0000 0.0000 0.0000
# 4 0.0000 0.0000 0.0000 15.6448 0.0000 0.0000
# 5 0.0000 0.0000 0.0000 0.0000 23.7565 0.0000
# 6 0.0000 0.0000 0.0000 0.0000 0.0000 36.9862
#
#
#
# Elastic Compliance Matrix: (Units=1/GPa)
#
#
# Indices 1 2 3 4 5 6 
#
# 1 0.012248 -0.003744 -0.000674 0.000000 0.000000 0.000000
# 2 -0.003744 0.016094 -0.002620 0.000000 0.000000 0.000000
# 3 -0.000674 -0.002620 0.008558 0.000000 0.000000 0.000000
# 4 0.000000 0.000000 0.000000 0.063919 0.000000 0.000000
# 5 0.000000 0.000000 0.000000 0.000000 0.042094 0.000000
# 6 0.000000 0.000000 0.000000 0.000000 0.000000 0.027037
#
#
# Mechanical properties :
#
#
# Convention : Reuss Voigt Hill
#
# Bulk Modulus (GPa) = 43.81597 45.32351 44.56974
# Shear Modulus (GPa) = 26.09148 30.28758 28.18953
#
# Velocity S-wave (km/s) = 3.63773 3.91934 3.78116
# Velocity P-wave (km/s) = 6.31400 6.59308 6.45505
#
# Compressibility (1/GPa) = 0.02282273
#
# Stress axis : x y z
#
# Youngs Moduli (GPa) = 81.64879 62.13607 116.84938
#
# Poissons Ratio (x) = 0.23264 0.07880
# Poissons Ratio (y) = 0.30570 0.30613
# Poissons Ratio (z) = 0.05506 0.16279
#
# Static dielectric constant tensor:
#      x y z
#    x 3.708520 0.000000 0.000000 
#    y 0.000000 3.446640 0.000000 
#    z 0.000000 0.000000 3.815020 
# 
# 
# High freq. dielectric constant tensor:
#      x y z
#    x 1.780160 0.000000 0.000000 
#    y 0.000000 1.752860 0.000000 
#    z 0.000000 0.000000 1.772510 
# 
# From -- ./inp_files/13281.got.cif
#   From: 2010.03.12/outbox.cif.g09.slc.cpg/sg56_7_cif.got.tgz:13281.got - 2010.04.16 15:33:40.
