data_PCOD8228698
_publ_section_title
;
Structure prediction by ZEFSAII (Michael W. Deem and Ramdas Pophale) SiO2 
 PCOD8228698
Probable space group: P C C N
;
_chemical_formula_sum "Si O2"
_cell_formula_units_Z 56
_cell_length_a 32.283230
_cell_length_b 15.629199
_cell_length_c 5.218152
_cell_angle_alpha 90.000000
_cell_angle_beta 90.000000
_cell_angle_gamma 90.000000
_cell_volume 2632.876127
_symmetry_space_group_name_H-M "P C C N"
_symmetry_group_IT_number 56
_symmetry_cell_setting 'orthorhombic'
loop_
_space_group_symop_operation_xyz
x,y,z
1/2-x,1/2-y,z
1/2+x,-y,1/2-z
-x,1/2+y,1/2-z
-x,-y,-z
1/2+x,1/2+y,-z
1/2-x,y,1/2+z
x,1/2-y,1/2+z
loop_
_atom_site_type_symbol
_atom_site_label
_atom_site_fract_x
_atom_site_fract_y
_atom_site_fract_z
Si Si1 0.842717 0.433459 0.220038
Si Si2 0.334583 0.038523 0.277815
Si Si3 0.203431 0.286949 0.219730
Si Si4 0.996922 0.694590 0.772567
Si Si5 0.428868 0.438066 0.763884
Si Si6 0.733020 0.344722 0.855489
Si Si7 0.563623 0.452719 0.733520
O O1 0.830192 0.502391 0.435949
O O2 0.815637 0.348198 0.280950
O O3 0.890822 0.409611 0.233489
O O4 0.829599 0.466562 0.939959
O O5 0.299277 0.110441 0.239498
O O6 0.380054 0.080496 0.244542
O O7 0.250000 0.250000 0.200884
O O8 0.180252 0.244479 0.462562
O O9 0.002699 0.764229 0.551004
O O10 0.031213 0.622340 0.735625
O O11 0.951531 0.652984 0.750086
O O12 0.444368 0.496859 0.529287
O O13 0.441138 0.483368 0.028906
O O14 0.750000 0.250000 0.914224
O O15 0.758766 0.392020 0.627612
#
# Coordination Sequence:
#
# PCOD8228698 Si02
#       7
#     8   8   8   8   8   8   8
#     4  10  21  40  61  90 114 153 207 249 283 353
#     4  10  21  38  62  87 115 154 207 248 290 345
#     4  10  21  38  53  78 114 151 185 234 301 357
#     4  12  24  38  58  98 128 156 200 246 298 355
#     4  10  21  39  65  85 120 163 201 246 296 354
#     4  10  21  40  58  86 118 152 193 235 309 361
#     4  10  21  41  63  86 119 165 203 242 299 351
#
# _framework density 21.269513
#
# number of rings (size 3 to 8) (size 9 to 14) (size 15 to 20)
#    0.000    1.714    0.000    4.286    0.000    1.143 
#   20.571    0.000    0.000    0.000    0.000    0.000 
#    0.000    0.000    0.000    0.000    0.000    0.000 
#
# Total GULP energy -694198.602572 kJ/mol
# GULP energy per Si atom -12396.403617 kJ/mol
# Density = 2.122110 g / cm^3
# Si number density = 21.269513 Si / 1000 Ang^3
#
#
#
# Elastic Constant Matrix: (Units=GPa)
#
#
# Indices 1 2 3 4 5 6 
#
# 1 68.7768 24.2129 1.2491 0.0000 0.0000 0.0000
# 2 24.2129 55.1562 -1.8967 0.0000 0.0000 0.0000
# 3 1.2491 -1.8967 136.3637 0.0000 0.0000 0.0000
# 4 0.0000 0.0000 0.0000 25.5164 0.0000 0.0000
# 5 0.0000 0.0000 0.0000 0.0000 21.3869 0.0000
# 6 0.0000 0.0000 0.0000 0.0000 0.0000 35.0683
#
#
#
# Elastic Compliance Matrix: (Units=1/GPa)
#
#
# Indices 1 2 3 4 5 6 
#
# 1 0.017207 -0.007563 -0.000263 0.000000 0.000000 0.000000
# 2 -0.007563 0.021463 0.000368 0.000000 0.000000 0.000000
# 3 -0.000263 0.000368 0.007341 0.000000 0.000000 0.000000
# 4 0.000000 0.000000 0.000000 0.039191 0.000000 0.000000
# 5 0.000000 0.000000 0.000000 0.000000 0.046758 0.000000
# 6 0.000000 0.000000 0.000000 0.000000 0.000000 0.028516
#
#
# Mechanical properties :
#
#
# Convention : Reuss Voigt Hill
#
# Bulk Modulus (GPa) = 32.15914 34.15859 33.15886
# Shear Modulus (GPa) = 26.91714 32.17640 29.54677
#
# Velocity S-wave (km/s) = 3.56128 3.89369 3.73119
# Velocity P-wave (km/s) = 5.66242 6.02571 5.84688
#
# Compressibility (1/GPa) = 0.03109536
#
# Stress axis : x y z
#
# Youngs Moduli (GPa) = 58.11580 46.59201 136.22393
#
# Poissons Ratio (x) = 0.35236 0.03580
# Poissons Ratio (y) = 0.43951 -0.05010
# Poissons Ratio (z) = 0.01527 -0.01714
#
# Static dielectric constant tensor:
#      x y z
#    x 3.921510 0.000000 0.000000 
#    y 0.000000 3.541680 0.000000 
#    z 0.000000 0.000000 5.032770 
# 
# 
# High freq. dielectric constant tensor:
#      x y z
#    x 1.829870 0.000000 0.000000 
#    y 0.000000 1.806130 0.000000 
#    z 0.000000 0.000000 1.873560 
# 
# From -- ./inp_files/1342.got.cif
#   From: 2010.03.12/outbox.cif.g09.slc.cpg/sg56_1_cif.got.tgz:1342.got - 2010.04.16 15:33:40.
