data_PCOD8228637
_publ_section_title
;
Structure prediction by ZEFSAII (Michael W. Deem and Ramdas Pophale) SiO2 
 PCOD8228637
Probable space group: P C C N
;
_chemical_formula_sum "Si O2"
_cell_formula_units_Z 64
_cell_length_a 19.499848
_cell_length_b 19.475364
_cell_length_c 10.015707
_cell_angle_alpha 90.000000
_cell_angle_beta 90.000000
_cell_angle_gamma 90.000000
_cell_volume 3803.631372
_symmetry_space_group_name_H-M "P C C N"
_symmetry_group_IT_number 56
_symmetry_cell_setting 'orthorhombic'
loop_
_space_group_symop_operation_xyz
x,y,z
1/2-x,1/2-y,z
1/2+x,-y,1/2-z
-x,1/2+y,1/2-z
-x,-y,-z
1/2+x,1/2+y,-z
1/2-x,y,1/2+z
x,1/2-y,1/2+z
loop_
_atom_site_type_symbol
_atom_site_label
_atom_site_fract_x
_atom_site_fract_y
_atom_site_fract_z
Si Si1 0.069332 0.817100 0.211625
Si Si2 0.301308 0.916817 0.012170
Si Si3 0.020570 0.405635 0.892107
Si Si4 0.583745 0.301351 0.487850
Si Si5 0.962329 0.922065 0.138440
Si Si6 0.905815 0.520912 0.892107
Si Si7 0.577702 0.962008 0.361566
Si Si8 0.682902 0.068779 0.288363
O O1 0.098051 0.766674 0.097790
O O2 0.068158 0.781443 0.357994
O O3 0.119750 0.880512 0.223222
O O4 0.994528 0.847397 0.172546
O O5 0.350658 0.850974 0.024691
O O6 0.333797 0.984976 0.077678
O O7 0.233325 0.902667 0.097745
O O8 0.281490 0.932509 0.858008
O O9 0.055812 0.405505 0.747589
O O10 0.984444 0.333653 0.922370
O O11 0.964312 0.464391 0.903548
O O12 0.079840 0.419812 0.999976
O O13 0.905825 0.943775 0.247613
O O14 0.920826 0.920456 0.000007
O O15 0.022909 0.977142 0.132679
O O16 0.652386 0.993983 0.327415
#
# Coordination Sequence:
#
# PCOD8228637 Si02
#       8
#     8   8   8   8   8   8   8   8
#     4  10  21  35  48  69 100 132 169 204 236 285
#     4  10  21  34  49  69  97 134 169 202 239 286
#     4   9  15  29  50  68  89 119 154 197 252 295
#     4  10  21  34  49  69  97 134 169 202 239 286
#     4   9  17  29  48  72  94 118 153 203 253 292
#     4   9  15  29  50  68  89 119 154 197 252 295
#     4   9  17  29  48  72  94 118 153 203 253 292
#     4  10  21  35  48  69 100 132 169 204 236 285
#
# _framework density 16.826025999999999
#
# number of rings (size 3 to 8) (size 9 to 14) (size 15 to 20)
#    0.000    2.500    2.500    0.000    3.500    1.500 
#    0.000    2.500    0.000    0.000    0.000    0.000 
#    0.000    6.000    0.000    0.000    0.000    0.000 
#
# Total GULP energy -793315.251284 kJ/mol
# GULP energy per Si atom -12395.550801 kJ/mol
# Density = 1.678773 g / cm^3
# Si number density = 16.826026 Si / 1000 Ang^3
#
#
#
# Elastic Constant Matrix: (Units=GPa)
#
#
# Indices 1 2 3 4 5 6 
#
# 1 21.0945 17.8015 27.6314 0.0000 0.0000 0.0000
# 2 17.8015 20.8143 27.4438 0.0000 0.0000 0.0000
# 3 27.6314 27.4438 156.7216 0.0000 0.0000 0.0000
# 4 0.0000 0.0000 0.0000 26.5799 0.0000 0.0000
# 5 0.0000 0.0000 0.0000 0.0000 26.6652 0.0000
# 6 0.0000 0.0000 0.0000 0.0000 0.0000 11.3697
#
#
#
# Elastic Compliance Matrix: (Units=1/GPa)
#
#
# Indices 1 2 3 4 5 6 
#
# 1 0.174637 -0.141411 -0.006027 0.000000 0.000000 0.000000
# 2 -0.141411 0.176974 -0.006058 0.000000 0.000000 0.000000
# 3 -0.006027 -0.006058 0.008504 0.000000 0.000000 0.000000
# 4 0.000000 0.000000 0.000000 0.037622 0.000000 0.000000
# 5 0.000000 0.000000 0.000000 0.000000 0.037502 0.000000
# 6 0.000000 0.000000 0.000000 0.000000 0.000000 0.087953
#
#
# Mechanical properties :
#
#
# Convention : Reuss Voigt Hill
#
# Bulk Modulus (GPa) = 18.82482 38.26487 28.54484
# Shear Modulus (GPa) = 5.89697 21.30654 13.60176
#
# Velocity S-wave (km/s) = 1.87411 3.56235 2.84628
# Velocity P-wave (km/s) = 3.98688 6.30169 5.27288
#
# Compressibility (1/GPa) = 0.05312136
#
# Stress axis : x y z
#
# Youngs Moduli (GPa) = 5.72618 5.65056 117.58839
#
# Poissons Ratio (x) = 0.79905 0.70873
# Poissons Ratio (y) = 0.80975 0.71236
# Poissons Ratio (z) = 0.03451 0.03423
#
# Static dielectric constant tensor:
#      x y z
#    x 2.878260 0.000000 0.000000 
#    y 0.000000 2.876650 0.000000 
#    z 0.000000 0.000000 3.491130 
# 
# 
# High freq. dielectric constant tensor:
#      x y z
#    x 1.611480 0.000000 0.000000 
#    y 0.000000 1.611280 0.000000 
#    z 0.000000 0.000000 1.672460 
# 
# From -- ./inp_files/4274.got.cif
#   From: 2010.03.12/outbox.cif.g09.slc.cpg/sg56_3_cif.got.tgz:4274.got - 2010.04.16 15:33:40.
