data_PCOD8228938
_publ_section_title
;
Structure prediction by ZEFSAII (Michael W. Deem and Ramdas Pophale) SiO2 
 PCOD8228938
Probable space group: P C C N
;
_chemical_formula_sum "Si O2"
_cell_formula_units_Z 60
_cell_length_a 10.518687
_cell_length_b 27.251189
_cell_length_c 9.622006
_cell_angle_alpha 90.000000
_cell_angle_beta 90.000000
_cell_angle_gamma 90.000000
_cell_volume 2758.116532
_symmetry_space_group_name_H-M "P C C N"
_symmetry_group_IT_number 56
_symmetry_cell_setting 'orthorhombic'
loop_
_space_group_symop_operation_xyz
x,y,z
1/2-x,1/2-y,z
1/2+x,-y,1/2-z
-x,1/2+y,1/2-z
-x,-y,-z
1/2+x,1/2+y,-z
1/2-x,y,1/2+z
x,1/2-y,1/2+z
loop_
_atom_site_type_symbol
_atom_site_label
_atom_site_fract_x
_atom_site_fract_y
_atom_site_fract_z
Si Si1 0.684812 0.590163 0.042610
Si Si2 0.152628 0.312006 0.937898
Si Si3 0.258008 0.895507 0.352943
Si Si4 0.599866 0.365534 0.388320
Si Si5 0.060336 0.451062 0.945732
Si Si6 0.490247 0.558366 0.266381
Si Si7 0.750000 0.750000 0.815330
Si Si8 0.995549 0.460421 0.620973
O O1 0.565793 0.585519 0.145761
O O2 0.745265 0.644201 0.042597
O O3 0.790334 0.549996 0.091913
O O4 0.619539 0.575827 0.893731
O O5 0.157738 0.278664 0.076698
O O6 0.005966 0.326455 0.925883
O O7 0.176578 0.286100 0.789490
O O8 0.197033 0.869009 0.484466
O O9 0.362560 0.933945 0.403468
O O10 0.156020 0.925607 0.261391
O O11 0.320462 0.853971 0.251538
O O12 0.529814 0.417998 0.344369
O O13 0.053860 0.420467 0.092928
O O14 0.000000 0.500000 0.000000
O O15 0.489239 0.496290 0.259466
O O16 0.000000 0.500000 0.500000
#
# Coordination Sequence:
#
# PCOD8228938 Si02
#       8
#     8   8   8   8   8   8   4   8
#     4  10  23  37  62  95 126 177 227 268 333 403
#     4  10  24  46  75 108 130 166 220 276 371 410
#     4  11  23  41  60  94 134 188 235 280 332 374
#     4  10  23  40  64  97 134 180 219 279 327 413
#     4  10  22  34  54  84 130 174 231 279 316 371
#     4  10  23  35  57  85 131 186 228 284 308 379
#     4  10  24  48  78 106 134 156 204 300 358 448
#     4  10  22  36  57  87 131 188 233 275 317 377
#
# _framework density 21.753975000000001
#
# number of rings (size 3 to 8) (size 9 to 14) (size 15 to 20)
#    0.000    1.867    0.000    2.400   18.667    1.067 
#    0.000    0.000    0.000    2.400    0.000    0.000 
#    0.000    0.000    0.000    0.000    0.000    0.000 
#
# Total GULP energy -743389.029562 kJ/mol
# GULP energy per Si atom -12389.817159 kJ/mol
# Density = 2.170446 g / cm^3
# Si number density = 21.753975 Si / 1000 Ang^3
#
#
#
# Elastic Constant Matrix: (Units=GPa)
#
#
# Indices 1 2 3 4 5 6 
#
# 1 162.8772 53.0550 65.0798 0.0000 0.0000 0.0000
# 2 53.0550 88.6784 35.6101 0.0000 0.0000 0.0000
# 3 65.0798 35.6101 122.3891 0.0000 0.0000 0.0000
# 4 0.0000 0.0000 0.0000 25.2738 0.0000 0.0000
# 5 0.0000 0.0000 0.0000 0.0000 36.5894 0.0000
# 6 0.0000 0.0000 0.0000 0.0000 0.0000 31.9986
#
#
#
# Elastic Compliance Matrix: (Units=1/GPa)
#
#
# Indices 1 2 3 4 5 6 
#
# 1 0.008818 -0.003842 -0.003571 0.000000 0.000000 0.000000
# 2 -0.003842 0.014442 -0.002159 0.000000 0.000000 0.000000
# 3 -0.003571 -0.002159 0.010698 0.000000 0.000000 0.000000
# 4 0.000000 0.000000 0.000000 0.039567 0.000000 0.000000
# 5 0.000000 0.000000 0.000000 0.000000 0.027330 0.000000
# 6 0.000000 0.000000 0.000000 0.000000 0.000000 0.031251
#
#
# Mechanical properties :
#
#
# Convention : Reuss Voigt Hill
#
# Bulk Modulus (GPa) = 67.50437 75.71494 71.60966
# Shear Modulus (GPa) = 32.01267 33.45234 32.73250
#
# Velocity S-wave (km/s) = 3.84028 3.92568 3.88321
# Velocity P-wave (km/s) = 7.12473 7.44504 7.28665
#
# Compressibility (1/GPa) = 0.01481385
#
# Stress axis : x y z
#
# Youngs Moduli (GPa) = 113.40692 69.24178 93.47670
#
# Poissons Ratio (x) = 0.26599 0.33381
# Poissons Ratio (y) = 0.43566 0.20185
# Poissons Ratio (z) = 0.40499 0.14952
#
# Static dielectric constant tensor:
#      x y z
#    x 4.115230 0.000000 0.000000 
#    y 0.000000 3.857380 0.000000 
#    z 0.000000 0.000000 2.457750 
# 
# 
# High freq. dielectric constant tensor:
#      x y z
#    x 1.862270 0.000000 0.000000 
#    y 0.000000 1.813140 0.000000 
#    z 0.000000 0.000000 1.900920 
# 
# From -- ./inp_files/6537.got.cif
#   From: 2010.03.12/outbox.cif.g09.slc.cpg/sg56_4_cif.got.tgz:6537.got - 2010.04.16 15:33:40.
