data_PCOD8228848
_publ_section_title
;
Structure prediction by ZEFSAII (Michael W. Deem and Ramdas Pophale) SiO2 
 PCOD8228848
Probable space group: P C C N
;
_chemical_formula_sum "Si O2"
_cell_formula_units_Z 60
_cell_length_a 25.677130
_cell_length_b 11.928074
_cell_length_c 8.098726
_cell_angle_alpha 90.000000
_cell_angle_beta 90.000000
_cell_angle_gamma 90.000000
_cell_volume 2480.467326
_symmetry_space_group_name_H-M "P C C N"
_symmetry_group_IT_number 56
_symmetry_cell_setting 'orthorhombic'
loop_
_space_group_symop_operation_xyz
x,y,z
1/2-x,1/2-y,z
1/2+x,-y,1/2-z
-x,1/2+y,1/2-z
-x,-y,-z
1/2+x,1/2+y,-z
1/2-x,y,1/2+z
x,1/2-y,1/2+z
loop_
_atom_site_type_symbol
_atom_site_label
_atom_site_fract_x
_atom_site_fract_y
_atom_site_fract_z
Si Si1 0.962320 0.290473 0.424964
Si Si2 0.085443 0.598949 0.277048
Si Si3 0.135767 0.282652 0.363324
Si Si4 0.250000 0.750000 0.909795
Si Si5 0.293344 0.348186 0.586480
Si Si6 0.299466 0.905333 0.153078
Si Si7 0.063820 0.338484 0.624418
Si Si8 0.994235 0.472332 0.191800
O O1 0.943477 0.169560 0.367586
O O2 0.917283 0.345993 0.540457
O O3 0.971822 0.352325 0.247658
O O4 0.015558 0.280655 0.529247
O O5 0.142240 0.570764 0.212762
O O6 0.050723 0.485635 0.281415
O O7 0.162252 0.172951 0.449138
O O8 0.181747 0.344245 0.268194
O O9 0.112521 0.366376 0.502552
O O10 0.086159 0.250457 0.253940
O O11 0.231113 0.858018 0.809838
O O12 0.296525 0.804410 0.019171
O O13 0.250000 0.250000 0.570568
O O14 0.274046 0.478428 0.579940
O O15 0.047394 0.446801 0.722494
O O16 0.000000 0.500000 0.000000
#
# Coordination Sequence:
#
# PCOD8228848 Si02
#       8
#     8   8   8   4   8   8   8   8
#     4  11  23  41  67  97 149 183 242 295 359 419
#     4  11  23  43  67  99 131 193 235 299 356 444
#     4  10  24  42  69 104 138 187 240 286 385 447
#     4  10  26  52  72 108 134 198 240 326 380 446
#     4  11  26  45  73 109 145 185 239 316 389 455
#     4  11  26  48  79 101 148 184 257 304 382 454
#     4  10  21  41  63  99 142 188 231 297 352 441
#     4  11  25  39  63  99 146 190 234 286 355 419
#
# _framework density 24.188991999999999
#
# number of rings (size 3 to 8) (size 9 to 14) (size 15 to 20)
#    0.000    1.333    0.000    5.200    9.333    2.133 
#    0.000    0.000    0.000    0.000    0.000    0.000 
#    0.000    0.000    0.000    0.000    0.000    0.000 
#
# Total GULP energy -743410.706332 kJ/mol
# GULP energy per Si atom -12390.178439 kJ/mol
# Density = 2.413394 g / cm^3
# Si number density = 24.188992 Si / 1000 Ang^3
#
#
#
# Elastic Constant Matrix: (Units=GPa)
#
#
# Indices 1 2 3 4 5 6 
#
# 1 91.0012 37.7308 21.3613 0.0000 0.0000 0.0000
# 2 37.7308 105.1625 25.9946 0.0000 0.0000 0.0000
# 3 21.3613 25.9946 115.2456 0.0000 0.0000 0.0000
# 4 0.0000 0.0000 0.0000 33.4279 0.0000 0.0000
# 5 0.0000 0.0000 0.0000 0.0000 29.3433 0.0000
# 6 0.0000 0.0000 0.0000 0.0000 0.0000 21.0347
#
#
#
# Elastic Compliance Matrix: (Units=1/GPa)
#
#
# Indices 1 2 3 4 5 6 
#
# 1 0.013135 -0.004354 -0.001453 0.000000 0.000000 0.000000
# 2 -0.004354 0.011514 -0.001790 0.000000 0.000000 0.000000
# 3 -0.001453 -0.001790 0.009350 0.000000 0.000000 0.000000
# 4 0.000000 0.000000 0.000000 0.029915 0.000000 0.000000
# 5 0.000000 0.000000 0.000000 0.000000 0.034079 0.000000
# 6 0.000000 0.000000 0.000000 0.000000 0.000000 0.047541
#
#
# Mechanical properties :
#
#
# Convention : Reuss Voigt Hill
#
# Bulk Modulus (GPa) = 53.17406 53.50921 53.34163
# Shear Modulus (GPa) = 29.94107 31.84937 30.89522
#
# Velocity S-wave (km/s) = 3.52205 3.63256 3.57773
# Velocity P-wave (km/s) = 6.21050 6.30581 6.25834
#
# Compressibility (1/GPa) = 0.01880616
#
# Stress axis : x y z
#
# Youngs Moduli (GPa) = 76.13297 86.85416 106.95043
#
# Poissons Ratio (x) = 0.37812 0.15536
# Poissons Ratio (y) = 0.33145 0.19144
# Poissons Ratio (z) = 0.11059 0.15547
#
# Static dielectric constant tensor:
#      x y z
#    x 4.288890 0.000000 0.000000 
#    y 0.000000 4.155230 0.000000 
#    z 0.000000 0.000000 4.736920 
# 
# 
# High freq. dielectric constant tensor:
#      x y z
#    x 1.943910 0.000000 0.000000 
#    y 0.000000 1.958220 0.000000 
#    z 0.000000 0.000000 1.983990 
# 
# From -- ./inp_files/4985.got.cif
#   From: 2010.03.12/outbox.cif.g09.slc.cpg/sg56_3_cif.got.tgz:4985.got - 2010.04.16 15:33:40.
