data_PCOD8228922
_publ_section_title
;
Structure prediction by ZEFSAII (Michael W. Deem and Ramdas Pophale) SiO2 
 PCOD8228922
Probable space group: P C C N
;
_chemical_formula_sum "Si O2"
_cell_formula_units_Z 56
_cell_length_a 14.667530
_cell_length_b 10.217312
_cell_length_c 16.749848
_cell_angle_alpha 90.000000
_cell_angle_beta 90.000000
_cell_angle_gamma 90.000000
_cell_volume 2510.177953
_symmetry_space_group_name_H-M "P C C N"
_symmetry_group_IT_number 56
_symmetry_cell_setting 'orthorhombic'
loop_
_space_group_symop_operation_xyz
x,y,z
1/2-x,1/2-y,z
1/2+x,-y,1/2-z
-x,1/2+y,1/2-z
-x,-y,-z
1/2+x,1/2+y,-z
1/2-x,y,1/2+z
x,1/2-y,1/2+z
loop_
_atom_site_type_symbol
_atom_site_label
_atom_site_fract_x
_atom_site_fract_y
_atom_site_fract_z
Si Si1 0.078498 0.703454 0.967662
Si Si2 0.316358 0.590325 0.870887
Si Si3 0.750000 0.750000 0.885109
Si Si4 0.780805 0.493009 0.983953
Si Si5 0.872148 0.354076 0.387613
Si Si6 0.250000 0.750000 0.235721
Si Si7 0.053687 0.214093 0.674539
Si Si8 0.010117 0.985882 0.793887
O O1 0.156967 0.770554 0.912662
O O2 0.116918 0.564679 0.001778
O O3 0.986222 0.696232 0.915617
O O4 0.060391 0.790299 0.046963
O O5 0.260213 0.495285 0.927818
O O6 0.260187 0.620410 0.790142
O O7 0.403753 0.502911 0.851519
O O8 0.660340 0.744314 0.829103
O O9 0.775676 0.631649 0.942862
O O10 0.722479 0.395321 0.928994
O O11 0.842179 0.256667 0.316636
O O12 0.923277 0.474452 0.346775
O O13 0.005156 0.330937 0.725379
O O14 0.030406 0.076380 0.717269
#
# Coordination Sequence:
#
# PCOD8228922 Si02
#       8
#     8   8   4   8   8   4   8   8
#     4  10  21  44  71 102 133 181 250 290 337 429
#     4  10  22  39  68  99 133 173 233 302 346 425
#     4  12  28  46  68 100 150 194 230 296 382 418
#     4  11  22  44  64 102 135 185 237 292 356 426
#     4  11  21  37  74 103 133 184 238 295 353 418
#     4  12  20  38  70 106 132 178 238 300 354 418
#     4  11  27  49  73 103 150 192 239 304 357 439
#     4  11  25  44  69 105 141 190 238 293 371 423
#
# _framework density 22.309176000000001
#
# number of rings (size 3 to 8) (size 9 to 14) (size 15 to 20)
#    0.000    1.143    4.286    2.571    4.000    3.429 
#    2.571    0.000    0.000    0.000    0.000    0.000 
#    0.000    0.000    0.000    0.000    0.000    0.000 
#
# Total GULP energy -693928.404925 kJ/mol
# GULP energy per Si atom -12391.578659 kJ/mol
# Density = 2.225840 g / cm^3
# Si number density = 22.309176 Si / 1000 Ang^3
#
#
#
# Elastic Constant Matrix: (Units=GPa)
#
#
# Indices 1 2 3 4 5 6 
#
# 1 95.5520 18.1543 30.8021 0.0000 0.0000 0.0000
# 2 18.1543 103.6055 38.8801 0.0000 0.0000 0.0000
# 3 30.8021 38.8801 112.7838 0.0000 0.0000 0.0000
# 4 0.0000 0.0000 0.0000 39.3414 0.0000 0.0000
# 5 0.0000 0.0000 0.0000 0.0000 15.6596 0.0000
# 6 0.0000 0.0000 0.0000 0.0000 0.0000 30.5379
#
#
#
# Elastic Compliance Matrix: (Units=1/GPa)
#
#
# Indices 1 2 3 4 5 6 
#
# 1 0.011559 -0.000966 -0.002824 0.000000 0.000000 0.000000
# 2 -0.000966 0.011167 -0.003586 0.000000 0.000000 0.000000
# 3 -0.002824 -0.003586 0.010874 0.000000 0.000000 0.000000
# 4 0.000000 0.000000 0.000000 0.025419 0.000000 0.000000
# 5 0.000000 0.000000 0.000000 0.000000 0.063859 0.000000
# 6 0.000000 0.000000 0.000000 0.000000 0.000000 0.032746
#
#
# Mechanical properties :
#
#
# Convention : Reuss Voigt Hill
#
# Bulk Modulus (GPa) = 53.05317 54.17933 53.61625
# Shear Modulus (GPa) = 28.30335 32.04811 30.17573
#
# Velocity S-wave (km/s) = 3.56573 3.79429 3.68178
# Velocity P-wave (km/s) = 6.38632 6.59802 6.49303
#
# Compressibility (1/GPa) = 0.01884901
#
# Stress axis : x y z
#
# Youngs Moduli (GPa) = 86.51014 89.55061 91.96305
#
# Poissons Ratio (x) = 0.08648 0.25971
# Poissons Ratio (y) = 0.08354 0.32976
# Poissons Ratio (z) = 0.24431 0.32111
#
# Static dielectric constant tensor:
#      x y z
#    x 3.986480 0.000000 0.000000 
#    y 0.000000 3.979820 0.000000 
#    z 0.000000 0.000000 4.110060 
# 
# 
# High freq. dielectric constant tensor:
#      x y z
#    x 1.875550 0.000000 0.000000 
#    y 0.000000 1.858880 0.000000 
#    z 0.000000 0.000000 1.883410 
# 
# From -- ./inp_files/12322.got.cif
#   From: 2010.03.12/outbox.cif.g09.slc.cpg/sg56_7_cif.got.tgz:12322.got - 2010.04.16 15:33:40.
