data_PCOD8228213
_publ_section_title
;
Structure prediction by ZEFSAII (Michael W. Deem and Ramdas Pophale) SiO2 
 PCOD8228213
Probable space group: P C C N
;
_chemical_formula_sum "Si O2"
_cell_formula_units_Z 64
_cell_length_a 21.384147
_cell_length_b 9.367258
_cell_length_c 14.755206
_cell_angle_alpha 90.000000
_cell_angle_beta 90.000000
_cell_angle_gamma 90.000000
_cell_volume 2955.627444
_symmetry_space_group_name_H-M "P C C N"
_symmetry_group_IT_number 56
_symmetry_cell_setting 'orthorhombic'
loop_
_space_group_symop_operation_xyz
x,y,z
1/2-x,1/2-y,z
1/2+x,-y,1/2-z
-x,1/2+y,1/2-z
-x,-y,-z
1/2+x,1/2+y,-z
1/2-x,y,1/2+z
x,1/2-y,1/2+z
loop_
_atom_site_type_symbol
_atom_site_label
_atom_site_fract_x
_atom_site_fract_y
_atom_site_fract_z
Si Si1 0.327937 0.527493 0.296844
Si Si2 0.058115 0.990047 0.172980
Si Si3 0.359025 0.482723 0.011088
Si Si4 0.323738 0.257018 0.872405
Si Si5 0.006456 0.210547 0.707679
Si Si6 0.626324 0.951659 0.785810
Si Si7 0.750816 0.919872 0.357145
Si Si8 0.620966 0.298512 0.145255
O O1 0.377658 0.550882 0.218617
O O2 0.347551 0.406933 0.369857
O O3 0.265693 0.472583 0.245742
O O4 0.322919 0.682514 0.344557
O O5 0.075926 0.016072 0.067963
O O6 0.029990 0.129407 0.220601
O O7 0.011100 0.857741 0.193025
O O8 0.295232 0.492072 0.069756
O O9 0.358207 0.336467 0.954694
O O10 0.362386 0.618250 0.945594
O O11 0.250000 0.250000 0.890180
O O12 0.343171 0.329572 0.777893
O O13 0.946019 0.214057 0.640382
O O14 0.062417 0.109748 0.669734
O O15 0.615195 0.097733 0.731818
O O16 0.677080 0.973680 0.867308
O O17 0.750000 0.750000 0.366719
#
# Coordination Sequence:
#
# PCOD8228213 Si02
#       8
#     8   8   8   8   8   8   8   8
#     4  10  19  38  67  90 126 173 217 272 322 408
#     4  10  21  39  66  89 125 169 224 274 321 388
#     4  10  24  41  64  97 138 174 211 285 351 407
#     4  11  19  37  64  93 125 168 220 271 336 401
#     4  11  20  39  64  95 122 173 231 272 316 407
#     4  11  19  36  66  96 124 174 231 273 324 408
#     4  11  19  39  71  99 124 174 235 278 328 405
#     4  10  24  39  62 101 137 175 216 274 361 395
#
# _framework density 21.653607999999998
#
# number of rings (size 3 to 8) (size 9 to 14) (size 15 to 20)
#    0.000    1.500    5.000    1.125    0.000    1.000 
#    0.000    1.250   24.750    3.000    0.000    0.000 
#    0.000    0.000    0.000    0.000    0.000    0.000 
#
# Total GULP energy -792926.985462 kJ/mol
# GULP energy per Si atom -12389.484148 kJ/mol
# Density = 2.160432 g / cm^3
# Si number density = 21.653608 Si / 1000 Ang^3
#
#
#
# Elastic Constant Matrix: (Units=GPa)
#
#
# Indices 1 2 3 4 5 6 
#
# 1 106.3615 39.3431 36.3847 0.0000 0.0000 0.0000
# 2 39.3431 154.4164 51.7630 0.0000 0.0000 0.0000
# 3 36.3847 51.7630 81.5513 0.0000 0.0000 0.0000
# 4 0.0000 0.0000 0.0000 22.7214 0.0000 0.0000
# 5 0.0000 0.0000 0.0000 0.0000 25.6748 0.0000
# 6 0.0000 0.0000 0.0000 0.0000 0.0000 34.2656
#
#
#
# Elastic Compliance Matrix: (Units=1/GPa)
#
#
# Indices 1 2 3 4 5 6 
#
# 1 0.011369 -0.001520 -0.004108 0.000000 0.000000 0.000000
# 2 -0.001520 0.008429 -0.004672 0.000000 0.000000 0.000000
# 3 -0.004108 -0.004672 0.017061 0.000000 0.000000 0.000000
# 4 0.000000 0.000000 0.000000 0.044011 0.000000 0.000000
# 5 0.000000 0.000000 0.000000 0.000000 0.038949 0.000000
# 6 0.000000 0.000000 0.000000 0.000000 0.000000 0.029184
#
#
# Mechanical properties :
#
#
# Convention : Reuss Voigt Hill
#
# Bulk Modulus (GPa) = 61.50266 66.36786 63.93526
# Shear Modulus (GPa) = 28.56765 30.85491 29.71128
#
# Velocity S-wave (km/s) = 3.63616 3.77892 3.70823
# Velocity P-wave (km/s) = 6.78922 7.05384 6.92279
#
# Compressibility (1/GPa) = 0.01625946
#
# Stress axis : x y z
#
# Youngs Moduli (GPa) = 87.95633 118.63153 58.61431
#
# Poissons Ratio (x) = 0.18028 0.24078
# Poissons Ratio (y) = 0.13367 0.27387
# Poissons Ratio (z) = 0.36131 0.55429
#
# Static dielectric constant tensor:
#      x y z
#    x 4.381760 0.000000 0.000000 
#    y 0.000000 4.141200 0.000000 
#    z 0.000000 0.000000 3.722140 
# 
# 
# High freq. dielectric constant tensor:
#      x y z
#    x 1.861420 0.000000 0.000000 
#    y 0.000000 1.853980 0.000000 
#    z 0.000000 0.000000 1.806960 
# 
# From -- ./inp_files/13283.got.cif
#   From: 2010.03.12/outbox.cif.g09.slc.cpg/sg56_7_cif.got.tgz:13283.got - 2010.04.16 15:33:40.
