data_PCOD8228567
_publ_section_title
;
Structure prediction by ZEFSAII (Michael W. Deem and Ramdas Pophale) SiO2 
 PCOD8228567
Probable space group: P C C N
;
_chemical_formula_sum "Si O2"
_cell_formula_units_Z 64
_cell_length_a 17.616347
_cell_length_b 11.855838
_cell_length_c 13.796965
_cell_angle_alpha 90.000000
_cell_angle_beta 90.000000
_cell_angle_gamma 90.000000
_cell_volume 2881.586596
_symmetry_space_group_name_H-M "P C C N"
_symmetry_group_IT_number 56
_symmetry_cell_setting 'orthorhombic'
loop_
_space_group_symop_operation_xyz
x,y,z
1/2-x,1/2-y,z
1/2+x,-y,1/2-z
-x,1/2+y,1/2-z
-x,-y,-z
1/2+x,1/2+y,-z
1/2-x,y,1/2+z
x,1/2-y,1/2+z
loop_
_atom_site_type_symbol
_atom_site_label
_atom_site_fract_x
_atom_site_fract_y
_atom_site_fract_z
Si Si1 0.355512 0.352566 0.398331
Si Si2 0.708654 0.567380 0.993252
Si Si3 0.174837 0.309820 0.227529
Si Si4 0.813294 0.344143 0.401395
Si Si5 0.146316 0.586663 0.802715
Si Si6 0.910863 0.290231 0.590795
Si Si7 0.919971 0.733973 0.435780
Si Si8 0.184208 0.959778 0.817018
O O1 0.285760 0.372964 0.472211
O O2 0.336235 0.244534 0.333076
O O3 0.375922 0.456554 0.327355
O O4 0.423520 0.316930 0.470404
O O5 0.662487 0.524197 0.085312
O O6 0.730746 0.460364 0.925970
O O7 0.648465 0.645217 0.939175
O O8 0.250000 0.250000 0.180326
O O9 0.099490 0.300433 0.162904
O O10 0.187025 0.445593 0.233274
O O11 0.750000 0.250000 0.375627
O O12 0.866862 0.373712 0.308411
O O13 0.864932 0.305436 0.491068
O O14 0.096501 0.660377 0.876663
O O15 0.235340 0.603150 0.825010
O O16 0.879765 0.362251 0.684028
O O17 0.998175 0.323640 0.573967
#
# Coordination Sequence:
#
# PCOD8228567 Si02
#       8
#     8   8   8   8   8   8   8   8
#     4  11  22  43  70  99 137 168 231 301 340 383
#     4  10  20  40  67  95 125 173 222 291 331 393
#     4  12  21  41  68 104 125 175 233 292 340 398
#     4  11  23  42  75 101 125 178 239 282 346 412
#     4  11  23  44  71 100 131 176 234 295 340 398
#     4  11  26  47  61  98 147 183 221 278 346 421
#     4  12  26  40  65 101 144 184 227 270 352 433
#     4  10  21  41  70  90 129 169 226 288 339 385
#
# _framework density 22.209987000000002
#
# number of rings (size 3 to 8) (size 9 to 14) (size 15 to 20)
#    0.000    1.000    3.750    5.250    1.750    3.500 
#    6.750    0.000    0.000    0.000    0.000    0.000 
#    0.000    0.000    0.000    0.000    0.000    0.000 
#
# Total GULP energy -793060.469767 kJ/mol
# GULP energy per Si atom -12391.569840 kJ/mol
# Density = 2.215944 g / cm^3
# Si number density = 22.209987 Si / 1000 Ang^3
#
#
#
# Elastic Constant Matrix: (Units=GPa)
#
#
# Indices 1 2 3 4 5 6 
#
# 1 69.8262 19.3518 21.5224 0.0000 0.0000 0.0000
# 2 19.3518 98.1216 26.9539 0.0000 0.0000 0.0000
# 3 21.5224 26.9539 82.5798 0.0000 0.0000 0.0000
# 4 0.0000 0.0000 0.0000 23.3193 0.0000 0.0000
# 5 0.0000 0.0000 0.0000 0.0000 18.0141 0.0000
# 6 0.0000 0.0000 0.0000 0.0000 0.0000 20.1732
#
#
#
# Elastic Compliance Matrix: (Units=1/GPa)
#
#
# Indices 1 2 3 4 5 6 
#
# 1 0.015996 -0.002207 -0.003448 0.000000 0.000000 0.000000
# 2 -0.002207 0.011500 -0.003178 0.000000 0.000000 0.000000
# 3 -0.003448 -0.003178 0.014046 0.000000 0.000000 0.000000
# 4 0.000000 0.000000 0.000000 0.042883 0.000000 0.000000
# 5 0.000000 0.000000 0.000000 0.000000 0.055512 0.000000
# 6 0.000000 0.000000 0.000000 0.000000 0.000000 0.049571
#
#
# Mechanical properties :
#
#
# Convention : Reuss Voigt Hill
#
# Bulk Modulus (GPa) = 41.88800 42.90929 42.39865
# Shear Modulus (GPa) = 23.24142 24.48129 23.86135
#
# Velocity S-wave (km/s) = 3.23838 3.32364 3.28129
# Velocity P-wave (km/s) = 5.73444 5.83871 5.78681
#
# Compressibility (1/GPa) = 0.02387318
#
# Stress axis : x y z
#
# Youngs Moduli (GPa) = 62.51572 86.95766 71.19666
#
# Poissons Ratio (x) = 0.19196 0.24552
# Poissons Ratio (y) = 0.13800 0.22628
# Poissons Ratio (z) = 0.21558 0.27637
#
# Static dielectric constant tensor:
#      x y z
#    x 3.575090 0.000000 0.000000 
#    y 0.000000 4.421210 0.000000 
#    z 0.000000 0.000000 4.111860 
# 
# 
# High freq. dielectric constant tensor:
#      x y z
#    x 1.828150 0.000000 0.000000 
#    y 0.000000 1.889040 0.000000 
#    z 0.000000 0.000000 1.886560 
# 
# From -- ./inp_files/12847.got.cif
#   From: 2010.03.12/outbox.cif.g09.slc.cpg/sg56_7_cif.got.tgz:12847.got - 2010.04.16 15:33:40.
