data_PCOD8228274
_publ_section_title
;
Structure prediction by ZEFSAII (Michael W. Deem and Ramdas Pophale) SiO2 
 PCOD8228274
Probable space group: P C C N
;
_chemical_formula_sum "Si O2"
_cell_formula_units_Z 52
_cell_length_a 17.507022
_cell_length_b 10.299331
_cell_length_c 14.581632
_cell_angle_alpha 90.000000
_cell_angle_beta 90.000000
_cell_angle_gamma 90.000000
_cell_volume 2629.223025
_symmetry_space_group_name_H-M "P C C N"
_symmetry_group_IT_number 56
_symmetry_cell_setting 'orthorhombic'
loop_
_space_group_symop_operation_xyz
x,y,z
1/2-x,1/2-y,z
1/2+x,-y,1/2-z
-x,1/2+y,1/2-z
-x,-y,-z
1/2+x,1/2+y,-z
1/2-x,y,1/2+z
x,1/2-y,1/2+z
loop_
_atom_site_type_symbol
_atom_site_label
_atom_site_fract_x
_atom_site_fract_y
_atom_site_fract_z
Si Si1 0.588795 0.598054 0.362798
Si Si2 0.098072 0.672771 0.046628
Si Si3 0.317180 0.145471 0.315660
Si Si4 0.930283 0.719841 0.058536
Si Si5 0.578364 0.050193 0.146090
Si Si6 0.734076 0.389687 0.714269
Si Si7 0.750000 0.250000 0.385415
O O1 0.599963 0.445358 0.380856
O O2 0.645098 0.652664 0.285163
O O3 0.599242 0.681053 0.456684
O O4 0.502334 0.611858 0.323496
O O5 0.172555 0.763216 0.056395
O O6 0.020302 0.758039 0.054896
O O7 0.105017 0.611889 0.947992
O O8 0.250000 0.250000 0.321065
O O9 0.378326 0.166377 0.397930
O O10 0.281596 0.003402 0.334780
O O11 0.925253 0.603255 0.131079
O O12 0.643502 0.081641 0.219428
O O13 0.750000 0.250000 0.664522
O O14 0.758144 0.378174 0.821117
#
# Coordination Sequence:
#
# PCOD8228274 Si02
#       7
#     8   8   8   8   8   8   4
#     4   9  19  38  58  85 115 156 197 242 298 356
#     4   9  18  36  59  85 108 156 201 243 293 354
#     4  12  22  37  59  91 121 153 197 251 299 343
#     4   9  20  36  61  85 115 153 202 241 291 360
#     4   9  18  37  61  79 112 155 198 239 298 361
#     4  10  22  36  53  87 117 152 190 233 305 350
#     4  10  20  32  56  84 116 144 204 238 282 366
#
# _framework density 19.777705000000001
#
# number of rings (size 3 to 8) (size 9 to 14) (size 15 to 20)
#    0.462    1.846    3.077    1.846    3.231    0.615 
#    0.000    0.000    0.000    1.846    0.000    0.000 
#    0.000    0.000    0.000    0.000    0.000    0.000 
#
# Total GULP energy -644250.389603 kJ/mol
# GULP energy per Si atom -12389.430569 kJ/mol
# Density = 1.973269 g / cm^3
# Si number density = 19.777705 Si / 1000 Ang^3
#
#
#
# Elastic Constant Matrix: (Units=GPa)
#
#
# Indices 1 2 3 4 5 6 
#
# 1 144.0987 46.0049 36.2732 0.0000 0.0000 0.0000
# 2 46.0049 88.0786 17.6467 0.0000 0.0000 0.0000
# 3 36.2732 17.6467 42.3174 0.0000 0.0000 0.0000
# 4 0.0000 0.0000 0.0000 16.7670 0.0000 0.0000
# 5 0.0000 0.0000 0.0000 0.0000 31.5715 0.0000
# 6 0.0000 0.0000 0.0000 0.0000 0.0000 31.5652
#
#
#
# Elastic Compliance Matrix: (Units=1/GPa)
#
#
# Indices 1 2 3 4 5 6 
#
# 1 0.009882 -0.003780 -0.006894 0.000000 0.000000 0.000000
# 2 -0.003780 0.013835 -0.002529 0.000000 0.000000 0.000000
# 3 -0.006894 -0.002529 0.030595 0.000000 0.000000 0.000000
# 4 0.000000 0.000000 0.000000 0.059641 0.000000 0.000000
# 5 0.000000 0.000000 0.000000 0.000000 0.031674 0.000000
# 6 0.000000 0.000000 0.000000 0.000000 0.000000 0.031680
#
#
# Mechanical properties :
#
#
# Convention : Reuss Voigt Hill
#
# Bulk Modulus (GPa) = 35.83577 52.70492 44.27034
# Shear Modulus (GPa) = 23.47249 27.61873 25.54561
#
# Velocity S-wave (km/s) = 3.44876 3.74098 3.59783
# Velocity P-wave (km/s) = 5.83242 6.73546 6.30014
#
# Compressibility (1/GPa) = 0.02790508
#
# Stress axis : x y z
#
# Youngs Moduli (GPa) = 101.19412 72.28230 32.68515
#
# Poissons Ratio (x) = 0.27325 0.22534
# Poissons Ratio (y) = 0.38254 0.08266
# Poissons Ratio (z) = 0.69765 0.18279
#
# Static dielectric constant tensor:
#      x y z
#    x 3.881350 0.000000 0.000000 
#    y 0.000000 3.455590 0.000000 
#    z 0.000000 0.000000 3.314340 
# 
# 
# High freq. dielectric constant tensor:
#      x y z
#    x 1.791940 0.000000 0.000000 
#    y 0.000000 1.737390 0.000000 
#    z 0.000000 0.000000 1.749460 
# 
# From -- ./inp_files/12790.got.cif
#   From: 2010.03.12/outbox.cif.g09.slc.cpg/sg56_7_cif.got.tgz:12790.got - 2010.04.16 15:33:40.
