data_PCOD8228063
_publ_section_title
;
Structure prediction by ZEFSAII (Michael W. Deem and Ramdas Pophale) SiO2 
 PCOD8228063
Probable space group: P C C N
;
_chemical_formula_sum "Si O2"
_cell_formula_units_Z 48
_cell_length_a 18.484946
_cell_length_b 7.663346
_cell_length_c 14.904367
_cell_angle_alpha 90.000000
_cell_angle_beta 90.000000
_cell_angle_gamma 90.000000
_cell_volume 2111.301015
_symmetry_space_group_name_H-M "P C C N"
_symmetry_group_IT_number 56
_symmetry_cell_setting 'orthorhombic'
loop_
_space_group_symop_operation_xyz
x,y,z
1/2-x,1/2-y,z
1/2+x,-y,1/2-z
-x,1/2+y,1/2-z
-x,-y,-z
1/2+x,1/2+y,-z
1/2-x,y,1/2+z
x,1/2-y,1/2+z
loop_
_atom_site_type_symbol
_atom_site_label
_atom_site_fract_x
_atom_site_fract_y
_atom_site_fract_z
Si Si1 0.927799 0.998821 0.445930
Si Si2 0.172357 0.307177 0.563224
Si Si3 0.830738 0.711811 0.222795
Si Si4 0.442596 0.503592 0.767490
Si Si5 0.096687 0.874907 0.250324
Si Si6 0.168674 0.808203 0.069617
O O1 0.942466 0.003615 0.340263
O O2 0.882729 0.167577 0.477350
O O3 0.886311 0.824383 0.476195
O O4 0.000000 0.000000 0.500000
O O5 0.250000 0.250000 0.526044
O O6 0.172072 0.301052 0.670426
O O7 0.154862 0.500931 0.527262
O O8 0.750000 0.750000 0.184337
O O9 0.864535 0.525601 0.188731
O O10 0.883955 0.868223 0.192653
O O11 0.523946 0.452418 0.797208
O O12 0.424520 0.698608 0.805282
O O13 0.153883 0.814117 0.175841
O O14 0.250000 0.750000 0.054457
#
# Coordination Sequence:
#
# PCOD8228063 Si02
#       6
#     8   8   8   8   8   8
#     4  10  21  34  52  78 107 140 180 217 261 314
#     4   9  16  30  52  76 102 129 168 219 264 298
#     4   9  18  29  47  76 104 127 167 215 261 304
#     4  10  19  33  50  76 108 137 168 211 265 317
#     4  10  19  29  50  77 106 133 162 212 269 313
#     4  10  19  32  55  84 103 128 177 226 267 308
#
# _framework density 22.734795999999999
#
# number of rings (size 3 to 8) (size 9 to 14) (size 15 to 20)
#    0.000    2.333    3.333    0.000    7.000    0.667 
#    0.000    0.000    0.000    2.000    0.000    0.000 
#    0.000    0.000    0.000    0.000    0.000    0.000 
#
# Total GULP energy -594993.471875 kJ/mol
# GULP energy per Si atom -12395.697331 kJ/mol
# Density = 2.268305 g / cm^3
# Si number density = 22.734796 Si / 1000 Ang^3
#
#
#
# Elastic Constant Matrix: (Units=GPa)
#
#
# Indices 1 2 3 4 5 6 
#
# 1 153.5208 73.7432 6.0152 0.0000 0.0000 0.0000
# 2 73.7432 227.2643 6.8305 0.0000 0.0000 0.0000
# 3 6.0152 6.8305 12.4111 0.0000 0.0000 0.0000
# 4 0.0000 0.0000 0.0000 3.5578 0.0000 0.0000
# 5 0.0000 0.0000 0.0000 0.0000 21.7574 0.0000
# 6 0.0000 0.0000 0.0000 0.0000 0.0000 50.7515
#
#
#
# Elastic Compliance Matrix: (Units=1/GPa)
#
#
# Indices 1 2 3 4 5 6 
#
# 1 0.007788 -0.002454 -0.002424 0.000000 0.000000 0.000000
# 2 -0.002454 0.005248 -0.001699 0.000000 0.000000 0.000000
# 3 -0.002424 -0.001699 0.082683 0.000000 0.000000 0.000000
# 4 0.000000 0.000000 0.000000 0.281069 0.000000 0.000000
# 5 0.000000 0.000000 0.000000 0.000000 0.045961 0.000000
# 6 0.000000 0.000000 0.000000 0.000000 0.000000 0.019704
#
#
# Mechanical properties :
#
#
# Convention : Reuss Voigt Hill
#
# Bulk Modulus (GPa) = 12.11165 62.93042 37.52103
# Shear Modulus (GPa) = 10.34924 35.65383 23.00153
#
# Velocity S-wave (km/s) = 2.13589 3.96441 3.18423
# Velocity P-wave (km/s) = 3.37959 6.97823 5.48258
#
# Compressibility (1/GPa) = 0.08256513
#
# Stress axis : x y z
#
# Youngs Moduli (GPa) = 128.41015 190.56629 12.09441
#
# Poissons Ratio (x) = 0.46766 0.02931
# Poissons Ratio (y) = 0.31513 0.02054
# Poissons Ratio (z) = 0.31123 0.32369
#
# Static dielectric constant tensor:
#      x y z
#    x 4.274830 0.000000 0.000000 
#    y 0.000000 4.626600 0.000000 
#    z 0.000000 0.000000 3.268510 
# 
# 
# High freq. dielectric constant tensor:
#      x y z
#    x 1.910940 0.000000 0.000000 
#    y 0.000000 1.926390 0.000000 
#    z 0.000000 0.000000 1.818020 
# 
# From -- ./inp_files/16528.got.cif
#   From: 2010.03.12/outbox.cif.g09.slc.cpg/sg56_9_cif.got.tgz:16528.got - 2010.04.16 15:33:40.
