data_PCOD8228224
_publ_section_title
;
Structure prediction by ZEFSAII (Michael W. Deem and Ramdas Pophale) SiO2 
 PCOD8228224
Probable space group: P C C N
;
_chemical_formula_sum "Si O2"
_cell_formula_units_Z 48
_cell_length_a 13.130633
_cell_length_b 18.673855
_cell_length_c 9.688943
_cell_angle_alpha 90.000000
_cell_angle_beta 90.000000
_cell_angle_gamma 90.000000
_cell_volume 2375.724335
_symmetry_space_group_name_H-M "P C C N"
_symmetry_group_IT_number 56
_symmetry_cell_setting 'orthorhombic'
loop_
_space_group_symop_operation_xyz
x,y,z
1/2-x,1/2-y,z
1/2+x,-y,1/2-z
-x,1/2+y,1/2-z
-x,-y,-z
1/2+x,1/2+y,-z
1/2-x,y,1/2+z
x,1/2-y,1/2+z
loop_
_atom_site_type_symbol
_atom_site_label
_atom_site_fract_x
_atom_site_fract_y
_atom_site_fract_z
Si Si1 0.194398 0.011316 0.903230
Si Si2 0.885962 0.065086 0.560537
Si Si3 0.078213 0.188137 0.257839
Si Si4 0.479373 0.964819 0.223258
Si Si5 0.044481 0.315976 0.066657
Si Si6 0.754311 0.605643 0.846899
O O1 0.262964 0.938991 0.925752
O O2 0.080218 0.989942 0.860443
O O3 0.247864 0.056384 0.785203
O O4 0.193253 0.062835 0.035406
O O5 0.906644 0.029924 0.410913
O O6 0.934955 0.143988 0.564370
O O7 0.927961 0.017651 0.688355
O O8 0.026464 0.250704 0.169808
O O9 0.077996 0.213441 0.416967
O O10 0.191330 0.176874 0.195774
O O11 0.015537 0.115058 0.246030
O O12 0.130847 0.372305 0.113798
#
# Coordination Sequence:
#
# PCOD8228224 Si02
#       6
#     8   8   8   8   8   8
#     4  12  21  38  65  94 118 156 203 253 309 356
#     4  10  19  39  62  85 122 163 196 251 309 358
#     4  11  25  41  59  89 124 166 202 246 308 370
#     4  10  20  39  62  87 123 157 204 251 302 363
#     4  11  24  41  60  85 126 166 200 246 312 367
#     4  12  22  37  63  93 122 155 197 253 309 368
#
# _framework density 20.204364000000002
#
# number of rings (size 3 to 8) (size 9 to 14) (size 15 to 20)
#    0.000    1.000    6.667    1.500    2.333    2.000 
#    3.000    0.833    0.000    4.000    0.000    0.000 
#    0.000    0.000    0.000    0.000    0.000    0.000 
#
# Total GULP energy -595054.678580 kJ/mol
# GULP energy per Si atom -12396.972470 kJ/mol
# Density = 2.015838 g / cm^3
# Si number density = 20.204364 Si / 1000 Ang^3
#
#
#
# Elastic Constant Matrix: (Units=GPa)
#
#
# Indices 1 2 3 4 5 6 
#
# 1 46.5921 11.6766 22.5746 0.0000 0.0000 0.0000
# 2 11.6766 76.3464 38.5090 0.0000 0.0000 0.0000
# 3 22.5746 38.5090 127.3810 0.0000 0.0000 0.0000
# 4 0.0000 0.0000 0.0000 38.3717 0.0000 0.0000
# 5 0.0000 0.0000 0.0000 0.0000 26.0762 0.0000
# 6 0.0000 0.0000 0.0000 0.0000 0.0000 26.7195
#
#
#
# Elastic Compliance Matrix: (Units=1/GPa)
#
#
# Indices 1 2 3 4 5 6 
#
# 1 0.023681 -0.001776 -0.003660 0.000000 0.000000 0.000000
# 2 -0.001776 0.015588 -0.004398 0.000000 0.000000 0.000000
# 3 -0.003660 -0.004398 0.009829 0.000000 0.000000 0.000000
# 4 0.000000 0.000000 0.000000 0.026061 0.000000 0.000000
# 5 0.000000 0.000000 0.000000 0.000000 0.038349 0.000000
# 6 0.000000 0.000000 0.000000 0.000000 0.000000 0.037426
#
#
# Mechanical properties :
#
#
# Convention : Reuss Voigt Hill
#
# Bulk Modulus (GPa) = 33.97801 43.98221 38.98011
# Shear Modulus (GPa) = 27.71448 30.07075 28.89262
#
# Velocity S-wave (km/s) = 3.70768 3.86207 3.78566
# Velocity P-wave (km/s) = 5.93151 6.45782 6.20025
#
# Compressibility (1/GPa) = 0.02943080
#
# Stress axis : x y z
#
# Youngs Moduli (GPa) = 42.22752 64.15184 101.74398
#
# Poissons Ratio (x) = 0.11392 0.37238
# Poissons Ratio (y) = 0.07499 0.44745
# Poissons Ratio (z) = 0.15455 0.28212
#
# Static dielectric constant tensor:
#      x y z
#    x 3.533800 0.000000 0.000000 
#    y 0.000000 3.420710 0.000000 
#    z 0.000000 0.000000 3.411900 
# 
# 
# High freq. dielectric constant tensor:
#      x y z
#    x 1.774650 0.000000 0.000000 
#    y 0.000000 1.771420 0.000000 
#    z 0.000000 0.000000 1.802350 
# 
# From -- ./inp_files/3365.got.cif
#   From: 2010.03.12/outbox.cif.g09.slc.cpg/sg56_2_cif.got.tgz:3365.got - 2010.04.16 15:33:40.
