data_PCOD8228267
_publ_section_title
;
Structure prediction by ZEFSAII (Michael W. Deem and Ramdas Pophale) SiO2 
 PCOD8228267
Probable space group: P C C N
;
_chemical_formula_sum "Si O2"
_cell_formula_units_Z 64
_cell_length_a 9.039366
_cell_length_b 24.389423
_cell_length_c 14.879675
_cell_angle_alpha 90.000000
_cell_angle_beta 90.000000
_cell_angle_gamma 90.000000
_cell_volume 3280.446374
_symmetry_space_group_name_H-M "P C C N"
_symmetry_group_IT_number 56
_symmetry_cell_setting 'orthorhombic'
loop_
_space_group_symop_operation_xyz
x,y,z
1/2-x,1/2-y,z
1/2+x,-y,1/2-z
-x,1/2+y,1/2-z
-x,-y,-z
1/2+x,1/2+y,-z
1/2-x,y,1/2+z
x,1/2-y,1/2+z
loop_
_atom_site_type_symbol
_atom_site_label
_atom_site_fract_x
_atom_site_fract_y
_atom_site_fract_z
Si Si1 0.216891 0.406791 0.176575
Si Si2 0.100706 0.619204 0.771111
Si Si3 0.718959 0.186347 0.862642
Si Si4 0.177823 0.884324 0.465631
Si Si5 0.144577 0.513618 0.444136
Si Si6 0.177929 0.974341 0.742765
Si Si7 0.039953 0.381030 0.807935
Si Si8 0.362854 0.419141 0.486145
O O1 0.217068 0.473001 0.182796
O O2 0.362522 0.379188 0.218346
O O3 0.075835 0.383696 0.229674
O O4 0.217926 0.390222 0.071264
O O5 0.145482 0.658941 0.690196
O O6 0.158402 0.642664 0.867021
O O7 0.168906 0.558429 0.758359
O O8 0.750000 0.250000 0.867015
O O9 0.565673 0.172340 0.810202
O O10 0.704698 0.163907 0.963612
O O11 0.320027 0.923439 0.466886
O O12 0.036206 0.922718 0.488305
O O13 0.110736 0.506726 0.338336
O O14 0.286547 0.477258 0.469447
O O15 0.000000 0.500000 0.500000
O O16 0.061807 0.935846 0.690105
O O17 0.148061 0.383011 0.894925
#
# Coordination Sequence:
#
# PCOD8228267 Si02
#       8
#     8   8   8   8   8   8   8   8
#     4  11  20  32  55  79 115 155 184 226 282 340
#     4   9  21  36  53  82 111 144 190 231 280 341
#     4  10  22  40  62  80 104 146 195 242 292 328
#     4   9  21  36  55  79 111 144 189 230 276 350
#     4  11  21  31  49  82 116 152 184 226 280 334
#     4  10  20  32  49  79 119 153 189 220 279 340
#     4  10  21  37  53  82 118 151 192 237 273 345
#     4  10  21  33  52  77 114 159 188 214 280 339
#
# _framework density 19.509540000000001
#
# number of rings (size 3 to 8) (size 9 to 14) (size 15 to 20)
#    0.000    2.000    1.250    1.875   10.500    0.500 
#    0.000    0.625    0.000    0.000    0.000    8.750 
#    0.000    0.000    0.000    0.000    0.000    0.000 
#
# Total GULP energy -793433.852599 kJ/mol
# GULP energy per Si atom -12397.403947 kJ/mol
# Density = 1.946513 g / cm^3
# Si number density = 19.509540 Si / 1000 Ang^3
#
#
#
# Elastic Constant Matrix: (Units=GPa)
#
#
# Indices 1 2 3 4 5 6 
#
# 1 70.0340 37.5811 26.9833 0.0000 0.0000 0.0000
# 2 37.5811 90.4340 30.2624 0.0000 0.0000 0.0000
# 3 26.9833 30.2624 96.5157 0.0000 0.0000 0.0000
# 4 0.0000 0.0000 0.0000 19.9027 0.0000 0.0000
# 5 0.0000 0.0000 0.0000 0.0000 30.6969 0.0000
# 6 0.0000 0.0000 0.0000 0.0000 0.0000 16.2351
#
#
#
# Elastic Compliance Matrix: (Units=1/GPa)
#
#
# Indices 1 2 3 4 5 6 
#
# 1 0.019226 -0.006917 -0.003206 0.000000 0.000000 0.000000
# 2 -0.006917 0.014842 -0.002720 0.000000 0.000000 0.000000
# 3 -0.003206 -0.002720 0.012110 0.000000 0.000000 0.000000
# 4 0.000000 0.000000 0.000000 0.050244 0.000000 0.000000
# 5 0.000000 0.000000 0.000000 0.000000 0.032577 0.000000
# 6 0.000000 0.000000 0.000000 0.000000 0.000000 0.061595
#
#
# Mechanical properties :
#
#
# Convention : Reuss Voigt Hill
#
# Bulk Modulus (GPa) = 48.79876 49.62635 49.21256
# Shear Modulus (GPa) = 22.41039 24.17740 23.29389
#
# Velocity S-wave (km/s) = 3.39291 3.52413 3.45914
# Velocity P-wave (km/s) = 6.35737 6.48472 6.42136
#
# Compressibility (1/GPa) = 0.02049232
#
# Stress axis : x y z
#
# Youngs Moduli (GPa) = 52.01395 67.37508 82.57430
#
# Poissons Ratio (x) = 0.46600 0.26476
# Poissons Ratio (y) = 0.35976 0.22461
# Poissons Ratio (z) = 0.16677 0.18327
#
# Static dielectric constant tensor:
#      x y z
#    x 3.561360 0.000000 0.000000 
#    y 0.000000 2.994930 0.000000 
#    z 0.000000 0.000000 3.958240 
# 
# 
# High freq. dielectric constant tensor:
#      x y z
#    x 1.761600 0.000000 0.000000 
#    y 0.000000 1.695310 0.000000 
#    z 0.000000 0.000000 1.783870 
# 
# From -- ./inp_files/11068.got.cif
#   From: 2010.03.12/outbox.cif.g09.slc.cpg/sg56_6_cif.got.tgz:11068.got - 2010.04.16 15:33:40.
