data_PCOD8228054
_publ_section_title
;
Structure prediction by ZEFSAII (Michael W. Deem and Ramdas Pophale) SiO2 
 PCOD8228054
Probable space group: P C C N
;
_chemical_formula_sum "Si O2"
_cell_formula_units_Z 40
_cell_length_a 8.722383
_cell_length_b 13.897735
_cell_length_c 14.708275
_cell_angle_alpha 90.000000
_cell_angle_beta 90.000000
_cell_angle_gamma 90.000000
_cell_volume 1782.957209
_symmetry_space_group_name_H-M "P C C N"
_symmetry_group_IT_number 56
_symmetry_cell_setting 'orthorhombic'
loop_
_space_group_symop_operation_xyz
x,y,z
1/2-x,1/2-y,z
1/2+x,-y,1/2-z
-x,1/2+y,1/2-z
-x,-y,-z
1/2+x,1/2+y,-z
1/2-x,y,1/2+z
x,1/2-y,1/2+z
loop_
_atom_site_type_symbol
_atom_site_label
_atom_site_fract_x
_atom_site_fract_y
_atom_site_fract_z
Si Si1 0.546802 0.251858 0.376522
Si Si2 0.759667 0.414499 0.939280
Si Si3 0.207798 0.550899 0.361388
Si Si4 0.356771 0.444722 0.204823
Si Si5 0.250000 0.750000 0.790404
Si Si6 0.250000 0.250000 0.279367
O O1 0.581335 0.352428 0.430838
O O2 0.622524 0.162072 0.426995
O O3 0.606043 0.268467 0.274119
O O4 0.373958 0.223157 0.356661
O O5 0.755066 0.495362 0.861300
O O6 0.731842 0.472482 0.032440
O O7 0.326352 0.484773 0.306098
O O8 0.269702 0.659266 0.354927
O O9 0.031924 0.540693 0.327669
O O10 0.302485 0.334128 0.210331
#
# Coordination Sequence:
#
# PCOD8228054 Si02
#       6
#     8   8   8   8   4   4
#     4  10  20  43  71  98 134 170 228 275 331 413
#     4  10  22  45  69  96 134 183 224 270 341 413
#     4  12  24  43  73  96 133 181 223 279 342 396
#     4  12  24  42  66 100 134 178 231 278 335 404
#     4  10  18  42  68  90 126 180 218 262 342 402
#     4  12  24  40  68  98 138 180 220 294 336 380
#
# _framework density 22.434638
#
# number of rings (size 3 to 8) (size 9 to 14) (size 15 to 20)
#    0.000    1.200    6.000    3.000    0.000    0.000 
#    0.000   10.000    0.000    0.000    0.000    0.000 
#    0.000    0.000    0.000    0.000    0.000    0.000 
#
# Total GULP energy -495619.139447 kJ/mol
# GULP energy per Si atom -12390.478486 kJ/mol
# Density = 2.238358 g / cm^3
# Si number density = 22.434638 Si / 1000 Ang^3
#
#
#
# Elastic Constant Matrix: (Units=GPa)
#
#
# Indices 1 2 3 4 5 6 
#
# 1 80.3946 -2.9452 17.9862 0.0000 0.0000 0.0000
# 2 -2.9452 98.8646 27.1278 0.0000 0.0000 0.0000
# 3 17.9862 27.1278 124.9058 0.0000 0.0000 0.0000
# 4 0.0000 0.0000 0.0000 23.9726 0.0000 0.0000
# 5 0.0000 0.0000 0.0000 0.0000 10.5273 0.0000
# 6 0.0000 0.0000 0.0000 0.0000 0.0000 17.5513
#
#
#
# Elastic Compliance Matrix: (Units=1/GPa)
#
#
# Indices 1 2 3 4 5 6 
#
# 1 0.012937 0.000953 -0.002070 0.000000 0.000000 0.000000
# 2 0.000953 0.010826 -0.002489 0.000000 0.000000 0.000000
# 3 -0.002070 -0.002489 0.008845 0.000000 0.000000 0.000000
# 4 0.000000 0.000000 0.000000 0.041714 0.000000 0.000000
# 5 0.000000 0.000000 0.000000 0.000000 0.094991 0.000000
# 6 0.000000 0.000000 0.000000 0.000000 0.000000 0.056976
#
#
# Mechanical properties :
#
#
# Convention : Reuss Voigt Hill
#
# Bulk Modulus (GPa) = 39.37457 43.16696 41.27077
# Shear Modulus (GPa) = 20.66418 27.87663 24.27041
#
# Velocity S-wave (km/s) = 3.03823 3.52884 3.29268
# Velocity P-wave (km/s) = 5.46779 5.99054 5.73512
#
# Compressibility (1/GPa) = 0.02539710
#
# Stress axis : x y z
#
# Youngs Moduli (GPa) = 77.29967 92.36940 113.06361
#
# Poissons Ratio (x) = -0.08806 0.23403
# Poissons Ratio (y) = -0.07369 0.28137
# Poissons Ratio (z) = 0.16000 0.22987
#
# Static dielectric constant tensor:
#      x y z
#    x 4.297680 0.000000 0.000000 
#    y 0.000000 4.157020 0.000000 
#    z 0.000000 0.000000 3.883050 
# 
# 
# High freq. dielectric constant tensor:
#      x y z
#    x 1.873250 0.000000 0.000000 
#    y 0.000000 1.891820 0.000000 
#    z 0.000000 0.000000 1.872800 
# 
# From -- ./inp_files/10422.got.cif
#   From: 2010.03.12/outbox.cif.g09.slc.cpg/sg56_6_cif.got.tgz:10422.got - 2010.04.16 15:33:40.
