data_PCOD8228952
_publ_section_title
;
Structure prediction by ZEFSAII (Michael W. Deem and Ramdas Pophale) SiO2 
 PCOD8228952
Probable space group: P C C N
;
_chemical_formula_sum "Si O2"
_cell_formula_units_Z 60
_cell_length_a 28.575610
_cell_length_b 8.674975
_cell_length_c 11.905079
_cell_angle_alpha 90.000000
_cell_angle_beta 90.000000
_cell_angle_gamma 90.000000
_cell_volume 2951.182205
_symmetry_space_group_name_H-M "P C C N"
_symmetry_group_IT_number 56
_symmetry_cell_setting 'orthorhombic'
loop_
_space_group_symop_operation_xyz
x,y,z
1/2-x,1/2-y,z
1/2+x,-y,1/2-z
-x,1/2+y,1/2-z
-x,-y,-z
1/2+x,1/2+y,-z
1/2-x,y,1/2+z
x,1/2-y,1/2+z
loop_
_atom_site_type_symbol
_atom_site_label
_atom_site_fract_x
_atom_site_fract_y
_atom_site_fract_z
Si Si1 0.856694 0.256548 0.303358
Si Si2 0.672657 0.549525 0.413853
Si Si3 0.099080 0.228528 0.190745
Si Si4 0.009540 0.395846 0.255963
Si Si5 0.324006 0.455046 0.319775
Si Si6 0.750000 0.750000 0.796485
Si Si7 0.055134 0.823932 0.829571
Si Si8 0.067644 0.565042 0.570024
O O1 0.822581 0.380812 0.244660
O O2 0.891803 0.199955 0.206682
O O3 0.886885 0.330671 0.403883
O O4 0.826024 0.116386 0.352136
O O5 0.625661 0.637834 0.377397
O O6 0.674118 0.522039 0.546880
O O7 0.717057 0.650122 0.377391
O O8 0.056874 0.297424 0.262850
O O9 0.130978 0.141281 0.281025
O O10 0.078666 0.111203 0.099171
O O11 0.024971 0.573771 0.239531
O O12 0.974162 0.336379 0.156596
O O13 0.977916 0.371719 0.366623
O O14 0.277620 0.363754 0.285706
O O15 0.055930 0.926101 0.940122
#
# Coordination Sequence:
#
# PCOD8228952 Si02
#       8
#     8   8   8   8   8   4   8   8
#     4  10  22  41  60  93 121 155 206 249 290 370
#     4  11  22  41  68  91 121 160 194 243 316 359
#     4  10  22  37  59  89 120 157 210 251 292 367
#     4  11  21  35  53  84 117 160 207 257 287 353
#     4  10  23  43  65  91 126 154 194 252 300 365
#     4  10  24  44  66 100 122 146 198 244 298 388
#     4  11  22  38  56  81 124 164 207 255 301 343
#     4  10  22  38  56  81 123 166 204 250 310 341
#
# _framework density 20.330833999999999
#
# number of rings (size 3 to 8) (size 9 to 14) (size 15 to 20)
#    0.000    1.600    2.667    1.600    1.867    0.533 
#    0.000    6.667    0.000    0.000    0.000    0.000 
#    0.000    0.000    0.000    0.000    0.000    0.000 
#
# Total GULP energy -743813.153526 kJ/mol
# GULP energy per Si atom -12396.885892 kJ/mol
# Density = 2.028456 g / cm^3
# Si number density = 20.330834 Si / 1000 Ang^3
#
#
#
# Elastic Constant Matrix: (Units=GPa)
#
#
# Indices 1 2 3 4 5 6 
#
# 1 106.1982 55.6437 46.6765 0.0000 0.0000 0.0000
# 2 55.6437 136.5122 59.9477 0.0000 0.0000 0.0000
# 3 46.6765 59.9477 99.5570 0.0000 0.0000 0.0000
# 4 0.0000 0.0000 0.0000 19.9676 0.0000 0.0000
# 5 0.0000 0.0000 0.0000 0.0000 18.7035 0.0000
# 6 0.0000 0.0000 0.0000 0.0000 0.0000 44.2571
#
#
#
# Elastic Compliance Matrix: (Units=1/GPa)
#
#
# Indices 1 2 3 4 5 6 
#
# 1 0.013027 -0.003573 -0.003956 0.000000 0.000000 0.000000
# 2 -0.003573 0.010938 -0.004912 0.000000 0.000000 0.000000
# 3 -0.003956 -0.004912 0.014857 0.000000 0.000000 0.000000
# 4 0.000000 0.000000 0.000000 0.050081 0.000000 0.000000
# 5 0.000000 0.000000 0.000000 0.000000 0.053466 0.000000
# 6 0.000000 0.000000 0.000000 0.000000 0.000000 0.022595
#
#
# Mechanical properties :
#
#
# Convention : Reuss Voigt Hill
#
# Bulk Modulus (GPa) = 71.72910 74.08922 72.90916
# Shear Modulus (GPa) = 25.70787 28.58563 27.14675
#
# Velocity S-wave (km/s) = 3.55981 3.75377 3.65807
# Velocity P-wave (km/s) = 7.22868 7.43697 7.33357
#
# Compressibility (1/GPa) = 0.01394134
#
# Stress axis : x y z
#
# Youngs Moduli (GPa) = 76.76243 91.42103 67.30874
#
# Poissons Ratio (x) = 0.32661 0.26631
# Poissons Ratio (y) = 0.27424 0.33059
# Poissons Ratio (z) = 0.30371 0.44902
#
# Static dielectric constant tensor:
#      x y z
#    x 3.746480 0.000000 0.000000 
#    y 0.000000 3.978340 0.000000 
#    z 0.000000 0.000000 3.422420 
# 
# 
# High freq. dielectric constant tensor:
#      x y z
#    x 1.797560 0.000000 0.000000 
#    y 0.000000 1.810750 0.000000 
#    z 0.000000 0.000000 1.774040 
# 
# From -- ./inp_files/6601.got.cif
#   From: 2010.03.12/outbox.cif.g09.slc.cpg/sg56_4_cif.got.tgz:6601.got - 2010.04.16 15:33:40.
