data_PCOD8228000
_publ_section_title
;
Structure prediction by ZEFSAII (Michael W. Deem and Ramdas Pophale) SiO2 
 PCOD8228000
Probable space group: P C C N
;
_chemical_formula_sum "Si O2"
_cell_formula_units_Z 64
_cell_length_a 16.946923
_cell_length_b 9.700236
_cell_length_c 19.342440
_cell_angle_alpha 90.000000
_cell_angle_beta 90.000000
_cell_angle_gamma 90.000000
_cell_volume 3179.687320
_symmetry_space_group_name_H-M "P C C N"
_symmetry_group_IT_number 56
_symmetry_cell_setting 'orthorhombic'
loop_
_space_group_symop_operation_xyz
x,y,z
1/2-x,1/2-y,z
1/2+x,-y,1/2-z
-x,1/2+y,1/2-z
-x,-y,-z
1/2+x,1/2+y,-z
1/2-x,y,1/2+z
x,1/2-y,1/2+z
loop_
_atom_site_type_symbol
_atom_site_label
_atom_site_fract_x
_atom_site_fract_y
_atom_site_fract_z
Si Si1 0.207189 0.103320 0.139299
Si Si2 0.555832 0.630903 0.773166
Si Si3 0.059244 0.869968 0.305870
Si Si4 0.863742 0.789899 0.636013
Si Si5 0.739331 0.092227 0.983063
Si Si6 0.290267 0.020819 0.379658
Si Si7 0.574387 0.010254 0.047329
Si Si8 0.735260 0.104411 0.248128
O O1 0.250000 0.250000 0.130327
O O2 0.113751 0.114086 0.159418
O O3 0.221356 0.014595 0.070374
O O4 0.250514 0.020831 0.200270
O O5 0.518149 0.490463 0.740729
O O6 0.480866 0.724050 0.791933
O O7 0.607557 0.704077 0.714471
O O8 0.148350 0.886247 0.281908
O O9 0.058148 0.887632 0.388592
O O10 0.784724 0.880194 0.630889
O O11 0.861703 0.628714 0.616267
O O12 0.920160 0.856751 0.578914
O O13 0.750000 0.250000 0.957342
O O14 0.789262 0.073670 0.052952
O O15 0.648222 0.056657 0.999688
O O16 0.296674 0.916667 0.315012
O O17 0.500000 0.000000 0.000000
O O18 0.750000 0.250000 0.286173
#
# Coordination Sequence:
#
# PCOD8228000 Si02
#       8
#     8   8   8   8   8   8   8   8
#     4  11  24  39  62  95 123 161 216 268 310 372
#     4  10  21  40  58  92 126 155 208 259 317 377
#     4  10  22  40  61  89 125 163 203 259 315 385
#     4   9  18  36  60  91 114 157 210 260 295 371
#     4  11  24  42  62  92 129 166 211 267 317 375
#     4  10  18  35  67  85 118 154 213 257 306 372
#     4  10  22  41  61  87 126 173 209 248 318 389
#     4  11  21  40  64  92 122 159 208 262 328 374
#
# _framework density 20.127766000000001
#
# number of rings (size 3 to 8) (size 9 to 14) (size 15 to 20)
#    0.000    1.750    5.000    1.500    5.250    2.000 
#   11.250    0.000    0.000    1.500    0.000    0.000 
#    0.000    0.000    0.000    0.000    0.000    0.000 
#
# Total GULP energy -792962.254151 kJ/mol
# GULP energy per Si atom -12390.035221 kJ/mol
# Density = 2.008195 g / cm^3
# Si number density = 20.127766 Si / 1000 Ang^3
#
#
#
# Elastic Constant Matrix: (Units=GPa)
#
#
# Indices 1 2 3 4 5 6 
#
# 1 42.9710 23.5602 31.1821 0.0000 0.0000 0.0000
# 2 23.5602 127.0506 35.4088 0.0000 0.0000 0.0000
# 3 31.1821 35.4088 97.9579 0.0000 0.0000 0.0000
# 4 0.0000 0.0000 0.0000 24.6779 0.0000 0.0000
# 5 0.0000 0.0000 0.0000 0.0000 19.2816 0.0000
# 6 0.0000 0.0000 0.0000 0.0000 0.0000 36.1801
#
#
#
# Elastic Compliance Matrix: (Units=1/GPa)
#
#
# Indices 1 2 3 4 5 6 
#
# 1 0.031523 -0.003391 -0.008809 0.000000 0.000000 0.000000
# 2 -0.003391 0.009117 -0.002216 0.000000 0.000000 0.000000
# 3 -0.008809 -0.002216 0.013814 0.000000 0.000000 0.000000
# 4 0.000000 0.000000 0.000000 0.040522 0.000000 0.000000
# 5 0.000000 0.000000 0.000000 0.000000 0.051863 0.000000
# 6 0.000000 0.000000 0.000000 0.000000 0.000000 0.027640
#
#
# Mechanical properties :
#
#
# Convention : Reuss Voigt Hill
#
# Bulk Modulus (GPa) = 39.02855 49.80907 44.41881
# Shear Modulus (GPa) = 23.60159 27.88313 25.74236
#
# Velocity S-wave (km/s) = 3.42802 3.72601 3.58012
# Velocity P-wave (km/s) = 5.92461 6.58111 6.26147
#
# Compressibility (1/GPa) = 0.02562227
#
# Stress axis : x y z
#
# Youngs Moduli (GPa) = 31.72328 109.68144 72.39235
#
# Poissons Ratio (x) = 0.37188 0.63768
# Poissons Ratio (y) = 0.10756 0.16045
# Poissons Ratio (z) = 0.27944 0.24309
#
# Static dielectric constant tensor:
#      x y z
#    x 3.445850 0.000000 0.000000 
#    y 0.000000 4.011820 0.000000 
#    z 0.000000 0.000000 3.870320 
# 
# 
# High freq. dielectric constant tensor:
#      x y z
#    x 1.757350 0.000000 0.000000 
#    y 0.000000 1.799420 0.000000 
#    z 0.000000 0.000000 1.786740 
# 
# From -- ./inp_files/16881.got.cif
#   From: 2010.03.12/outbox.cif.g09.slc.cpg/sg56_9_cif.got.tgz:16881.got - 2010.04.16 15:33:40.
