data_PCOD8228186
_publ_section_title
;
Structure prediction by ZEFSAII (Michael W. Deem and Ramdas Pophale) SiO2 
 PCOD8228186
Probable space group: P C C N
;
_chemical_formula_sum "Si O2"
_cell_formula_units_Z 40
_cell_length_a 12.050789
_cell_length_b 4.807920
_cell_length_c 32.168721
_cell_angle_alpha 90.000000
_cell_angle_beta 90.000000
_cell_angle_gamma 90.000000
_cell_volume 1863.830907
_symmetry_space_group_name_H-M "P C C N"
_symmetry_group_IT_number 56
_symmetry_cell_setting 'orthorhombic'
loop_
_space_group_symop_operation_xyz
x,y,z
1/2-x,1/2-y,z
1/2+x,-y,1/2-z
-x,1/2+y,1/2-z
-x,-y,-z
1/2+x,1/2+y,-z
1/2-x,y,1/2+z
x,1/2-y,1/2+z
loop_
_atom_site_type_symbol
_atom_site_label
_atom_site_fract_x
_atom_site_fract_y
_atom_site_fract_z
Si Si1 0.556060 0.300180 0.052891
Si Si2 0.043111 0.220831 0.806574
Si Si3 0.630841 0.822161 0.005516
Si Si4 0.379437 0.772892 0.856221
Si Si5 0.827051 0.999943 0.769066
O O1 0.572783 0.610615 0.037299
O O2 0.554361 0.311897 0.102570
O O3 0.649503 0.103262 0.032286
O O4 0.442599 0.156986 0.036079
O O5 0.071837 0.425256 0.844590
O O6 0.097589 0.353477 0.765735
O O7 0.911629 0.150835 0.801393
O O8 0.099757 0.928598 0.817220
O O9 0.750000 0.750000 0.988164
O O10 0.250000 0.750000 0.866827
O O11 0.750000 0.250000 0.751380
O O12 0.750000 0.750000 0.788483
#
# Coordination Sequence:
#
# PCOD8228186 Si02
#       5
#     8   8   8   8   8
#     4  10  22  36  58  90 118 151 200 242 294 358
#     4  12  25  40  63  91 119 155 204 246 300 368
#     4  10  19  37  60  83 116 159 198 239 286 351
#     4  12  23  38  60  91 125 154 192 255 312 353
#     4  12  24  43  66  89 121 163 206 254 303 363
#
# _framework density 21.461172999999999
#
# number of rings (size 3 to 8) (size 9 to 14) (size 15 to 20)
#    0.000    0.800    0.000   10.200    0.000    0.000 
#    0.000    3.000    0.000    2.400    0.000    0.000 
#    0.000    0.000    0.000    0.000    0.000    0.000 
#
# Total GULP energy -495726.979757 kJ/mol
# GULP energy per Si atom -12393.174494 kJ/mol
# Density = 2.141233 g / cm^3
# Si number density = 21.461173 Si / 1000 Ang^3
#
#
#
# Elastic Constant Matrix: (Units=GPa)
#
#
# Indices 1 2 3 4 5 6 
#
# 1 109.9548 48.3407 43.3622 0.0000 0.0000 0.0000
# 2 48.3407 100.9730 14.5836 0.0000 0.0000 0.0000
# 3 43.3622 14.5836 81.7038 0.0000 0.0000 0.0000
# 4 0.0000 0.0000 0.0000 21.9662 0.0000 0.0000
# 5 0.0000 0.0000 0.0000 0.0000 16.2707 0.0000
# 6 0.0000 0.0000 0.0000 0.0000 0.0000 46.1170
#
#
#
# Elastic Compliance Matrix: (Units=1/GPa)
#
#
# Indices 1 2 3 4 5 6 
#
# 1 0.014248 -0.005881 -0.006512 0.000000 0.000000 0.000000
# 2 -0.005881 0.012593 0.000873 0.000000 0.000000 0.000000
# 3 -0.006512 0.000873 0.015540 0.000000 0.000000 0.000000
# 4 0.000000 0.000000 0.000000 0.045524 0.000000 0.000000
# 5 0.000000 0.000000 0.000000 0.000000 0.061460 0.000000
# 6 0.000000 0.000000 0.000000 0.000000 0.000000 0.021684
#
#
# Mechanical properties :
#
#
# Convention : Reuss Voigt Hill
#
# Bulk Modulus (GPa) = 51.70238 56.13385 53.91811
# Shear Modulus (GPa) = 24.93321 29.29381 27.11351
#
# Velocity S-wave (km/s) = 3.41219 3.69856 3.55825
# Velocity P-wave (km/s) = 6.29821 6.66722 6.48534
#
# Compressibility (1/GPa) = 0.01934147
#
# Stress axis : x y z
#
# Youngs Moduli (GPa) = 70.18393 79.40967 64.35156
#
# Poissons Ratio (x) = 0.46699 0.41907
# Poissons Ratio (y) = 0.41274 -0.05620
# Poissons Ratio (z) = 0.45705 -0.06935
#
# Static dielectric constant tensor:
#      x y z
#    x 4.072000 0.000000 0.000000 
#    y 0.000000 4.309270 0.000000 
#    z 0.000000 0.000000 3.531790 
# 
# 
# High freq. dielectric constant tensor:
#      x y z
#    x 1.844340 0.000000 0.000000 
#    y 0.000000 1.870900 0.000000 
#    z 0.000000 0.000000 1.810940 
# 
# From -- ./inp_files/23449.got.cif
#   From: 2010.03.12/outbox.cif.g09.slc.cpg/sg56_12_cif.got.tgz:23449.got - 2010.04.16 15:33:40.
