data_PCOD8228829
_publ_section_title
;
Structure prediction by ZEFSAII (Michael W. Deem and Ramdas Pophale) SiO2 
 PCOD8228829
Probable space group: P C C N
;
_chemical_formula_sum "Si O2"
_cell_formula_units_Z 60
_cell_length_a 17.875318
_cell_length_b 17.074002
_cell_length_c 9.134782
_cell_angle_alpha 90.000000
_cell_angle_beta 90.000000
_cell_angle_gamma 90.000000
_cell_volume 2787.964837
_symmetry_space_group_name_H-M "P C C N"
_symmetry_group_IT_number 56
_symmetry_cell_setting 'orthorhombic'
loop_
_space_group_symop_operation_xyz
x,y,z
1/2-x,1/2-y,z
1/2+x,-y,1/2-z
-x,1/2+y,1/2-z
-x,-y,-z
1/2+x,1/2+y,-z
1/2-x,y,1/2+z
x,1/2-y,1/2+z
loop_
_atom_site_type_symbol
_atom_site_label
_atom_site_fract_x
_atom_site_fract_y
_atom_site_fract_z
Si Si1 0.560250 0.462956 0.215383
Si Si2 0.918239 0.738717 0.927658
Si Si3 0.250000 0.750000 0.940815
Si Si4 0.845737 0.181645 0.813903
Si Si5 0.481500 0.702609 0.693008
Si Si6 0.660760 0.599076 0.293884
Si Si7 0.593465 0.023175 0.383998
Si Si8 0.689543 0.878715 0.462974
O O1 0.553659 0.384131 0.310595
O O2 0.620978 0.514542 0.303594
O O3 0.483490 0.511114 0.202800
O O4 0.584631 0.444878 0.049135
O O5 0.901382 0.664576 0.825220
O O6 0.844038 0.792301 0.937464
O O7 0.986704 0.785829 0.855909
O O8 0.947541 0.710111 0.084923
O O9 0.308582 0.795104 0.839233
O O10 0.208811 0.811445 0.046637
O O11 0.918512 0.234116 0.844769
O O12 0.864033 0.090331 0.794742
O O13 0.726091 0.610990 0.410404
O O14 0.694930 0.607732 0.134399
O O15 0.637590 0.941534 0.381042
#
# Coordination Sequence:
#
# PCOD8228829 Si02
#       8
#     8   8   4   8   8   8   8   8
#     4  10  22  42  65 101 132 174 223 284 333 407
#     4  12  24  43  68 100 134 180 225 285 342 404
#     4  10  24  42  62  96 138 170 228 268 334 400
#     4  11  23  41  67  96 129 181 216 278 330 407
#     4  12  24  42  72 100 133 171 231 282 341 401
#     4  11  26  43  68  97 138 182 227 277 343 409
#     4  10  21  40  69  93 136 176 225 272 341 394
#     4  11  25  43  65  99 135 183 226 278 341 407
#
# _framework density 21.521076000000001
#
# number of rings (size 3 to 8) (size 9 to 14) (size 15 to 20)
#    0.000    1.067    2.667    3.600    3.733    5.867 
#    0.000    1.333    0.000    0.000    0.000    0.000 
#    0.000    0.000    0.000    0.000    0.000    0.000 
#
# Total GULP energy -744248.313388 kJ/mol
# GULP energy per Si atom -12404.138556 kJ/mol
# Density = 2.147209 g / cm^3
# Si number density = 21.521076 Si / 1000 Ang^3
#
#
#
# Elastic Constant Matrix: (Units=GPa)
#
#
# Indices 1 2 3 4 5 6 
#
# 1 87.3381 31.9872 22.6942 0.0000 0.0000 0.0000
# 2 31.9872 114.7247 36.6757 0.0000 0.0000 0.0000
# 3 22.6942 36.6757 67.4116 0.0000 0.0000 0.0000
# 4 0.0000 0.0000 0.0000 21.4199 0.0000 0.0000
# 5 0.0000 0.0000 0.0000 0.0000 36.3181 0.0000
# 6 0.0000 0.0000 0.0000 0.0000 0.0000 35.0220
#
#
#
# Elastic Compliance Matrix: (Units=1/GPa)
#
#
# Indices 1 2 3 4 5 6 
#
# 1 0.013223 -0.002740 -0.002961 0.000000 0.000000 0.000000
# 2 -0.002740 0.011120 -0.005127 0.000000 0.000000 0.000000
# 3 -0.002961 -0.005127 0.018620 0.000000 0.000000 0.000000
# 4 0.000000 0.000000 0.000000 0.046686 0.000000 0.000000
# 5 0.000000 0.000000 0.000000 0.000000 0.027535 0.000000
# 6 0.000000 0.000000 0.000000 0.000000 0.000000 0.028553
#
#
# Mechanical properties :
#
#
# Convention : Reuss Voigt Hill
#
# Bulk Modulus (GPa) = 46.93369 50.24316 48.58842
# Shear Modulus (GPa) = 28.65421 30.42649 29.54035
#
# Velocity S-wave (km/s) = 3.65286 3.76413 3.70891
# Velocity P-wave (km/s) = 6.29657 6.50295 6.40059
#
# Compressibility (1/GPa) = 0.02130666
#
# Stress axis : x y z
#
# Youngs Moduli (GPa) = 75.62788 89.93099 53.70450
#
# Poissons Ratio (x) = 0.24643 0.15900
# Poissons Ratio (y) = 0.20724 0.27535
# Poissons Ratio (z) = 0.22390 0.46109
#
# Static dielectric constant tensor:
#      x y z
#    x 3.905880 0.000000 0.000000 
#    y 0.000000 3.866530 0.000000 
#    z 0.000000 0.000000 3.704690 
# 
# 
# High freq. dielectric constant tensor:
#      x y z
#    x 1.852020 0.000000 0.000000 
#    y 0.000000 1.850850 0.000000 
#    z 0.000000 0.000000 1.840260 
# 
# From -- ./inp_files/4127.got.cif
#   From: 2010.03.12/outbox.cif.g09.slc.cpg/sg56_3_cif.got.tgz:4127.got - 2010.04.16 15:33:40.
