data_PCOD8228792
_publ_section_title
;
Structure prediction by ZEFSAII (Michael W. Deem and Ramdas Pophale) SiO2 
 PCOD8228792
Probable space group: P C C N
;
_chemical_formula_sum "Si O2"
_cell_formula_units_Z 60
_cell_length_a 22.570406
_cell_length_b 8.610759
_cell_length_c 15.449543
_cell_angle_alpha 90.000000
_cell_angle_beta 90.000000
_cell_angle_gamma 90.000000
_cell_volume 3002.592829
_symmetry_space_group_name_H-M "P C C N"
_symmetry_group_IT_number 56
_symmetry_cell_setting 'orthorhombic'
loop_
_space_group_symop_operation_xyz
x,y,z
1/2-x,1/2-y,z
1/2+x,-y,1/2-z
-x,1/2+y,1/2-z
-x,-y,-z
1/2+x,1/2+y,-z
1/2-x,y,1/2+z
x,1/2-y,1/2+z
loop_
_atom_site_type_symbol
_atom_site_label
_atom_site_fract_x
_atom_site_fract_y
_atom_site_fract_z
Si Si1 0.120601 0.950093 0.889335
Si Si2 0.482576 0.756895 0.852808
Si Si3 0.282755 0.494976 0.018461
Si Si4 0.646420 0.457950 0.298682
Si Si5 0.985056 0.390953 0.827690
Si Si6 0.250000 0.750000 0.150987
Si Si7 0.167707 0.337900 0.042090
Si Si8 0.446955 0.223407 0.475918
O O1 0.086088 0.787926 0.872657
O O2 0.135688 0.027835 0.796746
O O3 0.077255 0.059390 0.943641
O O4 0.182726 0.925743 0.938598
O O5 0.505817 0.673016 0.765585
O O6 0.487263 0.939781 0.840057
O O7 0.522623 0.697010 0.931623
O O8 0.282021 0.620787 0.093487
O O9 0.216433 0.440887 0.990369
O O10 0.316092 0.342367 0.052529
O O11 0.585904 0.384677 0.335547
O O12 0.698114 0.328010 0.292126
O O13 0.664355 0.599288 0.360293
O O14 0.007306 0.284905 0.905636
O O15 0.106287 0.348499 0.989168
#
# Coordination Sequence:
#
# PCOD8228792 Si02
#       8
#     8   8   8   8   8   4   8   8
#     4  10  23  40  61  91 125 161 210 260 312 378
#     4  11  23  39  61  94 128 171 206 264 316 383
#     4   9  20  39  61  85 116 156 212 252 311 377
#     4  10  21  40  59  86 126 158 204 258 308 369
#     4  11  23  40  62  93 132 165 214 258 312 385
#     4  10  22  38  62  84 116 162 204 262 316 358
#     4   9  19  39  62  86 117 160 205 251 315 371
#     4  11  22  39  66  91 128 167 212 255 324 371
#
# _framework density 19.982728999999999
#
# number of rings (size 3 to 8) (size 9 to 14) (size 15 to 20)
#    0.000    1.867    1.333    2.400    1.867    1.600 
#    7.200   12.000    0.000    0.000    0.000    0.000 
#    0.000    0.000    0.000    0.000    0.000    0.000 
#
# Total GULP energy -743875.661050 kJ/mol
# GULP energy per Si atom -12397.927684 kJ/mol
# Density = 1.993725 g / cm^3
# Si number density = 19.982729 Si / 1000 Ang^3
#
#
#
# Elastic Constant Matrix: (Units=GPa)
#
#
# Indices 1 2 3 4 5 6 
#
# 1 111.3057 21.0240 50.0862 0.0000 0.0000 0.0000
# 2 21.0240 59.5959 22.1403 0.0000 0.0000 0.0000
# 3 50.0862 22.1403 107.5463 0.0000 0.0000 0.0000
# 4 0.0000 0.0000 0.0000 26.3799 0.0000 0.0000
# 5 0.0000 0.0000 0.0000 0.0000 33.0165 0.0000
# 6 0.0000 0.0000 0.0000 0.0000 0.0000 27.0198
#
#
#
# Elastic Compliance Matrix: (Units=1/GPa)
#
#
# Indices 1 2 3 4 5 6 
#
# 1 0.011642 -0.002266 -0.004955 0.000000 0.000000 0.000000
# 2 -0.002266 0.018610 -0.002776 0.000000 0.000000 0.000000
# 3 -0.004955 -0.002776 0.012178 0.000000 0.000000 0.000000
# 4 0.000000 0.000000 0.000000 0.037908 0.000000 0.000000
# 5 0.000000 0.000000 0.000000 0.000000 0.030288 0.000000
# 6 0.000000 0.000000 0.000000 0.000000 0.000000 0.037010
#
#
# Mechanical properties :
#
#
# Convention : Reuss Voigt Hill
#
# Bulk Modulus (GPa) = 44.57270 51.66099 48.11685
# Shear Modulus (GPa) = 28.55366 29.62975 29.09171
#
# Velocity S-wave (km/s) = 3.78420 3.85485 3.81969
# Velocity P-wave (km/s) = 6.43798 6.76181 6.60188
#
# Compressibility (1/GPa) = 0.02243526
#
# Stress axis : x y z
#
# Youngs Moduli (GPa) = 85.89448 53.73350 82.11778
#
# Poissons Ratio (x) = 0.12177 0.40693
# Poissons Ratio (y) = 0.19465 0.22795
# Poissons Ratio (z) = 0.42565 0.14916
#
# Static dielectric constant tensor:
#      x y z
#    x 4.004900 0.000000 0.000000 
#    y 0.000000 3.528260 0.000000 
#    z 0.000000 0.000000 3.716610 
# 
# 
# High freq. dielectric constant tensor:
#      x y z
#    x 1.792860 0.000000 0.000000 
#    y 0.000000 1.771780 0.000000 
#    z 0.000000 0.000000 1.777000 
# 
# From -- ./inp_files/13226.got.cif
#   From: 2010.03.12/outbox.cif.g09.slc.cpg/sg56_7_cif.got.tgz:13226.got - 2010.04.16 15:33:40.
