data_PCOD8228908
_publ_section_title
;
Structure prediction by ZEFSAII (Michael W. Deem and Ramdas Pophale) SiO2 
 PCOD8228908
Probable space group: P C C N
;
_chemical_formula_sum "Si O2"
_cell_formula_units_Z 48
_cell_length_a 15.081162
_cell_length_b 7.838882
_cell_length_c 17.323773
_cell_angle_alpha 90.000000
_cell_angle_beta 90.000000
_cell_angle_gamma 90.000000
_cell_volume 2048.006905
_symmetry_space_group_name_H-M "P C C N"
_symmetry_group_IT_number 56
_symmetry_cell_setting 'orthorhombic'
loop_
_space_group_symop_operation_xyz
x,y,z
1/2-x,1/2-y,z
1/2+x,-y,1/2-z
-x,1/2+y,1/2-z
-x,-y,-z
1/2+x,1/2+y,-z
1/2-x,y,1/2+z
x,1/2-y,1/2+z
loop_
_atom_site_type_symbol
_atom_site_label
_atom_site_fract_x
_atom_site_fract_y
_atom_site_fract_z
Si Si1 0.028088 0.607824 0.635873
Si Si2 0.416592 0.601792 0.403626
Si Si3 0.426254 0.262968 0.497412
Si Si4 0.701562 0.982908 0.421768
Si Si5 0.250000 0.250000 0.705616
Si Si6 0.250000 0.750000 0.963807
Si Si7 0.566673 0.626315 0.735028
O O1 0.128659 0.623141 0.605346
O O2 0.025298 0.426355 0.681646
O O3 0.964047 0.618039 0.561490
O O4 0.006693 0.759902 0.693887
O O5 0.396777 0.428278 0.450578
O O6 0.504615 0.690362 0.435480
O O7 0.337201 0.739627 0.410751
O O8 0.422570 0.548473 0.313928
O O9 0.341695 0.185579 0.540141
O O10 0.759037 0.919349 0.348313
O O11 0.759677 0.080078 0.484433
O O12 0.160815 0.272178 0.757122
#
# Coordination Sequence:
#
# PCOD8228908 Si02
#       7
#     8   8   8   8   4   4   8
#     4  10  22  40  66  94 125 172 221 264 326 395
#     4  10  23  40  66  95 130 168 222 275 329 393
#     4  10  21  43  68  95 124 174 228 274 322 395
#     4  11  23  40  66  95 128 175 219 275 329 390
#     4  10  24  44  60  94 138 176 208 264 352 386
#     4  12  24  38  64 104 130 162 222 284 330 384
#     4  10  24  41  63  96 134 174 213 267 333 406
#
# _framework density 23.437418999999998
#
# number of rings (size 3 to 8) (size 9 to 14) (size 15 to 20)
#    0.000    1.667    1.667    1.500    4.667    4.000 
#    0.000    3.333    0.000    0.000    0.000    0.000 
#    0.000    0.000    0.000    0.000    0.000    0.000 
#
# Total GULP energy -594982.348342 kJ/mol
# GULP energy per Si atom -12395.465590 kJ/mol
# Density = 2.338407 g / cm^3
# Si number density = 23.437419 Si / 1000 Ang^3
#
#
#
# Elastic Constant Matrix: (Units=GPa)
#
#
# Indices 1 2 3 4 5 6 
#
# 1 44.9048 2.0725 21.3049 0.0000 0.0000 0.0000
# 2 2.0725 52.4317 24.0543 0.0000 0.0000 0.0000
# 3 21.3049 24.0543 90.9016 0.0000 0.0000 0.0000
# 4 0.0000 0.0000 0.0000 51.3555 0.0000 0.0000
# 5 0.0000 0.0000 0.0000 0.0000 26.2440 0.0000
# 6 0.0000 0.0000 0.0000 0.0000 0.0000 36.8603
#
#
#
# Elastic Compliance Matrix: (Units=1/GPa)
#
#
# Indices 1 2 3 4 5 6 
#
# 1 0.025230 0.001953 -0.006430 0.000000 0.000000 0.000000
# 2 0.001953 0.021859 -0.006242 0.000000 0.000000 0.000000
# 3 -0.006430 -0.006242 0.014160 0.000000 0.000000 0.000000
# 4 0.000000 0.000000 0.000000 0.019472 0.000000 0.000000
# 5 0.000000 0.000000 0.000000 0.000000 0.038104 0.000000
# 6 0.000000 0.000000 0.000000 0.000000 0.000000 0.027129
#
#
# Mechanical properties :
#
#
# Convention : Reuss Voigt Hill
#
# Bulk Modulus (GPa) = 25.11935 31.45572 28.28753
# Shear Modulus (GPa) = 27.67594 32.27906 29.97750
#
# Velocity S-wave (km/s) = 3.44007 3.71515 3.58025
# Velocity P-wave (km/s) = 5.14972 5.64388 5.40246
#
# Compressibility (1/GPa) = 0.03980995
#
# Stress axis : x y z
#
# Youngs Moduli (GPa) = 39.63553 45.74799 70.62321
#
# Poissons Ratio (x) = -0.08933 0.45410
# Poissons Ratio (y) = -0.07739 0.44083
# Poissons Ratio (z) = 0.25485 0.28556
#
# Static dielectric constant tensor:
#      x y z
#    x 3.965430 0.000000 0.000000 
#    y 0.000000 4.130170 0.000000 
#    z 0.000000 0.000000 4.465360 
# 
# 
# High freq. dielectric constant tensor:
#      x y z
#    x 1.913870 0.000000 0.000000 
#    y 0.000000 1.924110 0.000000 
#    z 0.000000 0.000000 1.938980 
# 
# From -- ./inp_files/16208.got.cif
#   From: 2010.03.12/outbox.cif.g09.slc.cpg/sg56_9_cif.got.tgz:16208.got - 2010.04.16 15:33:40.
