data_PCOD8228127
_publ_section_title
;
Structure prediction by ZEFSAII (Michael W. Deem and Ramdas Pophale) SiO2 
 PCOD8228127
Probable space group: P C C N
;
_chemical_formula_sum "Si O2"
_cell_formula_units_Z 64
_cell_length_a 16.203624
_cell_length_b 23.421656
_cell_length_c 9.060686
_cell_angle_alpha 90.000000
_cell_angle_beta 90.000000
_cell_angle_gamma 90.000000
_cell_volume 3438.672656
_symmetry_space_group_name_H-M "P C C N"
_symmetry_group_IT_number 56
_symmetry_cell_setting 'orthorhombic'
loop_
_space_group_symop_operation_xyz
x,y,z
1/2-x,1/2-y,z
1/2+x,-y,1/2-z
-x,1/2+y,1/2-z
-x,-y,-z
1/2+x,1/2+y,-z
1/2-x,y,1/2+z
x,1/2-y,1/2+z
loop_
_atom_site_type_symbol
_atom_site_label
_atom_site_fract_x
_atom_site_fract_y
_atom_site_fract_z
Si Si1 0.135691 0.935677 0.135343
Si Si2 0.143500 0.214426 0.012384
Si Si3 0.979967 0.536428 0.275978
Si Si4 0.694792 0.815519 0.153102
Si Si5 0.875645 0.951368 0.227672
Si Si6 0.242954 0.970908 0.389630
Si Si7 0.134596 0.430062 0.961766
Si Si8 0.518669 0.621176 0.026894
O O1 0.192334 0.927799 0.281318
O O2 0.066241 0.885057 0.123410
O O3 0.088357 0.996607 0.141773
O O4 0.194885 0.934863 0.991877
O O5 0.177203 0.204005 0.178005
O O6 0.209375 0.193015 0.889020
O O7 0.136445 0.281355 0.965877
O O8 0.052614 0.185749 0.991990
O O9 0.951866 0.557636 0.116380
O O10 0.000321 0.592582 0.370297
O O11 0.062957 0.503509 0.248157
O O12 0.680308 0.882896 0.137336
O O13 0.877483 0.909500 0.370333
O O14 0.903429 0.912796 0.091972
O O15 0.787199 0.979842 0.205541
O O16 0.180001 0.008880 0.483803
#
# Coordination Sequence:
#
# PCOD8228127 Si02
#       8
#     8   8   8   8   8   8   8   8
#     4  10  20  33  50  77 110 150 182 220 267 331
#     4  11  24  40  57  77 109 141 186 236 272 317
#     4  10  19  35  48  75 107 149 182 216 272 324
#     4  11  24  38  56  79 104 144 189 229 270 317
#     4  11  20  31  51  74 112 146 179 224 257 333
#     4  11  19  31  50  77 109 144 184 218 263 324
#     4  11  23  31  51  77 106 144 182 220 270 321
#     4  11  20  36  55  73 109 154 186 224 280 323
#
# _framework density 18.611833000000001
#
# number of rings (size 3 to 8) (size 9 to 14) (size 15 to 20)
#    0.000    1.250    5.000    3.375    5.250    0.000 
#    0.000    0.000    0.000    0.000    0.000    0.000 
#    0.000    8.000    0.000    0.000    0.000    0.000 
#
# Total GULP energy -793017.428658 kJ/mol
# GULP energy per Si atom -12390.897323 kJ/mol
# Density = 1.856947 g / cm^3
# Si number density = 18.611833 Si / 1000 Ang^3
#
#
#
# Elastic Constant Matrix: (Units=GPa)
#
#
# Indices 1 2 3 4 5 6 
#
# 1 67.4168 20.3888 17.8162 0.0000 0.0000 0.0000
# 2 20.3888 41.9227 11.6202 0.0000 0.0000 0.0000
# 3 17.8162 11.6202 88.9514 0.0000 0.0000 0.0000
# 4 0.0000 0.0000 0.0000 21.8937 0.0000 0.0000
# 5 0.0000 0.0000 0.0000 0.0000 25.6377 0.0000
# 6 0.0000 0.0000 0.0000 0.0000 0.0000 33.4817
#
#
#
# Elastic Compliance Matrix: (Units=1/GPa)
#
#
# Indices 1 2 3 4 5 6 
#
# 1 0.017929 -0.008015 -0.002544 0.000000 0.000000 0.000000
# 2 -0.008015 0.028332 -0.002096 0.000000 0.000000 0.000000
# 3 -0.002544 -0.002096 0.012025 0.000000 0.000000 0.000000
# 4 0.000000 0.000000 0.000000 0.045675 0.000000 0.000000
# 5 0.000000 0.000000 0.000000 0.000000 0.039005 0.000000
# 6 0.000000 0.000000 0.000000 0.000000 0.000000 0.029867
#
#
# Mechanical properties :
#
#
# Convention : Reuss Voigt Hill
#
# Bulk Modulus (GPa) = 30.32351 33.10458 31.71404
# Shear Modulus (GPa) = 23.90789 26.10034 25.00411
#
# Velocity S-wave (km/s) = 3.58795 3.74886 3.66929
# Velocity P-wave (km/s) = 5.78727 6.04682 5.91847
#
# Compressibility (1/GPa) = 0.03297772
#
# Stress axis : x y z
#
# Youngs Moduli (GPa) = 55.77479 35.29558 83.15695
#
# Poissons Ratio (x) = 0.28288 0.21156
# Poissons Ratio (y) = 0.44701 0.17429
# Poissons Ratio (z) = 0.14190 0.07398
#
# Static dielectric constant tensor:
#      x y z
#    x 3.466260 0.000000 0.000000 
#    y 0.000000 3.381670 0.000000 
#    z 0.000000 0.000000 3.533160 
# 
# 
# High freq. dielectric constant tensor:
#      x y z
#    x 1.711700 0.000000 0.000000 
#    y 0.000000 1.670660 0.000000 
#    z 0.000000 0.000000 1.739040 
# 
# From -- ./inp_files/4269.got.cif
#   From: 2010.03.12/outbox.cif.g09.slc.cpg/sg56_3_cif.got.tgz:4269.got - 2010.04.16 15:33:40.
