data_PCOD8228539
_publ_section_title
;
Structure prediction by ZEFSAII (Michael W. Deem and Ramdas Pophale) SiO2 
 PCOD8228539
Probable space group: P C C N
;
_chemical_formula_sum "Si O2"
_cell_formula_units_Z 60
_cell_length_a 29.958697
_cell_length_b 10.688891
_cell_length_c 8.998181
_cell_angle_alpha 90.000000
_cell_angle_beta 90.000000
_cell_angle_gamma 90.000000
_cell_volume 2881.444731
_symmetry_space_group_name_H-M "P C C N"
_symmetry_group_IT_number 56
_symmetry_cell_setting 'orthorhombic'
loop_
_space_group_symop_operation_xyz
x,y,z
1/2-x,1/2-y,z
1/2+x,-y,1/2-z
-x,1/2+y,1/2-z
-x,-y,-z
1/2+x,1/2+y,-z
1/2-x,y,1/2+z
x,1/2-y,1/2+z
loop_
_atom_site_type_symbol
_atom_site_label
_atom_site_fract_x
_atom_site_fract_y
_atom_site_fract_z
Si Si1 0.064275 0.510620 0.408627
Si Si2 0.072013 0.892231 0.453468
Si Si3 0.138054 0.402052 0.038834
Si Si4 0.750000 0.250000 0.662553
Si Si5 0.805278 0.127876 0.406592
Si Si6 0.604375 0.287387 0.279385
Si Si7 0.901973 0.752406 0.204541
Si Si8 0.468737 0.037557 0.717386
O O1 0.102552 0.598373 0.340304
O O2 0.076055 0.365439 0.387236
O O3 0.057900 0.532468 0.584504
O O4 0.019657 0.558515 0.325557
O O5 0.101196 0.838288 0.316258
O O6 0.064871 0.793728 0.589674
O O7 0.098184 0.998536 0.543046
O O8 0.029665 0.952963 0.369342
O O9 0.183872 0.479930 0.066421
O O10 0.135021 0.328117 0.884320
O O11 0.128788 0.300269 0.163526
O O12 0.786794 0.183415 0.560438
O O13 0.728969 0.142998 0.769420
O O14 0.848967 0.208915 0.366361
O O15 0.944148 0.668930 0.253474
#
# Coordination Sequence:
#
# PCOD8228539 Si02
#       8
#     8   8   8   4   8   8   8   8
#     4  11  22  39  57  86 119 172 210 279 313 364
#     4  10  21  37  54  88 119 162 207 264 305 366
#     4  10  21  39  65  86 123 160 216 246 303 365
#     4  10  22  38  70  96 140 144 184 244 328 384
#     4  10  20  40  62 101 121 166 185 249 309 387
#     4  11  21  37  61  87 126 155 213 251 316 369
#     4  11  20  41  59  86 116 175 212 264 301 358
#     4  10  24  37  55  82 125 163 224 265 325 349
#
# _framework density 20.822889
#
# number of rings (size 3 to 8) (size 9 to 14) (size 15 to 20)
#    0.000    1.600    4.000    2.400    1.867    0.533 
#    0.000    4.000    0.000    2.400    0.000    0.000 
#    0.000    0.000    0.000    0.000    0.000    0.000 
#
# Total GULP energy -743327.874048 kJ/mol
# GULP energy per Si atom -12388.797901 kJ/mol
# Density = 2.077549 g / cm^3
# Si number density = 20.822889 Si / 1000 Ang^3
#
#
#
# Elastic Constant Matrix: (Units=GPa)
#
#
# Indices 1 2 3 4 5 6 
#
# 1 53.1329 33.8759 27.8814 0.0000 0.0000 0.0000
# 2 33.8759 80.1092 26.4044 0.0000 0.0000 0.0000
# 3 27.8814 26.4044 99.1246 0.0000 0.0000 0.0000
# 4 0.0000 0.0000 0.0000 40.4754 0.0000 0.0000
# 5 0.0000 0.0000 0.0000 0.0000 35.8831 0.0000
# 6 0.0000 0.0000 0.0000 0.0000 0.0000 29.5266
#
#
#
# Elastic Compliance Matrix: (Units=1/GPa)
#
#
# Indices 1 2 3 4 5 6 
#
# 1 0.027997 -0.010133 -0.005176 0.000000 0.000000 0.000000
# 2 -0.010133 0.017352 -0.001772 0.000000 0.000000 0.000000
# 3 -0.005176 -0.001772 0.012016 0.000000 0.000000 0.000000
# 4 0.000000 0.000000 0.000000 0.024706 0.000000 0.000000
# 5 0.000000 0.000000 0.000000 0.000000 0.027868 0.000000
# 6 0.000000 0.000000 0.000000 0.000000 0.000000 0.033868
#
#
# Mechanical properties :
#
#
# Convention : Reuss Voigt Hill
#
# Bulk Modulus (GPa) = 43.09669 45.41000 44.25334
# Shear Modulus (GPa) = 26.92449 30.79070 28.85759
#
# Velocity S-wave (km/s) = 3.59976 3.84955 3.72675
# Velocity P-wave (km/s) = 6.16599 6.45088 6.31004
#
# Compressibility (1/GPa) = 0.02320364
#
# Stress axis : x y z
#
# Youngs Moduli (GPa) = 35.71756 57.62988 83.22161
#
# Poissons Ratio (x) = 0.58399 0.43073
# Poissons Ratio (y) = 0.36194 0.14746
# Poissons Ratio (z) = 0.18486 0.10211
#
# Static dielectric constant tensor:
#      x y z
#    x 3.393430 0.000000 0.000000 
#    y 0.000000 3.904790 0.000000 
#    z 0.000000 0.000000 4.298340 
# 
# 
# High freq. dielectric constant tensor:
#      x y z
#    x 1.764290 0.000000 0.000000 
#    y 0.000000 1.815140 0.000000 
#    z 0.000000 0.000000 1.849240 
# 
# From -- ./inp_files/5184.got.cif
#   From: 2010.03.12/outbox.cif.g09.slc.cpg/sg56_3_cif.got.tgz:5184.got - 2010.04.16 15:33:40.
