data_PCOD8228391
_publ_section_title
;
Structure prediction by ZEFSAII (Michael W. Deem and Ramdas Pophale) SiO2 
 PCOD8228391
Probable space group: P C C N
;
_chemical_formula_sum "Si O2"
_cell_formula_units_Z 60
_cell_length_a 16.998261
_cell_length_b 10.857804
_cell_length_c 16.689315
_cell_angle_alpha 90.000000
_cell_angle_beta 90.000000
_cell_angle_gamma 90.000000
_cell_volume 3080.243167
_symmetry_space_group_name_H-M "P C C N"
_symmetry_group_IT_number 56
_symmetry_cell_setting 'orthorhombic'
loop_
_space_group_symop_operation_xyz
x,y,z
1/2-x,1/2-y,z
1/2+x,-y,1/2-z
-x,1/2+y,1/2-z
-x,-y,-z
1/2+x,1/2+y,-z
1/2-x,y,1/2+z
x,1/2-y,1/2+z
loop_
_atom_site_type_symbol
_atom_site_label
_atom_site_fract_x
_atom_site_fract_y
_atom_site_fract_z
Si Si1 0.215023 0.118677 0.661921
Si Si2 0.750000 0.750000 0.103558
Si Si3 0.255576 0.488587 0.495407
Si Si4 0.360859 0.011580 0.742278
Si Si5 0.519562 0.416520 0.879157
Si Si6 0.909174 0.105238 0.041651
Si Si7 0.325418 0.822834 0.878623
Si Si8 0.605495 0.723679 0.216708
O O1 0.250000 0.250000 0.634301
O O2 0.212040 0.028148 0.585744
O O3 0.271209 0.053472 0.727281
O O4 0.129986 0.145405 0.703119
O O5 0.677357 0.704993 0.156165
O O6 0.777126 0.636103 0.050195
O O7 0.163124 0.520350 0.488861
O O8 0.302844 0.600910 0.457415
O O9 0.409893 0.132348 0.767336
O O10 0.399703 0.958306 0.662372
O O11 0.362754 0.909303 0.811305
O O12 0.463138 0.530808 0.896939
O O13 0.475631 0.323799 0.819728
O O14 0.542020 0.352336 0.963265
O O15 0.888983 0.225238 0.092216
O O16 0.250000 0.750000 0.843198
#
# Coordination Sequence:
#
# PCOD8228391 Si02
#       8
#     8   4   8   8   8   8   8   8
#     4  10  20  36  64  93 118 151 211 257 300 357
#     4  12  18  34  68  88 120 154 210 258 298 346
#     4  11  19  38  64  91 119 156 205 262 296 358
#     4  11  22  41  61  92 125 160 199 262 306 373
#     4  11  24  41  63  87 126 166 204 247 314 377
#     4  10  23  42  61  86 122 167 202 241 313 377
#     4  10  23  41  62  89 123 160 205 255 312 363
#     4  11  22  40  62  93 120 162 210 255 307 362
#
# _framework density 19.478981000000001
#
# number of rings (size 3 to 8) (size 9 to 14) (size 15 to 20)
#    0.000    1.333    6.667    0.000    3.733    0.000 
#    4.800    0.667    0.000    0.000    0.000    0.000 
#    0.000    0.000    0.000    0.000    0.000    0.000 
#
# Total GULP energy -744010.851234 kJ/mol
# GULP energy per Si atom -12400.180854 kJ/mol
# Density = 1.943465 g / cm^3
# Si number density = 19.478981 Si / 1000 Ang^3
#
#
#
# Elastic Constant Matrix: (Units=GPa)
#
#
# Indices 1 2 3 4 5 6 
#
# 1 56.3340 29.2193 24.2105 0.0000 0.0000 0.0000
# 2 29.2193 94.3903 47.4776 0.0000 0.0000 0.0000
# 3 24.2105 47.4776 96.8900 0.0000 0.0000 0.0000
# 4 0.0000 0.0000 0.0000 29.0000 0.0000 0.0000
# 5 0.0000 0.0000 0.0000 0.0000 16.0605 0.0000
# 6 0.0000 0.0000 0.0000 0.0000 0.0000 23.2113
#
#
#
# Elastic Compliance Matrix: (Units=1/GPa)
#
#
# Indices 1 2 3 4 5 6 
#
# 1 0.021716 -0.005299 -0.002830 0.000000 0.000000 0.000000
# 2 -0.005299 0.015353 -0.006199 0.000000 0.000000 0.000000
# 3 -0.002830 -0.006199 0.014066 0.000000 0.000000 0.000000
# 4 0.000000 0.000000 0.000000 0.034483 0.000000 0.000000
# 5 0.000000 0.000000 0.000000 0.000000 0.062265 0.000000
# 6 0.000000 0.000000 0.000000 0.000000 0.000000 0.043083
#
#
# Mechanical properties :
#
#
# Convention : Reuss Voigt Hill
#
# Bulk Modulus (GPa) = 44.48619 49.93656 47.21137
# Shear Modulus (GPa) = 22.01555 23.43483 22.72519
#
# Velocity S-wave (km/s) = 3.36552 3.47231 3.41933
# Velocity P-wave (km/s) = 6.16360 6.46279 6.31497
#
# Compressibility (1/GPa) = 0.02247889
#
# Stress axis : x y z
#
# Youngs Moduli (GPa) = 46.04930 65.13522 71.09530
#
# Poissons Ratio (x) = 0.34515 0.20118
# Poissons Ratio (y) = 0.24402 0.44072
# Poissons Ratio (z) = 0.13030 0.40377
#
# Static dielectric constant tensor:
#      x y z
#    x 3.409270 0.000000 0.000000 
#    y 0.000000 3.654120 0.000000 
#    z 0.000000 0.000000 3.586910 
# 
# 
# High freq. dielectric constant tensor:
#      x y z
#    x 1.738040 0.000000 0.000000 
#    y 0.000000 1.757700 0.000000 
#    z 0.000000 0.000000 1.766850 
# 
# From -- ./inp_files/12822.got.cif
#   From: 2010.03.12/outbox.cif.g09.slc.cpg/sg56_7_cif.got.tgz:12822.got - 2010.04.16 15:33:40.
