data_PCOD8228214
_publ_section_title
;
Structure prediction by ZEFSAII (Michael W. Deem and Ramdas Pophale) SiO2 
 PCOD8228214
Probable space group: P C C N
;
_chemical_formula_sum "Si O2"
_cell_formula_units_Z 64
_cell_length_a 9.136702
_cell_length_b 11.177131
_cell_length_c 30.772892
_cell_angle_alpha 90.000000
_cell_angle_beta 90.000000
_cell_angle_gamma 90.000000
_cell_volume 3142.592821
_symmetry_space_group_name_H-M "P C C N"
_symmetry_group_IT_number 56
_symmetry_cell_setting 'orthorhombic'
loop_
_space_group_symop_operation_xyz
x,y,z
1/2-x,1/2-y,z
1/2+x,-y,1/2-z
-x,1/2+y,1/2-z
-x,-y,-z
1/2+x,1/2+y,-z
1/2-x,y,1/2+z
x,1/2-y,1/2+z
loop_
_atom_site_type_symbol
_atom_site_label
_atom_site_fract_x
_atom_site_fract_y
_atom_site_fract_z
Si Si1 0.942327 0.501828 0.048579
Si Si2 0.331662 0.867676 0.419263
Si Si3 0.049075 0.050571 0.849960
Si Si4 0.085855 0.293771 0.884872
Si Si5 0.642138 0.586045 0.788573
Si Si6 0.091953 0.220995 0.580092
Si Si7 0.055775 0.178318 0.678094
Si Si8 0.145887 0.034219 0.310730
O O1 0.776159 0.447824 0.050754
O O2 0.954550 0.632887 0.071071
O O3 0.053611 0.417247 0.073886
O O4 0.000000 0.500000 0.000000
O O5 0.250000 0.750000 0.399910
O O6 0.475048 0.811384 0.443430
O O7 0.393834 0.947694 0.381294
O O8 0.998839 0.169424 0.876919
O O9 0.184355 0.067033 0.817056
O O10 0.909693 0.016190 0.821687
O O11 0.250000 0.250000 0.890263
O O12 0.057781 0.376582 0.842712
O O13 0.540091 0.704006 0.792241
O O14 0.811349 0.602928 0.801091
O O15 0.613135 0.547442 0.739591
O O16 0.250000 0.250000 0.559639
O O17 0.094801 0.237006 0.631778
O O18 0.907184 0.099949 0.676332
#
# Coordination Sequence:
#
# PCOD8228214 Si02
#       8
#     8   8   8   8   8   8   8   8
#     4  11  23  42  70  96 124 162 209 269 332 406
#     4  10  19  38  67  95 121 159 217 260 312 393
#     4  11  21  38  63  89 123 172 216 260 316 384
#     4  10  21  38  64  90 128 171 209 258 328 393
#     4  11  24  34  59  91 127 168 222 272 306 372
#     4  11  20  41  69  93 124 165 210 269 326 373
#     4  11  21  39  60  86 126 166 218 267 318 366
#     4  11  22  36  58  87 128 171 219 260 314 373
#
# _framework density 20.365348999999998
#
# number of rings (size 3 to 8) (size 9 to 14) (size 15 to 20)
#    0.000    1.250    6.250    1.500    7.000    0.500 
#    0.000    1.250   13.750    0.000    0.000    0.000 
#    0.000    0.000    0.000    0.000    0.000    0.000 
#
# Total GULP energy -792870.772233 kJ/mol
# GULP energy per Si atom -12388.605816 kJ/mol
# Density = 2.031900 g / cm^3
# Si number density = 20.365349 Si / 1000 Ang^3
#
#
#
# Elastic Constant Matrix: (Units=GPa)
#
#
# Indices 1 2 3 4 5 6 
#
# 1 74.4083 40.1984 28.0124 0.0000 0.0000 0.0000
# 2 40.1984 129.9806 45.7038 0.0000 0.0000 0.0000
# 3 28.0124 45.7038 107.2599 0.0000 0.0000 0.0000
# 4 0.0000 0.0000 0.0000 14.3173 0.0000 0.0000
# 5 0.0000 0.0000 0.0000 0.0000 25.0002 0.0000
# 6 0.0000 0.0000 0.0000 0.0000 0.0000 31.6997
#
#
#
# Elastic Compliance Matrix: (Units=1/GPa)
#
#
# Indices 1 2 3 4 5 6 
#
# 1 0.016704 -0.004272 -0.002542 0.000000 0.000000 0.000000
# 2 -0.004272 0.010142 -0.003206 0.000000 0.000000 0.000000
# 3 -0.002542 -0.003206 0.011353 0.000000 0.000000 0.000000
# 4 0.000000 0.000000 0.000000 0.069845 0.000000 0.000000
# 5 0.000000 0.000000 0.000000 0.000000 0.040000 0.000000
# 6 0.000000 0.000000 0.000000 0.000000 0.000000 0.031546
#
#
# Mechanical properties :
#
#
# Convention : Reuss Voigt Hill
#
# Bulk Modulus (GPa) = 55.06882 59.94200 57.50541
# Shear Modulus (GPa) = 24.30915 27.38572 25.84744
#
# Velocity S-wave (km/s) = 3.45868 3.67102 3.56643
# Velocity P-wave (km/s) = 6.56118 6.88954 6.72736
#
# Compressibility (1/GPa) = 0.01815910
#
# Stress axis : x y z
#
# Youngs Moduli (GPa) = 59.86431 98.60078 88.08203
#
# Poissons Ratio (x) = 0.42124 0.22392
# Poissons Ratio (y) = 0.25575 0.28237
# Poissons Ratio (z) = 0.15219 0.31609
#
# Static dielectric constant tensor:
#      x y z
#    x 3.604020 0.000000 0.000000 
#    y 0.000000 5.733610 0.000000 
#    z 0.000000 0.000000 0.998220 
# 
# 
# High freq. dielectric constant tensor:
#      x y z
#    x 1.781880 0.000000 0.000000 
#    y 0.000000 1.809030 0.000000 
#    z 0.000000 0.000000 1.771270 
# 
# From -- ./inp_files/23375.got.cif
#   From: 2010.03.12/outbox.cif.g09.slc.cpg/sg56_12_cif.got.tgz:23375.got - 2010.04.16 15:33:40.
