data_PCOD8228031
_publ_section_title
;
Structure prediction by ZEFSAII (Michael W. Deem and Ramdas Pophale) SiO2 
 PCOD8228031
Probable space group: P C C N
;
_chemical_formula_sum "Si O2"
_cell_formula_units_Z 48
_cell_length_a 8.401299
_cell_length_b 15.162346
_cell_length_c 18.624029
_cell_angle_alpha 90.000000
_cell_angle_beta 90.000000
_cell_angle_gamma 90.000000
_cell_volume 2372.392178
_symmetry_space_group_name_H-M "P C C N"
_symmetry_group_IT_number 56
_symmetry_cell_setting 'orthorhombic'
loop_
_space_group_symop_operation_xyz
x,y,z
1/2-x,1/2-y,z
1/2+x,-y,1/2-z
-x,1/2+y,1/2-z
-x,-y,-z
1/2+x,1/2+y,-z
1/2-x,y,1/2+z
x,1/2-y,1/2+z
loop_
_atom_site_type_symbol
_atom_site_label
_atom_site_fract_x
_atom_site_fract_y
_atom_site_fract_z
Si Si1 0.658371 0.660479 0.094160
Si Si2 0.818445 0.511060 0.184546
Si Si3 0.564961 0.774676 0.731151
Si Si4 0.156731 0.341361 0.564829
Si Si5 0.866035 0.329028 0.669059
Si Si6 0.854824 0.567817 0.822001
O O1 0.750000 0.750000 0.077829
O O2 0.765938 0.583968 0.127591
O O3 0.517709 0.683728 0.152681
O O4 0.603877 0.628258 0.015374
O O5 0.726700 0.420122 0.172251
O O6 0.783363 0.541671 0.265837
O O7 0.008063 0.505429 0.171961
O O8 0.750000 0.750000 0.723507
O O9 0.452969 0.692822 0.753874
O O10 0.549594 0.846111 0.794130
O O11 0.250000 0.250000 0.568173
O O12 0.270906 0.415104 0.601471
O O13 0.994651 0.334163 0.607257
O O14 0.750000 0.250000 0.648456
#
# Coordination Sequence:
#
# PCOD8228031 Si02
#       6
#     8   8   8   8   8   8
#     4   9  23  39  61  87 125 164 209 253 323 373
#     4  11  24  36  61  96 123 162 211 265 312 377
#     4  10  18  38  62  86 115 157 203 255 306 368
#     4  11  20  40  64  86 123 171 206 256 317 383
#     4  12  21  37  65  93 123 161 214 261 309 377
#     4  11  20  37  60  91 120 158 215 254 310 366
#
# _framework density 20.232741999999998
#
# number of rings (size 3 to 8) (size 9 to 14) (size 15 to 20)
#    0.000    1.333    5.000    1.000    4.667    1.333 
#    0.000    0.833    0.000    0.000    0.000    0.000 
#    0.000    0.000    0.000    0.000    0.000    0.000 
#
# Total GULP energy -594781.585867 kJ/mol
# GULP energy per Si atom -12391.283039 kJ/mol
# Density = 2.018669 g / cm^3
# Si number density = 20.232742 Si / 1000 Ang^3
#
#
#
# Elastic Constant Matrix: (Units=GPa)
#
#
# Indices 1 2 3 4 5 6 
#
# 1 96.5939 27.8133 49.8950 0.0000 0.0000 0.0000
# 2 27.8133 95.1650 36.8509 0.0000 0.0000 0.0000
# 3 49.8950 36.8509 177.4469 0.0000 0.0000 0.0000
# 4 0.0000 0.0000 0.0000 3.1098 0.0000 0.0000
# 5 0.0000 0.0000 0.0000 0.0000 4.9839 0.0000
# 6 0.0000 0.0000 0.0000 0.0000 0.0000 32.0883
#
#
#
# Elastic Compliance Matrix: (Units=1/GPa)
#
#
# Indices 1 2 3 4 5 6 
#
# 1 0.012645 -0.002522 -0.003032 0.000000 0.000000 0.000000
# 2 -0.002522 0.011930 -0.001768 0.000000 0.000000 0.000000
# 3 -0.003032 -0.001768 0.006855 0.000000 0.000000 0.000000
# 4 0.000000 0.000000 0.000000 0.321561 0.000000 0.000000
# 5 0.000000 0.000000 0.000000 0.000000 0.200646 0.000000
# 6 0.000000 0.000000 0.000000 0.000000 0.000000 0.031164
#
#
# Mechanical properties :
#
#
# Convention : Reuss Voigt Hill
#
# Bulk Modulus (GPa) = 59.57318 66.48045 63.02681
# Shear Modulus (GPa) = 8.26392 25.01285 16.63839
#
# Velocity S-wave (km/s) = 2.02319 3.51986 2.87078
# Velocity P-wave (km/s) = 5.91317 7.03195 6.49669
#
# Compressibility (1/GPa) = 0.01678608
#
# Stress axis : x y z
#
# Youngs Moduli (GPa) = 79.08416 83.82344 145.87368
#
# Poissons Ratio (x) = 0.21137 0.44226
# Poissons Ratio (y) = 0.19942 0.25797
# Poissons Ratio (z) = 0.23977 0.14824
#
# Static dielectric constant tensor:
#      x y z
#    x 3.594470 0.000000 0.000000 
#    y 0.000000 3.952250 0.000000 
#    z 0.000000 0.000000 4.172460 
# 
# 
# High freq. dielectric constant tensor:
#      x y z
#    x 1.770680 0.000000 0.000000 
#    y 0.000000 1.800590 0.000000 
#    z 0.000000 0.000000 1.785490 
# 
# From -- ./inp_files/18288.got.cif
#   From: 2010.03.12/outbox.cif.g09.slc.cpg/sg56_10_cif.got.tgz:18288.got - 2010.04.16 15:33:40.
