data_PCOD8228740
_publ_section_title
;
Structure prediction by ZEFSAII (Michael W. Deem and Ramdas Pophale) SiO2 
 PCOD8228740
Probable space group: P C C N
;
_chemical_formula_sum "Si O2"
_cell_formula_units_Z 32
_cell_length_a 8.604621
_cell_length_b 14.974842
_cell_length_c 13.453331
_cell_angle_alpha 90.000000
_cell_angle_beta 90.000000
_cell_angle_gamma 90.000000
_cell_volume 1733.499906
_symmetry_space_group_name_H-M "P C C N"
_symmetry_group_IT_number 56
_symmetry_cell_setting 'orthorhombic'
loop_
_space_group_symop_operation_xyz
x,y,z
1/2-x,1/2-y,z
1/2+x,-y,1/2-z
-x,1/2+y,1/2-z
-x,-y,-z
1/2+x,1/2+y,-z
1/2-x,y,1/2+z
x,1/2-y,1/2+z
loop_
_atom_site_type_symbol
_atom_site_label
_atom_site_fract_x
_atom_site_fract_y
_atom_site_fract_z
Si Si1 0.881561 0.179977 0.974276
Si Si2 0.430708 0.264588 0.802712
Si Si3 0.121253 0.927255 0.212195
Si Si4 0.432907 0.896646 0.315451
O O1 0.750000 0.250000 0.006409
O O2 0.815112 0.106525 0.895667
O O3 0.024781 0.232173 0.920173
O O4 0.946970 0.129659 0.069710
O O5 0.250000 0.250000 0.785891
O O6 0.485716 0.358209 0.751928
O O7 0.529585 0.186761 0.753358
O O8 0.258860 0.929212 0.292322
O O9 0.055483 0.026174 0.205819
#
# Coordination Sequence:
#
# PCOD8228740 Si02
#       4
#     8   8   8   8
#     4  10  21  40  63  87 124 161 207 253 311 361
#     4  10  21  39  59  91 124 161 208 256 301 376
#     4  10  22  39  61  95 119 163 211 249 311 375
#     4  12  21  41  66  88 129 165 200 264 309 364
#
# _framework density 18.459765999999998
#
# number of rings (size 3 to 8) (size 9 to 14) (size 15 to 20)
#    1.500    0.000    2.500    4.500    0.000    1.000 
#    0.000    3.750    0.000    0.000    0.000    0.000 
#    0.000    0.000    0.000    0.000    0.000    0.000 
#
# Total GULP energy -396639.695615 kJ/mol
# GULP energy per Si atom -12394.990488 kJ/mol
# Density = 1.841775 g / cm^3
# Si number density = 18.459766 Si / 1000 Ang^3
#
#
#
# Elastic Constant Matrix: (Units=GPa)
#
#
# Indices 1 2 3 4 5 6 
#
# 1 50.1436 -19.3284 16.9074 0.0000 0.0000 0.0000
# 2 -19.3284 66.4787 28.0821 0.0000 0.0000 0.0000
# 3 16.9074 28.0821 93.5380 0.0000 0.0000 0.0000
# 4 0.0000 0.0000 0.0000 23.3663 0.0000 0.0000
# 5 0.0000 0.0000 0.0000 0.0000 13.1520 0.0000
# 6 0.0000 0.0000 0.0000 0.0000 0.0000 30.5581
#
#
#
# Elastic Compliance Matrix: (Units=1/GPa)
#
#
# Indices 1 2 3 4 5 6 
#
# 1 0.027154 0.011416 -0.008335 0.000000 0.000000 0.000000
# 2 0.011416 0.022027 -0.008676 0.000000 0.000000 0.000000
# 3 -0.008335 -0.008676 0.014802 0.000000 0.000000 0.000000
# 4 0.000000 0.000000 0.000000 0.042797 0.000000 0.000000
# 5 0.000000 0.000000 0.000000 0.000000 0.076034 0.000000
# 6 0.000000 0.000000 0.000000 0.000000 0.000000 0.032725
#
#
# Mechanical properties :
#
#
# Convention : Reuss Voigt Hill
#
# Bulk Modulus (GPa) = 18.94267 29.05359 23.99813
# Shear Modulus (GPa) = 20.46441 25.71521 23.08981
#
# Velocity S-wave (km/s) = 3.33317 3.73640 3.54053
# Velocity P-wave (km/s) = 5.00971 5.86406 5.45364
#
# Compressibility (1/GPa) = 0.05279086
#
# Stress axis : x y z
#
# Youngs Moduli (GPa) = 36.82746 45.39962 67.55695
#
# Poissons Ratio (x) = -0.51828 0.56312
# Poissons Ratio (y) = -0.42042 0.58615
# Poissons Ratio (z) = 0.30697 0.39390
#
# Static dielectric constant tensor:
#      x y z
#    x 3.181490 0.000000 0.000000 
#    y 0.000000 3.413360 0.000000 
#    z 0.000000 0.000000 3.192750 
# 
# 
# High freq. dielectric constant tensor:
#      x y z
#    x 1.707500 0.000000 0.000000 
#    y 0.000000 1.725180 0.000000 
#    z 0.000000 0.000000 1.703880 
# 
# From -- ./inp_files/5984.got.cif
#   From: 2010.03.12/outbox.cif.g09.slc.cpg/sg56_3_cif.got.tgz:5984.got - 2010.04.16 15:33:40.
