data_PCOD8228671
_publ_section_title
;
Structure prediction by ZEFSAII (Michael W. Deem and Ramdas Pophale) SiO2 
 PCOD8228671
Probable space group: P C C N
;
_chemical_formula_sum "Si O2"
_cell_formula_units_Z 60
_cell_length_a 18.346627
_cell_length_b 5.297752
_cell_length_c 26.885819
_cell_angle_alpha 90.000000
_cell_angle_beta 90.000000
_cell_angle_gamma 90.000000
_cell_volume 2613.190834
_symmetry_space_group_name_H-M "P C C N"
_symmetry_group_IT_number 56
_symmetry_cell_setting 'orthorhombic'
loop_
_space_group_symop_operation_xyz
x,y,z
1/2-x,1/2-y,z
1/2+x,-y,1/2-z
-x,1/2+y,1/2-z
-x,-y,-z
1/2+x,1/2+y,-z
1/2-x,y,1/2+z
x,1/2-y,1/2+z
loop_
_atom_site_type_symbol
_atom_site_label
_atom_site_fract_x
_atom_site_fract_y
_atom_site_fract_z
Si Si1 0.892772 0.345990 0.026502
Si Si2 0.663124 0.760820 0.689490
Si Si3 0.164885 0.661902 0.565098
Si Si4 0.957856 0.868975 0.264305
Si Si5 0.898644 0.550975 0.870927
Si Si6 0.835112 0.239060 0.634751
Si Si7 0.546454 0.725819 0.968672
Si Si8 0.750000 0.750000 0.893259
O O1 0.852469 0.320988 0.078187
O O2 0.961011 0.139287 0.025408
O O3 0.831157 0.346559 0.982755
O O4 0.932878 0.614285 0.018254
O O5 0.750000 0.750000 0.699300
O O6 0.621348 0.811971 0.740971
O O7 0.634432 0.493133 0.668021
O O8 0.637082 0.986217 0.652462
O O9 0.135682 0.775858 0.617248
O O10 0.104724 0.484993 0.541104
O O11 0.242009 0.510899 0.573993
O O12 0.006064 0.614563 0.261334
O O13 0.946452 0.942692 0.321707
O O14 0.950881 0.610628 0.917236
O O15 0.826982 0.736398 0.864466
O O16 0.750000 0.250000 0.641828
#
# Coordination Sequence:
#
# PCOD8228671 Si02
#       8
#     8   8   8   8   8   8   8   4
#     4  10  21  36  63  93 131 183 222 277 339 412
#     4  10  24  48  69 100 140 182 231 288 350 423
#     4  10  21  40  62  97 133 174 229 280 336 419
#     4  12  29  47  74 110 137 180 238 299 360 421
#     4  10  24  42  66  95 134 178 228 290 361 417
#     4  10  23  42  67  97 131 179 230 280 340 403
#     4   9  21  38  59  94 131 174 226 271 349 416
#     4  10  22  42  66  94 136 178 228 286 348 424
#
# _framework density 22.960436000000001
#
# number of rings (size 3 to 8) (size 9 to 14) (size 15 to 20)
#    0.000    1.867    0.000    1.600   10.267    3.200 
#    1.200    1.333    0.000    0.000    0.000    0.000 
#    0.000    0.000    0.000    0.000    0.000    0.000 
#
# Total GULP energy -743289.388541 kJ/mol
# GULP energy per Si atom -12388.156476 kJ/mol
# Density = 2.290818 g / cm^3
# Si number density = 22.960436 Si / 1000 Ang^3
#
#
#
# Elastic Constant Matrix: (Units=GPa)
#
#
# Indices 1 2 3 4 5 6 
#
# 1 75.3877 32.8730 38.1005 0.0000 0.0000 0.0000
# 2 32.8730 76.2685 14.3357 0.0000 0.0000 0.0000
# 3 38.1005 14.3357 113.3142 0.0000 0.0000 0.0000
# 4 0.0000 0.0000 0.0000 24.6798 0.0000 0.0000
# 5 0.0000 0.0000 0.0000 0.0000 38.1465 0.0000
# 6 0.0000 0.0000 0.0000 0.0000 0.0000 34.1046
#
#
#
# Elastic Compliance Matrix: (Units=1/GPa)
#
#
# Indices 1 2 3 4 5 6 
#
# 1 0.019228 -0.007245 -0.005549 0.000000 0.000000 0.000000
# 2 -0.007245 0.016161 0.000391 0.000000 0.000000 0.000000
# 3 -0.005549 0.000391 0.010641 0.000000 0.000000 0.000000
# 4 0.000000 0.000000 0.000000 0.040519 0.000000 0.000000
# 5 0.000000 0.000000 0.000000 0.000000 0.026215 0.000000
# 6 0.000000 0.000000 0.000000 0.000000 0.000000 0.029322
#
#
# Mechanical properties :
#
#
# Convention : Reuss Voigt Hill
#
# Bulk Modulus (GPa) = 47.11208 48.39875 47.75541
# Shear Modulus (GPa) = 28.74153 31.36359 30.05256
#
# Velocity S-wave (km/s) = 3.54190 3.69993 3.62178
# Velocity P-wave (km/s) = 6.10656 6.27516 6.19143
#
# Compressibility (1/GPa) = 0.02122598
#
# Stress axis : x y z
#
# Youngs Moduli (GPa) = 52.00722 61.87903 93.97458
#
# Poissons Ratio (x) = 0.44829 0.52143
# Poissons Ratio (y) = 0.37678 -0.03678
# Poissons Ratio (z) = 0.28857 -0.02422
#
# Static dielectric constant tensor:
#      x y z
#    x 4.536810 0.000000 0.000000 
#    y 0.000000 4.782260 0.000000 
#    z 0.000000 0.000000 3.966000 
# 
# 
# High freq. dielectric constant tensor:
#      x y z
#    x 1.921740 0.000000 0.000000 
#    y 0.000000 1.926860 0.000000 
#    z 0.000000 0.000000 1.885510 
# 
# From -- ./inp_files/22545.got.cif
#   From: 2010.03.12/outbox.cif.g09.slc.cpg/sg56_12_cif.got.tgz:22545.got - 2010.04.16 15:33:40.
