data_PCOD8228121
_publ_section_title
;
Structure prediction by ZEFSAII (Michael W. Deem and Ramdas Pophale) SiO2 
 PCOD8228121
Probable space group: P C C N
;
_chemical_formula_sum "Si O2"
_cell_formula_units_Z 64
_cell_length_a 13.141976
_cell_length_b 12.074479
_cell_length_c 22.125501
_cell_angle_alpha 90.000000
_cell_angle_beta 90.000000
_cell_angle_gamma 90.000000
_cell_volume 3510.930105
_symmetry_space_group_name_H-M "P C C N"
_symmetry_group_IT_number 56
_symmetry_cell_setting 'orthorhombic'
loop_
_space_group_symop_operation_xyz
x,y,z
1/2-x,1/2-y,z
1/2+x,-y,1/2-z
-x,1/2+y,1/2-z
-x,-y,-z
1/2+x,1/2+y,-z
1/2-x,y,1/2+z
x,1/2-y,1/2+z
loop_
_atom_site_type_symbol
_atom_site_label
_atom_site_fract_x
_atom_site_fract_y
_atom_site_fract_z
Si Si1 0.766112 0.512451 0.707355
Si Si2 0.392219 0.469722 0.973779
Si Si3 0.214515 0.129589 0.085711
Si Si4 0.459448 0.208339 0.672967
Si Si5 0.331673 0.839893 0.384302
Si Si6 0.855973 0.804111 0.126544
Si Si7 0.125881 0.051467 0.673249
Si Si8 0.048144 0.111377 0.302949
O O1 0.787764 0.395379 0.676252
O O2 0.835842 0.607429 0.678716
O O3 0.794936 0.508054 0.777135
O O4 0.648069 0.537273 0.700383
O O5 0.342621 0.571065 0.937621
O O6 0.406902 0.362968 0.930925
O O7 0.500000 0.500000 0.000000
O O8 0.318797 0.441456 0.028767
O O9 0.250000 0.250000 0.063434
O O10 0.126972 0.141357 0.136499
O O11 0.311067 0.063114 0.111688
O O12 0.559603 0.215125 0.631138
O O13 0.421486 0.329982 0.690846
O O14 0.484491 0.144969 0.735218
O O15 0.250000 0.750000 0.406923
O O16 0.750000 0.750000 0.105583
O O17 0.934924 0.715973 0.153455
O O18 0.038315 0.960994 0.665071
#
# Coordination Sequence:
#
# PCOD8228121 Si02
#       8
#     8   8   8   8   8   8   8   8
#     4  10  19  34  59  87 119 158 196 237 295 369
#     4  11  22  42  64  83 113 160 212 241 287 365
#     4  10  22  39  62  87 115 155 208 252 297 348
#     4  11  20  35  61  87 121 159 197 241 297 372
#     4  11  23  40  58  87 124 163 196 247 313 355
#     4   9  20  36  62  85 112 153 199 243 287 345
#     4  11  21  34  57  92 123 153 196 250 302 351
#     4  11  20  35  58  91 124 150 197 248 298 362
#
# _framework density 18.228788000000002
#
# number of rings (size 3 to 8) (size 9 to 14) (size 15 to 20)
#    0.000    1.500    5.000    1.125    0.000    0.000 
#    2.250    0.000    0.000    5.250    0.000    0.000 
#    0.000    0.000    0.000    0.000    0.000    0.000 
#
# Total GULP energy -793782.567379 kJ/mol
# GULP energy per Si atom -12402.852615 kJ/mol
# Density = 1.818730 g / cm^3
# Si number density = 18.228788 Si / 1000 Ang^3
#
#
#
# Elastic Constant Matrix: (Units=GPa)
#
#
# Indices 1 2 3 4 5 6 
#
# 1 102.3593 44.9746 45.4238 0.0000 0.0000 0.0000
# 2 44.9746 83.2473 48.8279 0.0000 0.0000 0.0000
# 3 45.4238 48.8279 101.1540 0.0000 0.0000 0.0000
# 4 0.0000 0.0000 0.0000 23.7336 0.0000 0.0000
# 5 0.0000 0.0000 0.0000 0.0000 24.0822 0.0000
# 6 0.0000 0.0000 0.0000 0.0000 0.0000 38.2226
#
#
#
# Elastic Compliance Matrix: (Units=1/GPa)
#
#
# Indices 1 2 3 4 5 6 
#
# 1 0.013687 -0.005286 -0.003595 0.000000 0.000000 0.000000
# 2 -0.005286 0.018798 -0.006700 0.000000 0.000000 0.000000
# 3 -0.003595 -0.006700 0.014734 0.000000 0.000000 0.000000
# 4 0.000000 0.000000 0.000000 0.042134 0.000000 0.000000
# 5 0.000000 0.000000 0.000000 0.000000 0.041524 0.000000
# 6 0.000000 0.000000 0.000000 0.000000 0.000000 0.026163
#
#
# Mechanical properties :
#
#
# Convention : Reuss Voigt Hill
#
# Bulk Modulus (GPa) = 62.27546 62.80146 62.53846
# Shear Modulus (GPa) = 25.83227 27.04330 26.43779
#
# Velocity S-wave (km/s) = 3.76854 3.85587 3.81245
# Velocity P-wave (km/s) = 7.29200 7.37226 7.33224
#
# Compressibility (1/GPa) = 0.01605769
#
# Stress axis : x y z
#
# Youngs Moduli (GPa) = 73.06001 53.19636 67.86837
#
# Poissons Ratio (x) = 0.28121 0.24397
# Poissons Ratio (y) = 0.38621 0.45474
# Poissons Ratio (z) = 0.26263 0.35643
#
# Static dielectric constant tensor:
#      x y z
#    x 3.326620 0.000000 0.000000 
#    y 0.000000 3.310610 0.000000 
#    z 0.000000 0.000000 3.314440 
# 
# 
# High freq. dielectric constant tensor:
#      x y z
#    x 1.709240 0.000000 0.000000 
#    y 0.000000 1.703880 0.000000 
#    z 0.000000 0.000000 1.701170 
# 
# From -- ./inp_files/21022.got.cif
#   From: 2010.03.12/outbox.cif.g09.slc.cpg/sg56_11_cif.got.tgz:21022.got - 2010.04.16 15:33:40.
