data_PCOD8228048
_publ_section_title
;
Structure prediction by ZEFSAII (Michael W. Deem and Ramdas Pophale) SiO2 
 PCOD8228048
Probable space group: P C C N
;
_chemical_formula_sum "Si O2"
_cell_formula_units_Z 56
_cell_length_a 14.808445
_cell_length_b 12.623649
_cell_length_c 14.698583
_cell_angle_alpha 90.000000
_cell_angle_beta 90.000000
_cell_angle_gamma 90.000000
_cell_volume 2747.703306
_symmetry_space_group_name_H-M "P C C N"
_symmetry_group_IT_number 56
_symmetry_cell_setting 'orthorhombic'
loop_
_space_group_symop_operation_xyz
x,y,z
1/2-x,1/2-y,z
1/2+x,-y,1/2-z
-x,1/2+y,1/2-z
-x,-y,-z
1/2+x,1/2+y,-z
1/2-x,y,1/2+z
x,1/2-y,1/2+z
loop_
_atom_site_type_symbol
_atom_site_label
_atom_site_fract_x
_atom_site_fract_y
_atom_site_fract_z
Si Si1 0.747477 0.129086 0.538701
Si Si2 0.415827 0.004732 0.936272
Si Si3 0.146837 0.215557 0.733730
Si Si4 0.452581 0.429667 0.242358
Si Si5 0.188755 0.341222 0.042262
Si Si6 0.291764 0.973698 0.637126
Si Si7 0.651583 0.017302 0.702733
O O1 0.750000 0.250000 0.572084
O O2 0.705250 0.122609 0.436079
O O3 0.691329 0.052701 0.606046
O O4 0.851296 0.092642 0.538735
O O5 0.446625 0.000093 0.832851
O O6 0.367984 0.116854 0.957351
O O7 0.500000 0.000000 0.000000
O O8 0.250000 0.250000 0.744111
O O9 0.081200 0.310533 0.763539
O O10 0.125727 0.195120 0.626723
O O11 0.132450 0.109376 0.793648
O O12 0.391608 0.493693 0.170068
O O13 0.556566 0.422368 0.212978
O O14 0.250000 0.250000 0.999822
O O15 0.255886 0.428631 0.080261
O O16 0.223985 0.947712 0.720413
#
# Coordination Sequence:
#
# PCOD8228048 Si02
#       7
#     8   8   8   8   8   8   8
#     4  11  25  45  68  91 138 185 221 275 341 404
#     4  11  23  41  65  95 127 173 228 272 326 412
#     4  10  18  40  65  93 129 174 219 276 341 398
#     4  12  22  40  69  97 135 175 221 285 346 399
#     4   9  17  35  63  89 124 164 208 274 324 385
#     4  10  21  44  63  93 132 168 223 274 327 401
#     4  11  24  43  66 100 135 172 227 280 337 410
#
# _framework density 20.380656999999999
#
# number of rings (size 3 to 8) (size 9 to 14) (size 15 to 20)
#    0.000    1.429    5.714    2.571    0.000    6.286 
#    5.143    0.000    0.000    0.000    0.000    0.000 
#    0.000    0.000    0.000    0.000    0.000    0.000 
#
# Total GULP energy -694256.753149 kJ/mol
# GULP energy per Si atom -12397.442021 kJ/mol
# Density = 2.033427 g / cm^3
# Si number density = 20.380657 Si / 1000 Ang^3
#
#
#
# Elastic Constant Matrix: (Units=GPa)
#
#
# Indices 1 2 3 4 5 6 
#
# 1 119.6847 34.6800 35.9058 0.0000 0.0000 0.0000
# 2 34.6800 99.8872 21.3918 0.0000 0.0000 0.0000
# 3 35.9058 21.3918 96.2551 0.0000 0.0000 0.0000
# 4 0.0000 0.0000 0.0000 25.8515 0.0000 0.0000
# 5 0.0000 0.0000 0.0000 0.0000 29.7514 0.0000
# 6 0.0000 0.0000 0.0000 0.0000 0.0000 24.0990
#
#
#
# Elastic Compliance Matrix: (Units=1/GPa)
#
#
# Indices 1 2 3 4 5 6 
#
# 1 0.010122 -0.002841 -0.003144 0.000000 0.000000 0.000000
# 2 -0.002841 0.011309 -0.001454 0.000000 0.000000 0.000000
# 3 -0.003144 -0.001454 0.011885 0.000000 0.000000 0.000000
# 4 0.000000 0.000000 0.000000 0.038683 0.000000 0.000000
# 5 0.000000 0.000000 0.000000 0.000000 0.033612 0.000000
# 6 0.000000 0.000000 0.000000 0.000000 0.000000 0.041496
#
#
# Mechanical properties :
#
#
# Convention : Reuss Voigt Hill
#
# Bulk Modulus (GPa) = 54.23524 55.53134 54.88329
# Shear Modulus (GPa) = 29.73905 30.86368 30.30137
#
# Velocity S-wave (km/s) = 3.82407 3.89570 3.86005
# Velocity P-wave (km/s) = 6.79462 6.89504 6.84501
#
# Compressibility (1/GPa) = 0.01843820
#
# Stress axis : x y z
#
# Youngs Moduli (GPa) = 98.79709 88.42596 84.13944
#
# Poissons Ratio (x) = 0.25120 0.26456
# Poissons Ratio (y) = 0.28066 0.12230
# Poissons Ratio (z) = 0.31065 0.12854
#
# Static dielectric constant tensor:
#      x y z
#    x 3.526790 0.000000 0.000000 
#    y 0.000000 4.808020 0.000000 
#    z 0.000000 0.000000 3.231680 
# 
# 
# High freq. dielectric constant tensor:
#      x y z
#    x 1.789130 0.000000 0.000000 
#    y 0.000000 1.788630 0.000000 
#    z 0.000000 0.000000 1.799940 
# 
# From -- ./inp_files/12292.got.cif
#   From: 2010.03.12/outbox.cif.g09.slc.cpg/sg56_7_cif.got.tgz:12292.got - 2010.04.16 15:33:40.
