data_PCOD8228443
_publ_section_title
;
Structure prediction by ZEFSAII (Michael W. Deem and Ramdas Pophale) SiO2 
 PCOD8228443
Probable space group: P C C N
;
_chemical_formula_sum "Si O2"
_cell_formula_units_Z 60
_cell_length_a 27.226852
_cell_length_b 8.691963
_cell_length_c 11.283510
_cell_angle_alpha 90.000000
_cell_angle_beta 90.000000
_cell_angle_gamma 90.000000
_cell_volume 2670.296692
_symmetry_space_group_name_H-M "P C C N"
_symmetry_group_IT_number 56
_symmetry_cell_setting 'orthorhombic'
loop_
_space_group_symop_operation_xyz
x,y,z
1/2-x,1/2-y,z
1/2+x,-y,1/2-z
-x,1/2+y,1/2-z
-x,-y,-z
1/2+x,1/2+y,-z
1/2-x,y,1/2+z
x,1/2-y,1/2+z
loop_
_atom_site_type_symbol
_atom_site_label
_atom_site_fract_x
_atom_site_fract_y
_atom_site_fract_z
Si Si1 0.250000 0.250000 0.303997
Si Si2 0.917554 0.057135 0.933895
Si Si3 0.350479 0.806423 0.755883
Si Si4 0.833099 0.928705 0.582525
Si Si5 0.677139 0.522883 0.307490
Si Si6 0.049254 0.747303 0.867882
Si Si7 0.598609 0.830257 0.637651
Si Si8 0.494402 0.471515 0.768715
O O1 0.208407 0.197219 0.395052
O O2 0.227270 0.384933 0.221220
O O3 0.871804 0.139911 0.870732
O O4 0.955923 0.987724 0.841021
O O5 0.953391 0.175920 0.004022
O O6 0.893208 0.928924 0.017629
O O7 0.318168 0.652994 0.738970
O O8 0.394010 0.786320 0.849826
O O9 0.319500 0.938226 0.822233
O O10 0.831961 0.985207 0.447938
O O11 0.885681 0.846164 0.611335
O O12 0.630473 0.602601 0.246197
O O13 0.013486 0.598862 0.856637
O O14 0.034962 0.868176 0.761405
O O15 0.541261 0.842239 0.672246
#
# Coordination Sequence:
#
# PCOD8228443 Si02
#       8
#     4   8   8   8   8   8   8   8
#     4  10  26  50  70 106 132 158 222 278 344 422
#     4  10  21  39  62  90 140 180 223 281 330 379
#     4  11  23  42  66  99 133 176 222 270 332 409
#     4  11  26  44  73 101 129 175 221 274 351 409
#     4  11  23  45  71  97 136 167 219 276 336 411
#     4  10  20  38  54  91 130 175 229 265 323 378
#     4  10  22  39  65  96 132 181 229 279 325 395
#     4  10  21  35  60  87 134 181 225 282 318 378
#
# _framework density 22.469412999999999
#
# number of rings (size 3 to 8) (size 9 to 14) (size 15 to 20)
#    0.000    1.600    2.667    2.800    7.467    1.600 
#    0.000    2.667    0.000    0.000    0.000    0.000 
#    0.000    0.000    0.000    0.000    0.000    0.000 
#
# Total GULP energy -743568.195900 kJ/mol
# GULP energy per Si atom -12392.803265 kJ/mol
# Density = 2.241827 g / cm^3
# Si number density = 22.469413 Si / 1000 Ang^3
#
#
#
# Elastic Constant Matrix: (Units=GPa)
#
#
# Indices 1 2 3 4 5 6 
#
# 1 67.9151 22.3238 10.1472 0.0000 0.0000 0.0000
# 2 22.3238 82.1541 37.4893 0.0000 0.0000 0.0000
# 3 10.1472 37.4893 94.3379 0.0000 0.0000 0.0000
# 4 0.0000 0.0000 0.0000 30.5888 0.0000 0.0000
# 5 0.0000 0.0000 0.0000 0.0000 24.2021 0.0000
# 6 0.0000 0.0000 0.0000 0.0000 0.0000 39.1789
#
#
#
# Elastic Compliance Matrix: (Units=1/GPa)
#
#
# Indices 1 2 3 4 5 6 
#
# 1 0.016168 -0.004397 0.000008 0.000000 0.000000 0.000000
# 2 -0.004397 0.016064 -0.005911 0.000000 0.000000 0.000000
# 3 0.000008 -0.005911 0.012948 0.000000 0.000000 0.000000
# 4 0.000000 0.000000 0.000000 0.032692 0.000000 0.000000
# 5 0.000000 0.000000 0.000000 0.000000 0.041319 0.000000
# 6 0.000000 0.000000 0.000000 0.000000 0.000000 0.025524
#
#
# Mechanical properties :
#
#
# Convention : Reuss Voigt Hill
#
# Bulk Modulus (GPa) = 40.68116 42.70308 41.69212
# Shear Modulus (GPa) = 28.81694 30.42375 29.62034
#
# Velocity S-wave (km/s) = 3.58508 3.68368 3.63471
# Velocity P-wave (km/s) = 5.93982 6.09417 6.01749
#
# Compressibility (1/GPa) = 0.02458140
#
# Stress axis : x y z
#
# Youngs Moduli (GPa) = 61.84898 62.24924 77.23045
#
# Poissons Ratio (x) = 0.27373 -0.00064
# Poissons Ratio (y) = 0.27197 0.45650
# Poissons Ratio (z) = -0.00051 0.36795
#
# Static dielectric constant tensor:
#      x y z
#    x 3.895740 0.000000 0.000000 
#    y 0.000000 4.215850 0.000000 
#    z 0.000000 0.000000 3.849240 
# 
# 
# High freq. dielectric constant tensor:
#      x y z
#    x 1.872880 0.000000 0.000000 
#    y 0.000000 1.888890 0.000000 
#    z 0.000000 0.000000 1.875030 
# 
# From -- ./inp_files/9073.got.cif
#   From: 2010.03.12/outbox.cif.g09.slc.cpg/sg56_5_cif.got.tgz:9073.got - 2010.04.16 15:33:40.
