data_PCOD8228211
_publ_section_title
;
Structure prediction by ZEFSAII (Michael W. Deem and Ramdas Pophale) SiO2 
 PCOD8228211
Probable space group: P C C N
;
_chemical_formula_sum "Si O2"
_cell_formula_units_Z 48
_cell_length_a 8.894819
_cell_length_b 8.111019
_cell_length_c 26.752460
_cell_angle_alpha 90.000000
_cell_angle_beta 90.000000
_cell_angle_gamma 90.000000
_cell_volume 1930.084207
_symmetry_space_group_name_H-M "P C C N"
_symmetry_group_IT_number 56
_symmetry_cell_setting 'orthorhombic'
loop_
_space_group_symop_operation_xyz
x,y,z
1/2-x,1/2-y,z
1/2+x,-y,1/2-z
-x,1/2+y,1/2-z
-x,-y,-z
1/2+x,1/2+y,-z
1/2-x,y,1/2+z
x,1/2-y,1/2+z
loop_
_atom_site_type_symbol
_atom_site_label
_atom_site_fract_x
_atom_site_fract_y
_atom_site_fract_z
Si Si1 0.509718 0.164353 0.438790
Si Si2 0.078653 0.218014 0.274814
Si Si3 0.143017 0.595994 0.659950
Si Si4 0.245650 0.513871 0.493482
Si Si5 0.513955 0.547651 0.429678
Si Si6 0.925671 0.900622 0.319841
O O1 0.557501 0.050085 0.391718
O O2 0.348049 0.114146 0.460009
O O3 0.503236 0.351695 0.420205
O O4 0.634585 0.146950 0.481994
O O5 0.250000 0.250000 0.290989
O O6 0.056587 0.237879 0.214561
O O7 0.978641 0.364064 0.298088
O O8 0.026441 0.042657 0.294805
O O9 0.250000 0.750000 0.647458
O O10 0.248797 0.448287 0.679494
O O11 0.364730 0.609806 0.458019
O O12 0.340849 0.412872 0.535729
O O13 0.522694 0.638948 0.376325
#
# Coordination Sequence:
#
# PCOD8228211 Si02
#       6
#     8   8   8   8   8   8
#     4  11  19  39  66  90 127 173 220 261 325 407
#     4  11  24  41  69 103 127 173 233 278 327 400
#     4  10  19  38  66  91 122 175 215 262 334 396
#     4  10  23  34  63  99 122 160 226 267 309 395
#     4  11  21  41  66  94 131 178 216 270 333 406
#     4  11  23  43  71  99 135 178 219 280 343 398
#
# _framework density 24.869381000000001
#
# number of rings (size 3 to 8) (size 9 to 14) (size 15 to 20)
#    0.000    1.333    5.000    2.000    2.333    0.000 
#    0.000    3.333   14.667    0.000    0.000    0.000 
#    0.000    0.000    0.000    0.000    0.000    0.000 
#
# Total GULP energy -595168.983188 kJ/mol
# GULP energy per Si atom -12399.353816 kJ/mol
# Density = 2.481278 g / cm^3
# Si number density = 24.869381 Si / 1000 Ang^3
#
#
#
# Elastic Constant Matrix: (Units=GPa)
#
#
# Indices 1 2 3 4 5 6 
#
# 1 135.3889 8.1822 72.1633 0.0000 0.0000 0.0000
# 2 8.1822 15.0251 15.5063 0.0000 0.0000 0.0000
# 3 72.1633 15.5063 179.4374 0.0000 0.0000 0.0000
# 4 0.0000 0.0000 0.0000 29.7409 0.0000 0.0000
# 5 0.0000 0.0000 0.0000 0.0000 38.8631 0.0000
# 6 0.0000 0.0000 0.0000 0.0000 0.0000 29.8322
#
#
#
# Elastic Compliance Matrix: (Units=1/GPa)
#
#
# Indices 1 2 3 4 5 6 
#
# 1 0.009426 -0.001340 -0.003675 0.000000 0.000000 0.000000
# 2 -0.001340 0.073263 -0.005792 0.000000 0.000000 0.000000
# 3 -0.003675 -0.005792 0.007551 0.000000 0.000000 0.000000
# 4 0.000000 0.000000 0.000000 0.033624 0.000000 0.000000
# 5 0.000000 0.000000 0.000000 0.000000 0.025731 0.000000
# 6 0.000000 0.000000 0.000000 0.000000 0.000000 0.033521
#
#
# Mechanical properties :
#
#
# Convention : Reuss Voigt Hill
#
# Bulk Modulus (GPa) = 14.57184 57.95056 36.26120
# Shear Modulus (GPa) = 21.96777 35.28720 28.62748
#
# Velocity S-wave (km/s) = 2.97530 3.77092 3.39649
# Velocity P-wave (km/s) = 4.20420 6.50479 5.47666
#
# Compressibility (1/GPa) = 0.06862551
#
# Stress axis : x y z
#
# Youngs Moduli (GPa) = 106.09059 13.64946 132.42534
#
# Poissons Ratio (x) = 0.01830 0.48665
# Poissons Ratio (y) = 0.14221 0.76701
# Poissons Ratio (z) = 0.38988 0.07906
#
# Static dielectric constant tensor:
#      x y z
#    x 4.841320 0.000000 0.000000 
#    y 0.000000 4.000930 0.000000 
#    z 0.000000 0.000000 4.658310 
# 
# 
# High freq. dielectric constant tensor:
#      x y z
#    x 2.003400 0.000000 0.000000 
#    y 0.000000 1.962270 0.000000 
#    z 0.000000 0.000000 2.002460 
# 
# From -- ./inp_files/20501.got.cif
#   From: 2010.03.12/outbox.cif.g09.slc.cpg/sg56_11_cif.got.tgz:20501.got - 2010.04.16 15:33:40.
