data_PCOD8228484
_publ_section_title
;
Structure prediction by ZEFSAII (Michael W. Deem and Ramdas Pophale) SiO2 
 PCOD8228484
Probable space group: P C C N
;
_chemical_formula_sum "Si O2"
_cell_formula_units_Z 64
_cell_length_a 15.063085
_cell_length_b 12.068558
_cell_length_c 17.457707
_cell_angle_alpha 90.000000
_cell_angle_beta 90.000000
_cell_angle_gamma 90.000000
_cell_volume 3173.631580
_symmetry_space_group_name_H-M "P C C N"
_symmetry_group_IT_number 56
_symmetry_cell_setting 'orthorhombic'
loop_
_space_group_symop_operation_xyz
x,y,z
1/2-x,1/2-y,z
1/2+x,-y,1/2-z
-x,1/2+y,1/2-z
-x,-y,-z
1/2+x,1/2+y,-z
1/2-x,y,1/2+z
x,1/2-y,1/2+z
loop_
_atom_site_type_symbol
_atom_site_label
_atom_site_fract_x
_atom_site_fract_y
_atom_site_fract_z
Si Si1 0.519211 0.213953 0.784338
Si Si2 0.853977 0.509853 0.506445
Si Si3 0.926713 0.127468 0.649958
Si Si4 0.107158 0.453987 0.735084
Si Si5 0.008335 0.579229 0.610576
Si Si6 0.590931 0.025634 0.881313
Si Si7 0.694053 0.354212 0.512531
Si Si8 0.743055 0.623221 0.877320
O O1 0.541290 0.270363 0.702843
O O2 0.421691 0.161229 0.774011
O O3 0.514883 0.297876 0.855221
O O4 0.583799 0.110946 0.809185
O O5 0.918229 0.430291 0.456445
O O6 0.767965 0.444381 0.536170
O O7 0.814589 0.609457 0.454765
O O8 0.909586 0.559708 0.577128
O O9 0.862517 0.180851 0.586739
O O10 0.869247 0.047650 0.703654
O O11 0.001222 0.047706 0.610758
O O12 0.026688 0.491910 0.678414
O O13 0.197362 0.441773 0.690843
O O14 0.660963 0.928595 0.874267
O O15 0.620710 0.099744 0.953544
O O16 0.750000 0.250000 0.479440
O O17 0.750000 0.750000 0.857634
#
# Coordination Sequence:
#
# PCOD8228484 Si02
#       8
#     8   8   8   8   8   8   8   8
#     4  10  20  38  63  91 115 164 205 245 314 374
#     4   9  20  38  59  87 114 156 200 255 299 372
#     4  10  22  40  59  91 125 163 204 258 313 375
#     4   9  20  37  57  84 119 151 203 244 300 373
#     4   9  18  38  63  81 117 156 199 246 308 366
#     4  10  22  42  65  86 129 167 205 254 316 381
#     4  11  23  38  60  95 126 157 211 265 318 367
#     4  10  20  39  60  86 116 159 202 243 302 371
#
# _framework density 20.166172
#
# number of rings (size 3 to 8) (size 9 to 14) (size 15 to 20)
#    0.000    2.250    0.000    1.875    1.750    2.000 
#   22.500    0.000    0.000    0.000    0.000    0.000 
#    0.000    0.000    0.000    0.000    0.000    0.000 
#
# Total GULP energy -792996.973122 kJ/mol
# GULP energy per Si atom -12390.577705 kJ/mol
# Density = 2.012027 g / cm^3
# Si number density = 20.166172 Si / 1000 Ang^3
#
#
#
# Elastic Constant Matrix: (Units=GPa)
#
#
# Indices 1 2 3 4 5 6 
#
# 1 64.8857 8.7723 26.7950 0.0000 0.0000 0.0000
# 2 8.7723 79.7034 17.5003 0.0000 0.0000 0.0000
# 3 26.7950 17.5003 68.7085 0.0000 0.0000 0.0000
# 4 0.0000 0.0000 0.0000 23.1936 0.0000 0.0000
# 5 0.0000 0.0000 0.0000 0.0000 16.8898 0.0000
# 6 0.0000 0.0000 0.0000 0.0000 0.0000 21.6687
#
#
#
# Elastic Compliance Matrix: (Units=1/GPa)
#
#
# Indices 1 2 3 4 5 6 
#
# 1 0.018387 -0.000476 -0.007049 0.000000 0.000000 0.000000
# 2 -0.000476 0.013302 -0.003202 0.000000 0.000000 0.000000
# 3 -0.007049 -0.003202 0.018119 0.000000 0.000000 0.000000
# 4 0.000000 0.000000 0.000000 0.043115 0.000000 0.000000
# 5 0.000000 0.000000 0.000000 0.000000 0.059207 0.000000
# 6 0.000000 0.000000 0.000000 0.000000 0.000000 0.046149
#
#
# Mechanical properties :
#
#
# Convention : Reuss Voigt Hill
#
# Bulk Modulus (GPa) = 35.27004 35.49252 35.38128
# Shear Modulus (GPa) = 21.81625 23.03243 22.42434
#
# Velocity S-wave (km/s) = 3.29268 3.38321 3.33825
# Velocity P-wave (km/s) = 5.65538 5.73583 5.69575
#
# Compressibility (1/GPa) = 0.02835267
#
# Stress axis : x y z
#
# Youngs Moduli (GPa) = 54.38575 75.17637 55.19055
#
# Poissons Ratio (x) = 0.03578 0.38906
# Poissons Ratio (y) = 0.02588 0.17675
# Poissons Ratio (z) = 0.38339 0.24075
#
# Static dielectric constant tensor:
#      x y z
#    x 3.602280 0.000000 0.000000 
#    y 0.000000 -29.131230 0.000000 
#    z 0.000000 0.000000 3.678020 
# 
# 
# High freq. dielectric constant tensor:
#      x y z
#    x 1.781200 0.000000 0.000000 
#    y 0.000000 1.793610 0.000000 
#    z 0.000000 0.000000 1.782300 
# 
# From -- ./inp_files/16355.got.cif
#   From: 2010.03.12/outbox.cif.g09.slc.cpg/sg56_9_cif.got.tgz:16355.got - 2010.04.16 15:33:40.
