data_PCOD8228158
_publ_section_title
;
Structure prediction by ZEFSAII (Michael W. Deem and Ramdas Pophale) SiO2 
 PCOD8228158
Probable space group: P C C N
;
_chemical_formula_sum "Si O2"
_cell_formula_units_Z 48
_cell_length_a 30.783934
_cell_length_b 8.850581
_cell_length_c 8.820332
_cell_angle_alpha 90.000000
_cell_angle_beta 90.000000
_cell_angle_gamma 90.000000
_cell_volume 2403.149741
_symmetry_space_group_name_H-M "P C C N"
_symmetry_group_IT_number 56
_symmetry_cell_setting 'orthorhombic'
loop_
_space_group_symop_operation_xyz
x,y,z
1/2-x,1/2-y,z
1/2+x,-y,1/2-z
-x,1/2+y,1/2-z
-x,-y,-z
1/2+x,1/2+y,-z
1/2-x,y,1/2+z
x,1/2-y,1/2+z
loop_
_atom_site_type_symbol
_atom_site_label
_atom_site_fract_x
_atom_site_fract_y
_atom_site_fract_z
Si Si1 0.452876 0.561370 0.466517
Si Si2 0.869030 0.863712 0.511113
Si Si3 0.648513 0.558051 0.853639
Si Si4 0.339418 0.609296 0.694380
Si Si5 0.916619 0.300127 0.315824
Si Si6 0.704416 0.167768 0.504913
O O1 0.500000 0.500000 0.500000
O O2 0.418116 0.427147 0.493866
O O3 0.450653 0.621462 0.296129
O O4 0.444887 0.711059 0.563354
O O5 0.848538 0.892508 0.677641
O O6 0.865307 0.688351 0.471296
O O7 0.842820 0.941253 0.372307
O O8 0.611714 0.434774 0.886762
O O9 0.695297 0.483465 0.902602
O O10 0.384168 0.677349 0.764458
O O11 0.330506 0.707287 0.543483
O O12 0.301471 0.622459 0.818940
O O13 0.750000 0.250000 0.477029
#
# Coordination Sequence:
#
# PCOD8228158 Si02
#       6
#     8   8   8   8   8   8
#     4  10  21  36  56  86 119 154 199 249 293 342
#     4  10  21  37  60  87 118 158 200 240 294 357
#     4  10  20  37  59  85 116 155 198 239 289 359
#     4  10  19  36  59  82 113 151 192 233 284 359
#     4   9  19  37  57  79 112 155 195 232 286 353
#     4  11  21  35  58  87 114 147 189 239 292 346
#
# _framework density 19.973787000000002
#
# number of rings (size 3 to 8) (size 9 to 14) (size 15 to 20)
#    0.000    2.000    0.000    6.500    0.000    4.000 
#    0.000    3.333    0.000    6.000    0.000    0.000 
#    0.000    0.000    0.000    0.000    0.000    0.000 
#
# Total GULP energy -594684.849474 kJ/mol
# GULP energy per Si atom -12389.267697 kJ/mol
# Density = 1.992833 g / cm^3
# Si number density = 19.973787 Si / 1000 Ang^3
#
#
#
# Elastic Constant Matrix: (Units=GPa)
#
#
# Indices 1 2 3 4 5 6 
#
# 1 89.5080 56.0320 54.6869 0.0000 0.0000 0.0000
# 2 56.0320 140.4227 60.3306 0.0000 0.0000 0.0000
# 3 54.6869 60.3306 112.9500 0.0000 0.0000 0.0000
# 4 0.0000 0.0000 0.0000 38.2272 0.0000 0.0000
# 5 0.0000 0.0000 0.0000 0.0000 25.7961 0.0000
# 6 0.0000 0.0000 0.0000 0.0000 0.0000 32.9158
#
#
#
# Elastic Compliance Matrix: (Units=1/GPa)
#
#
# Indices 1 2 3 4 5 6 
#
# 1 0.017736 -0.004397 -0.006239 0.000000 0.000000 0.000000
# 2 -0.004397 0.010332 -0.003390 0.000000 0.000000 0.000000
# 3 -0.006239 -0.003390 0.013685 0.000000 0.000000 0.000000
# 4 0.000000 0.000000 0.000000 0.026159 0.000000 0.000000
# 5 0.000000 0.000000 0.000000 0.000000 0.038765 0.000000
# 6 0.000000 0.000000 0.000000 0.000000 0.000000 0.030381
#
#
# Mechanical properties :
#
#
# Convention : Reuss Voigt Hill
#
# Bulk Modulus (GPa) = 72.98177 76.10887 74.54532
# Shear Modulus (GPa) = 29.46761 30.84325 30.15543
#
# Velocity S-wave (km/s) = 3.84515 3.93388 3.88977
# Velocity P-wave (km/s) = 7.50544 7.66948 7.58790
#
# Compressibility (1/GPa) = 0.01370205
#
# Stress axis : x y z
#
# Youngs Moduli (GPa) = 56.38126 96.78434 73.07317
#
# Poissons Ratio (x) = 0.42554 0.45590
# Poissons Ratio (y) = 0.24790 0.24772
# Poissons Ratio (z) = 0.35176 0.32810
#
# Static dielectric constant tensor:
#      x y z
#    x 3.408160 0.000000 0.000000 
#    y 0.000000 3.752170 0.000000 
#    z 0.000000 0.000000 3.643060 
# 
# 
# High freq. dielectric constant tensor:
#      x y z
#    x 1.748330 0.000000 0.000000 
#    y 0.000000 1.785320 0.000000 
#    z 0.000000 0.000000 1.788740 
# 
# From -- ./inp_files/2249.got.cif
#   From: 2010.03.12/outbox.cif.g09.slc.cpg/sg56_2_cif.got.tgz:2249.got - 2010.04.16 15:33:40.
