data_PCOD8228882
_publ_section_title
;
Structure prediction by ZEFSAII (Michael W. Deem and Ramdas Pophale) SiO2 
 PCOD8228882
Probable space group: P C C N
;
_chemical_formula_sum "Si O2"
_cell_formula_units_Z 36
_cell_length_a 14.657604
_cell_length_b 6.357336
_cell_length_c 17.156130
_cell_angle_alpha 90.000000
_cell_angle_beta 90.000000
_cell_angle_gamma 90.000000
_cell_volume 1598.665042
_symmetry_space_group_name_H-M "P C C N"
_symmetry_group_IT_number 56
_symmetry_cell_setting 'orthorhombic'
loop_
_space_group_symop_operation_xyz
x,y,z
1/2-x,1/2-y,z
1/2+x,-y,1/2-z
-x,1/2+y,1/2-z
-x,-y,-z
1/2+x,1/2+y,-z
1/2-x,y,1/2+z
x,1/2-y,1/2+z
loop_
_atom_site_type_symbol
_atom_site_label
_atom_site_fract_x
_atom_site_fract_y
_atom_site_fract_z
Si Si1 0.509261 0.108768 0.350083
Si Si2 0.250000 0.750000 0.336500
Si Si3 0.386811 0.953258 0.223745
Si Si4 0.423876 0.293563 0.583659
Si Si5 0.391518 0.050549 0.923122
O O1 0.595976 0.252587 0.330976
O O2 0.418388 0.238361 0.375466
O O3 0.479922 0.981086 0.273169
O O4 0.549658 0.953102 0.416130
O O5 0.304040 0.911942 0.281805
O O6 0.310605 0.592263 0.388595
O O7 0.370470 0.148000 0.164123
O O8 0.519673 0.409373 0.576284
O O9 0.363391 0.364964 0.509339
#
# Coordination Sequence:
#
# PCOD8228882 Si02
#       5
#     8   4   8   8   8
#     4  11  19  41  68  94 121 179 228 268 325 416
#     4  12  24  42  60 100 140 176 214 296 352 382
#     4  11  22  37  67  92 129 167 225 276 335 402
#     4  10  21  42  65  93 125 177 229 273 325 416
#     4  10  23  39  66  94 133 174 223 277 338 401
#
# _framework density 22.518789999999999
#
# number of rings (size 3 to 8) (size 9 to 14) (size 15 to 20)
#    0.000    1.333    4.444    2.000    0.000    1.778 
#    0.000    0.000    4.889    0.000    0.000    0.000 
#    0.000    0.000    0.000    0.000    0.000    0.000 
#
# Total GULP energy -446126.923461 kJ/mol
# GULP energy per Si atom -12392.414541 kJ/mol
# Density = 2.246754 g / cm^3
# Si number density = 22.518790 Si / 1000 Ang^3
#
#
#
# Elastic Constant Matrix: (Units=GPa)
#
#
# Indices 1 2 3 4 5 6 
#
# 1 74.4631 39.1242 53.2056 0.0000 0.0000 0.0000
# 2 39.1242 131.9621 57.4732 0.0000 0.0000 0.0000
# 3 53.2056 57.4732 143.8952 0.0000 0.0000 0.0000
# 4 0.0000 0.0000 0.0000 24.4050 0.0000 0.0000
# 5 0.0000 0.0000 0.0000 0.0000 26.4591 0.0000
# 6 0.0000 0.0000 0.0000 0.0000 0.0000 27.3746
#
#
#
# Elastic Compliance Matrix: (Units=1/GPa)
#
#
# Indices 1 2 3 4 5 6 
#
# 1 0.019283 -0.003162 -0.005867 0.000000 0.000000 0.000000
# 2 -0.003162 0.009692 -0.002702 0.000000 0.000000 0.000000
# 3 -0.005867 -0.002702 0.010198 0.000000 0.000000 0.000000
# 4 0.000000 0.000000 0.000000 0.040975 0.000000 0.000000
# 5 0.000000 0.000000 0.000000 0.000000 0.037794 0.000000
# 6 0.000000 0.000000 0.000000 0.000000 0.000000 0.036530
#
#
# Mechanical properties :
#
#
# Convention : Reuss Voigt Hill
#
# Bulk Modulus (GPa) = 63.64820 72.21405 67.93112
# Shear Modulus (GPa) = 27.29681 29.01556 28.15619
#
# Velocity S-wave (km/s) = 3.48541 3.59347 3.53985
# Velocity P-wave (km/s) = 6.67258 7.02533 6.85123
#
# Compressibility (1/GPa) = 0.01571136
#
# Stress axis : x y z
#
# Youngs Moduli (GPa) = 51.85959 103.17620 98.05745
#
# Poissons Ratio (x) = 0.32621 0.57531
# Poissons Ratio (y) = 0.16397 0.26496
# Poissons Ratio (z) = 0.30426 0.27879
#
# Static dielectric constant tensor:
#      x y z
#    x 3.573780 0.000000 0.000000 
#    y 0.000000 4.384840 0.000000 
#    z 0.000000 0.000000 4.487300 
# 
# 
# High freq. dielectric constant tensor:
#      x y z
#    x 1.841270 0.000000 0.000000 
#    y 0.000000 1.904280 0.000000 
#    z 0.000000 0.000000 1.899920 
# 
# From -- ./inp_files/18919.got.cif
#   From: 2010.03.12/outbox.cif.g09.slc.cpg/sg56_10_cif.got.tgz:18919.got - 2010.04.16 15:33:40.
