data_PCOD8228038
_publ_section_title
;
Structure prediction by ZEFSAII (Michael W. Deem and Ramdas Pophale) SiO2 
 PCOD8228038
Probable space group: P C C N
;
_chemical_formula_sum "Si O2"
_cell_formula_units_Z 36
_cell_length_a 23.905107
_cell_length_b 7.672539
_cell_length_c 9.250020
_cell_angle_alpha 90.000000
_cell_angle_beta 90.000000
_cell_angle_gamma 90.000000
_cell_volume 1696.572677
_symmetry_space_group_name_H-M "P C C N"
_symmetry_group_IT_number 56
_symmetry_cell_setting 'orthorhombic'
loop_
_space_group_symop_operation_xyz
x,y,z
1/2-x,1/2-y,z
1/2+x,-y,1/2-z
-x,1/2+y,1/2-z
-x,-y,-z
1/2+x,1/2+y,-z
1/2-x,y,1/2+z
x,1/2-y,1/2+z
loop_
_atom_site_type_symbol
_atom_site_label
_atom_site_fract_x
_atom_site_fract_y
_atom_site_fract_z
Si Si1 0.250000 0.250000 0.811821
Si Si2 0.675883 0.625985 0.440014
Si Si3 0.573660 0.419654 0.482836
Si Si4 0.068552 0.304352 0.500513
Si Si5 0.535067 0.382312 0.175943
O O1 0.289101 0.367100 0.708027
O O2 0.214457 0.375623 0.916853
O O3 0.639261 0.448649 0.442057
O O4 0.633333 0.793884 0.447172
O O5 0.547745 0.606144 0.535935
O O6 0.539450 0.350763 0.345171
O O7 0.569545 0.274022 0.603890
O O8 0.063047 0.429844 0.361208
O O9 0.029879 0.382624 0.628207
#
# Coordination Sequence:
#
# PCOD8228038 Si02
#       5
#     4   8   8   8   8
#     4  10  18  38  66  86 108 168 204 270 308 354
#     4   9  21  37  62  88 119 152 218 248 312 357
#     4  10  24  38  60  94 125 165 203 250 299 379
#     4   9  23  38  59  93 126 169 195 251 297 387
#     4  11  22  38  64  91 135 162 200 241 318 369
#
# _framework density 21.219251
#
# number of rings (size 3 to 8) (size 9 to 14) (size 15 to 20)
#    1.333    0.889    0.000    2.000    6.222    3.556 
#    0.000    0.000    0.000   22.667    0.000    0.000 
#    0.000    0.000    0.000    0.000    0.000    0.000 
#
# Total GULP energy -446187.255092 kJ/mol
# GULP energy per Si atom -12394.090419 kJ/mol
# Density = 2.117096 g / cm^3
# Si number density = 21.219251 Si / 1000 Ang^3
#
#
#
# Elastic Constant Matrix: (Units=GPa)
#
#
# Indices 1 2 3 4 5 6 
#
# 1 117.9984 14.5794 46.7593 0.0000 0.0000 0.0000
# 2 14.5794 116.3262 36.8548 0.0000 0.0000 0.0000
# 3 46.7593 36.8548 107.4186 0.0000 0.0000 0.0000
# 4 0.0000 0.0000 0.0000 22.9734 0.0000 0.0000
# 5 0.0000 0.0000 0.0000 0.0000 25.1864 0.0000
# 6 0.0000 0.0000 0.0000 0.0000 0.0000 16.3720
#
#
#
# Elastic Compliance Matrix: (Units=1/GPa)
#
#
# Indices 1 2 3 4 5 6 
#
# 1 0.010243 0.000145 -0.004509 0.000000 0.000000 0.000000
# 2 0.000145 0.009647 -0.003373 0.000000 0.000000 0.000000
# 3 -0.004509 -0.003373 0.012429 0.000000 0.000000 0.000000
# 4 0.000000 0.000000 0.000000 0.043529 0.000000 0.000000
# 5 0.000000 0.000000 0.000000 0.000000 0.039704 0.000000
# 6 0.000000 0.000000 0.000000 0.000000 0.000000 0.061080
#
#
# Mechanical properties :
#
#
# Convention : Reuss Voigt Hill
#
# Bulk Modulus (GPa) = 59.36113 59.79223 59.57668
# Shear Modulus (GPa) = 25.28819 29.14302 27.21560
#
# Velocity S-wave (km/s) = 3.45593 3.70999 3.58521
# Velocity P-wave (km/s) = 6.63027 6.82580 6.72874
#
# Compressibility (1/GPa) = 0.01684604
#
# Stress axis : x y z
#
# Youngs Moduli (GPa) = 97.62341 103.65956 80.45614
#
# Poissons Ratio (x) = -0.01499 0.36274
# Poissons Ratio (y) = -0.01412 0.27136
# Poissons Ratio (z) = 0.44014 0.34962
#
# Static dielectric constant tensor:
#      x y z
#    x 3.958040 0.000000 0.000000 
#    y 0.000000 3.599070 0.000000 
#    z 0.000000 0.000000 3.625190 
# 
# 
# High freq. dielectric constant tensor:
#      x y z
#    x 1.836200 0.000000 0.000000 
#    y 0.000000 1.801100 0.000000 
#    z 0.000000 0.000000 1.836950 
# 
# From -- ./inp_files/4896.got.cif
#   From: 2010.03.12/outbox.cif.g09.slc.cpg/sg56_3_cif.got.tgz:4896.got - 2010.04.16 15:33:40.
