data_PCOD8228795
_publ_section_title
;
Structure prediction by ZEFSAII (Michael W. Deem and Ramdas Pophale) SiO2 
 PCOD8228795
Probable space group: P C C N
;
_chemical_formula_sum "Si O2"
_cell_formula_units_Z 48
_cell_length_a 27.173226
_cell_length_b 5.118537
_cell_length_c 15.777157
_cell_angle_alpha 90.000000
_cell_angle_beta 90.000000
_cell_angle_gamma 90.000000
_cell_volume 2194.400002
_symmetry_space_group_name_H-M "P C C N"
_symmetry_group_IT_number 56
_symmetry_cell_setting 'orthorhombic'
loop_
_space_group_symop_operation_xyz
x,y,z
1/2-x,1/2-y,z
1/2+x,-y,1/2-z
-x,1/2+y,1/2-z
-x,-y,-z
1/2+x,1/2+y,-z
1/2-x,y,1/2+z
x,1/2-y,1/2+z
loop_
_atom_site_type_symbol
_atom_site_label
_atom_site_fract_x
_atom_site_fract_y
_atom_site_fract_z
Si Si1 0.609244 0.981393 0.171774
Si Si2 0.302131 0.634059 0.043451
Si Si3 0.112249 0.097830 0.680083
Si Si4 0.805879 0.270665 0.268527
Si Si5 0.031909 0.709612 0.252563
Si Si6 0.356724 0.349372 0.502792
O O1 0.592999 0.796104 0.248935
O O2 0.611152 0.831062 0.082515
O O3 0.663404 0.095155 0.193255
O O4 0.565981 0.199663 0.167199
O O5 0.250000 0.750000 0.016717
O O6 0.312505 0.362056 0.994609
O O7 0.341291 0.850821 0.015452
O O8 0.304672 0.564571 0.143826
O O9 0.112072 0.228599 0.586740
O O10 0.167486 0.002565 0.706542
O O11 0.071909 0.863178 0.679143
O O12 0.750000 0.250000 0.234319
O O13 0.001000 0.453325 0.279225
#
# Coordination Sequence:
#
# PCOD8228795 Si02
#       6
#     8   8   8   8   8   8
#     4  11  23  41  66  96 131 170 222 265 329 384
#     4  10  21  40  60  89 131 179 220 264 316 368
#     4  10  22  43  65  94 132 173 212 268 334 382
#     4   9  20  38  63  93 131 177 221 262 316 381
#     4  11  23  43  73  94 123 168 211 273 339 397
#     4  11  24  39  64  93 132 172 217 270 319 386
#
# _framework density 21.873861999999999
#
# number of rings (size 3 to 8) (size 9 to 14) (size 15 to 20)
#    0.000    1.667    3.333    0.500    4.667    1.333 
#    3.000    1.667    0.000    0.000    0.000    0.000 
#    0.000    0.000    0.000    0.000    0.000    0.000 
#
# Total GULP energy -594799.131584 kJ/mol
# GULP energy per Si atom -12391.648575 kJ/mol
# Density = 2.182408 g / cm^3
# Si number density = 21.873862 Si / 1000 Ang^3
#
#
#
# Elastic Constant Matrix: (Units=GPa)
#
#
# Indices 1 2 3 4 5 6 
#
# 1 134.0092 45.6796 37.2851 0.0000 0.0000 0.0000
# 2 45.6796 107.3451 42.2619 0.0000 0.0000 0.0000
# 3 37.2851 42.2619 129.8955 0.0000 0.0000 0.0000
# 4 0.0000 0.0000 0.0000 22.7656 0.0000 0.0000
# 5 0.0000 0.0000 0.0000 0.0000 7.4519 0.0000
# 6 0.0000 0.0000 0.0000 0.0000 0.0000 33.5574
#
#
#
# Elastic Compliance Matrix: (Units=1/GPa)
#
#
# Indices 1 2 3 4 5 6 
#
# 1 0.008986 -0.003221 -0.001531 0.000000 0.000000 0.000000
# 2 -0.003221 0.011839 -0.002927 0.000000 0.000000 0.000000
# 3 -0.001531 -0.002927 0.009090 0.000000 0.000000 0.000000
# 4 0.000000 0.000000 0.000000 0.043926 0.000000 0.000000
# 5 0.000000 0.000000 0.000000 0.000000 0.134195 0.000000
# 6 0.000000 0.000000 0.000000 0.000000 0.000000 0.029800
#
#
# Mechanical properties :
#
#
# Convention : Reuss Voigt Hill
#
# Bulk Modulus (GPa) = 68.69964 69.07811 68.88888
# Shear Modulus (GPa) = 19.37629 29.15653 24.26641
#
# Velocity S-wave (km/s) = 2.97950 3.65490 3.33435
# Velocity P-wave (km/s) = 6.58118 7.03277 6.81072
#
# Compressibility (1/GPa) = 0.01455612
#
# Stress axis : x y z
#
# Youngs Moduli (GPa) = 111.28143 84.46724 110.00542
#
# Poissons Ratio (x) = 0.27208 0.16846
# Poissons Ratio (y) = 0.35845 0.32201
# Poissons Ratio (z) = 0.17042 0.24726
#
# Static dielectric constant tensor:
#      x y z
#    x 4.005610 0.000000 0.000000 
#    y 0.000000 4.073880 0.000000 
#    z 0.000000 0.000000 3.732420 
# 
# 
# High freq. dielectric constant tensor:
#      x y z
#    x 1.854970 0.000000 0.000000 
#    y 0.000000 1.867300 0.000000 
#    z 0.000000 0.000000 1.824410 
# 
# From -- ./inp_files/9774.got.cif
#   From: 2010.03.12/outbox.cif.g09.slc.cpg/sg56_5_cif.got.tgz:9774.got - 2010.04.16 15:33:40.
