data_PCOD8228181
_publ_section_title
;
Structure prediction by ZEFSAII (Michael W. Deem and Ramdas Pophale) SiO2 
 PCOD8228181
Probable space group: P C C N
;
_chemical_formula_sum "Si O2"
_cell_formula_units_Z 64
_cell_length_a 9.366538
_cell_length_b 19.322618
_cell_length_c 18.844158
_cell_angle_alpha 90.000000
_cell_angle_beta 90.000000
_cell_angle_gamma 90.000000
_cell_volume 3410.529454
_symmetry_space_group_name_H-M "P C C N"
_symmetry_group_IT_number 56
_symmetry_cell_setting 'orthorhombic'
loop_
_space_group_symop_operation_xyz
x,y,z
1/2-x,1/2-y,z
1/2+x,-y,1/2-z
-x,1/2+y,1/2-z
-x,-y,-z
1/2+x,1/2+y,-z
1/2-x,y,1/2+z
x,1/2-y,1/2+z
loop_
_atom_site_type_symbol
_atom_site_label
_atom_site_fract_x
_atom_site_fract_y
_atom_site_fract_z
Si Si1 0.340205 0.501253 0.088251
Si Si2 0.135976 0.943558 0.865910
Si Si3 0.409510 0.487386 0.392191
Si Si4 0.588926 0.908037 0.970242
Si Si5 0.363763 0.564854 0.701122
Si Si6 0.150148 0.806966 0.610203
Si Si7 0.133729 0.637226 0.497573
Si Si8 0.914594 0.759054 0.518077
O O1 0.474883 0.460776 0.116658
O O2 0.239164 0.446198 0.047362
O O3 0.264295 0.527794 0.159442
O O4 0.395456 0.563432 0.037151
O O5 0.161005 0.927388 0.783991
O O6 0.239878 0.008403 0.882289
O O7 0.176534 0.878324 0.915979
O O8 0.450649 0.426522 0.447662
O O9 0.464798 0.561502 0.420962
O O10 0.486929 0.473220 0.317153
O O11 0.586106 0.824385 0.962310
O O12 0.373586 0.641427 0.673080
O O13 0.250000 0.750000 0.646259
O O14 0.229739 0.830574 0.537190
O O15 0.994461 0.779165 0.590208
O O16 0.995124 0.688508 0.492764
O O17 0.750000 0.750000 0.537986
#
# Coordination Sequence:
#
# PCOD8228181 Si02
#       8
#     8   8   8   8   8   8   8   8
#     4  10  21  36  56  84 115 147 188 247 282 334
#     4  12  21  33  57  87 116 143 191 240 292 335
#     4  10  20  34  60  80 109 152 191 224 288 343
#     4  10  19  37  58  82 113 145 189 237 286 336
#     4  10  21  37  54  80 116 152 185 232 295 342
#     4   9  19  38  55  72 108 151 190 230 276 346
#     4  10  21  35  55  83 112 146 190 238 286 334
#     4  11  21  32  56  87 111 140 189 245 285 336
#
# _framework density 18.765415000000001
#
# number of rings (size 3 to 8) (size 9 to 14) (size 15 to 20)
#    0.000    1.750    2.500    2.625    1.750    0.000 
#    0.000    3.125    0.000    3.750    0.000    0.000 
#    0.000    0.000    0.000    0.000    0.000    0.000 
#
# Total GULP energy -792938.895233 kJ/mol
# GULP energy per Si atom -12389.670238 kJ/mol
# Density = 1.872270 g / cm^3
# Si number density = 18.765415 Si / 1000 Ang^3
#
#
#
# Elastic Constant Matrix: (Units=GPa)
#
#
# Indices 1 2 3 4 5 6 
#
# 1 97.8226 27.1133 26.3552 0.0000 0.0000 0.0000
# 2 27.1133 93.0727 36.1753 0.0000 0.0000 0.0000
# 3 26.3552 36.1753 114.7371 0.0000 0.0000 0.0000
# 4 0.0000 0.0000 0.0000 15.8598 0.0000 0.0000
# 5 0.0000 0.0000 0.0000 0.0000 22.4276 0.0000
# 6 0.0000 0.0000 0.0000 0.0000 0.0000 27.1011
#
#
#
# Elastic Compliance Matrix: (Units=1/GPa)
#
#
# Indices 1 2 3 4 5 6 
#
# 1 0.011437 -0.002633 -0.001797 0.000000 0.000000 0.000000
# 2 -0.002633 0.012851 -0.003447 0.000000 0.000000 0.000000
# 3 -0.001797 -0.003447 0.010215 0.000000 0.000000 0.000000
# 4 0.000000 0.000000 0.000000 0.063053 0.000000 0.000000
# 5 0.000000 0.000000 0.000000 0.000000 0.044588 0.000000
# 6 0.000000 0.000000 0.000000 0.000000 0.000000 0.036899
#
#
# Mechanical properties :
#
#
# Convention : Reuss Voigt Hill
#
# Bulk Modulus (GPa) = 53.33666 53.87999 53.60833
# Shear Modulus (GPa) = 24.86998 27.47693 26.17346
#
# Velocity S-wave (km/s) = 3.64443 3.83068 3.73872
# Velocity P-wave (km/s) = 6.79660 6.95271 6.87510
#
# Compressibility (1/GPa) = 0.01874883
#
# Stress axis : x y z
#
# Youngs Moduli (GPa) = 87.43921 77.81402 97.89447
#
# Poissons Ratio (x) = 0.20490 0.17589
# Poissons Ratio (y) = 0.23025 0.33744
# Poissons Ratio (z) = 0.15711 0.26822
#
# Static dielectric constant tensor:
#      x y z
#    x 2.887340 0.000000 0.000000 
#    y 0.000000 3.987420 0.000000 
#    z 0.000000 0.000000 3.247490 
# 
# 
# High freq. dielectric constant tensor:
#      x y z
#    x 1.745480 0.000000 0.000000 
#    y 0.000000 1.726320 0.000000 
#    z 0.000000 0.000000 1.698680 
# 
# From -- ./inp_files/15239.got.cif
#   From: 2010.03.12/outbox.cif.g09.slc.cpg/sg56_8_cif.got.tgz:15239.got - 2010.04.16 15:33:40.
