data_PCOD8228990
_publ_section_title
;
Structure prediction by ZEFSAII (Michael W. Deem and Ramdas Pophale) SiO2 
 PCOD8228990
Probable space group: P C C N
;
_chemical_formula_sum "Si O2"
_cell_formula_units_Z 60
_cell_length_a 17.800570
_cell_length_b 14.450545
_cell_length_c 10.258127
_cell_angle_alpha 90.000000
_cell_angle_beta 90.000000
_cell_angle_gamma 90.000000
_cell_volume 2638.676854
_symmetry_space_group_name_H-M "P C C N"
_symmetry_group_IT_number 56
_symmetry_cell_setting 'orthorhombic'
loop_
_space_group_symop_operation_xyz
x,y,z
1/2-x,1/2-y,z
1/2+x,-y,1/2-z
-x,1/2+y,1/2-z
-x,-y,-z
1/2+x,1/2+y,-z
1/2-x,y,1/2+z
x,1/2-y,1/2+z
loop_
_atom_site_type_symbol
_atom_site_label
_atom_site_fract_x
_atom_site_fract_y
_atom_site_fract_z
Si Si1 0.047285 0.371121 0.898705
Si Si2 0.750000 0.250000 0.077774
Si Si3 0.175604 0.402218 0.497967
Si Si4 0.705613 0.903717 0.205225
Si Si5 0.347673 0.597231 0.314420
Si Si6 0.492132 0.438307 0.662250
Si Si7 0.021161 0.333770 0.428052
Si Si8 0.133605 0.603991 0.518908
O O1 0.126687 0.356431 0.827553
O O2 0.005548 0.272705 0.890003
O O3 0.996108 0.449340 0.826835
O O4 0.063623 0.403486 0.048438
O O5 0.804430 0.307511 0.170105
O O6 0.698447 0.318643 0.993976
O O7 0.227273 0.358961 0.381563
O O8 0.218818 0.396484 0.638065
O O9 0.098238 0.344185 0.509757
O O10 0.156112 0.507460 0.452876
O O11 0.704753 0.010005 0.153093
O O12 0.425944 0.596024 0.393182
O O13 0.376806 0.583246 0.169561
O O14 0.467502 0.395522 0.798892
O O15 0.950811 0.363785 0.521051
#
# Coordination Sequence:
#
# PCOD8228990 Si02
#       8
#     8   4   8   8   8   8   8   8
#     4  10  22  42  67  97 136 182 229 291 344 427
#     4  12  18  34  62  94 132 180 224 270 352 412
#     4  11  24  45  69  98 137 181 232 293 352 417
#     4  10  23  43  67  92 133 174 227 287 348 407
#     4   9  19  37  56  91 130 170 219 280 330 419
#     4   9  21  43  65  94 139 178 231 284 353 416
#     4  11  24  42  69 102 136 182 236 291 351 422
#     4  10  22  39  61  97 136 172 226 287 346 418
#
# _framework density 22.738669000000002
#
# number of rings (size 3 to 8) (size 9 to 14) (size 15 to 20)
#    0.000    1.867    1.333    2.400    3.733    0.533 
#    4.800    1.333    0.000    0.000    0.000    0.000 
#    0.000    0.000    0.000    0.000    0.000    0.000 
#
# Total GULP energy -743612.407313 kJ/mol
# GULP energy per Si atom -12393.540122 kJ/mol
# Density = 2.268691 g / cm^3
# Si number density = 22.738669 Si / 1000 Ang^3
#
#
#
# Elastic Constant Matrix: (Units=GPa)
#
#
# Indices 1 2 3 4 5 6 
#
# 1 89.9808 16.5814 34.3623 0.0000 0.0000 0.0000
# 2 16.5814 88.4141 19.2849 0.0000 0.0000 0.0000
# 3 34.3623 19.2849 79.3801 0.0000 0.0000 0.0000
# 4 0.0000 0.0000 0.0000 21.1130 0.0000 0.0000
# 5 0.0000 0.0000 0.0000 0.0000 32.6732 0.0000
# 6 0.0000 0.0000 0.0000 0.0000 0.0000 34.2516
#
#
#
# Elastic Compliance Matrix: (Units=1/GPa)
#
#
# Indices 1 2 3 4 5 6 
#
# 1 0.013460 -0.001324 -0.005505 0.000000 0.000000 0.000000
# 2 -0.001324 0.012073 -0.002360 0.000000 0.000000 0.000000
# 3 -0.005505 -0.002360 0.015554 0.000000 0.000000 0.000000
# 4 0.000000 0.000000 0.000000 0.047364 0.000000 0.000000
# 5 0.000000 0.000000 0.000000 0.000000 0.030606 0.000000
# 6 0.000000 0.000000 0.000000 0.000000 0.000000 0.029196
#
#
# Mechanical properties :
#
#
# Convention : Reuss Voigt Hill
#
# Bulk Modulus (GPa) = 44.03398 44.24803 44.14100
# Shear Modulus (GPa) = 28.70259 30.11066 29.40662
#
# Velocity S-wave (km/s) = 3.55671 3.64291 3.60007
# Velocity P-wave (km/s) = 6.02281 6.09885 6.06095
#
# Compressibility (1/GPa) = 0.02270974
#
# Stress axis : x y z
#
# Youngs Moduli (GPa) = 74.29630 82.82637 64.29218
#
# Poissons Ratio (x) = 0.10962 0.35392
# Poissons Ratio (y) = 0.09833 0.15175
# Poissons Ratio (z) = 0.40899 0.19549
#
# Static dielectric constant tensor:
#      x y z
#    x 4.131370 0.000000 0.000000 
#    y 0.000000 4.116030 0.000000 
#    z 0.000000 0.000000 3.727870 
# 
# 
# High freq. dielectric constant tensor:
#      x y z
#    x 1.893920 0.000000 0.000000 
#    y 0.000000 1.896410 0.000000 
#    z 0.000000 0.000000 1.877460 
# 
# From -- ./inp_files/8396.got.cif
#   From: 2010.03.12/outbox.cif.g09.slc.cpg/sg56_5_cif.got.tgz:8396.got - 2010.04.16 15:33:40.
