data_PCOD8228766
_publ_section_title
;
Structure prediction by ZEFSAII (Michael W. Deem and Ramdas Pophale) SiO2 
 PCOD8228766
Probable space group: P C C N
;
_chemical_formula_sum "Si O2"
_cell_formula_units_Z 56
_cell_length_a 8.669994
_cell_length_b 20.244184
_cell_length_c 14.877561
_cell_angle_alpha 90.000000
_cell_angle_beta 90.000000
_cell_angle_gamma 90.000000
_cell_volume 2611.264187
_symmetry_space_group_name_H-M "P C C N"
_symmetry_group_IT_number 56
_symmetry_cell_setting 'orthorhombic'
loop_
_space_group_symop_operation_xyz
x,y,z
1/2-x,1/2-y,z
1/2+x,-y,1/2-z
-x,1/2+y,1/2-z
-x,-y,-z
1/2+x,1/2+y,-z
1/2-x,y,1/2+z
x,1/2-y,1/2+z
loop_
_atom_site_type_symbol
_atom_site_label
_atom_site_fract_x
_atom_site_fract_y
_atom_site_fract_z
Si Si1 0.885642 0.520891 0.722154
Si Si2 0.396146 0.209148 0.551200
Si Si3 0.585429 0.323572 0.607813
Si Si4 0.799868 0.592315 0.890933
Si Si5 0.702325 0.402526 0.773311
Si Si6 0.682098 0.350629 0.969653
Si Si7 0.673524 0.494029 0.027605
O O1 0.796628 0.570357 0.787697
O O2 0.858841 0.444445 0.753918
O O3 0.804896 0.527365 0.624938
O O4 0.065326 0.542458 0.719131
O O5 0.250000 0.250000 0.509166
O O6 0.488921 0.255366 0.622431
O O7 0.336271 0.145334 0.603818
O O8 0.510471 0.181079 0.473954
O O9 0.465643 0.380268 0.580212
O O10 0.674932 0.346109 0.697892
O O11 0.693943 0.305526 0.522218
O O12 0.780577 0.530150 0.956009
O O13 0.721657 0.362656 0.865957
O O14 0.707954 0.416636 0.029295
O O15 0.500000 0.500000 0.000000
#
# Coordination Sequence:
#
# PCOD8228766 Si02
#       7
#     8   8   8   8   8   8   8
#     4  11  21  36  59  95 128 159 203 253 319 381
#     4  10  22  44  65  84 121 174 215 253 311 375
#     4  10  24  41  61  90 127 167 208 262 306 379
#     4  10  21  39  63  93 128 160 208 259 314 380
#     4  11  23  38  61  93 128 161 206 255 313 378
#     4  12  22  40  65  91 128 163 211 260 319 371
#     4  12  20  36  64  95 124 168 201 259 325 377
#
# _framework density 21.445551999999999
#
# number of rings (size 3 to 8) (size 9 to 14) (size 15 to 20)
#    0.000    1.143    5.714    0.429    0.000    1.714 
#    0.000    9.286    0.000    0.000    0.000    0.000 
#    0.000    0.000    0.000    0.000    0.000    0.000 
#
# Total GULP energy -694013.203785 kJ/mol
# GULP energy per Si atom -12393.092925 kJ/mol
# Density = 2.139674 g / cm^3
# Si number density = 21.445552 Si / 1000 Ang^3
#
#
#
# Elastic Constant Matrix: (Units=GPa)
#
#
# Indices 1 2 3 4 5 6 
#
# 1 76.3686 29.3362 44.3520 0.0000 0.0000 0.0000
# 2 29.3362 83.0955 26.1735 0.0000 0.0000 0.0000
# 3 44.3520 26.1735 139.7317 0.0000 0.0000 0.0000
# 4 0.0000 0.0000 0.0000 13.2548 0.0000 0.0000
# 5 0.0000 0.0000 0.0000 0.0000 26.1839 0.0000
# 6 0.0000 0.0000 0.0000 0.0000 0.0000 35.4145
#
#
#
# Elastic Compliance Matrix: (Units=1/GPa)
#
#
# Indices 1 2 3 4 5 6 
#
# 1 0.017657 -0.004748 -0.004715 0.000000 0.000000 0.000000
# 2 -0.004748 0.014066 -0.001128 0.000000 0.000000 0.000000
# 3 -0.004715 -0.001128 0.008864 0.000000 0.000000 0.000000
# 4 0.000000 0.000000 0.000000 0.075444 0.000000 0.000000
# 5 0.000000 0.000000 0.000000 0.000000 0.038191 0.000000
# 6 0.000000 0.000000 0.000000 0.000000 0.000000 0.028237
#
#
# Mechanical properties :
#
#
# Convention : Reuss Voigt Hill
#
# Bulk Modulus (GPa) = 51.53281 55.43549 53.48415
# Shear Modulus (GPa) = 23.79706 28.25956 26.02831
#
# Velocity S-wave (km/s) = 3.33475 3.63400 3.48759
# Velocity P-wave (km/s) = 6.23773 6.59647 6.41961
#
# Compressibility (1/GPa) = 0.01940511
#
# Stress axis : x y z
#
# Youngs Moduli (GPa) = 56.63567 71.09387 112.81165
#
# Poissons Ratio (x) = 0.33759 0.53190
# Poissons Ratio (y) = 0.26893 0.12720
# Poissons Ratio (z) = 0.26703 0.08016
#
# Static dielectric constant tensor:
#      x y z
#    x 3.973950 0.000000 0.000000 
#    y 0.000000 3.087730 0.000000 
#    z 0.000000 0.000000 3.016220 
# 
# 
# High freq. dielectric constant tensor:
#      x y z
#    x 1.843740 0.000000 0.000000 
#    y 0.000000 1.852040 0.000000 
#    z 0.000000 0.000000 1.823510 
# 
# From -- ./inp_files/10872.got.cif
#   From: 2010.03.12/outbox.cif.g09.slc.cpg/sg56_6_cif.got.tgz:10872.got - 2010.04.16 15:33:40.
