data_PCOD8229004
_publ_section_title
;
Structure prediction by ZEFSAII (Michael W. Deem and Ramdas Pophale) SiO2 
 PCOD8229004
Probable space group: P C C N
;
_chemical_formula_sum "Si O2"
_cell_formula_units_Z 36
_cell_length_a 8.821974
_cell_length_b 8.799297
_cell_length_c 22.013967
_cell_angle_alpha 90.000000
_cell_angle_beta 90.000000
_cell_angle_gamma 90.000000
_cell_volume 1708.881944
_symmetry_space_group_name_H-M "P C C N"
_symmetry_group_IT_number 56
_symmetry_cell_setting 'orthorhombic'
loop_
_space_group_symop_operation_xyz
x,y,z
1/2-x,1/2-y,z
1/2+x,-y,1/2-z
-x,1/2+y,1/2-z
-x,-y,-z
1/2+x,1/2+y,-z
1/2-x,y,1/2+z
x,1/2-y,1/2+z
loop_
_atom_site_type_symbol
_atom_site_label
_atom_site_fract_x
_atom_site_fract_y
_atom_site_fract_z
Si Si1 0.618066 0.984998 0.625662
Si Si2 0.916842 0.750640 0.419955
Si Si3 0.928261 0.753612 0.721718
Si Si4 0.915857 0.081252 0.674952
Si Si5 0.750000 0.750000 0.536129
O O1 0.497205 0.089090 0.591883
O O2 0.733560 0.084327 0.667155
O O3 0.530621 0.864328 0.668038
O O4 0.723843 0.896872 0.577558
O O5 0.750000 0.750000 0.389032
O O6 0.897767 0.776059 0.492737
O O7 0.012002 0.888115 0.391306
O O8 0.750000 0.750000 0.737275
O O9 0.028107 0.715823 0.780705
O O10 0.976313 0.921065 0.700299
#
# Coordination Sequence:
#
# PCOD8229004 Si02
#       5
#     8   8   8   8   4
#     4  11  21  46  67  94 134 179 219 274 340 397
#     4  10  24  39  66  94 135 169 226 266 328 388
#     4  10  22  39  67  91 136 164 219 271 345 400
#     4  11  21  40  65  98 123 176 215 278 335 409
#     4  10  22  44  70  92 132 188 216 284 316 400
#
# _framework density 21.066403999999999
#
# number of rings (size 3 to 8) (size 9 to 14) (size 15 to 20)
#    0.667    0.889    3.333    3.333    0.000    4.444 
#    0.000    5.556    0.000    0.000    0.000    0.000 
#    0.000    0.000    0.000    0.000    0.000    0.000 
#
# Total GULP energy -446334.020221 kJ/mol
# GULP energy per Si atom -12398.167228 kJ/mol
# Density = 2.101846 g / cm^3
# Si number density = 21.066404 Si / 1000 Ang^3
#
#
#
# Elastic Constant Matrix: (Units=GPa)
#
#
# Indices 1 2 3 4 5 6 
#
# 1 77.5235 43.7826 26.6802 0.0000 0.0000 0.0000
# 2 43.7826 91.0219 23.1714 0.0000 0.0000 0.0000
# 3 26.6802 23.1714 94.3969 0.0000 0.0000 0.0000
# 4 0.0000 0.0000 0.0000 30.1530 0.0000 0.0000
# 5 0.0000 0.0000 0.0000 0.0000 32.1717 0.0000
# 6 0.0000 0.0000 0.0000 0.0000 0.0000 42.6610
#
#
#
# Elastic Compliance Matrix: (Units=1/GPa)
#
#
# Indices 1 2 3 4 5 6 
#
# 1 0.018609 -0.008120 -0.003267 0.000000 0.000000 0.000000
# 2 -0.008120 0.015261 -0.001451 0.000000 0.000000 0.000000
# 3 -0.003267 -0.001451 0.011873 0.000000 0.000000 0.000000
# 4 0.000000 0.000000 0.000000 0.033164 0.000000 0.000000
# 5 0.000000 0.000000 0.000000 0.000000 0.031083 0.000000
# 6 0.000000 0.000000 0.000000 0.000000 0.000000 0.023441
#
#
# Mechanical properties :
#
#
# Convention : Reuss Voigt Hill
#
# Bulk Modulus (GPa) = 49.82873 50.02341 49.92607
# Shear Modulus (GPa) = 30.15747 32.28436 31.22091
#
# Velocity S-wave (km/s) = 3.78768 3.91897 3.85388
# Velocity P-wave (km/s) = 6.54471 6.65394 6.59955
#
# Compressibility (1/GPa) = 0.02006874
#
# Stress axis : x y z
#
# Youngs Moduli (GPa) = 53.73672 65.52437 84.22426
#
# Poissons Ratio (x) = 0.53204 0.27512
# Poissons Ratio (y) = 0.43633 0.12223
# Poissons Ratio (z) = 0.17553 0.09509
#
# Static dielectric constant tensor:
#      x y z
#    x 3.573320 0.000000 0.000000 
#    y 0.000000 3.785050 0.000000 
#    z 0.000000 0.000000 3.832940 
# 
# 
# High freq. dielectric constant tensor:
#      x y z
#    x 1.808010 0.000000 0.000000 
#    y 0.000000 1.833500 0.000000 
#    z 0.000000 0.000000 1.828560 
# 
# From -- ./inp_files/17871.got.cif
#   From: 2010.03.12/outbox.cif.g09.slc.cpg/sg56_9_cif.got.tgz:17871.got - 2010.04.16 15:33:40.
