data_PCOD8229280
_publ_section_title
;
Structure prediction by ZEFSAII (Michael W. Deem and Ramdas Pophale) SiO2 
 PCOD8229280
Probable space group: P C C N
;
_chemical_formula_sum "Si O2"
_cell_formula_units_Z 40
_cell_length_a 11.382431
_cell_length_b 7.050119
_cell_length_c 23.476151
_cell_angle_alpha 90.000000
_cell_angle_beta 90.000000
_cell_angle_gamma 90.000000
_cell_volume 1883.902264
_symmetry_space_group_name_H-M "P C C N"
_symmetry_group_IT_number 56
_symmetry_cell_setting 'orthorhombic'
loop_
_space_group_symop_operation_xyz
x,y,z
1/2-x,1/2-y,z
1/2+x,-y,1/2-z
-x,1/2+y,1/2-z
-x,-y,-z
1/2+x,1/2+y,-z
1/2-x,y,1/2+z
x,1/2-y,1/2+z
loop_
_atom_site_type_symbol
_atom_site_label
_atom_site_fract_x
_atom_site_fract_y
_atom_site_fract_z
Si Si1 0.750000 0.750000 0.108688
Si Si2 0.750000 0.750000 0.836110
Si Si3 0.078033 0.056899 0.083534
Si Si4 0.536844 0.805460 0.673276
Si Si5 0.656190 0.086298 0.757796
Si Si6 0.162124 0.917256 0.969508
O O1 0.857939 0.675860 0.148053
O O2 0.702800 0.585293 0.069915
O O3 0.861544 0.786517 0.876561
O O4 0.779090 0.566168 0.798198
O O5 0.967391 0.149705 0.050579
O O6 0.044516 0.878377 0.122353
O O7 0.166677 0.979978 0.035397
O O8 0.458830 0.679366 0.714463
O O9 0.603367 0.983770 0.702635
O O10 0.750000 0.250000 0.741235
O O11 0.250000 0.750000 0.959397
#
# Coordination Sequence:
#
# PCOD8229280 Si02
#       6
#     4   4   8   8   8   8
#     4  10  24  44  66 102 134 178 230 284 346 422
#     4  12  24  44  70  98 140 184 230 290 354 420
#     4  10  23  44  65 104 132 177 234 282 349 416
#     4  11  25  44  70  98 141 179 235 286 351 415
#     4  12  27  46  70 104 140 187 237 294 348 430
#     4  10  23  43  69  97 139 177 229 287 345 422
#
# _framework density 21.232523
#
# number of rings (size 3 to 8) (size 9 to 14) (size 15 to 20)
#    0.000    1.200    2.000    2.400    8.400    3.200 
#    0.000    4.000    0.000    0.000    0.000    0.000 
#    0.000    0.000    0.000    0.000    0.000    0.000 
#
# Total GULP energy -496002.385368 kJ/mol
# GULP energy per Si atom -12400.059634 kJ/mol
# Density = 2.118420 g / cm^3
# Si number density = 21.232523 Si / 1000 Ang^3
#
#
#
# Elastic Constant Matrix: (Units=GPa)
#
#
# Indices 1 2 3 4 5 6 
#
# 1 102.6238 39.0620 32.3848 0.0000 0.0000 0.0000
# 2 39.0620 76.3411 21.6620 0.0000 0.0000 0.0000
# 3 32.3848 21.6620 95.2896 0.0000 0.0000 0.0000
# 4 0.0000 0.0000 0.0000 13.0296 0.0000 0.0000
# 5 0.0000 0.0000 0.0000 0.0000 37.4017 0.0000
# 6 0.0000 0.0000 0.0000 0.0000 0.0000 48.8479
#
#
#
# Elastic Compliance Matrix: (Units=1/GPa)
#
#
# Indices 1 2 3 4 5 6 
#
# 1 0.012895 -0.005724 -0.003081 0.000000 0.000000 0.000000
# 2 -0.005724 0.016543 -0.001815 0.000000 0.000000 0.000000
# 3 -0.003081 -0.001815 0.011954 0.000000 0.000000 0.000000
# 4 0.000000 0.000000 0.000000 0.076748 0.000000 0.000000
# 5 0.000000 0.000000 0.000000 0.000000 0.026737 0.000000
# 6 0.000000 0.000000 0.000000 0.000000 0.000000 0.020472
#
#
# Mechanical properties :
#
#
# Convention : Reuss Voigt Hill
#
# Bulk Modulus (GPa) = 49.62460 51.16357 50.39408
# Shear Modulus (GPa) = 25.86544 31.93222 28.89883
#
# Velocity S-wave (km/s) = 3.49406 3.88226 3.69326
# Velocity P-wave (km/s) = 6.30084 6.65169 6.47864
#
# Compressibility (1/GPa) = 0.02015129
#
# Stress axis : x y z
#
# Youngs Moduli (GPa) = 77.54682 60.44842 83.65231
#
# Poissons Ratio (x) = 0.34600 0.25777
# Poissons Ratio (y) = 0.44387 0.15186
# Poissons Ratio (z) = 0.23895 0.10974
#
# Static dielectric constant tensor:
#      x y z
#    x 4.471730 0.000000 0.000000 
#    y 0.000000 3.542430 0.000000 
#    z 0.000000 0.000000 4.104510 
# 
# 
# High freq. dielectric constant tensor:
#      x y z
#    x 1.853500 0.000000 0.000000 
#    y 0.000000 1.812290 0.000000 
#    z 0.000000 0.000000 1.852680 
# 
# From -- ./inp_files/22198.got.cif
#   From: 2010.03.12/outbox.cif.g09.slc.cpg/sg56_12_cif.got.tgz:22198.got - 2010.04.16 15:33:40.
