data_PCOD8229556
_publ_section_title
;
Structure prediction by ZEFSAII (Michael W. Deem and Ramdas Pophale) SiO2 
 PCOD8229556
Probable space group: P C C N
;
_chemical_formula_sum "Si O2"
_cell_formula_units_Z 48
_cell_length_a 4.959561
_cell_length_b 27.979007
_cell_length_c 16.752533
_cell_angle_alpha 90.000000
_cell_angle_beta 90.000000
_cell_angle_gamma 90.000000
_cell_volume 2324.641653
_symmetry_space_group_name_H-M "P C C N"
_symmetry_group_IT_number 56
_symmetry_cell_setting 'orthorhombic'
loop_
_space_group_symop_operation_xyz
x,y,z
1/2-x,1/2-y,z
1/2+x,-y,1/2-z
-x,1/2+y,1/2-z
-x,-y,-z
1/2+x,1/2+y,-z
1/2-x,y,1/2+z
x,1/2-y,1/2+z
loop_
_atom_site_type_symbol
_atom_site_label
_atom_site_fract_x
_atom_site_fract_y
_atom_site_fract_z
Si Si1 0.324406 0.367149 0.950105
Si Si2 0.664644 0.386549 0.348426
Si Si3 0.358304 0.637162 0.827018
Si Si4 0.136228 0.992336 0.696897
Si Si5 0.650729 0.585417 0.392848
Si Si6 0.497203 0.718101 0.940997
O O1 0.563801 0.389156 0.898810
O O2 0.414412 0.317276 0.988611
O O3 0.065490 0.357212 0.894894
O O4 0.247775 0.406026 0.017111
O O5 0.728092 0.359732 0.265197
O O6 0.557506 0.440260 0.334912
O O7 0.634974 0.607285 0.830715
O O8 0.135192 0.610962 0.880610
O O9 0.401702 0.689983 0.862004
O O10 0.126821 0.028950 0.622706
O O11 0.431785 0.989744 0.735281
O O12 0.750000 0.750000 0.915342
O O13 0.250000 0.750000 0.972746
#
# Coordination Sequence:
#
# PCOD8229556 Si02
#       6
#     8   8   8   8   8   8
#     4  11  25  40  63  95 131 168 203 264 338 369
#     4  12  23  40  63  98 133 167 208 267 318 364
#     4  11  22  40  68  91 123 165 214 261 312 372
#     4  12  22  38  63  95 128 177 224 255 296 361
#     4  11  21  41  62  91 129 178 217 250 298 381
#     4  11  23  45  69  91 118 164 216 259 320 407
#
# _framework density 20.648342
#
# number of rings (size 3 to 8) (size 9 to 14) (size 15 to 20)
#    0.000    0.667    3.333    7.000    0.000    1.333 
#    0.000    5.000    0.000    0.000    0.000    0.000 
#    0.000    0.000    0.000    0.000    0.000    0.000 
#
# Total GULP energy -595545.091252 kJ/mol
# GULP energy per Si atom -12407.189401 kJ/mol
# Density = 2.060135 g / cm^3
# Si number density = 20.648342 Si / 1000 Ang^3
#
#
#
# Elastic Constant Matrix: (Units=GPa)
#
#
# Indices 1 2 3 4 5 6 
#
# 1 87.8466 14.8092 20.0977 0.0000 0.0000 0.0000
# 2 14.8092 84.9819 37.7582 0.0000 0.0000 0.0000
# 3 20.0977 37.7582 118.8795 0.0000 0.0000 0.0000
# 4 0.0000 0.0000 0.0000 10.9098 0.0000 0.0000
# 5 0.0000 0.0000 0.0000 0.0000 36.6168 0.0000
# 6 0.0000 0.0000 0.0000 0.0000 0.0000 37.8931
#
#
#
# Elastic Compliance Matrix: (Units=1/GPa)
#
#
# Indices 1 2 3 4 5 6 
#
# 1 0.011979 -0.001383 -0.001586 0.000000 0.000000 0.000000
# 2 -0.001383 0.013860 -0.004168 0.000000 0.000000 0.000000
# 3 -0.001586 -0.004168 0.010004 0.000000 0.000000 0.000000
# 4 0.000000 0.000000 0.000000 0.091661 0.000000 0.000000
# 5 0.000000 0.000000 0.000000 0.000000 0.027310 0.000000
# 6 0.000000 0.000000 0.000000 0.000000 0.000000 0.026390
#
#
# Mechanical properties :
#
#
# Convention : Reuss Voigt Hill
#
# Bulk Modulus (GPa) = 46.36288 48.55980 47.46134
# Shear Modulus (GPa) = 24.67074 31.68678 28.17876
#
# Velocity S-wave (km/s) = 3.46035 3.92164 3.69819
# Velocity P-wave (km/s) = 6.20223 6.63884 6.42425
#
# Compressibility (1/GPa) = 0.02156898
#
# Stress axis : x y z
#
# Youngs Moduli (GPa) = 83.47620 72.14854 99.96012
#
# Poissons Ratio (x) = 0.09977 0.15854
# Poissons Ratio (y) = 0.11544 0.41668
# Poissons Ratio (z) = 0.13239 0.30075
#
# Static dielectric constant tensor:
#      x y z
#    x 3.950260 0.000000 0.000000 
#    y 0.000000 3.694530 0.000000 
#    z 0.000000 0.000000 3.693600 
# 
# 
# High freq. dielectric constant tensor:
#      x y z
#    x 1.832010 0.000000 0.000000 
#    y 0.000000 1.798190 0.000000 
#    z 0.000000 0.000000 1.803260 
# 
# From -- ./inp_files/9668.got.cif
#   From: 2010.03.12/outbox.cif.g09.slc.cpg/sg56_5_cif.got.tgz:9668.got - 2010.04.16 15:33:40.
