data_PCOD8229239
_publ_section_title
;
Structure prediction by ZEFSAII (Michael W. Deem and Ramdas Pophale) SiO2 
 PCOD8229239
Probable space group: P C C N
;
_chemical_formula_sum "Si O2"
_cell_formula_units_Z 56
_cell_length_a 16.092691
_cell_length_b 12.538909
_cell_length_c 12.892725
_cell_angle_alpha 90.000000
_cell_angle_beta 90.000000
_cell_angle_gamma 90.000000
_cell_volume 2601.555781
_symmetry_space_group_name_H-M "P C C N"
_symmetry_group_IT_number 56
_symmetry_cell_setting 'orthorhombic'
loop_
_space_group_symop_operation_xyz
x,y,z
1/2-x,1/2-y,z
1/2+x,-y,1/2-z
-x,1/2+y,1/2-z
-x,-y,-z
1/2+x,1/2+y,-z
1/2-x,y,1/2+z
x,1/2-y,1/2+z
loop_
_atom_site_type_symbol
_atom_site_label
_atom_site_fract_x
_atom_site_fract_y
_atom_site_fract_z
Si Si1 0.137026 0.500206 0.301793
Si Si2 0.303633 0.149879 0.989936
Si Si3 0.473041 0.384497 0.162946
Si Si4 0.605529 0.485424 0.656667
Si Si5 0.051611 0.148400 0.642973
Si Si6 0.836280 0.523444 0.466387
Si Si7 0.222694 0.871322 0.197302
O O1 0.098809 0.399470 0.242281
O O2 0.181439 0.470704 0.409649
O O3 0.195292 0.560385 0.220532
O O4 0.065976 0.576556 0.344368
O O5 0.250000 0.250000 0.939576
O O6 0.386921 0.182539 0.050208
O O7 0.239022 0.099400 0.073667
O O8 0.334770 0.054045 0.915780
O O9 0.422120 0.430016 0.258407
O O10 0.485298 0.259498 0.179811
O O11 0.425044 0.423760 0.059393
O O12 0.523346 0.430583 0.604791
O O13 0.657753 0.388996 0.708968
O O14 0.821344 0.409003 0.410690
O O15 0.250000 0.750000 0.185056
#
# Coordination Sequence:
#
# PCOD8229239 Si02
#       7
#     8   8   8   8   8   8   8
#     4  11  23  42  66  90 133 171 215 273 329 390
#     4  12  23  41  68 101 135 175 218 277 338 396
#     4  10  23  41  64  96 128 175 218 275 330 402
#     4  10  24  42  64  98 139 171 228 278 332 406
#     4  11  23  42  65  96 135 172 222 272 338 398
#     4  11  23  43  63  98 130 166 225 272 326 403
#     4  11  23  42  65  93 130 176 223 273 330 395
#
# _framework density 21.525580999999999
#
# number of rings (size 3 to 8) (size 9 to 14) (size 15 to 20)
#    0.000    1.143    4.286    1.714    2.000    0.571 
#    2.571    0.000    0.000    0.000    0.000    0.000 
#    0.000    0.000    0.000    0.000    0.000    0.000 
#
# Total GULP energy -693757.093356 kJ/mol
# GULP energy per Si atom -12388.519524 kJ/mol
# Density = 2.147659 g / cm^3
# Si number density = 21.525581 Si / 1000 Ang^3
#
#
#
# Elastic Constant Matrix: (Units=GPa)
#
#
# Indices 1 2 3 4 5 6 
#
# 1 115.5949 38.3256 21.6243 0.0000 0.0000 0.0000
# 2 38.3256 137.8088 33.1840 0.0000 0.0000 0.0000
# 3 21.6243 33.1840 62.8373 0.0000 0.0000 0.0000
# 4 0.0000 0.0000 0.0000 23.5950 0.0000 0.0000
# 5 0.0000 0.0000 0.0000 0.0000 28.8759 0.0000
# 6 0.0000 0.0000 0.0000 0.0000 0.0000 35.7671
#
#
#
# Elastic Compliance Matrix: (Units=1/GPa)
#
#
# Indices 1 2 3 4 5 6 
#
# 1 0.009791 -0.002190 -0.002213 0.000000 0.000000 0.000000
# 2 -0.002190 0.008804 -0.003895 0.000000 0.000000 0.000000
# 3 -0.002213 -0.003895 0.018733 0.000000 0.000000 0.000000
# 4 0.000000 0.000000 0.000000 0.042382 0.000000 0.000000
# 5 0.000000 0.000000 0.000000 0.000000 0.034631 0.000000
# 6 0.000000 0.000000 0.000000 0.000000 0.000000 0.027959
#
#
# Mechanical properties :
#
#
# Convention : Reuss Voigt Hill
#
# Bulk Modulus (GPa) = 48.23781 55.83431 52.03606
# Shear Modulus (GPa) = 30.15581 32.52142 31.33862
#
# Velocity S-wave (km/s) = 3.74696 3.89115 3.81974
# Velocity P-wave (km/s) = 6.41699 6.79581 6.60911
#
# Compressibility (1/GPa) = 0.02073063
#
# Stress axis : x y z
#
# Youngs Moduli (GPa) = 102.13485 113.59101 53.38243
#
# Poissons Ratio (x) = 0.24878 0.11813
# Poissons Ratio (y) = 0.22369 0.20795
# Poissons Ratio (z) = 0.22601 0.44248
#
# Static dielectric constant tensor:
#      x y z
#    x 4.304690 0.000000 0.000000 
#    y 0.000000 3.836280 0.000000 
#    z 0.000000 0.000000 3.655180 
# 
# 
# High freq. dielectric constant tensor:
#      x y z
#    x 1.874210 0.000000 0.000000 
#    y 0.000000 1.843970 0.000000 
#    z 0.000000 0.000000 1.820660 
# 
# From -- ./inp_files/12256.got.cif
#   From: 2010.03.12/outbox.cif.g09.slc.cpg/sg56_7_cif.got.tgz:12256.got - 2010.04.16 15:33:40.
