data_PCOD8229191
_publ_section_title
;
Structure prediction by ZEFSAII (Michael W. Deem and Ramdas Pophale) SiO2 
 PCOD8229191
Probable space group: P C C N
;
_chemical_formula_sum "Si O2"
_cell_formula_units_Z 60
_cell_length_a 8.379111
_cell_length_b 22.301058
_cell_length_c 14.067057
_cell_angle_alpha 90.000000
_cell_angle_beta 90.000000
_cell_angle_gamma 90.000000
_cell_volume 2628.613040
_symmetry_space_group_name_H-M "P C C N"
_symmetry_group_IT_number 56
_symmetry_cell_setting 'orthorhombic'
loop_
_space_group_symop_operation_xyz
x,y,z
1/2-x,1/2-y,z
1/2+x,-y,1/2-z
-x,1/2+y,1/2-z
-x,-y,-z
1/2+x,1/2+y,-z
1/2-x,y,1/2+z
x,1/2-y,1/2+z
loop_
_atom_site_type_symbol
_atom_site_label
_atom_site_fract_x
_atom_site_fract_y
_atom_site_fract_z
Si Si1 0.843869 0.129549 0.056818
Si Si2 0.098899 0.154726 0.404637
Si Si3 0.034517 0.080003 0.222219
Si Si4 0.250000 0.750000 0.352962
Si Si5 0.064608 0.242440 0.775121
Si Si6 0.131689 0.033837 0.731267
Si Si7 0.955876 0.436799 0.047137
Si Si8 0.939152 0.627469 0.618861
O O1 0.746035 0.190490 0.081163
O O2 0.732351 0.070351 0.063666
O O3 0.986978 0.117460 0.129799
O O4 0.910607 0.130603 0.950343
O O5 0.085333 0.127731 0.299552
O O6 0.050512 0.223284 0.378799
O O7 0.281126 0.147540 0.439519
O O8 0.992932 0.121256 0.481904
O O9 0.184603 0.037669 0.201268
O O10 0.896973 0.037321 0.263966
O O11 0.416581 0.758507 0.294552
O O12 0.250000 0.250000 0.734852
O O13 0.033291 0.172811 0.794400
O O14 0.087024 0.062185 0.833878
O O15 0.035388 0.067912 0.649293
O O16 0.000000 0.500000 0.000000
#
# Coordination Sequence:
#
# PCOD8229191 Si02
#       8
#     8   8   8   4   8   8   8   8
#     4  12  28  44  68 110 142 186 239 296 358 436
#     4  10  22  46  69 101 140 187 230 298 361 427
#     4  11  23  44  72  98 139 181 238 294 360 429
#     4  12  26  46  78 110 144 188 250 294 368 430
#     4  10  23  47  75 103 145 190 239 297 364 436
#     4  11  24  43  71 100 135 191 232 295 363 423
#     4  12  26  42  67 102 140 180 236 292 355 428
#     4  10  25  44  70 102 140 187 237 289 365 427
#
# _framework density 22.825724000000001
#
# number of rings (size 3 to 8) (size 9 to 14) (size 15 to 20)
#    0.000    1.067    2.667    2.400    7.467    1.600 
#    2.400    0.000    0.000    0.000    0.000    0.000 
#    0.000    0.000    0.000    0.000    0.000    0.000 
#
# Total GULP energy -743644.508379 kJ/mol
# GULP energy per Si atom -12394.075140 kJ/mol
# Density = 2.277377 g / cm^3
# Si number density = 22.825724 Si / 1000 Ang^3
#
#
#
# Elastic Constant Matrix: (Units=GPa)
#
#
# Indices 1 2 3 4 5 6 
#
# 1 113.3442 23.4209 33.2805 0.0000 0.0000 0.0000
# 2 23.4209 83.1290 9.4530 0.0000 0.0000 0.0000
# 3 33.2805 9.4530 73.6427 0.0000 0.0000 0.0000
# 4 0.0000 0.0000 0.0000 33.4845 0.0000 0.0000
# 5 0.0000 0.0000 0.0000 0.0000 31.5481 0.0000
# 6 0.0000 0.0000 0.0000 0.0000 0.0000 38.5744
#
#
#
# Elastic Compliance Matrix: (Units=1/GPa)
#
#
# Indices 1 2 3 4 5 6 
#
# 1 0.010658 -0.002491 -0.004497 0.000000 0.000000 0.000000
# 2 -0.002491 0.012790 -0.000516 0.000000 0.000000 0.000000
# 3 -0.004497 -0.000516 0.015677 0.000000 0.000000 0.000000
# 4 0.000000 0.000000 0.000000 0.029865 0.000000 0.000000
# 5 0.000000 0.000000 0.000000 0.000000 0.031698 0.000000
# 6 0.000000 0.000000 0.000000 0.000000 0.000000 0.025924
#
#
# Mechanical properties :
#
#
# Convention : Reuss Voigt Hill
#
# Bulk Modulus (GPa) = 41.46374 44.71386 43.08880
# Shear Modulus (GPa) = 33.40938 34.31881 33.86410
#
# Velocity S-wave (km/s) = 3.82995 3.88172 3.85592
# Velocity P-wave (km/s) = 6.14514 6.30255 6.22434
#
# Compressibility (1/GPa) = 0.02411746
#
# Stress axis : x y z
#
# Youngs Moduli (GPa) = 93.82785 78.18547 63.78603
#
# Poissons Ratio (x) = 0.19479 0.28682
# Poissons Ratio (y) = 0.23376 0.03291
# Poissons Ratio (z) = 0.42191 0.04033
#
# Static dielectric constant tensor:
#      x y z
#    x 4.417500 0.000000 0.000000 
#    y 0.000000 4.168390 0.000000 
#    z 0.000000 0.000000 3.825700 
# 
# 
# High freq. dielectric constant tensor:
#      x y z
#    x 1.910250 0.000000 0.000000 
#    y 0.000000 1.912300 0.000000 
#    z 0.000000 0.000000 1.882820 
# 
# From -- ./inp_files/10998.got.cif
#   From: 2010.03.12/outbox.cif.g09.slc.cpg/sg56_6_cif.got.tgz:10998.got - 2010.04.16 15:33:40.
