data_PCOD8229579
_publ_section_title
;
Structure prediction by ZEFSAII (Michael W. Deem and Ramdas Pophale) SiO2 
 PCOD8229579
Probable space group: P C C N
;
_chemical_formula_sum "Si O2"
_cell_formula_units_Z 60
_cell_length_a 16.511889
_cell_length_b 17.371531
_cell_length_c 10.148294
_cell_angle_alpha 90.000000
_cell_angle_beta 90.000000
_cell_angle_gamma 90.000000
_cell_volume 2910.904091
_symmetry_space_group_name_H-M "P C C N"
_symmetry_group_IT_number 56
_symmetry_cell_setting 'orthorhombic'
loop_
_space_group_symop_operation_xyz
x,y,z
1/2-x,1/2-y,z
1/2+x,-y,1/2-z
-x,1/2+y,1/2-z
-x,-y,-z
1/2+x,1/2+y,-z
1/2-x,y,1/2+z
x,1/2-y,1/2+z
loop_
_atom_site_type_symbol
_atom_site_label
_atom_site_fract_x
_atom_site_fract_y
_atom_site_fract_z
Si Si1 0.091124 0.785513 0.863030
Si Si2 0.739775 0.979866 0.076782
Si Si3 0.311656 0.616741 0.049856
Si Si4 0.750000 0.250000 0.783153
Si Si5 0.902647 0.023241 0.744141
Si Si6 0.840247 0.557089 0.821313
Si Si7 0.494714 0.138993 0.096490
Si Si8 0.539765 0.080091 0.816777
O O1 0.171690 0.743707 0.809762
O O2 0.018887 0.728733 0.907528
O O3 0.059359 0.839101 0.747488
O O4 0.114606 0.833329 0.992737
O O5 0.651275 0.978077 0.139173
O O6 0.802070 0.935309 0.174443
O O7 0.730318 0.938370 0.933660
O O8 0.764448 0.070740 0.064977
O O9 0.249556 0.672454 0.127998
O O10 0.348487 0.545643 0.131588
O O11 0.976885 0.965854 0.777357
O O12 0.937835 0.102570 0.689746
O O13 0.881110 0.472750 0.836565
O O14 0.905067 0.625899 0.842483
O O15 0.498072 0.097073 0.956228
#
# Coordination Sequence:
#
# PCOD8229579 Si02
#       8
#     8   8   8   4   8   8   8   8
#     4  12  25  39  61  95 132 174 216 264 329 400
#     4  12  21  39  65  97 124 164 221 269 321 380
#     4  12  24  36  59  98 135 165 209 269 322 395
#     4  12  24  40  58  92 144 176 204 250 332 402
#     4  11  22  39  62  90 124 171 217 263 319 390
#     4  11  22  41  67  96 127 170 221 273 323 389
#     4  11  23  41  62  90 134 177 214 259 336 405
#     4  11  22  42  64  89 128 174 214 262 327 397
#
# _framework density 20.612154
#
# number of rings (size 3 to 8) (size 9 to 14) (size 15 to 20)
#    0.000    0.533    6.667    3.600    1.867    0.533 
#    0.000    0.000    0.000    0.800    3.467    0.000 
#    0.000    0.000    0.000    0.000    0.000    0.000 
#
# Total GULP energy -743975.016050 kJ/mol
# GULP energy per Si atom -12399.583601 kJ/mol
# Density = 2.056524 g / cm^3
# Si number density = 20.612154 Si / 1000 Ang^3
#
#
#
# Elastic Constant Matrix: (Units=GPa)
#
#
# Indices 1 2 3 4 5 6 
#
# 1 91.7457 37.8088 39.6708 0.0000 0.0000 0.0000
# 2 37.8088 66.1401 20.4026 0.0000 0.0000 0.0000
# 3 39.6708 20.4026 84.8770 0.0000 0.0000 0.0000
# 4 0.0000 0.0000 0.0000 22.0974 0.0000 0.0000
# 5 0.0000 0.0000 0.0000 0.0000 27.3110 0.0000
# 6 0.0000 0.0000 0.0000 0.0000 0.0000 29.1413
#
#
#
# Elastic Compliance Matrix: (Units=1/GPa)
#
#
# Indices 1 2 3 4 5 6 
#
# 1 0.016625 -0.007676 -0.005925 0.000000 0.000000 0.000000
# 2 -0.007676 0.019874 -0.001190 0.000000 0.000000 0.000000
# 3 -0.005925 -0.001190 0.014837 0.000000 0.000000 0.000000
# 4 0.000000 0.000000 0.000000 0.045254 0.000000 0.000000
# 5 0.000000 0.000000 0.000000 0.000000 0.036615 0.000000
# 6 0.000000 0.000000 0.000000 0.000000 0.000000 0.034316
#
#
# Mechanical properties :
#
#
# Convention : Reuss Voigt Hill
#
# Bulk Modulus (GPa) = 45.96691 48.72522 47.34606
# Shear Modulus (GPa) = 24.46722 25.36862 24.91792
#
# Velocity S-wave (km/s) = 3.44907 3.51203 3.48069
# Velocity P-wave (km/s) = 6.18148 6.33531 6.25887
#
# Compressibility (1/GPa) = 0.02175478
#
# Stress axis : x y z
#
# Youngs Moduli (GPa) = 60.15029 50.31621 67.39829
#
# Poissons Ratio (x) = 0.38622 0.39935
# Poissons Ratio (y) = 0.46170 0.08019
# Poissons Ratio (z) = 0.35641 0.05986
#
# Static dielectric constant tensor:
#      x y z
#    x 3.681140 0.000000 0.000000 
#    y 0.000000 3.458720 0.000000 
#    z 0.000000 0.000000 3.781580 
# 
# 
# High freq. dielectric constant tensor:
#      x y z
#    x 1.803800 0.000000 0.000000 
#    y 0.000000 1.774750 0.000000 
#    z 0.000000 0.000000 1.811110 
# 
# From -- ./inp_files/4124.got.cif
#   From: 2010.03.12/outbox.cif.g09.slc.cpg/sg56_3_cif.got.tgz:4124.got - 2010.04.16 15:33:40.
