data_PCOD8229258
_publ_section_title
;
Structure prediction by ZEFSAII (Michael W. Deem and Ramdas Pophale) SiO2 
 PCOD8229258
Probable space group: P C C N
;
_chemical_formula_sum "Si O2"
_cell_formula_units_Z 48
_cell_length_a 8.587529
_cell_length_b 9.627046
_cell_length_c 25.880228
_cell_angle_alpha 90.000000
_cell_angle_beta 90.000000
_cell_angle_gamma 90.000000
_cell_volume 2139.584099
_symmetry_space_group_name_H-M "P C C N"
_symmetry_group_IT_number 56
_symmetry_cell_setting 'orthorhombic'
loop_
_space_group_symop_operation_xyz
x,y,z
1/2-x,1/2-y,z
1/2+x,-y,1/2-z
-x,1/2+y,1/2-z
-x,-y,-z
1/2+x,1/2+y,-z
1/2-x,y,1/2+z
x,1/2-y,1/2+z
loop_
_atom_site_type_symbol
_atom_site_label
_atom_site_fract_x
_atom_site_fract_y
_atom_site_fract_z
Si Si1 0.921150 0.734922 0.892464
Si Si2 0.576062 0.476719 0.055280
Si Si3 0.927530 0.762237 0.122779
Si Si4 0.431338 0.489085 0.444210
Si Si5 0.353238 0.367757 0.215562
Si Si6 0.362998 0.632889 0.711942
O O1 0.750000 0.750000 0.916347
O O2 0.922172 0.786195 0.833576
O O3 0.032852 0.824630 0.927151
O O4 0.980373 0.576982 0.899348
O O5 0.529308 0.584677 0.101450
O O6 0.757201 0.464240 0.049314
O O7 0.500000 0.500000 0.000000
O O8 0.750000 0.750000 0.145395
O O9 0.938817 0.670412 0.071641
O O10 0.056038 0.707839 0.163148
O O11 0.500000 0.500000 0.500000
O O12 0.250000 0.250000 0.245488
O O13 0.500701 0.417045 0.249185
O O14 0.243833 0.498118 0.199138
O O15 0.250000 0.750000 0.737202
#
# Coordination Sequence:
#
# PCOD8229258 Si02
#       6
#     8   8   8   8   8   8
#     4  11  23  41  62  90 128 169 217 267 320 386
#     4  11  23  40  64  95 129 169 214 267 326 386
#     4  10  23  42  65  94 130 169 217 269 323 387
#     4  11  23  40  64  94 128 170 214 268 327 386
#     4  11  25  44  67  98 132 173 218 272 330 393
#     4  12  25  43  68  97 130 174 219 271 333 394
#
# _framework density 22.434267999999999
#
# number of rings (size 3 to 8) (size 9 to 14) (size 15 to 20)
#    0.000    1.000    0.000    7.000    0.000    6.667 
#    0.000    0.000    0.000    0.000    0.000    0.000 
#    0.000    0.000    0.000    0.000    0.000    0.000 
#
# Total GULP energy -594957.265263 kJ/mol
# GULP energy per Si atom -12394.943026 kJ/mol
# Density = 2.238321 g / cm^3
# Si number density = 22.434268 Si / 1000 Ang^3
#
#
#
# Elastic Constant Matrix: (Units=GPa)
#
#
# Indices 1 2 3 4 5 6 
#
# 1 133.3775 34.4403 48.5973 0.0000 0.0000 0.0000
# 2 34.4403 87.9177 15.5987 0.0000 0.0000 0.0000
# 3 48.5973 15.5987 93.4104 0.0000 0.0000 0.0000
# 4 0.0000 0.0000 0.0000 1.4182 0.0000 0.0000
# 5 0.0000 0.0000 0.0000 0.0000 4.4970 0.0000
# 6 0.0000 0.0000 0.0000 0.0000 0.0000 49.3453
#
#
#
# Elastic Compliance Matrix: (Units=1/GPa)
#
#
# Indices 1 2 3 4 5 6 
#
# 1 0.010003 -0.003087 -0.004689 0.000000 0.000000 0.000000
# 2 -0.003087 0.012674 -0.000511 0.000000 0.000000 0.000000
# 3 -0.004689 -0.000511 0.013230 0.000000 0.000000 0.000000
# 4 0.000000 0.000000 0.000000 0.705105 0.000000 0.000000
# 5 0.000000 0.000000 0.000000 0.000000 0.222372 0.000000
# 6 0.000000 0.000000 0.000000 0.000000 0.000000 0.020265
#
#
# Mechanical properties :
#
#
# Convention : Reuss Voigt Hill
#
# Bulk Modulus (GPa) = 51.71914 56.88644 54.30279
# Shear Modulus (GPa) = 4.96689 25.45673 15.21181
#
# Velocity S-wave (km/s) = 1.48956 3.37222 2.60679
# Velocity P-wave (km/s) = 5.10510 6.36981 5.77220
#
# Compressibility (1/GPa) = 0.01933520
#
# Stress axis : x y z
#
# Youngs Moduli (GPa) = 99.97141 78.90175 75.58586
#
# Poissons Ratio (x) = 0.24354 0.35439
# Poissons Ratio (y) = 0.30857 0.03860
# Poissons Ratio (z) = 0.46873 0.04029
#
# Static dielectric constant tensor:
#      x y z
#    x 4.414380 0.000000 0.000000 
#    y 0.000000 4.268670 0.000000 
#    z 0.000000 0.000000 3.881770 
# 
# 
# High freq. dielectric constant tensor:
#      x y z
#    x 1.901990 0.000000 0.000000 
#    y 0.000000 1.900180 0.000000 
#    z 0.000000 0.000000 1.874630 
# 
# From -- ./inp_files/23248.got.cif
#   From: 2010.03.12/outbox.cif.g09.slc.cpg/sg56_12_cif.got.tgz:23248.got - 2010.04.16 15:33:40.
