data_PCOD8229580
_publ_section_title
;
Structure prediction by ZEFSAII (Michael W. Deem and Ramdas Pophale) SiO2 
 PCOD8229580
Probable space group: P C C N
;
_chemical_formula_sum "Si O2"
_cell_formula_units_Z 48
_cell_length_a 8.405644
_cell_length_b 14.343734
_cell_length_c 18.490138
_cell_angle_alpha 90.000000
_cell_angle_beta 90.000000
_cell_angle_gamma 90.000000
_cell_volume 2229.324905
_symmetry_space_group_name_H-M "P C C N"
_symmetry_group_IT_number 56
_symmetry_cell_setting 'orthorhombic'
loop_
_space_group_symop_operation_xyz
x,y,z
1/2-x,1/2-y,z
1/2+x,-y,1/2-z
-x,1/2+y,1/2-z
-x,-y,-z
1/2+x,1/2+y,-z
1/2-x,y,1/2+z
x,1/2-y,1/2+z
loop_
_atom_site_type_symbol
_atom_site_label
_atom_site_fract_x
_atom_site_fract_y
_atom_site_fract_z
Si Si1 0.897085 0.178884 0.565467
Si Si2 0.856198 0.512319 0.150908
Si Si3 0.899946 0.696034 0.072180
Si Si4 0.123918 0.180532 0.684667
Si Si5 0.397157 0.814508 0.684712
Si Si6 0.295780 0.985796 0.199608
O O1 0.750000 0.250000 0.563584
O O2 0.966943 0.165845 0.485430
O O3 0.036683 0.223657 0.614720
O O4 0.856274 0.077134 0.597803
O O5 0.814942 0.605239 0.106430
O O6 0.729539 0.491796 0.213807
O O7 0.022204 0.542572 0.187481
O O8 0.750000 0.750000 0.037178
O O9 0.988619 0.765234 0.127861
O O10 0.250000 0.250000 0.719202
O O11 0.990908 0.156486 0.743401
O O12 0.223064 0.087698 0.663598
O O13 0.250000 0.750000 0.708097
O O14 0.320561 0.912933 0.658216
#
# Coordination Sequence:
#
# PCOD8229580 Si02
#       6
#     8   8   8   8   8   8
#     4  11  25  46  67  95 136 184 230 275 344 407
#     4  11  24  43  70  99 140 171 226 289 340 404
#     4  12  26  45  67  97 137 182 232 280 342 408
#     4  11  24  41  67  98 139 175 221 288 341 395
#     4  12  22  39  68  98 130 175 230 283 334 405
#     4  11  22  39  64 102 129 168 223 274 346 390
#
# _framework density 21.531181
#
# number of rings (size 3 to 8) (size 9 to 14) (size 15 to 20)
#    0.000    0.667    5.000    4.500    0.000    0.000 
#    0.000    0.833    0.000    0.000    0.000    0.000 
#    0.000    0.000    0.000    0.000    0.000    0.000 
#
# Total GULP energy -594905.566071 kJ/mol
# GULP energy per Si atom -12393.865960 kJ/mol
# Density = 2.148218 g / cm^3
# Si number density = 21.531181 Si / 1000 Ang^3
#
#
#
# Elastic Constant Matrix: (Units=GPa)
#
#
# Indices 1 2 3 4 5 6 
#
# 1 73.3515 66.6965 11.0556 0.0000 0.0000 0.0000
# 2 66.6965 119.0326 33.8379 0.0000 0.0000 0.0000
# 3 11.0556 33.8379 78.4578 0.0000 0.0000 0.0000
# 4 0.0000 0.0000 0.0000 26.7709 0.0000 0.0000
# 5 0.0000 0.0000 0.0000 0.0000 35.7047 0.0000
# 6 0.0000 0.0000 0.0000 0.0000 0.0000 40.9186
#
#
#
# Elastic Compliance Matrix: (Units=1/GPa)
#
#
# Indices 1 2 3 4 5 6 
#
# 1 0.028512 -0.016907 0.003274 0.000000 0.000000 0.000000
# 2 -0.016907 0.019600 -0.006071 0.000000 0.000000 0.000000
# 3 0.003274 -0.006071 0.014903 0.000000 0.000000 0.000000
# 4 0.000000 0.000000 0.000000 0.037354 0.000000 0.000000
# 5 0.000000 0.000000 0.000000 0.000000 0.028007 0.000000
# 6 0.000000 0.000000 0.000000 0.000000 0.000000 0.024439
#
#
# Mechanical properties :
#
#
# Convention : Reuss Voigt Hill
#
# Bulk Modulus (GPa) = 42.35909 54.89133 48.62521
# Shear Modulus (GPa) = 24.98847 31.29563 28.14205
#
# Velocity S-wave (km/s) = 3.41041 3.81662 3.61922
# Velocity P-wave (km/s) = 5.93498 6.70607 6.33227
#
# Compressibility (1/GPa) = 0.02360768
#
# Stress axis : x y z
#
# Youngs Moduli (GPa) = 35.07243 51.02015 67.10202
#
# Poissons Ratio (x) = 0.86259 -0.21969
# Poissons Ratio (y) = 0.59296 0.40737
# Poissons Ratio (z) = -0.11483 0.30974
#
# Static dielectric constant tensor:
#      x y z
#    x 4.025330 0.000000 0.000000 
#    y 0.000000 4.121560 0.000000 
#    z 0.000000 0.000000 3.724740 
# 
# 
# High freq. dielectric constant tensor:
#      x y z
#    x 1.852900 0.000000 0.000000 
#    y 0.000000 1.863880 0.000000 
#    z 0.000000 0.000000 1.824500 
# 
# From -- ./inp_files/14823.got.cif
#   From: 2010.03.12/outbox.cif.g09.slc.cpg/sg56_8_cif.got.tgz:14823.got - 2010.04.16 15:33:40.
