data_PCOD8229398
_publ_section_title
;
Structure prediction by ZEFSAII (Michael W. Deem and Ramdas Pophale) SiO2 
 PCOD8229398
Probable space group: P C C N
;
_chemical_formula_sum "Si O2"
_cell_formula_units_Z 56
_cell_length_a 20.527979
_cell_length_b 8.532780
_cell_length_c 14.712992
_cell_angle_alpha 90.000000
_cell_angle_beta 90.000000
_cell_angle_gamma 90.000000
_cell_volume 2577.138399
_symmetry_space_group_name_H-M "P C C N"
_symmetry_group_IT_number 56
_symmetry_cell_setting 'orthorhombic'
loop_
_space_group_symop_operation_xyz
x,y,z
1/2-x,1/2-y,z
1/2+x,-y,1/2-z
-x,1/2+y,1/2-z
-x,-y,-z
1/2+x,1/2+y,-z
1/2-x,y,1/2+z
x,1/2-y,1/2+z
loop_
_atom_site_type_symbol
_atom_site_label
_atom_site_fract_x
_atom_site_fract_y
_atom_site_fract_z
Si Si1 0.987054 0.175672 0.474451
Si Si2 0.116925 0.367886 0.510022
Si Si3 0.883795 0.334446 0.607078
Si Si4 0.085333 0.429268 0.709844
Si Si5 0.777232 0.587333 0.210297
Si Si6 0.250000 0.250000 0.461951
Si Si7 0.532531 0.239789 0.768668
Si Si8 0.250000 0.750000 0.322084
O O1 0.932350 0.242869 0.540857
O O2 0.960743 0.183486 0.371964
O O3 0.055320 0.264769 0.483143
O O4 0.000000 0.000000 0.500000
O O5 0.127069 0.491803 0.430080
O O6 0.104785 0.452688 0.605402
O O7 0.184894 0.273138 0.522036
O O8 0.914428 0.351702 0.707668
O O9 0.814603 0.245213 0.615152
O O10 0.146352 0.411092 0.774677
O O11 0.043924 0.576680 0.741904
O O12 0.039400 0.280344 0.726297
O O13 0.750000 0.750000 0.258404
O O14 0.762829 0.598860 0.102499
O O15 0.748992 0.413384 0.238860
#
# Coordination Sequence:
#
# PCOD8229398 Si02
#       8
#     8   8   8   8   8   4   8   4
#     4  12  27  45  69 109 146 184 247 305 369 449
#     4  12  25  47  70 101 147 189 242 304 373 431
#     4  12  24  48  73 105 141 190 245 299 375 439
#     4  12  25  46  70 108 141 190 249 300 375 451
#     4  10  24  46  70 106 144 193 249 297 364 441
#     4  10  24  44  72  98 140 202 234 304 366 434
#     4  12  25  43  75 101 141 188 240 305 370 440
#     4  12  24  46  80 102 150 202 240 312 364 450
#
# _framework density 21.729527999999998
#
# number of rings (size 3 to 8) (size 9 to 14) (size 15 to 20)
#    0.429    0.000    5.714    3.000    3.000    1.143 
#    0.000    2.857    0.000    0.000    0.000    0.000 
#    0.000    0.000    0.000    0.000    0.000    0.000 
#
# Total GULP energy -694118.722748 kJ/mol
# GULP energy per Si atom -12394.977192 kJ/mol
# Density = 2.168007 g / cm^3
# Si number density = 21.729528 Si / 1000 Ang^3
#
#
#
# Elastic Constant Matrix: (Units=GPa)
#
#
# Indices 1 2 3 4 5 6 
#
# 1 185.7598 61.2666 60.9272 0.0000 0.0000 0.0000
# 2 61.2666 143.0217 25.9631 0.0000 0.0000 0.0000
# 3 60.9272 25.9631 97.1334 0.0000 0.0000 0.0000
# 4 0.0000 0.0000 0.0000 20.7416 0.0000 0.0000
# 5 0.0000 0.0000 0.0000 0.0000 28.8300 0.0000
# 6 0.0000 0.0000 0.0000 0.0000 0.0000 36.8616
#
#
#
# Elastic Compliance Matrix: (Units=1/GPa)
#
#
# Indices 1 2 3 4 5 6 
#
# 1 0.007537 -0.002491 -0.004062 0.000000 0.000000 0.000000
# 2 -0.002491 0.008172 -0.000622 0.000000 0.000000 0.000000
# 3 -0.004062 -0.000622 0.013009 0.000000 0.000000 0.000000
# 4 0.000000 0.000000 0.000000 0.048212 0.000000 0.000000
# 5 0.000000 0.000000 0.000000 0.000000 0.034686 0.000000
# 6 0.000000 0.000000 0.000000 0.000000 0.000000 0.027128
#
#
# Mechanical properties :
#
#
# Convention : Reuss Voigt Hill
#
# Bulk Modulus (GPa) = 69.59571 80.24765 74.92168
# Shear Modulus (GPa) = 31.66873 35.80384 33.73629
#
# Velocity S-wave (km/s) = 3.82174 4.06360 3.94452
# Velocity P-wave (km/s) = 7.18136 7.68293 7.43638
#
# Compressibility (1/GPa) = 0.01436870
#
# Stress axis : x y z
#
# Youngs Moduli (GPa) = 132.67473 122.36864 76.86953
#
# Poissons Ratio (x) = 0.30487 0.31223
# Poissons Ratio (y) = 0.33054 0.04778
# Poissons Ratio (z) = 0.53890 0.07606
#
# Static dielectric constant tensor:
#      x y z
#    x 3.892550 0.000000 0.000000 
#    y 0.000000 4.076670 0.000000 
#    z 0.000000 0.000000 3.848930 
# 
# 
# High freq. dielectric constant tensor:
#      x y z
#    x 1.871470 0.000000 0.000000 
#    y 0.000000 1.861330 0.000000 
#    z 0.000000 0.000000 1.836960 
# 
# From -- ./inp_files/13108.got.cif
#   From: 2010.03.12/outbox.cif.g09.slc.cpg/sg56_7_cif.got.tgz:13108.got - 2010.04.16 15:33:40.
