data_PCOD8229465
_publ_section_title
;
Structure prediction by ZEFSAII (Michael W. Deem and Ramdas Pophale) SiO2 
 PCOD8229465
Probable space group: P C C N
;
_chemical_formula_sum "Si O2"
_cell_formula_units_Z 40
_cell_length_a 5.371439
_cell_length_b 12.122760
_cell_length_c 24.366337
_cell_angle_alpha 90.000000
_cell_angle_beta 90.000000
_cell_angle_gamma 90.000000
_cell_volume 1586.654624
_symmetry_space_group_name_H-M "P C C N"
_symmetry_group_IT_number 56
_symmetry_cell_setting 'orthorhombic'
loop_
_space_group_symop_operation_xyz
x,y,z
1/2-x,1/2-y,z
1/2+x,-y,1/2-z
-x,1/2+y,1/2-z
-x,-y,-z
1/2+x,1/2+y,-z
1/2-x,y,1/2+z
x,1/2-y,1/2+z
loop_
_atom_site_type_symbol
_atom_site_label
_atom_site_fract_x
_atom_site_fract_y
_atom_site_fract_z
Si Si1 0.977793 0.010533 0.715769
Si Si2 0.994938 0.184784 0.633142
Si Si3 0.958200 0.176637 0.964253
Si Si4 0.504508 0.796709 0.151678
Si Si5 0.699247 0.952648 0.960303
O O1 0.992530 0.926625 0.663764
O O2 0.244956 0.014729 0.745405
O O3 0.927576 0.131387 0.691537
O O4 0.250000 0.250000 0.639468
O O5 0.048710 0.086677 0.591599
O O6 0.750000 0.250000 0.613363
O O7 0.750000 0.250000 0.996131
O O8 0.024930 0.257696 0.912592
O O9 0.880536 0.054115 0.942696
O O10 0.170801 0.152643 0.009424
O O11 0.750000 0.750000 0.182186
O O12 0.250000 0.750000 0.177952
O O13 0.500000 0.000000 0.000000
#
# Coordination Sequence:
#
# PCOD8229465 Si02
#       5
#     8   8   8   8   8
#     4  12  28  53  81 114 153 200 266 338 401 467
#     4  12  30  50  76 111 161 208 256 321 404 473
#     4  10  25  46  75 111 159 206 269 321 385 468
#     4  11  25  45  79 115 149 196 264 323 390 466
#     4  11  28  46  74 112 162 207 261 323 380 475
#
# _framework density 25.210274999999999
#
# number of rings (size 3 to 8) (size 9 to 14) (size 15 to 20)
#    0.000    0.800    0.000    4.800   16.800    4.800 
#    0.000    0.000    0.000    0.000    0.000    0.000 
#    0.000    0.000    0.000    0.000    0.000    0.000 
#
# Total GULP energy -495528.985240 kJ/mol
# GULP energy per Si atom -12388.224631 kJ/mol
# Density = 2.515290 g / cm^3
# Si number density = 25.210275 Si / 1000 Ang^3
#
#
#
# Elastic Constant Matrix: (Units=GPa)
#
#
# Indices 1 2 3 4 5 6 
#
# 1 188.6591 44.0624 27.3565 0.0000 0.0000 0.0000
# 2 44.0624 120.9905 58.8042 0.0000 0.0000 0.0000
# 3 27.3565 58.8042 93.6722 0.0000 0.0000 0.0000
# 4 0.0000 0.0000 0.0000 50.6723 0.0000 0.0000
# 5 0.0000 0.0000 0.0000 0.0000 25.2795 0.0000
# 6 0.0000 0.0000 0.0000 0.0000 0.0000 51.8054
#
#
#
# Elastic Compliance Matrix: (Units=1/GPa)
#
#
# Indices 1 2 3 4 5 6 
#
# 1 0.005812 -0.001859 -0.000530 0.000000 0.000000 0.000000
# 2 -0.001859 0.012489 -0.007297 0.000000 0.000000 0.000000
# 3 -0.000530 -0.007297 0.015411 0.000000 0.000000 0.000000
# 4 0.000000 0.000000 0.000000 0.019735 0.000000 0.000000
# 5 0.000000 0.000000 0.000000 0.000000 0.039558 0.000000
# 6 0.000000 0.000000 0.000000 0.000000 0.000000 0.019303
#
#
# Mechanical properties :
#
#
# Convention : Reuss Voigt Hill
#
# Bulk Modulus (GPa) = 69.73949 73.75200 71.74574
# Shear Modulus (GPa) = 36.64109 43.75804 40.19957
#
# Velocity S-wave (km/s) = 3.81651 4.17072 3.99754
# Velocity P-wave (km/s) = 6.86616 7.24648 7.05888
#
# Compressibility (1/GPa) = 0.01433908
#
# Stress axis : x y z
#
# Youngs Moduli (GPa) = 172.07016 80.07331 64.88742
#
# Poissons Ratio (x) = 0.14883 0.03442
# Poissons Ratio (y) = 0.31982 0.47349
# Poissons Ratio (z) = 0.09127 0.58430
#
# Static dielectric constant tensor:
#      x y z
#    x 5.288480 0.000000 0.000000 
#    y 0.000000 5.555330 0.000000 
#    z 0.000000 0.000000 4.106030 
# 
# 
# High freq. dielectric constant tensor:
#      x y z
#    x 2.030400 0.000000 0.000000 
#    y 0.000000 2.024190 0.000000 
#    z 0.000000 0.000000 1.986550 
# 
# From -- ./inp_files/21518.got.cif
#   From: 2010.03.12/outbox.cif.g09.slc.cpg/sg56_11_cif.got.tgz:21518.got - 2010.04.16 15:33:40.
