data_PCOD8229928
_publ_section_title
;
Structure prediction by ZEFSAII (Michael W. Deem and Ramdas Pophale) SiO2 
 PCOD8229928
Probable space group: P B C M
;
_chemical_formula_sum "Si O2"
_cell_formula_units_Z 64
_cell_length_a 21.638441
_cell_length_b 18.170473
_cell_length_c 8.898407
_cell_angle_alpha 90.000000
_cell_angle_beta 90.000000
_cell_angle_gamma 90.000000
_cell_volume 3498.681964
_symmetry_space_group_name_H-M "P B C M"
_symmetry_group_IT_number 57
_symmetry_cell_setting 'orthorhombic'
loop_
_space_group_symop_operation_xyz
x,y,z
-x,-y,1/2+z
x,1/2-y,-z
-x,1/2+y,1/2-z
-x,-y,-z
x,y,1/2-z
-x,1/2+y,z
x,1/2-y,1/2+z
loop_
_atom_site_type_symbol
_atom_site_label
_atom_site_fract_x
_atom_site_fract_y
_atom_site_fract_z
Si Si1 0.995950 0.422817 0.923134
Si Si2 0.136535 0.578279 0.426339
Si Si3 0.743296 0.094824 0.574325
Si Si4 0.618898 0.327313 0.073214
Si Si5 0.440640 0.965154 0.924887
Si Si6 0.314020 0.043516 0.924329
Si Si7 0.752293 0.671288 0.073043
Si Si8 0.870528 0.579828 0.074745
O O1 0.988805 0.440667 0.750000
O O2 0.930525 0.384709 0.971346
O O3 0.061456 0.381800 0.955442
O O4 0.000000 0.500000 0.000000
O O5 0.149919 0.583670 0.250000
O O6 0.190569 0.623324 0.512569
O O7 0.137430 0.493088 0.476186
O O8 0.746586 0.079727 0.750000
O O9 0.690183 0.153595 0.534613
O O10 0.730593 0.017564 0.494291
O O11 0.607387 0.323762 0.250000
O O12 0.601922 0.250000 0.000000
O O13 0.573658 0.387889 0.003955
O O14 0.452545 0.950262 0.750000
O O15 0.385028 0.022122 0.950472
O O16 0.500000 0.000000 0.000000
O O17 0.297766 0.051245 0.750000
O O18 0.302070 0.120148 0.008047
O O19 0.744026 0.677961 0.250000
O O20 0.819174 0.638852 0.027520
O O21 0.744835 0.750000 0.000000
O O22 0.863701 0.557900 0.250000
#
# Coordination Sequence:
#
# PCOD8229928 Si02
#       8
#     8   8   8   8   8   8   8   8
#     4   8  15  26  40  63  92 123 161 209 263 316
#     4  10  17  25  44  72  99 129 168 217 267 316
#     4  10  19  31  50  76 106 140 174 213 265 319
#     4  10  21  37  58  84 115 148 183 223 267 318
#     4  10  21  38  62  90 118 149 182 218 260 310
#     4  10  20  35  55  79 107 136 173 219 261 307
#     4  11  22  34  51  73 101 139 180 225 276 325
#     4   9  17  30  46  64  93 130 170 218 271 324
#
# _framework density 18.292603
#
# number of rings (size 3 to 8) (size 9 to 14) (size 15 to 20)
#    0.000    2.250    1.250    2.250    0.000    4.000 
#    0.000    0.625    0.000    3.750    0.000    3.500 
#    0.000    0.000    0.000    0.000    0.000    0.000 
#
# Total GULP energy -793199.777038 kJ/mol
# GULP energy per Si atom -12393.746516 kJ/mol
# Density = 1.825097 g / cm^3
# Si number density = 18.292603 Si / 1000 Ang^3
#
#
#
# Elastic Constant Matrix: (Units=GPa)
#
#
# Indices 1 2 3 4 5 6 
#
# 1 129.5626 47.6092 54.4539 0.0000 0.0000 0.0000
# 2 47.6092 96.4235 46.8469 0.0000 0.0000 0.0000
# 3 54.4539 46.8469 90.6826 0.0000 0.0000 0.0000
# 4 0.0000 0.0000 0.0000 25.2551 0.0000 0.0000
# 5 0.0000 0.0000 0.0000 0.0000 30.7013 0.0000
# 6 0.0000 0.0000 0.0000 0.0000 0.0000 18.6055
#
#
#
# Elastic Compliance Matrix: (Units=1/GPa)
#
#
# Indices 1 2 3 4 5 6 
#
# 1 0.010916 -0.002944 -0.005034 0.000000 0.000000 0.000000
# 2 -0.002944 0.014640 -0.005795 0.000000 0.000000 0.000000
# 3 -0.005034 -0.005795 0.017044 0.000000 0.000000 0.000000
# 4 0.000000 0.000000 0.000000 0.039596 0.000000 0.000000
# 5 0.000000 0.000000 0.000000 0.000000 0.032572 0.000000
# 6 0.000000 0.000000 0.000000 0.000000 0.000000 0.053748
#
#
# Mechanical properties :
#
#
# Convention : Reuss Voigt Hill
#
# Bulk Modulus (GPa) = 66.42913 68.27653 67.35283
# Shear Modulus (GPa) = 24.86572 26.09628 25.48100
#
# Velocity S-wave (km/s) = 3.69091 3.78114 3.73630
# Velocity P-wave (km/s) = 7.38630 7.51454 7.45070
#
# Compressibility (1/GPa) = 0.01505364
#
# Stress axis : x y z
#
# Youngs Moduli (GPa) = 91.61038 68.30539 58.67103
#
# Poissons Ratio (x) = 0.20109 0.29535
# Poissons Ratio (y) = 0.26970 0.34002
# Poissons Ratio (z) = 0.46116 0.39585
#
# Static dielectric constant tensor:
#      x y z
#    x 3.870480 0.000000 0.000000 
#    y 0.000000 2.949600 0.000000 
#    z 0.000000 0.000000 3.464320 
# 
# 
# High freq. dielectric constant tensor:
#      x y z
#    x 1.724750 0.000000 0.000000 
#    y 0.000000 1.662060 0.000000 
#    z 0.000000 0.000000 1.723120 
# 
# From -- ./inp_files/9555.got.cif
#   From: 2010.03.12/outbox.cif.g09.slc.cpg/sg57_5_cif.got.tgz:9555.got - 2010.04.16 15:48:40.
