data_PCOD8229049
_publ_section_title
;
Structure prediction by ZEFSAII (Michael W. Deem and Ramdas Pophale) SiO2 
 PCOD8229049
Probable space group: P C C N
;
_chemical_formula_sum "Si O2"
_cell_formula_units_Z 60
_cell_length_a 18.722151
_cell_length_b 11.588123
_cell_length_c 12.630586
_cell_angle_alpha 90.000000
_cell_angle_beta 90.000000
_cell_angle_gamma 90.000000
_cell_volume 2740.263590
_symmetry_space_group_name_H-M "P C C N"
_symmetry_group_IT_number 56
_symmetry_cell_setting 'orthorhombic'
loop_
_space_group_symop_operation_xyz
x,y,z
1/2-x,1/2-y,z
1/2+x,-y,1/2-z
-x,1/2+y,1/2-z
-x,-y,-z
1/2+x,1/2+y,-z
1/2-x,y,1/2+z
x,1/2-y,1/2+z
loop_
_atom_site_type_symbol
_atom_site_label
_atom_site_fract_x
_atom_site_fract_y
_atom_site_fract_z
Si Si1 0.101613 0.322829 0.124517
Si Si2 0.750000 0.250000 0.288805
Si Si3 0.353433 0.769757 0.029098
Si Si4 0.550392 0.518031 0.192610
Si Si5 0.077334 0.374845 0.772557
Si Si6 0.197782 0.588995 0.373118
Si Si7 0.173110 0.474555 0.956919
Si Si8 0.989434 0.722844 0.558692
O O1 0.064582 0.420296 0.195623
O O2 0.124483 0.215091 0.200488
O O3 0.164316 0.379378 0.051376
O O4 0.042982 0.273016 0.047170
O O5 0.822148 0.249031 0.355092
O O6 0.748456 0.368954 0.222562
O O7 0.428625 0.706837 0.032132
O O8 0.304522 0.698925 0.949187
O O9 0.358456 0.903688 0.996495
O O10 0.473526 0.454535 0.199640
O O11 0.619015 0.440442 0.167362
O O12 0.545437 0.601848 0.091564
O O13 0.132030 0.440991 0.849122
O O14 0.019320 0.309048 0.843425
O O15 0.241821 0.484999 0.430626
#
# Coordination Sequence:
#
# PCOD8229049 Si02
#       8
#     8   4   8   8   8   8   8   8
#     4  10  22  44  66  92 131 177 227 272 342 400
#     4  12  22  40  64  98 136 172 208 274 344 394
#     4  12  23  41  68 100 137 169 218 280 343 405
#     4  11  24  42  66  99 135 178 224 289 339 399
#     4  10  22  40  67  99 129 176 231 276 336 408
#     4  12  25  42  63 103 138 169 231 276 334 419
#     4  11  22  44  67  97 134 181 222 282 347 402
#     4  10  23  41  65  97 132 170 227 281 329 415
#
# _framework density 21.895703999999999
#
# number of rings (size 3 to 8) (size 9 to 14) (size 15 to 20)
#    0.000    1.067    2.667    4.000    1.867    6.400 
#    0.000    7.333    0.000    0.000    0.000    0.000 
#    0.000    0.000    0.000    0.000    0.000    0.000 
#
# Total GULP energy -743674.378766 kJ/mol
# GULP energy per Si atom -12394.572979 kJ/mol
# Density = 2.184587 g / cm^3
# Si number density = 21.895704 Si / 1000 Ang^3
#
#
#
# Elastic Constant Matrix: (Units=GPa)
#
#
# Indices 1 2 3 4 5 6 
#
# 1 77.9849 46.2061 50.6158 0.0000 0.0000 0.0000
# 2 46.2061 102.8840 56.5559 0.0000 0.0000 0.0000
# 3 50.6158 56.5559 120.3173 0.0000 0.0000 0.0000
# 4 0.0000 0.0000 0.0000 45.5230 0.0000 0.0000
# 5 0.0000 0.0000 0.0000 0.0000 48.5692 0.0000
# 6 0.0000 0.0000 0.0000 0.0000 0.0000 31.7993
#
#
#
# Elastic Compliance Matrix: (Units=1/GPa)
#
#
# Indices 1 2 3 4 5 6 
#
# 1 0.019957 -0.005863 -0.005640 0.000000 0.000000 0.000000
# 2 -0.005863 0.014828 -0.004504 0.000000 0.000000 0.000000
# 3 -0.005640 -0.004504 0.012801 0.000000 0.000000 0.000000
# 4 0.000000 0.000000 0.000000 0.021967 0.000000 0.000000
# 5 0.000000 0.000000 0.000000 0.000000 0.020589 0.000000
# 6 0.000000 0.000000 0.000000 0.000000 0.000000 0.031447
#
#
# Mechanical properties :
#
#
# Convention : Reuss Voigt Hill
#
# Bulk Modulus (GPa) = 64.21038 67.54908 65.87973
# Shear Modulus (GPa) = 31.48731 35.03221 33.25976
#
# Velocity S-wave (km/s) = 3.79629 4.00429 3.90167
# Velocity P-wave (km/s) = 6.97173 7.23163 7.10287
#
# Compressibility (1/GPa) = 0.01557381
#
# Stress axis : x y z
#
# Youngs Moduli (GPa) = 50.10733 67.43796 78.11849
#
# Poissons Ratio (x) = 0.39536 0.44058
# Poissons Ratio (y) = 0.29376 0.35184
# Poissons Ratio (z) = 0.28260 0.30373
#
# Static dielectric constant tensor:
#      x y z
#    x 3.823530 0.000000 0.000000 
#    y 0.000000 4.064080 0.000000 
#    z 0.000000 0.000000 4.303470 
# 
# 
# High freq. dielectric constant tensor:
#      x y z
#    x 1.845950 0.000000 0.000000 
#    y 0.000000 1.861390 0.000000 
#    z 0.000000 0.000000 1.882270 
# 
# From -- ./inp_files/8683.got.cif
#   From: 2010.03.12/outbox.cif.g09.slc.cpg/sg56_5_cif.got.tgz:8683.got - 2010.04.16 15:33:40.
