data_PCOD8229884
_publ_section_title
;
Structure prediction by ZEFSAII (Michael W. Deem and Ramdas Pophale) SiO2 
 PCOD8229884
Probable space group: P B C M
;
_chemical_formula_sum "Si O2"
_cell_formula_units_Z 56
_cell_length_a 18.317714
_cell_length_b 19.803233
_cell_length_c 8.613135
_cell_angle_alpha 90.000000
_cell_angle_beta 90.000000
_cell_angle_gamma 90.000000
_cell_volume 3124.414363
_symmetry_space_group_name_H-M "P B C M"
_symmetry_group_IT_number 57
_symmetry_cell_setting 'orthorhombic'
loop_
_space_group_symop_operation_xyz
x,y,z
-x,-y,1/2+z
x,1/2-y,-z
-x,1/2+y,1/2-z
-x,-y,-z
x,y,1/2-z
-x,1/2+y,z
x,1/2-y,1/2+z
loop_
_atom_site_type_symbol
_atom_site_label
_atom_site_fract_x
_atom_site_fract_y
_atom_site_fract_z
Si Si1 0.302981 0.426403 0.929982
Si Si2 0.853904 0.079049 0.431100
Si Si3 0.423570 0.677697 0.566201
Si Si4 0.704512 0.421956 0.066496
Si Si5 0.578809 0.676932 0.065138
Si Si6 0.000337 0.424344 0.066580
Si Si7 0.142944 0.067517 0.069540
O O1 0.321625 0.431929 0.750000
O O2 0.309094 0.502225 0.999832
O O3 0.362078 0.375879 0.004645
O O4 0.221101 0.395681 0.955036
O O5 0.859374 0.092313 0.250000
O O6 0.778441 0.110514 0.495398
O O7 0.925962 0.112846 0.510768
O O8 0.853316 0.000263 0.469800
O O9 0.399921 0.750000 0.500000
O O10 0.432168 0.682873 0.750000
O O11 0.363046 0.623868 0.515074
O O12 0.499680 0.653308 0.493217
O O13 0.715097 0.423949 0.250000
O O14 0.579531 0.680059 0.250000
O O15 0.599348 0.750000 0.000000
O O16 0.005092 0.423760 0.250000
O O17 0.000000 0.500000 0.000000
O O18 0.073835 0.389012 0.994869
O O19 0.131243 0.049031 0.250000
#
# Coordination Sequence:
#
# PCOD8229884 Si02
#       7
#     8   8   8   8   8   8   8
#     4   8  16  30  48  68  93 124 155 190 233 276
#     4  10  17  25  39  62  90 120 153 189 230 273
#     4  10  20  34  52  71  93 121 154 191 231 276
#     4   9  18  33  49  67  93 124 155 190 233 277
#     4  10  19  33  51  70  93 122 156 192 230 275
#     4  10  16  23  36  57  87 122 156 188 226 271
#     4   9  15  26  41  59  87 121 155 190 230 274
#
# _framework density 17.923358
#
# number of rings (size 3 to 8) (size 9 to 14) (size 15 to 20)
#    0.000    2.571    0.000    7.286    0.000    1.714 
#    0.000    7.143    0.000    0.000    0.000    1.000 
#    0.000    4.571    0.000    0.000    0.000    0.000 
#
# Total GULP energy -693921.050674 kJ/mol
# GULP energy per Si atom -12391.447333 kJ/mol
# Density = 1.788256 g / cm^3
# Si number density = 17.923358 Si / 1000 Ang^3
#
#
#
# Elastic Constant Matrix: (Units=GPa)
#
#
# Indices 1 2 3 4 5 6 
#
# 1 193.2438 72.3216 55.7022 0.0000 0.0000 0.0000
# 2 72.3216 53.0587 24.4780 0.0000 0.0000 0.0000
# 3 55.7022 24.4780 80.9677 0.0000 0.0000 0.0000
# 4 0.0000 0.0000 0.0000 13.0334 0.0000 0.0000
# 5 0.0000 0.0000 0.0000 0.0000 30.8339 0.0000
# 6 0.0000 0.0000 0.0000 0.0000 0.0000 4.2886
#
#
#
# Elastic Compliance Matrix: (Units=1/GPa)
#
#
# Indices 1 2 3 4 5 6 
#
# 1 0.011428 -0.013887 -0.003664 0.000000 0.000000 0.000000
# 2 -0.013887 0.038776 -0.002169 0.000000 0.000000 0.000000
# 3 -0.003664 -0.002169 0.015527 0.000000 0.000000 0.000000
# 4 0.000000 0.000000 0.000000 0.076726 0.000000 0.000000
# 5 0.000000 0.000000 0.000000 0.000000 0.032432 0.000000
# 6 0.000000 0.000000 0.000000 0.000000 0.000000 0.233174
#
#
# Mechanical properties :
#
#
# Convention : Reuss Voigt Hill
#
# Bulk Modulus (GPa) = 38.03514 70.25265 54.14389
# Shear Modulus (GPa) = 10.95853 21.28242 16.12048
#
# Velocity S-wave (km/s) = 2.47535 3.44962 3.00227
# Velocity P-wave (km/s) = 5.42558 7.42615 6.50326
#
# Compressibility (1/GPa) = 0.02629148
#
# Stress axis : x y z
#
# Youngs Moduli (GPa) = 87.50478 25.78921 64.40432
#
# Poissons Ratio (x) = 0.35812 0.23596
# Poissons Ratio (y) = 1.21514 0.13971
# Poissons Ratio (z) = 0.32060 0.05594
#
# Static dielectric constant tensor:
#      x y z
#    x 4.336970 0.000000 0.000000 
#    y 0.000000 2.978310 0.000000 
#    z 0.000000 0.000000 3.250730 
# 
# 
# High freq. dielectric constant tensor:
#      x y z
#    x 1.724500 0.000000 0.000000 
#    y 0.000000 1.623190 0.000000 
#    z 0.000000 0.000000 1.693690 
# 
# From -- ./inp_files/7042.got.cif
#   From: 2010.03.12/outbox.cif.g09.slc.cpg/sg57_4_cif.got.tgz:7042.got - 2010.04.16 15:48:40.
