data_PCOD8229795
_publ_section_title
;
Structure prediction by ZEFSAII (Michael W. Deem and Ramdas Pophale) SiO2 
 PCOD8229795
Probable space group: P C C N
;
_chemical_formula_sum "Si O2"
_cell_formula_units_Z 32
_cell_length_a 8.508437
_cell_length_b 19.026109
_cell_length_c 8.204327
_cell_angle_alpha 90.000000
_cell_angle_beta 90.000000
_cell_angle_gamma 90.000000
_cell_volume 1328.136554
_symmetry_space_group_name_H-M "P C C N"
_symmetry_group_IT_number 56
_symmetry_cell_setting 'orthorhombic'
loop_
_space_group_symop_operation_xyz
x,y,z
1/2-x,1/2-y,z
1/2+x,-y,1/2-z
-x,1/2+y,1/2-z
-x,-y,-z
1/2+x,1/2+y,-z
1/2-x,y,1/2+z
x,1/2-y,1/2+z
loop_
_atom_site_type_symbol
_atom_site_label
_atom_site_fract_x
_atom_site_fract_y
_atom_site_fract_z
Si Si1 0.095811 0.297567 0.876567
Si Si2 0.830029 0.068644 0.872111
Si Si3 0.392890 0.705665 0.327850
Si Si4 0.516098 0.431949 0.221404
O O1 0.250000 0.250000 0.864612
O O2 0.945711 0.255740 0.816339
O O3 0.106535 0.369953 0.771817
O O4 0.046130 0.311394 0.062128
O O5 0.844264 0.132356 0.748125
O O6 0.641413 0.055141 0.868139
O O7 0.893786 0.086967 0.051815
O O8 0.915156 0.001293 0.799044
O O9 0.250000 0.750000 0.413095
#
# Coordination Sequence:
#
# PCOD8229795 Si02
#       4
#     8   8   8   8
#     4  12  27  46  73 110 151 194 249 308 368 439
#     4  11  26  48  77 108 147 194 249 304 371 448
#     4  12  25  46  75 107 146 199 246 302 371 443
#     4  11  26  49  75 110 147 194 248 305 374 440
#
# _framework density 24.093907999999999
#
# number of rings (size 3 to 8) (size 9 to 14) (size 15 to 20)
#    0.000    0.500    2.500    4.500    3.500    4.000 
#    0.000    1.250    0.000    0.000    0.000    0.000 
#    0.000    0.000    0.000    0.000    0.000    0.000 
#
# Total GULP energy -396568.005330 kJ/mol
# GULP energy per Si atom -12392.750167 kJ/mol
# Density = 2.403907 g / cm^3
# Si number density = 24.093908 Si / 1000 Ang^3
#
#
#
# Elastic Constant Matrix: (Units=GPa)
#
#
# Indices 1 2 3 4 5 6 
#
# 1 104.8811 61.4724 37.3099 0.0000 0.0000 0.0000
# 2 61.4724 168.8018 51.9871 0.0000 0.0000 0.0000
# 3 37.3099 51.9871 70.6386 0.0000 0.0000 0.0000
# 4 0.0000 0.0000 0.0000 4.2923 0.0000 0.0000
# 5 0.0000 0.0000 0.0000 0.0000 -69.7498 0.0000
# 6 0.0000 0.0000 0.0000 0.0000 0.0000 49.9808
#
#
#
# Elastic Compliance Matrix: (Units=1/GPa)
#
#
# Indices 1 2 3 4 5 6 
#
# 1 0.013104 -0.003414 -0.004408 0.000000 0.000000 0.000000
# 2 -0.003414 0.008550 -0.004489 0.000000 0.000000 0.000000
# 3 -0.004408 -0.004489 0.019789 0.000000 0.000000 0.000000
# 4 0.000000 0.000000 0.000000 0.232976 0.000000 0.000000
# 5 0.000000 0.000000 0.000000 0.000000 -0.014337 0.000000
# 6 0.000000 0.000000 0.000000 0.000000 0.000000 0.020008
#
#
# Mechanical properties :
#
#
# Convention : Reuss Voigt Hill
#
# Bulk Modulus (GPa) = 59.45628 71.76226 65.60927
# Shear Modulus (GPa) = 16.11238 9.80813 12.96026
#
# Velocity S-wave (km/s) = 2.58879 2.01981 2.32180
# Velocity P-wave (km/s) = 5.80226 5.94042 5.87175
#
# Compressibility (1/GPa) = 0.01681908
#
# Stress axis : x y z
#
# Youngs Moduli (GPa) = 76.31216 116.95820 50.53360
#
# Poissons Ratio (x) = 0.39934 0.22277
# Poissons Ratio (y) = 0.26056 0.22685
# Poissons Ratio (z) = 0.33642 0.52504
#
# Static dielectric constant tensor:
#      x y z
#    x 4.826680 0.000000 0.000000 
#    y 0.000000 5.933270 0.000000 
#    z 0.000000 0.000000 4.405530 
# 
# 
# High freq. dielectric constant tensor:
#      x y z
#    x 1.957610 0.000000 0.000000 
#    y 0.000000 1.971570 0.000000 
#    z 0.000000 0.000000 1.961790 
# 
# From -- ./inp_files/1923.got.cif
#   From: 2010.03.12/outbox.cif.g09.slc.cpg/sg56_1_cif.got.tgz:1923.got - 2010.04.16 15:33:40.
