data_PCOD8229232
_publ_section_title
;
Structure prediction by ZEFSAII (Michael W. Deem and Ramdas Pophale) SiO2 
 PCOD8229232
Probable space group: P C C N
;
_chemical_formula_sum "Si O2"
_cell_formula_units_Z 56
_cell_length_a 22.395901
_cell_length_b 13.727790
_cell_length_c 7.559814
_cell_angle_alpha 90.000000
_cell_angle_beta 90.000000
_cell_angle_gamma 90.000000
_cell_volume 2324.236282
_symmetry_space_group_name_H-M "P C C N"
_symmetry_group_IT_number 56
_symmetry_cell_setting 'orthorhombic'
loop_
_space_group_symop_operation_xyz
x,y,z
1/2-x,1/2-y,z
1/2+x,-y,1/2-z
-x,1/2+y,1/2-z
-x,-y,-z
1/2+x,1/2+y,-z
1/2-x,y,1/2+z
x,1/2-y,1/2+z
loop_
_atom_site_type_symbol
_atom_site_label
_atom_site_fract_x
_atom_site_fract_y
_atom_site_fract_z
Si Si1 0.316361 0.018611 0.557945
Si Si2 0.616247 0.166002 0.523144
Si Si3 0.428267 0.391973 0.208626
Si Si4 0.108757 0.875105 0.573264
Si Si5 0.420418 0.314528 0.580299
Si Si6 0.317512 0.442850 0.660499
Si Si7 0.474655 0.590546 0.249765
O O1 0.362278 0.061127 0.701434
O O2 0.252287 0.051822 0.624471
O O3 0.329222 0.063414 0.368032
O O4 0.328328 0.902147 0.539074
O O5 0.591797 0.142153 0.720291
O O6 0.638656 0.277600 0.509595
O O7 0.560377 0.157782 0.389511
O O8 0.445471 0.349220 0.395740
O O9 0.430921 0.301360 0.074751
O O10 0.475104 0.479728 0.171804
O O11 0.053574 0.905901 0.448201
O O12 0.155800 0.962652 0.563550
O O13 0.350256 0.344192 0.593281
O O14 0.457585 0.370967 0.733915
#
# Coordination Sequence:
#
# PCOD8229232 Si02
#       7
#     8   8   8   8   8   8   8
#     4  10  24  46  67  99 138 181 229 303 341 417
#     4  10  23  40  69 108 144 186 237 282 358 429
#     4  11  25  47  69 101 140 179 239 286 362 415
#     4  11  22  41  69 106 141 188 233 283 358 429
#     4  12  26  43  71 104 132 190 233 288 355 430
#     4  11  24  43  70  97 136 181 238 287 354 412
#     4  11  25  46  72 100 152 186 230 299 357 419
#
# _framework density 24.093934000000001
#
# number of rings (size 3 to 8) (size 9 to 14) (size 15 to 20)
#    0.000    1.143    2.857    2.143    4.000    1.143 
#    2.571    8.571    0.000    0.000    0.000    0.000 
#    0.000    0.000    0.000    0.000    0.000    0.000 
#
# Total GULP energy -694119.025666 kJ/mol
# GULP energy per Si atom -12394.982601 kJ/mol
# Density = 2.403910 g / cm^3
# Si number density = 24.093934 Si / 1000 Ang^3
#
#
#
# Elastic Constant Matrix: (Units=GPa)
#
#
# Indices 1 2 3 4 5 6 
#
# 1 80.0011 15.5869 17.6721 0.0000 0.0000 0.0000
# 2 15.5869 139.3187 25.0401 0.0000 0.0000 0.0000
# 3 17.6721 25.0401 73.1291 0.0000 0.0000 0.0000
# 4 0.0000 0.0000 0.0000 37.8324 0.0000 0.0000
# 5 0.0000 0.0000 0.0000 0.0000 22.5345 0.0000
# 6 0.0000 0.0000 0.0000 0.0000 0.0000 16.6860
#
#
#
# Elastic Compliance Matrix: (Units=1/GPa)
#
#
# Indices 1 2 3 4 5 6 
#
# 1 0.013327 -0.000972 -0.002888 0.000000 0.000000 0.000000
# 2 -0.000972 0.007719 -0.002408 0.000000 0.000000 0.000000
# 3 -0.002888 -0.002408 0.015197 0.000000 0.000000 0.000000
# 4 0.000000 0.000000 0.000000 0.026432 0.000000 0.000000
# 5 0.000000 0.000000 0.000000 0.000000 0.044376 0.000000
# 6 0.000000 0.000000 0.000000 0.000000 0.000000 0.059930
#
#
# Mechanical properties :
#
#
# Convention : Reuss Voigt Hill
#
# Bulk Modulus (GPa) = 42.18110 45.44965 43.81538
# Shear Modulus (GPa) = 26.67789 31.02058 28.84923
#
# Velocity S-wave (km/s) = 3.33114 3.59205 3.46405
# Velocity P-wave (km/s) = 5.68685 6.00901 5.85015
#
# Compressibility (1/GPa) = 0.02370730
#
# Stress axis : x y z
#
# Youngs Moduli (GPa) = 75.03504 129.54401 65.80284
#
# Poissons Ratio (x) = 0.12592 0.19002
# Poissons Ratio (y) = 0.07293 0.15847
# Poissons Ratio (z) = 0.21668 0.31198
#
# Static dielectric constant tensor:
#      x y z
#    x 4.157760 0.000000 0.000000 
#    y 0.000000 4.684410 0.000000 
#    z 0.000000 0.000000 4.527670 
# 
# 
# High freq. dielectric constant tensor:
#      x y z
#    x 1.924890 0.000000 0.000000 
#    y 0.000000 1.965250 0.000000 
#    z 0.000000 0.000000 1.976820 
# 
# From -- ./inp_files/4478.got.cif
#   From: 2010.03.12/outbox.cif.g09.slc.cpg/sg56_3_cif.got.tgz:4478.got - 2010.04.16 15:33:40.
