data_PCOD8229257
_publ_section_title
;
Structure prediction by ZEFSAII (Michael W. Deem and Ramdas Pophale) SiO2 
 PCOD8229257
Probable space group: P C C N
;
_chemical_formula_sum "Si O2"
_cell_formula_units_Z 44
_cell_length_a 8.881762
_cell_length_b 24.968809
_cell_length_c 9.010583
_cell_angle_alpha 90.000000
_cell_angle_beta 90.000000
_cell_angle_gamma 90.000000
_cell_volume 1998.250131
_symmetry_space_group_name_H-M "P C C N"
_symmetry_group_IT_number 56
_symmetry_cell_setting 'orthorhombic'
loop_
_space_group_symop_operation_xyz
x,y,z
1/2-x,1/2-y,z
1/2+x,-y,1/2-z
-x,1/2+y,1/2-z
-x,-y,-z
1/2+x,1/2+y,-z
1/2-x,y,1/2+z
x,1/2-y,1/2+z
loop_
_atom_site_type_symbol
_atom_site_label
_atom_site_fract_x
_atom_site_fract_y
_atom_site_fract_z
Si Si1 0.440829 0.039952 0.694080
Si Si2 0.250000 0.250000 0.039244
Si Si3 0.441367 0.845491 0.661717
Si Si4 0.154270 0.860590 0.831086
Si Si5 0.359767 0.444839 0.863401
Si Si6 0.545378 0.725152 0.709639
O O1 0.565632 0.085781 0.705671
O O2 0.312594 0.049235 0.815373
O O3 0.360825 0.038826 0.535096
O O4 0.526976 0.984221 0.725237
O O5 0.146030 0.288030 0.935417
O O6 0.354882 0.286967 0.142916
O O7 0.328355 0.867573 0.787685
O O8 0.358090 0.844686 0.502961
O O9 0.586356 0.883944 0.660176
O O10 0.496707 0.786783 0.705327
O O11 0.096794 0.813268 0.721690
#
# Coordination Sequence:
#
# PCOD8229257 Si02
#       6
#     8   4   8   8   8   8
#     4  10  23  42  65  92 123 158 203 252 304 362
#     4  10  24  38  62  90 128 154 210 254 304 356
#     4  11  25  41  62  91 126 163 206 253 304 364
#     4  11  25  41  62  91 126 163 206 253 304 364
#     4  10  23  42  65  92 123 158 203 252 304 362
#     4  11  23  40  62  90 126 162 204 252 306 366
#
# _framework density 22.019265999999998
#
# number of rings (size 3 to 8) (size 9 to 14) (size 15 to 20)
#    0.000    1.455    1.818    1.636    7.636    3.636 
#    0.000    0.000    0.000    0.000    0.000    0.000 
#    0.000    0.000    0.000    0.000    0.000    0.000 
#
# Total GULP energy -545735.347074 kJ/mol
# GULP energy per Si atom -12403.076070 kJ/mol
# Density = 2.196915 g / cm^3
# Si number density = 22.019266 Si / 1000 Ang^3
#
#
#
# Elastic Constant Matrix: (Units=GPa)
#
#
# Indices 1 2 3 4 5 6 
#
# 1 77.3718 12.4577 27.1685 0.0000 0.0000 0.0000
# 2 12.4577 99.2683 18.1968 0.0000 0.0000 0.0000
# 3 27.1685 18.1968 81.9196 0.0000 0.0000 0.0000
# 4 0.0000 0.0000 0.0000 22.9324 0.0000 0.0000
# 5 0.0000 0.0000 0.0000 0.0000 34.6140 0.0000
# 6 0.0000 0.0000 0.0000 0.0000 0.0000 29.3528
#
#
#
# Elastic Compliance Matrix: (Units=1/GPa)
#
#
# Indices 1 2 3 4 5 6 
#
# 1 0.014721 -0.000993 -0.004662 0.000000 0.000000 0.000000
# 2 -0.000993 0.010568 -0.002018 0.000000 0.000000 0.000000
# 3 -0.004662 -0.002018 0.014201 0.000000 0.000000 0.000000
# 4 0.000000 0.000000 0.000000 0.043606 0.000000 0.000000
# 5 0.000000 0.000000 0.000000 0.000000 0.028890 0.000000
# 6 0.000000 0.000000 0.000000 0.000000 0.000000 0.034068
#
#
# Mechanical properties :
#
#
# Convention : Reuss Voigt Hill
#
# Bulk Modulus (GPa) = 41.41592 41.57843 41.49717
# Shear Modulus (GPa) = 29.50718 30.76227 30.13473
#
# Velocity S-wave (km/s) = 3.66466 3.74178 3.70342
# Velocity P-wave (km/s) = 6.06268 6.13120 6.09704
#
# Compressibility (1/GPa) = 0.02414530
#
# Stress axis : x y z
#
# Youngs Moduli (GPa) = 67.92821 94.62275 70.41525
#
# Poissons Ratio (x) = 0.09395 0.32826
# Poissons Ratio (y) = 0.06745 0.14211
# Poissons Ratio (z) = 0.31667 0.19097
#
# Static dielectric constant tensor:
#      x y z
#    x 3.988780 0.000000 0.000000 
#    y 0.000000 3.851210 0.000000 
#    z 0.000000 0.000000 4.039740 
# 
# 
# High freq. dielectric constant tensor:
#      x y z
#    x 1.874160 0.000000 0.000000 
#    y 0.000000 1.860450 0.000000 
#    z 0.000000 0.000000 1.866980 
# 
# From -- ./inp_files/2184.got.cif
#   From: 2010.03.12/outbox.cif.g09.slc.cpg/sg56_2_cif.got.tgz:2184.got - 2010.04.16 15:33:40.
