data_PCOD8229797
_publ_section_title
;
Structure prediction by ZEFSAII (Michael W. Deem and Ramdas Pophale) SiO2 
 PCOD8229797
Probable space group: P C C N
;
_chemical_formula_sum "Si O2"
_cell_formula_units_Z 24
_cell_length_a 11.221302
_cell_length_b 8.891654
_cell_length_c 9.861862
_cell_angle_alpha 90.000000
_cell_angle_beta 90.000000
_cell_angle_gamma 90.000000
_cell_volume 983.976500
_symmetry_space_group_name_H-M "P C C N"
_symmetry_group_IT_number 56
_symmetry_cell_setting 'orthorhombic'
loop_
_space_group_symop_operation_xyz
x,y,z
1/2-x,1/2-y,z
1/2+x,-y,1/2-z
-x,1/2+y,1/2-z
-x,-y,-z
1/2+x,1/2+y,-z
1/2-x,y,1/2+z
x,1/2-y,1/2+z
loop_
_atom_site_type_symbol
_atom_site_label
_atom_site_fract_x
_atom_site_fract_y
_atom_site_fract_z
Si Si1 0.395595 0.106934 0.048028
Si Si2 0.052962 0.139670 0.848143
Si Si3 0.181771 0.601173 0.502765
O O1 0.429778 0.181220 0.191515
O O2 0.273841 0.016692 0.065858
O O3 0.377963 0.238625 0.939207
O O4 0.500000 0.000000 0.000000
O O5 0.911799 0.143334 0.879233
O O6 0.108710 0.974412 0.878487
O O7 0.250000 0.750000 0.449821
#
# Coordination Sequence:
#
# PCOD8229797 Si02
#       3
#     8   8   8
#     4  12  28  49  79 110 153 198 254 309 383 442
#     4  11  29  49  76 115 150 201 250 311 376 450
#     4  11  26  48  80 110 155 196 251 311 373 448
#
# _framework density 24.390826000000001
#
# number of rings (size 3 to 8) (size 9 to 14) (size 15 to 20)
#    0.000    0.667    3.333    1.000   14.000    4.000 
#    0.000    0.000    0.000    0.000    0.000    0.000 
#    0.000    0.000    0.000    0.000    0.000    0.000 
#
# Total GULP energy -297752.973101 kJ/mol
# GULP energy per Si atom -12406.373879 kJ/mol
# Density = 2.433531 g / cm^3
# Si number density = 24.390826 Si / 1000 Ang^3
#
#
#
# Elastic Constant Matrix: (Units=GPa)
#
#
# Indices 1 2 3 4 5 6 
#
# 1 129.7653 49.8945 9.8850 0.0000 0.0000 0.0000
# 2 49.8945 142.3835 51.3903 0.0000 0.0000 0.0000
# 3 9.8850 51.3903 160.7188 0.0000 0.0000 0.0000
# 4 0.0000 0.0000 0.0000 33.5395 0.0000 0.0000
# 5 0.0000 0.0000 0.0000 0.0000 16.8231 0.0000
# 6 0.0000 0.0000 0.0000 0.0000 0.0000 54.2356
#
#
#
# Elastic Compliance Matrix: (Units=1/GPa)
#
#
# Indices 1 2 3 4 5 6 
#
# 1 0.008943 -0.003318 0.000511 0.000000 0.000000 0.000000
# 2 -0.003318 0.009171 -0.002728 0.000000 0.000000 0.000000
# 3 0.000511 -0.002728 0.007063 0.000000 0.000000 0.000000
# 4 0.000000 0.000000 0.000000 0.029816 0.000000 0.000000
# 5 0.000000 0.000000 0.000000 0.000000 0.059442 0.000000
# 6 0.000000 0.000000 0.000000 0.000000 0.000000 0.018438
#
#
# Mechanical properties :
#
#
# Convention : Reuss Voigt Hill
#
# Bulk Modulus (GPa) = 70.89315 72.80080 71.84698
# Shear Modulus (GPa) = 33.63700 42.36618 38.00159
#
# Velocity S-wave (km/s) = 3.71763 4.17222 3.95147
# Velocity P-wave (km/s) = 6.89611 7.28851 7.09502
#
# Compressibility (1/GPa) = 0.01410573
#
# Stress axis : x y z
#
# Youngs Moduli (GPa) = 111.81691 109.04142 141.58288
#
# Poissons Ratio (x) = 0.36184 -0.07235
# Poissons Ratio (y) = 0.37105 0.38628
# Poissons Ratio (z) = -0.05714 0.29750
#
# Static dielectric constant tensor:
#      x y z
#    x 4.793390 0.000000 0.000000 
#    y 0.000000 5.874470 0.000000 
#    z 0.000000 0.000000 4.052010 
# 
# 
# High freq. dielectric constant tensor:
#      x y z
#    x 1.995220 0.000000 0.000000 
#    y 0.000000 1.981800 0.000000 
#    z 0.000000 0.000000 1.944470 
# 
# From -- ./inp_files/5824.got.cif
#   From: 2010.03.12/outbox.cif.g09.slc.cpg/sg56_3_cif.got.tgz:5824.got - 2010.04.16 15:33:40.
