data_PCOD8229113
_publ_section_title
;
Structure prediction by ZEFSAII (Michael W. Deem and Ramdas Pophale) SiO2 
 PCOD8229113
Probable space group: P C C N
;
_chemical_formula_sum "Si O2"
_cell_formula_units_Z 64
_cell_length_a 14.289175
_cell_length_b 8.502189
_cell_length_c 23.236761
_cell_angle_alpha 90.000000
_cell_angle_beta 90.000000
_cell_angle_gamma 90.000000
_cell_volume 2823.017050
_symmetry_space_group_name_H-M "P C C N"
_symmetry_group_IT_number 56
_symmetry_cell_setting 'orthorhombic'
loop_
_space_group_symop_operation_xyz
x,y,z
1/2-x,1/2-y,z
1/2+x,-y,1/2-z
-x,1/2+y,1/2-z
-x,-y,-z
1/2+x,1/2+y,-z
1/2-x,y,1/2+z
x,1/2-y,1/2+z
loop_
_atom_site_type_symbol
_atom_site_label
_atom_site_fract_x
_atom_site_fract_y
_atom_site_fract_z
Si Si1 0.283022 0.574132 0.320019
Si Si2 0.589699 0.531123 0.220346
Si Si3 0.333216 0.147952 0.048753
Si Si4 0.855980 0.301357 0.956148
Si Si5 0.175186 0.365858 0.920551
Si Si6 0.033089 0.808118 0.302786
Si Si7 0.015943 0.363570 0.397937
Si Si8 0.027574 0.787003 0.933945
O O1 0.250000 0.750000 0.330336
O O2 0.202093 0.469654 0.289929
O O3 0.314451 0.521317 0.383284
O O4 0.379620 0.578629 0.283148
O O5 0.564999 0.621604 0.279681
O O6 0.548987 0.358218 0.227065
O O7 0.533645 0.620273 0.169874
O O8 0.250000 0.250000 0.079609
O O9 0.421803 0.262147 0.045176
O O10 0.359096 0.975494 0.074163
O O11 0.295743 0.097443 0.985671
O O12 0.750000 0.250000 0.962345
O O13 0.908696 0.179711 0.913078
O O14 0.904101 0.295655 0.019769
O O15 0.250000 0.250000 0.891377
O O16 0.073355 0.286389 0.920477
O O17 0.034931 0.793762 0.371650
O O18 0.047439 0.525641 0.429539
#
# Coordination Sequence:
#
# PCOD8229113 Si02
#       8
#     8   8   8   8   8   8   8   8
#     4  10  22  42  67 101 133 170 226 278 334 399
#     4  10  23  44  65 101 131 172 217 278 336 396
#     4  11  25  41  62  96 136 175 227 273 335 403
#     4  12  26  41  67  99 136 186 226 275 342 406
#     4  11  22  36  67 102 130 169 218 278 329 395
#     4  10  24  41  70  95 132 173 222 274 335 398
#     4  11  24  42  67  99 137 176 223 278 342 396
#     4  11  24  44  67  98 138 177 224 283 339 403
#
# _framework density 22.670781999999999
#
# number of rings (size 3 to 8) (size 9 to 14) (size 15 to 20)
#    0.000    1.250    2.500    2.250    7.000    3.000 
#    0.000    5.625    0.000    0.000    0.000    0.000 
#    0.000    0.000    0.000    0.000    0.000    0.000 
#
# Total GULP energy -793142.884232 kJ/mol
# GULP energy per Si atom -12392.857566 kJ/mol
# Density = 2.261918 g / cm^3
# Si number density = 22.670782 Si / 1000 Ang^3
#
#
#
# Elastic Constant Matrix: (Units=GPa)
#
#
# Indices 1 2 3 4 5 6 
#
# 1 144.4915 34.1999 34.6187 0.0000 0.0000 0.0000
# 2 34.1999 60.6210 26.0149 0.0000 0.0000 0.0000
# 3 34.6187 26.0149 61.4144 0.0000 0.0000 0.0000
# 4 0.0000 0.0000 0.0000 29.0630 0.0000 0.0000
# 5 0.0000 0.0000 0.0000 0.0000 22.8905 0.0000
# 6 0.0000 0.0000 0.0000 0.0000 0.0000 39.3428
#
#
#
# Elastic Compliance Matrix: (Units=1/GPa)
#
#
# Indices 1 2 3 4 5 6 
#
# 1 0.008526 -0.003358 -0.003384 0.000000 0.000000 0.000000
# 2 -0.003358 0.021483 -0.007207 0.000000 0.000000 0.000000
# 3 -0.003384 -0.007207 0.021243 0.000000 0.000000 0.000000
# 4 0.000000 0.000000 0.000000 0.034408 0.000000 0.000000
# 5 0.000000 0.000000 0.000000 0.000000 0.043686 0.000000
# 6 0.000000 0.000000 0.000000 0.000000 0.000000 0.025418
#
#
# Mechanical properties :
#
#
# Convention : Reuss Voigt Hill
#
# Bulk Modulus (GPa) = 42.81818 50.68821 46.75320
# Shear Modulus (GPa) = 26.25387 29.70550 27.97968
#
# Velocity S-wave (km/s) = 3.40670 3.62373 3.51689
# Velocity P-wave (km/s) = 5.86533 6.31787 6.09580
#
# Compressibility (1/GPa) = 0.02335457
#
# Stress axis : x y z
#
# Youngs Moduli (GPa) = 117.28318 46.54750 47.07387
#
# Poissons Ratio (x) = 0.15631 0.15929
# Poissons Ratio (y) = 0.39385 0.33928
# Poissons Ratio (z) = 0.39686 0.33548
#
# Static dielectric constant tensor:
#      x y z
#    x 4.373340 0.000000 0.000000 
#    y 0.000000 4.320950 0.000000 
#    z 0.000000 0.000000 3.726170 
# 
# 
# High freq. dielectric constant tensor:
#      x y z
#    x 1.902240 0.000000 0.000000 
#    y 0.000000 1.907390 0.000000 
#    z 0.000000 0.000000 1.858610 
# 
# From -- ./inp_files/21161.got.cif
#   From: 2010.03.12/outbox.cif.g09.slc.cpg/sg56_11_cif.got.tgz:21161.got - 2010.04.16 15:33:40.
