data_PCOD8229803
_publ_section_title
;
Structure prediction by ZEFSAII (Michael W. Deem and Ramdas Pophale) SiO2 
 PCOD8229803
Probable space group: P C C N
;
_chemical_formula_sum "Si O2"
_cell_formula_units_Z 36
_cell_length_a 6.538662
_cell_length_b 9.771518
_cell_length_c 26.187702
_cell_angle_alpha 90.000000
_cell_angle_beta 90.000000
_cell_angle_gamma 90.000000
_cell_volume 1673.201768
_symmetry_space_group_name_H-M "P C C N"
_symmetry_group_IT_number 56
_symmetry_cell_setting 'orthorhombic'
loop_
_space_group_symop_operation_xyz
x,y,z
1/2-x,1/2-y,z
1/2+x,-y,1/2-z
-x,1/2+y,1/2-z
-x,-y,-z
1/2+x,1/2+y,-z
1/2-x,y,1/2+z
x,1/2-y,1/2+z
loop_
_atom_site_type_symbol
_atom_site_label
_atom_site_fract_x
_atom_site_fract_y
_atom_site_fract_z
Si Si1 0.867935 0.889875 0.682842
Si Si2 0.750000 0.750000 0.853398
Si Si3 0.013924 0.474600 0.086513
Si Si4 0.410389 0.871074 0.285716
Si Si5 0.787147 0.085626 0.002623
O O1 0.750000 0.750000 0.684467
O O2 0.036219 0.902532 0.727115
O O3 0.984686 0.909091 0.629330
O O4 0.691961 0.000667 0.688068
O O5 0.596155 0.835415 0.888460
O O6 0.617730 0.654277 0.816583
O O7 0.170739 0.521947 0.044506
O O8 0.798672 0.448382 0.058674
O O9 0.250000 0.750000 0.288666
O O10 0.750000 0.250000 0.995929
O O11 0.000000 0.000000 0.000000
#
# Coordination Sequence:
#
# PCOD8229803 Si02
#       5
#     8   4   8   8   8
#     4  12  26  44  72 106 148 188 242 300 361 429
#     4  12  24  48  76 106 142 202 246 290 372 452
#     4  11  27  44  73 107 139 187 246 298 369 445
#     4  12  25  48  70 106 150 194 245 295 361 448
#     4  11  27  48  74 104 143 189 244 316 374 445
#
# _framework density 21.515635
#
# number of rings (size 3 to 8) (size 9 to 14) (size 15 to 20)
#    0.000    0.444    3.333    4.000    9.333    2.667 
#    0.000    0.000    0.000    0.000    0.000    0.000 
#    0.000    0.000    0.000    0.000    0.000    0.000 
#
# Total GULP energy -446223.621231 kJ/mol
# GULP energy per Si atom -12395.100590 kJ/mol
# Density = 2.146666 g / cm^3
# Si number density = 21.515635 Si / 1000 Ang^3
#
#
#
# Elastic Constant Matrix: (Units=GPa)
#
#
# Indices 1 2 3 4 5 6 
#
# 1 118.9865 42.5228 41.1232 0.0000 0.0000 0.0000
# 2 42.5228 76.9830 9.5590 0.0000 0.0000 0.0000
# 3 41.1232 9.5590 134.2209 0.0000 0.0000 0.0000
# 4 0.0000 0.0000 0.0000 6.2477 0.0000 0.0000
# 5 0.0000 0.0000 0.0000 0.0000 8.6485 0.0000
# 6 0.0000 0.0000 0.0000 0.0000 0.0000 -3.3213
#
#
#
# Elastic Compliance Matrix: (Units=1/GPa)
#
#
# Indices 1 2 3 4 5 6 
#
# 1 0.011649 -0.006045 -0.003139 0.000000 0.000000 0.000000
# 2 -0.006045 0.016243 0.000695 0.000000 0.000000 0.000000
# 3 -0.003139 0.000695 0.008363 0.000000 0.000000 0.000000
# 4 0.000000 0.000000 0.000000 0.160059 0.000000 0.000000
# 5 0.000000 0.000000 0.000000 0.000000 0.115627 0.000000
# 6 0.000000 0.000000 0.000000 0.000000 0.000000 -0.301088
#
#
# Mechanical properties :
#
#
# Convention : Reuss Voigt Hill
#
# Bulk Modulus (GPa) = 51.87313 57.40004 54.63659
# Shear Modulus (GPa) = 145.96195 18.11401 82.03798
#
# Velocity S-wave (km/s) = 8.24544 2.90470 6.18161
# Velocity P-wave (km/s) = 10.71501 6.16327 8.74063
#
# Compressibility (1/GPa) = 0.01927780
#
# Stress axis : x y z
#
# Youngs Moduli (GPa) = 85.84120 61.56647 119.58105
#
# Poissons Ratio (x) = 0.37217 0.37533
# Poissons Ratio (y) = 0.51891 -0.08315
# Poissons Ratio (z) = 0.26943 -0.04281
#
# Static dielectric constant tensor:
#      x y z
#    x 3.921280 0.000000 0.000000 
#    y 0.000000 3.916330 0.000000 
#    z 0.000000 0.000000 4.287480 
# 
# 
# High freq. dielectric constant tensor:
#      x y z
#    x 1.857310 0.000000 0.000000 
#    y 0.000000 1.853850 0.000000 
#    z 0.000000 0.000000 1.869820 
# 
# From -- ./inp_files/19864.got.cif
#   From: 2010.03.12/outbox.cif.g09.slc.cpg/sg56_10_cif.got.tgz:19864.got - 2010.04.16 15:33:40.
