data_PCOD8229493
_publ_section_title
;
Structure prediction by ZEFSAII (Michael W. Deem and Ramdas Pophale) SiO2 
 PCOD8229493
Probable space group: P C C N
;
_chemical_formula_sum "Si O2"
_cell_formula_units_Z 64
_cell_length_a 17.206909
_cell_length_b 14.048680
_cell_length_c 14.973327
_cell_angle_alpha 90.000000
_cell_angle_beta 90.000000
_cell_angle_gamma 90.000000
_cell_volume 3619.567594
_symmetry_space_group_name_H-M "P C C N"
_symmetry_group_IT_number 56
_symmetry_cell_setting 'orthorhombic'
loop_
_space_group_symop_operation_xyz
x,y,z
1/2-x,1/2-y,z
1/2+x,-y,1/2-z
-x,1/2+y,1/2-z
-x,-y,-z
1/2+x,1/2+y,-z
1/2-x,y,1/2+z
x,1/2-y,1/2+z
loop_
_atom_site_type_symbol
_atom_site_label
_atom_site_fract_x
_atom_site_fract_y
_atom_site_fract_z
Si Si1 0.670422 0.996379 0.339840
Si Si2 0.084753 0.144941 0.819419
Si Si3 0.501207 0.993631 0.103356
Si Si4 0.588210 0.347281 0.178543
Si Si5 0.421960 0.146259 0.772827
Si Si6 0.074419 0.860045 0.271072
Si Si7 0.346387 0.507340 0.695667
Si Si8 0.412475 0.504413 0.971797
O O1 0.643707 0.899928 0.290266
O O2 0.643379 0.083262 0.276930
O O3 0.762836 0.998390 0.348889
O O4 0.641392 0.003354 0.441339
O O5 0.111415 0.254397 0.810671
O O6 0.991584 0.148925 0.805229
O O7 0.131040 0.091135 0.742493
O O8 0.104725 0.090167 0.911771
O O9 0.559257 0.911995 0.137759
O O10 0.411555 0.971146 0.122717
O O11 0.532947 0.090610 0.145408
O O12 0.500000 0.000000 0.000000
O O13 0.499451 0.356026 0.212135
O O14 0.610026 0.236414 0.187026
O O15 0.650813 0.404285 0.236810
O O16 0.597203 0.394817 0.080643
O O17 0.500000 0.500000 0.000000
#
# Coordination Sequence:
#
# PCOD8229493 Si02
#       8
#     8   8   8   8   8   8   8   8
#     4  11  20  35  57  82 111 145 185 233 288 330
#     4   9  18  36  56  79 108 143 184 228 273 328
#     4   9  18  36  54  81 110 144 187 222 263 331
#     4   9  18  36  56  79 108 143 184 228 273 328
#     4   9  18  34  59  79 103 148 184 219 280 336
#     4   9  18  34  59  79 103 148 184 219 280 336
#     4   9  20  36  55  73 115 149 172 228 288 326
#     4  11  18  33  58  89 108 135 191 242 268 320
#
# _framework density 17.681668999999999
#
# number of rings (size 3 to 8) (size 9 to 14) (size 15 to 20)
#    0.000    2.500    2.500    1.500    0.000    2.000 
#   13.500    0.000    0.000    0.000    0.000    0.000 
#    0.000    0.000    0.000    0.000    0.000    0.000 
#
# Total GULP energy -792953.833079 kJ/mol
# GULP energy per Si atom -12389.903642 kJ/mol
# Density = 1.764143 g / cm^3
# Si number density = 17.681669 Si / 1000 Ang^3
#
#
#
# Elastic Constant Matrix: (Units=GPa)
#
#
# Indices 1 2 3 4 5 6 
#
# 1 82.1256 20.5716 29.0888 0.0000 0.0000 0.0000
# 2 20.5716 136.7388 39.8921 0.0000 0.0000 0.0000
# 3 29.0888 39.8921 116.2220 0.0000 0.0000 0.0000
# 4 0.0000 0.0000 0.0000 15.2755 0.0000 0.0000
# 5 0.0000 0.0000 0.0000 0.0000 18.9611 0.0000
# 6 0.0000 0.0000 0.0000 0.0000 0.0000 14.6273
#
#
#
# Elastic Compliance Matrix: (Units=1/GPa)
#
#
# Indices 1 2 3 4 5 6 
#
# 1 0.013526 -0.001164 -0.002986 0.000000 0.000000 0.000000
# 2 -0.001164 0.008227 -0.002533 0.000000 0.000000 0.000000
# 3 -0.002986 -0.002533 0.010221 0.000000 0.000000 0.000000
# 4 0.000000 0.000000 0.000000 0.065464 0.000000 0.000000
# 5 0.000000 0.000000 0.000000 0.000000 0.052740 0.000000
# 6 0.000000 0.000000 0.000000 0.000000 0.000000 0.068365
#
#
# Mechanical properties :
#
#
# Convention : Reuss Voigt Hill
#
# Bulk Modulus (GPa) = 53.73702 57.13238 55.43470
# Shear Modulus (GPa) = 20.99870 26.14171 23.57020
#
# Velocity S-wave (km/s) = 3.44989 3.84925 3.65503
# Velocity P-wave (km/s) = 6.80635 7.22063 7.01654
#
# Compressibility (1/GPa) = 0.01860914
#
# Stress axis : x y z
#
# Youngs Moduli (GPa) = 73.93409 121.54861 97.83935
#
# Poissons Ratio (x) = 0.14145 0.29213
# Poissons Ratio (y) = 0.08604 0.24779
# Poissons Ratio (z) = 0.22075 0.30784
#
# Static dielectric constant tensor:
#      x y z
#    x 2.904370 0.000000 0.000000 
#    y 0.000000 2.940520 0.000000 
#    z 0.000000 0.000000 3.454280 
# 
# 
# High freq. dielectric constant tensor:
#      x y z
#    x 1.663530 0.000000 0.000000 
#    y 0.000000 1.689290 0.000000 
#    z 0.000000 0.000000 1.676010 
# 
# From -- ./inp_files/12909.got.cif
#   From: 2010.03.12/outbox.cif.g09.slc.cpg/sg56_7_cif.got.tgz:12909.got - 2010.04.16 15:33:40.
