data_PCOD8229252
_publ_section_title
;
Structure prediction by ZEFSAII (Michael W. Deem and Ramdas Pophale) SiO2 
 PCOD8229252
Probable space group: P C C N
;
_chemical_formula_sum "Si O2"
_cell_formula_units_Z 48
_cell_length_a 8.727833
_cell_length_b 9.988778
_cell_length_c 27.364887
_cell_angle_alpha 90.000000
_cell_angle_beta 90.000000
_cell_angle_gamma 90.000000
_cell_volume 2385.681419
_symmetry_space_group_name_H-M "P C C N"
_symmetry_group_IT_number 56
_symmetry_cell_setting 'orthorhombic'
loop_
_space_group_symop_operation_xyz
x,y,z
1/2-x,1/2-y,z
1/2+x,-y,1/2-z
-x,1/2+y,1/2-z
-x,-y,-z
1/2+x,1/2+y,-z
1/2-x,y,1/2+z
x,1/2-y,1/2+z
loop_
_atom_site_type_symbol
_atom_site_label
_atom_site_fract_x
_atom_site_fract_y
_atom_site_fract_z
Si Si1 0.893329 0.344450 0.458111
Si Si2 0.905097 0.495992 0.709396
Si Si3 0.110117 0.150880 0.046314
Si Si4 0.428647 0.268564 0.861737
Si Si5 0.571682 0.730555 0.846912
Si Si6 0.452126 0.995541 0.812581
O O1 0.750000 0.250000 0.453232
O O2 0.836296 0.497716 0.459976
O O3 0.979609 0.309762 0.508092
O O4 0.002573 0.315910 0.412634
O O5 0.969004 0.620660 0.678687
O O6 0.723615 0.487395 0.703198
O O7 0.991382 0.360979 0.693708
O O8 0.938309 0.519709 0.766021
O O9 0.250000 0.250000 0.037445
O O10 0.042902 0.165453 0.100480
O O11 0.250000 0.250000 0.870581
O O12 0.497281 0.129209 0.842122
O O13 0.750000 0.750000 0.834190
O O14 0.489036 0.873669 0.848571
#
# Coordination Sequence:
#
# PCOD8229252 Si02
#       6
#     8   8   8   8   8   8
#     4  11  24  42  69  96 124 165 211 257 315 380
#     4  11  22  42  62  94 128 167 215 264 318 378
#     4  10  24  45  64  95 132 163 206 263 313 376
#     4  10  23  42  62  91 127 166 207 261 317 373
#     4  11  23  41  63  92 128 169 209 265 314 371
#     4  11  24  38  66  92 127 170 213 262 320 378
#
# _framework density 20.120038000000001
#
# number of rings (size 3 to 8) (size 9 to 14) (size 15 to 20)
#    0.000    1.333    1.667    3.000    4.667    4.667 
#    3.000    0.000    0.000    0.000    0.000    0.000 
#    0.000    0.000    0.000    0.000    0.000    0.000 
#
# Total GULP energy -595467.052134 kJ/mol
# GULP energy per Si atom -12405.563586 kJ/mol
# Density = 2.007424 g / cm^3
# Si number density = 20.120038 Si / 1000 Ang^3
#
#
#
# Elastic Constant Matrix: (Units=GPa)
#
#
# Indices 1 2 3 4 5 6 
#
# 1 50.1774 22.5168 13.0838 0.0000 0.0000 0.0000
# 2 22.5168 111.7400 10.4755 0.0000 0.0000 0.0000
# 3 13.0838 10.4755 64.7967 0.0000 0.0000 0.0000
# 4 0.0000 0.0000 0.0000 30.2108 0.0000 0.0000
# 5 0.0000 0.0000 0.0000 0.0000 20.3949 0.0000
# 6 0.0000 0.0000 0.0000 0.0000 0.0000 35.4942
#
#
#
# Elastic Compliance Matrix: (Units=1/GPa)
#
#
# Indices 1 2 3 4 5 6 
#
# 1 0.022855 -0.004237 -0.003930 0.000000 0.000000 0.000000
# 2 -0.004237 0.009873 -0.000740 0.000000 0.000000 0.000000
# 3 -0.003930 -0.000740 0.016346 0.000000 0.000000 0.000000
# 4 0.000000 0.000000 0.000000 0.033101 0.000000 0.000000
# 5 0.000000 0.000000 0.000000 0.000000 0.049032 0.000000
# 6 0.000000 0.000000 0.000000 0.000000 0.000000 0.028174
#
#
# Mechanical properties :
#
#
# Convention : Reuss Voigt Hill
#
# Bulk Modulus (GPa) = 31.99093 35.42959 33.71026
# Shear Modulus (GPa) = 26.65026 29.26250 27.95638
#
# Velocity S-wave (km/s) = 3.64340 3.81779 3.73162
# Velocity P-wave (km/s) = 5.79946 6.08945 5.94622
#
# Compressibility (1/GPa) = 0.03125886
#
# Stress axis : x y z
#
# Youngs Moduli (GPa) = 43.75328 101.29037 61.17649
#
# Poissons Ratio (x) = 0.42919 0.24042
# Poissons Ratio (y) = 0.18539 0.04530
# Poissons Ratio (z) = 0.17195 0.07501
#
# Static dielectric constant tensor:
#      x y z
#    x 3.536250 0.000000 0.000000 
#    y 0.000000 3.909840 0.000000 
#    z 0.000000 0.000000 3.746720 
# 
# 
# High freq. dielectric constant tensor:
#      x y z
#    x 1.783100 0.000000 0.000000 
#    y 0.000000 1.805750 0.000000 
#    z 0.000000 0.000000 1.795770 
# 
# From -- ./inp_files/23206.got.cif
#   From: 2010.03.12/outbox.cif.g09.slc.cpg/sg56_12_cif.got.tgz:23206.got - 2010.04.16 15:33:40.
