data_PCOD8229591
_publ_section_title
;
Structure prediction by ZEFSAII (Michael W. Deem and Ramdas Pophale) SiO2 
 PCOD8229591
Probable space group: P C C N
;
_chemical_formula_sum "Si O2"
_cell_formula_units_Z 48
_cell_length_a 17.255796
_cell_length_b 13.783308
_cell_length_c 9.103421
_cell_angle_alpha 90.000000
_cell_angle_beta 90.000000
_cell_angle_gamma 90.000000
_cell_volume 2165.175412
_symmetry_space_group_name_H-M "P C C N"
_symmetry_group_IT_number 56
_symmetry_cell_setting 'orthorhombic'
loop_
_space_group_symop_operation_xyz
x,y,z
1/2-x,1/2-y,z
1/2+x,-y,1/2-z
-x,1/2+y,1/2-z
-x,-y,-z
1/2+x,1/2+y,-z
1/2-x,y,1/2+z
x,1/2-y,1/2+z
loop_
_atom_site_type_symbol
_atom_site_label
_atom_site_fract_x
_atom_site_fract_y
_atom_site_fract_z
Si Si1 0.956766 0.700259 0.175649
Si Si2 0.672009 0.035209 0.961934
Si Si3 0.934362 0.482586 0.237566
Si Si4 0.128759 0.793605 0.743511
Si Si5 0.418974 0.365105 0.639632
Si Si6 0.334520 0.873682 0.554709
O O1 0.938702 0.598188 0.252857
O O2 0.899109 0.784485 0.236974
O O3 0.040557 0.741914 0.222935
O O4 0.950471 0.692739 0.001534
O O5 0.636591 0.107193 0.843528
O O6 0.762923 0.055507 0.978966
O O7 0.658332 0.925675 0.901868
O O8 0.629701 0.049420 0.117454
O O9 0.906534 0.441001 0.394918
O O10 0.018032 0.444033 0.191112
O O11 0.183311 0.706483 0.681739
O O12 0.145636 0.809653 0.913560
#
# Coordination Sequence:
#
# PCOD8229591 Si02
#       6
#     8   8   8   8   8   8
#     4  11  22  40  67  98 125 169 219 262 316 371
#     4  11  23  43  60  90 132 174 207 262 326 376
#     4  11  22  43  66  92 130 175 213 262 315 382
#     4  12  22  39  62  99 134 164 208 263 321 389
#     4  11  22  42  67  90 131 169 215 268 312 380
#     4  12  26  38  64  97 135 168 210 260 328 391
#
# _framework density 22.169104000000001
#
# number of rings (size 3 to 8) (size 9 to 14) (size 15 to 20)
#    0.000    0.667    5.000    4.500    0.000    3.333 
#    0.000    0.833    0.000    4.000    0.000    0.000 
#    0.000    0.000    0.000    0.000    0.000    0.000 
#
# Total GULP energy -595317.942258 kJ/mol
# GULP energy per Si atom -12402.457130 kJ/mol
# Density = 2.211865 g / cm^3
# Si number density = 22.169104 Si / 1000 Ang^3
#
#
#
# Elastic Constant Matrix: (Units=GPa)
#
#
# Indices 1 2 3 4 5 6 
#
# 1 61.4726 16.0644 26.4147 0.0000 0.0000 0.0000
# 2 16.0644 113.0997 33.9766 0.0000 0.0000 0.0000
# 3 26.4147 33.9766 59.2132 0.0000 0.0000 0.0000
# 4 0.0000 0.0000 0.0000 33.2236 0.0000 0.0000
# 5 0.0000 0.0000 0.0000 0.0000 19.5100 0.0000
# 6 0.0000 0.0000 0.0000 0.0000 0.0000 22.1459
#
#
#
# Elastic Compliance Matrix: (Units=1/GPa)
#
#
# Indices 1 2 3 4 5 6 
#
# 1 0.020129 -0.000195 -0.008867 0.000000 0.000000 0.000000
# 2 -0.000195 0.010685 -0.006044 0.000000 0.000000 0.000000
# 3 -0.008867 -0.006044 0.024312 0.000000 0.000000 0.000000
# 4 0.000000 0.000000 0.000000 0.030099 0.000000 0.000000
# 5 0.000000 0.000000 0.000000 0.000000 0.051256 0.000000
# 6 0.000000 0.000000 0.000000 0.000000 0.000000 0.045155
#
#
# Mechanical properties :
#
#
# Convention : Reuss Voigt Hill
#
# Bulk Modulus (GPa) = 40.14033 42.96632 41.55332
# Shear Modulus (GPa) = 22.71145 25.46454 24.08799
#
# Velocity S-wave (km/s) = 3.20420 3.39285 3.29987
# Velocity P-wave (km/s) = 5.64224 5.89676 5.77091
#
# Compressibility (1/GPa) = 0.02491260
#
# Stress axis : x y z
#
# Youngs Moduli (GPa) = 49.68031 93.58727 41.13204
#
# Poissons Ratio (x) = 0.01827 0.36473
# Poissons Ratio (y) = 0.00970 0.24861
# Poissons Ratio (z) = 0.44053 0.56565
#
# Static dielectric constant tensor:
#      x y z
#    x 3.801230 0.000000 0.000000 
#    y 0.000000 4.078990 0.000000 
#    z 0.000000 0.000000 3.992190 
# 
# 
# High freq. dielectric constant tensor:
#      x y z
#    x 1.843500 0.000000 0.000000 
#    y 0.000000 1.886530 0.000000 
#    z 0.000000 0.000000 1.875920 
# 
# From -- ./inp_files/4006.got.cif
#   From: 2010.03.12/outbox.cif.g09.slc.cpg/sg56_3_cif.got.tgz:4006.got - 2010.04.16 15:33:40.
