data_PCOD8229341
_publ_section_title
;
Structure prediction by ZEFSAII (Michael W. Deem and Ramdas Pophale) SiO2 
 PCOD8229341
Probable space group: P C C N
;
_chemical_formula_sum "Si O2"
_cell_formula_units_Z 28
_cell_length_a 12.567177
_cell_length_b 12.597196
_cell_length_c 8.358330
_cell_angle_alpha 90.000000
_cell_angle_beta 90.000000
_cell_angle_gamma 90.000000
_cell_volume 1323.217184
_symmetry_space_group_name_H-M "P C C N"
_symmetry_group_IT_number 56
_symmetry_cell_setting 'orthorhombic'
loop_
_space_group_symop_operation_xyz
x,y,z
1/2-x,1/2-y,z
1/2+x,-y,1/2-z
-x,1/2+y,1/2-z
-x,-y,-z
1/2+x,1/2+y,-z
1/2-x,y,1/2+z
x,1/2-y,1/2+z
loop_
_atom_site_type_symbol
_atom_site_label
_atom_site_fract_x
_atom_site_fract_y
_atom_site_fract_z
Si Si1 0.824041 0.615207 0.778954
Si Si2 0.250000 0.750000 0.471211
Si Si3 0.124347 0.876170 0.721824
Si Si4 0.887145 0.822452 0.635846
O O1 0.856525 0.497262 0.731082
O O2 0.882955 0.694642 0.654635
O O3 0.696831 0.627001 0.760737
O O4 0.857928 0.643244 0.957884
O O5 0.198514 0.844724 0.572807
O O6 0.345586 0.800153 0.368850
O O7 0.001932 0.865085 0.679679
#
# Coordination Sequence:
#
# PCOD8229341 Si02
#       4
#     8   4   8   8
#     4  11  23  40  62  91 122 158 203 247 296 360
#     4  10  24  40  62  94 118 156 212 238 292 378
#     4  11  23  43  63  87 125 161 195 253 302 346
#     4  11  23  40  62  91 122 158 203 247 296 360
#
# _framework density 21.160547000000001
#
# number of rings (size 3 to 8) (size 9 to 14) (size 15 to 20)
#    0.000    1.143    0.000    7.714    0.000    4.571 
#    0.000    8.571    0.000    0.000    0.000    0.000 
#    0.000    0.000    0.000    0.000    0.000    0.000 
#
# Total GULP energy -347303.265330 kJ/mol
# GULP energy per Si atom -12403.688047 kJ/mol
# Density = 2.111238 g / cm^3
# Si number density = 21.160547 Si / 1000 Ang^3
#
#
#
# Elastic Constant Matrix: (Units=GPa)
#
#
# Indices 1 2 3 4 5 6 
#
# 1 109.9448 17.7494 3.6582 0.0000 0.0000 0.0000
# 2 17.7494 139.2102 13.8497 0.0000 0.0000 0.0000
# 3 3.6582 13.8497 38.0430 0.0000 0.0000 0.0000
# 4 0.0000 0.0000 0.0000 168.2168 0.0000 0.0000
# 5 0.0000 0.0000 0.0000 0.0000 24.0985 0.0000
# 6 0.0000 0.0000 0.0000 0.0000 0.0000 17.1343
#
#
#
# Elastic Compliance Matrix: (Units=1/GPa)
#
#
# Indices 1 2 3 4 5 6 
#
# 1 0.009295 -0.001137 -0.000480 0.000000 0.000000 0.000000
# 2 -0.001137 0.007593 -0.002655 0.000000 0.000000 0.000000
# 3 -0.000480 -0.002655 0.027299 0.000000 0.000000 0.000000
# 4 0.000000 0.000000 0.000000 0.005945 0.000000 0.000000
# 5 0.000000 0.000000 0.000000 0.000000 0.041496 0.000000
# 6 0.000000 0.000000 0.000000 0.000000 0.000000 0.058362
#
#
# Mechanical properties :
#
#
# Convention : Reuss Voigt Hill
#
# Bulk Modulus (GPa) = 28.05639 39.74584 33.90111
# Shear Modulus (GPa) = 29.34029 58.68597 44.01313
#
# Velocity S-wave (km/s) = 3.72769 5.27199 4.56561
# Velocity P-wave (km/s) = 5.64049 7.47544 6.62184
#
# Compressibility (1/GPa) = 0.03564251
#
# Stress axis : x y z
#
# Youngs Moduli (GPa) = 107.58404 131.70873 36.63192
#
# Poissons Ratio (x) = 0.14981 0.01757
# Poissons Ratio (y) = 0.12237 0.09725
# Poissons Ratio (z) = 0.05161 0.34965
#
# Static dielectric constant tensor:
#      x y z
#    x 3.892790 0.000000 0.000000 
#    y 0.000000 4.054590 0.000000 
#    z 0.000000 0.000000 3.925750 
# 
# 
# High freq. dielectric constant tensor:
#      x y z
#    x 1.836270 0.000000 0.000000 
#    y 0.000000 1.837580 0.000000 
#    z 0.000000 0.000000 1.836250 
# 
# From -- ./inp_files/2380.got.cif
#   From: 2010.03.12/outbox.cif.g09.slc.cpg/sg56_2_cif.got.tgz:2380.got - 2010.04.16 15:33:40.
