data_PCOD8229383
_publ_section_title
;
Structure prediction by ZEFSAII (Michael W. Deem and Ramdas Pophale) SiO2 
 PCOD8229383
Probable space group: P C C N
;
_chemical_formula_sum "Si O2"
_cell_formula_units_Z 32
_cell_length_a 9.474493
_cell_length_b 14.945568
_cell_length_c 9.938805
_cell_angle_alpha 90.000000
_cell_angle_beta 90.000000
_cell_angle_gamma 90.000000
_cell_volume 1407.351479
_symmetry_space_group_name_H-M "P C C N"
_symmetry_group_IT_number 56
_symmetry_cell_setting 'orthorhombic'
loop_
_space_group_symop_operation_xyz
x,y,z
1/2-x,1/2-y,z
1/2+x,-y,1/2-z
-x,1/2+y,1/2-z
-x,-y,-z
1/2+x,1/2+y,-z
1/2-x,y,1/2+z
x,1/2-y,1/2+z
loop_
_atom_site_type_symbol
_atom_site_label
_atom_site_fract_x
_atom_site_fract_y
_atom_site_fract_z
Si Si1 0.911248 0.772462 0.271527
Si Si2 0.978338 0.852029 0.008479
Si Si3 0.665375 0.015182 0.617491
Si Si4 0.515993 0.039534 0.145817
O O1 0.750000 0.750000 0.240490
O O2 0.993676 0.778392 0.127783
O O3 0.965724 0.692478 0.363515
O O4 0.939575 0.864431 0.350870
O O5 0.117079 0.914625 0.998424
O O6 0.844059 0.915255 0.051187
O O7 0.817190 0.041684 0.675071
O O8 0.556503 0.022777 0.742283
O O9 0.500000 0.000000 0.000000
#
# Coordination Sequence:
#
# PCOD8229383 Si02
#       4
#     8   8   8   8
#     4  11  24  42  69 105 137 186 238 299 367 428
#     4  10  24  43  71  98 149 180 243 301 361 440
#     4  10  25  46  70 106 144 194 245 300 365 444
#     4  11  26  43  76 103 144 196 245 300 371 433
#
# _framework density 22.737746000000001
#
# number of rings (size 3 to 8) (size 9 to 14) (size 15 to 20)
#    0.000    1.500    0.000    2.250   21.000    1.000 
#    0.000    5.000    0.000    0.000    0.000    0.000 
#    0.000    0.000    0.000    0.000    0.000    0.000 
#
# Total GULP energy -396578.804252 kJ/mol
# GULP energy per Si atom -12393.087633 kJ/mol
# Density = 2.268599 g / cm^3
# Si number density = 22.737746 Si / 1000 Ang^3
#
#
#
# Elastic Constant Matrix: (Units=GPa)
#
#
# Indices 1 2 3 4 5 6 
#
# 1 145.0260 44.8264 63.3085 0.0000 0.0000 0.0000
# 2 44.8264 98.1994 68.1261 0.0000 0.0000 0.0000
# 3 63.3085 68.1261 151.3924 0.0000 0.0000 0.0000
# 4 0.0000 0.0000 0.0000 60.3136 0.0000 0.0000
# 5 0.0000 0.0000 0.0000 0.0000-1157.1142 0.0000
# 6 0.0000 0.0000 0.0000 0.0000 0.0000 34.0612
#
#
#
# Elastic Compliance Matrix: (Units=1/GPa)
#
#
# Indices 1 2 3 4 5 6 
#
# 1 0.008726 -0.002111 -0.002699 0.000000 0.000000 0.000000
# 2 -0.002111 0.015316 -0.006009 0.000000 0.000000 0.000000
# 3 -0.002699 -0.006009 0.010438 0.000000 0.000000 0.000000
# 4 0.000000 0.000000 0.000000 0.016580 0.000000 0.000000
# 5 0.000000 0.000000 0.000000 0.000000 -0.000864 0.000000
# 6 0.000000 0.000000 0.000000 0.000000 0.000000 0.029359
#
#
# Mechanical properties :
#
#
# Convention : Reuss Voigt Hill
#
# Bulk Modulus (GPa) = 77.87233 83.01555 80.44394
# Shear Modulus (GPa) = 47.40492 -197.99075 -75.29292
#
# Velocity S-wave (km/s) = 4.57098 -9.34157 -5.76069
# Velocity P-wave (km/s) = 7.88548 8.93106 2.96505
#
# Compressibility (1/GPa) = 0.01284153
#
# Stress axis : x y z
#
# Youngs Moduli (GPa) = 114.60012 65.29132 95.80078
#
# Poissons Ratio (x) = 0.13781 0.25858
# Poissons Ratio (y) = 0.24189 0.57571
# Poissons Ratio (z) = 0.30933 0.39237
#
# Static dielectric constant tensor:
#      x y z
#    x 4.286220 0.000000 0.000000 
#    y 0.000000 4.179890 0.000000 
#    z 0.000000 0.000000 4.317320 
# 
# 
# High freq. dielectric constant tensor:
#      x y z
#    x 1.872700 0.000000 0.000000 
#    y 0.000000 1.896660 0.000000 
#    z 0.000000 0.000000 1.918000 
# 
# From -- ./inp_files/2493.got.cif
#   From: 2010.03.12/outbox.cif.g09.slc.cpg/sg56_2_cif.got.tgz:2493.got - 2010.04.16 15:33:40.
