data_PCOD8229163
_publ_section_title
;
Structure prediction by ZEFSAII (Michael W. Deem and Ramdas Pophale) SiO2 
 PCOD8229163
Probable space group: P C C N
;
_chemical_formula_sum "Si O2"
_cell_formula_units_Z 40
_cell_length_a 8.196637
_cell_length_b 13.691013
_cell_length_c 16.507704
_cell_angle_alpha 90.000000
_cell_angle_beta 90.000000
_cell_angle_gamma 90.000000
_cell_volume 1852.498896
_symmetry_space_group_name_H-M "P C C N"
_symmetry_group_IT_number 56
_symmetry_cell_setting 'orthorhombic'
loop_
_space_group_symop_operation_xyz
x,y,z
1/2-x,1/2-y,z
1/2+x,-y,1/2-z
-x,1/2+y,1/2-z
-x,-y,-z
1/2+x,1/2+y,-z
1/2-x,y,1/2+z
x,1/2-y,1/2+z
loop_
_atom_site_type_symbol
_atom_site_label
_atom_site_fract_x
_atom_site_fract_y
_atom_site_fract_z
Si Si1 0.927049 0.147386 0.122565
Si Si2 0.144676 0.027373 0.558906
Si Si3 0.623655 0.663642 0.031245
Si Si4 0.410339 0.942027 0.654383
Si Si5 0.923951 0.354520 0.170760
O O1 0.950088 0.238266 0.185145
O O2 0.734827 0.123983 0.114850
O O3 0.026222 0.053790 0.153300
O O4 0.988785 0.189993 0.036263
O O5 0.282449 0.069788 0.500925
O O6 0.083160 0.103484 0.626531
O O7 0.234439 0.939189 0.607872
O O8 0.000000 0.000000 0.500000
O O9 0.750000 0.750000 0.049245
O O10 0.535996 0.633422 0.114051
O O11 0.388242 0.908960 0.745685
#
# Coordination Sequence:
#
# PCOD8229163 Si02
#       5
#     8   8   8   8   8
#     4  10  22  44  66  90 134 172 218 265 335 401
#     4  11  22  41  69  94 131 177 220 266 339 394
#     4  11  22  45  65  95 127 174 220 266 322 402
#     4  11  24  42  66 100 133 167 228 277 330 402
#     4  11  22  42  66  98 130 176 213 280 340 385
#
# _framework density 21.592455999999999
#
# number of rings (size 3 to 8) (size 9 to 14) (size 15 to 20)
#    0.000    1.200    2.000    6.000    0.000    0.000 
#   21.600    0.000    0.000    0.000    0.000    0.000 
#    0.000    0.000    0.000    0.000    0.000    0.000 
#
# Total GULP energy -495920.761127 kJ/mol
# GULP energy per Si atom -12398.019028 kJ/mol
# Density = 2.154331 g / cm^3
# Si number density = 21.592456 Si / 1000 Ang^3
#
#
#
# Elastic Constant Matrix: (Units=GPa)
#
#
# Indices 1 2 3 4 5 6 
#
# 1 122.1313 31.3206 50.4481 0.0000 0.0000 0.0000
# 2 31.3206 94.2631 36.2245 0.0000 0.0000 0.0000
# 3 50.4481 36.2245 82.6498 0.0000 0.0000 0.0000
# 4 0.0000 0.0000 0.0000 31.6887 0.0000 0.0000
# 5 0.0000 0.0000 0.0000 0.0000 26.6142 0.0000
# 6 0.0000 0.0000 0.0000 0.0000 0.0000 40.2646
#
#
#
# Elastic Compliance Matrix: (Units=1/GPa)
#
#
# Indices 1 2 3 4 5 6 
#
# 1 0.011080 -0.001302 -0.006192 0.000000 0.000000 0.000000
# 2 -0.001302 0.012910 -0.004864 0.000000 0.000000 0.000000
# 3 -0.006192 -0.004864 0.018011 0.000000 0.000000 0.000000
# 4 0.000000 0.000000 0.000000 0.031557 0.000000 0.000000
# 5 0.000000 0.000000 0.000000 0.000000 0.037574 0.000000
# 6 0.000000 0.000000 0.000000 0.000000 0.000000 0.024836
#
#
# Mechanical properties :
#
#
# Convention : Reuss Voigt Hill
#
# Bulk Modulus (GPa) = 57.85440 59.44788 58.65114
# Shear Modulus (GPa) = 30.04009 31.78359 30.91184
#
# Velocity S-wave (km/s) = 3.73397 3.84080 3.78776
# Velocity P-wave (km/s) = 6.74107 6.87463 6.80817
#
# Compressibility (1/GPa) = 0.01728477
#
# Stress axis : x y z
#
# Youngs Moduli (GPa) = 90.25655 77.45766 55.52272
#
# Poissons Ratio (x) = 0.10083 0.34381
# Poissons Ratio (y) = 0.11749 0.27005
# Poissons Ratio (z) = 0.55889 0.37674
#
# Static dielectric constant tensor:
#      x y z
#    x 4.411820 0.000000 0.000000 
#    y 0.000000 3.869390 0.000000 
#    z 0.000000 0.000000 3.760770 
# 
# 
# High freq. dielectric constant tensor:
#      x y z
#    x 1.866450 0.000000 0.000000 
#    y 0.000000 1.843190 0.000000 
#    z 0.000000 0.000000 1.834990 
# 
# From -- ./inp_files/10371.got.cif
#   From: 2010.03.12/outbox.cif.g09.slc.cpg/sg56_6_cif.got.tgz:10371.got - 2010.04.16 15:33:40.
