data_PCOD8229956
_publ_section_title
;
Structure prediction by ZEFSAII (Michael W. Deem and Ramdas Pophale) SiO2 
 PCOD8229956
Probable space group: P B C M
;
_chemical_formula_sum "Si O2"
_cell_formula_units_Z 56
_cell_length_a 13.778678
_cell_length_b 28.243160
_cell_length_c 8.983634
_cell_angle_alpha 90.000000
_cell_angle_beta 90.000000
_cell_angle_gamma 90.000000
_cell_volume 3496.011781
_symmetry_space_group_name_H-M "P B C M"
_symmetry_group_IT_number 57
_symmetry_cell_setting 'orthorhombic'
loop_
_space_group_symop_operation_xyz
x,y,z
-x,-y,1/2+z
x,1/2-y,-z
-x,1/2+y,1/2-z
-x,-y,-z
x,y,1/2-z
-x,1/2+y,z
x,1/2-y,1/2+z
loop_
_atom_site_type_symbol
_atom_site_label
_atom_site_fract_x
_atom_site_fract_y
_atom_site_fract_z
Si Si1 0.597619 0.515515 0.076850
Si Si2 0.206501 0.531953 0.925153
Si Si3 0.249895 0.298594 0.424870
Si Si4 0.877836 0.555096 0.923995
Si Si5 0.932344 0.108751 0.577775
Si Si6 0.291370 0.391545 0.926140
Si Si7 0.024165 0.297740 0.424899
O O1 0.577821 0.513935 0.250000
O O2 0.681520 0.477605 0.032769
O O3 0.628674 0.568702 0.028805
O O4 0.500000 0.500000 0.000000
O O5 0.189453 0.521518 0.750000
O O6 0.172485 0.585839 0.966299
O O7 0.137816 0.497999 0.020698
O O8 0.285730 0.250000 0.500000
O O9 0.269559 0.295905 0.250000
O O10 0.313503 0.341461 0.494472
O O11 0.136822 0.307372 0.462554
O O12 0.851775 0.560104 0.750000
O O13 0.988247 0.568798 0.958332
O O14 0.812251 0.590912 0.017529
O O15 0.934147 0.120731 0.750000
O O16 0.959676 0.159291 0.503822
O O17 0.288230 0.384275 0.750000
O O18 0.986080 0.250000 0.500000
O O19 0.010391 0.291999 0.250000
#
# Coordination Sequence:
#
# PCOD8229956 Si02
#       7
#     8   8   8   8   8   8   8
#     4   9  19  33  49  68  89 115 150 191 238 285
#     4   9  18  31  45  64  88 116 149 185 225 274
#     4  10  18  29  45  67  95 126 160 190 224 266
#     4  10  17  27  42  63  91 122 152 182 218 262
#     4   9  16  28  44  61  89 122 152 184 218 259
#     4  10  19  31  46  67  93 123 157 191 230 275
#     4   9  17  29  42  61  88 122 157 186 216 253
#
# _framework density 16.018253999999999
#
# number of rings (size 3 to 8) (size 9 to 14) (size 15 to 20)
#    0.000    2.571    1.429    2.571    0.000    3.429 
#    0.000    1.429    0.000    0.000    0.000    1.000 
#    0.000    4.571    0.000    0.000    0.000    0.000 
#
# Total GULP energy -693969.060474 kJ/mol
# GULP energy per Si atom -12392.304651 kJ/mol
# Density = 1.598180 g / cm^3
# Si number density = 16.018254 Si / 1000 Ang^3
#
#
#
# Elastic Constant Matrix: (Units=GPa)
#
#
# Indices 1 2 3 4 5 6 
#
# 1 73.4432 62.7242 27.4194 0.0000 0.0000 0.0000
# 2 62.7242 130.9630 43.0211 0.0000 0.0000 0.0000
# 3 27.4194 43.0211 49.3176 0.0000 0.0000 0.0000
# 4 0.0000 0.0000 0.0000 27.3154 0.0000 0.0000
# 5 0.0000 0.0000 0.0000 0.0000 17.9406 0.0000
# 6 0.0000 0.0000 0.0000 0.0000 0.0000 16.0185
#
#
#
# Elastic Compliance Matrix: (Units=1/GPa)
#
#
# Indices 1 2 3 4 5 6 
#
# 1 0.023763 -0.009869 -0.004602 0.000000 0.000000 0.000000
# 2 -0.009869 0.014802 -0.007425 0.000000 0.000000 0.000000
# 3 -0.004602 -0.007425 0.029312 0.000000 0.000000 0.000000
# 4 0.000000 0.000000 0.000000 0.036609 0.000000 0.000000
# 5 0.000000 0.000000 0.000000 0.000000 0.055739 0.000000
# 6 0.000000 0.000000 0.000000 0.000000 0.000000 0.062428
#
#
# Mechanical properties :
#
#
# Convention : Reuss Voigt Hill
#
# Bulk Modulus (GPa) = 41.52118 57.78372 49.65245
# Shear Modulus (GPa) = 18.21658 20.29218 19.25438
#
# Velocity S-wave (km/s) = 3.37596 3.56310 3.47079
# Velocity P-wave (km/s) = 6.41666 7.28557 6.86488
#
# Compressibility (1/GPa) = 0.02408410
#
# Stress axis : x y z
#
# Youngs Moduli (GPa) = 42.08178 67.55990 34.11529
#
# Poissons Ratio (x) = 0.66678 0.15701
# Poissons Ratio (y) = 0.41532 0.25330
# Poissons Ratio (z) = 0.19368 0.50162
#
# Static dielectric constant tensor:
#      x y z
#    x 2.785370 0.000000 0.000000 
#    y 0.000000 3.352760 0.000000 
#    z 0.000000 0.000000 2.993170 
# 
# 
# High freq. dielectric constant tensor:
#      x y z
#    x 1.569740 0.000000 0.000000 
#    y 0.000000 1.621410 0.000000 
#    z 0.000000 0.000000 1.611510 
# 
# From -- ./inp_files/5883.got.cif
#   From: 2010.03.12/outbox.cif.g09.slc.cpg/sg57_3_cif.got.tgz:5883.got - 2010.04.16 15:48:40.
