data_PCOD8229635
_publ_section_title
;
Structure prediction by ZEFSAII (Michael W. Deem and Ramdas Pophale) SiO2 
 PCOD8229635
Probable space group: P C C N
;
_chemical_formula_sum "Si O2"
_cell_formula_units_Z 60
_cell_length_a 11.205170
_cell_length_b 13.357588
_cell_length_c 19.460567
_cell_angle_alpha 90.000000
_cell_angle_beta 90.000000
_cell_angle_gamma 90.000000
_cell_volume 2912.741768
_symmetry_space_group_name_H-M "P C C N"
_symmetry_group_IT_number 56
_symmetry_cell_setting 'orthorhombic'
loop_
_space_group_symop_operation_xyz
x,y,z
1/2-x,1/2-y,z
1/2+x,-y,1/2-z
-x,1/2+y,1/2-z
-x,-y,-z
1/2+x,1/2+y,-z
1/2-x,y,1/2+z
x,1/2-y,1/2+z
loop_
_atom_site_type_symbol
_atom_site_label
_atom_site_fract_x
_atom_site_fract_y
_atom_site_fract_z
Si Si1 0.190506 0.940783 0.345182
Si Si2 0.346729 0.478740 0.953779
Si Si3 0.929159 0.483751 0.875858
Si Si4 0.205177 0.351788 0.056157
Si Si5 0.037557 0.813984 0.519556
Si Si6 0.250000 0.750000 0.921524
Si Si7 0.753699 0.369252 0.798647
Si Si8 0.409024 0.611313 0.070818
O O1 0.262185 0.843222 0.370485
O O2 0.203654 0.936912 0.263271
O O3 0.259889 0.027112 0.387402
O O4 0.051211 0.956928 0.361211
O O5 0.480247 0.464930 0.924818
O O6 0.309862 0.390833 0.006070
O O7 0.340053 0.583617 0.998456
O O8 0.827736 0.568367 0.885449
O O9 0.933362 0.420494 0.946255
O O10 0.888717 0.409074 0.814175
O O11 0.250000 0.250000 0.092584
O O12 0.091018 0.324167 0.011848
O O13 0.133868 0.779858 0.464234
O O14 0.041408 0.724541 0.575027
O O15 0.750000 0.250000 0.784491
O O16 0.678712 0.400796 0.865499
#
# Coordination Sequence:
#
# PCOD8229635 Si02
#       8
#     8   8   8   8   8   4   8   8
#     4  12  26  43  65  98 137 180 229 284 337 412
#     4  11  23  41  64 100 138 171 221 284 345 402
#     4  12  25  44  67  96 136 180 227 282 345 413
#     4  12  23  39  64 102 136 165 218 278 347 405
#     4  12  21  38  70 100 128 166 218 285 341 398
#     4  12  22  38  66 100 130 164 228 284 332 392
#     4  12  26  45  68  99 135 185 234 279 342 420
#     4  11  23  40  67  98 135 173 222 284 338 402
#
# _framework density 20.599149000000001
#
# number of rings (size 3 to 8) (size 9 to 14) (size 15 to 20)
#    0.000    0.267    8.667    2.000    1.867    0.000 
#    0.000    1.333    0.000    0.800    0.000    0.000 
#    0.000    0.000    0.000    0.000    0.000    0.000 
#
# Total GULP energy -743526.175944 kJ/mol
# GULP energy per Si atom -12392.102932 kJ/mol
# Density = 2.055226 g / cm^3
# Si number density = 20.599149 Si / 1000 Ang^3
#
#
#
# Elastic Constant Matrix: (Units=GPa)
#
#
# Indices 1 2 3 4 5 6 
#
# 1 91.2291 26.2298 29.6600 0.0000 0.0000 0.0000
# 2 26.2298 103.2937 27.8577 0.0000 0.0000 0.0000
# 3 29.6600 27.8577 91.6057 0.0000 0.0000 0.0000
# 4 0.0000 0.0000 0.0000 44.7734 0.0000 0.0000
# 5 0.0000 0.0000 0.0000 0.0000 24.4750 0.0000
# 6 0.0000 0.0000 0.0000 0.0000 0.0000 38.2368
#
#
#
# Elastic Compliance Matrix: (Units=1/GPa)
#
#
# Indices 1 2 3 4 5 6 
#
# 1 0.012738 -0.002312 -0.003421 0.000000 0.000000 0.000000
# 2 -0.002312 0.010966 -0.002586 0.000000 0.000000 0.000000
# 3 -0.003421 -0.002586 0.012811 0.000000 0.000000 0.000000
# 4 0.000000 0.000000 0.000000 0.022335 0.000000 0.000000
# 5 0.000000 0.000000 0.000000 0.000000 0.040858 0.000000
# 6 0.000000 0.000000 0.000000 0.000000 0.000000 0.026153
#
#
# Mechanical properties :
#
#
# Convention : Reuss Voigt Hill
#
# Bulk Modulus (GPa) = 50.31261 50.40261 50.35761
# Shear Modulus (GPa) = 33.52900 34.98909 34.25905
#
# Velocity S-wave (km/s) = 4.03884 4.12584 4.08257
# Velocity P-wave (km/s) = 6.79906 6.87155 6.83540
#
# Compressibility (1/GPa) = 0.01987573
#
# Stress axis : x y z
#
# Youngs Moduli (GPa) = 78.50223 91.19346 78.06056
#
# Poissons Ratio (x) = 0.21084 0.26707
# Poissons Ratio (y) = 0.18150 0.20187
# Poissons Ratio (z) = 0.26858 0.23584
#
# Static dielectric constant tensor:
#      x y z
#    x 3.641270 0.000000 0.000000 
#    y 0.000000 3.652250 0.000000 
#    z 0.000000 0.000000 3.601820 
# 
# 
# High freq. dielectric constant tensor:
#      x y z
#    x 1.814160 0.000000 0.000000 
#    y 0.000000 1.819190 0.000000 
#    z 0.000000 0.000000 1.776890 
# 
# From -- ./inp_files/15792.got.cif
#   From: 2010.03.12/outbox.cif.g09.slc.cpg/sg56_8_cif.got.tgz:15792.got - 2010.04.16 15:33:40.
