data_PCOD8229414
_publ_section_title
;
Structure prediction by ZEFSAII (Michael W. Deem and Ramdas Pophale) SiO2 
 PCOD8229414
Probable space group: P C C N
;
_chemical_formula_sum "Si O2"
_cell_formula_units_Z 28
_cell_length_a 9.915963
_cell_length_b 8.987533
_cell_length_c 13.788782
_cell_angle_alpha 90.000000
_cell_angle_beta 90.000000
_cell_angle_gamma 90.000000
_cell_volume 1228.856868
_symmetry_space_group_name_H-M "P C C N"
_symmetry_group_IT_number 56
_symmetry_cell_setting 'orthorhombic'
loop_
_space_group_symop_operation_xyz
x,y,z
1/2-x,1/2-y,z
1/2+x,-y,1/2-z
-x,1/2+y,1/2-z
-x,-y,-z
1/2+x,1/2+y,-z
1/2-x,y,1/2+z
x,1/2-y,1/2+z
loop_
_atom_site_type_symbol
_atom_site_label
_atom_site_fract_x
_atom_site_fract_y
_atom_site_fract_z
Si Si1 0.250000 0.750000 0.667105
Si Si2 0.910163 0.014832 0.730892
Si Si3 0.405817 0.238202 0.636416
Si Si4 0.482851 0.149744 0.941655
O O1 0.279844 0.890268 0.737342
O O2 0.123191 0.787599 0.599804
O O3 0.025014 0.124294 0.691427
O O4 0.962831 0.918973 0.823106
O O5 0.880058 0.891161 0.646445
O O6 0.250000 0.250000 0.662562
O O7 0.425502 0.232894 0.519669
O O8 0.500000 0.000000 0.000000
#
# Coordination Sequence:
#
# PCOD8229414 Si02
#       4
#     4   8   8   8
#     4  12  24  48  76 104 152 188 248 302 366 446
#     4  11  23  47  74 106 146 198 241 302 367 439
#     4  11  25  46  71 109 152 187 249 303 364 447
#     4  10  24  46  68 110 143 188 243 296 371 434
#
# _framework density 22.785402000000001
#
# number of rings (size 3 to 8) (size 9 to 14) (size 15 to 20)
#    0.000    1.143    2.857    3.429    0.000    6.857 
#    5.143    0.000    0.000    0.000    0.000    0.000 
#    0.000    0.000    0.000    0.000    0.000    0.000 
#
# Total GULP energy -346913.007597 kJ/mol
# GULP energy per Si atom -12389.750271 kJ/mol
# Density = 2.273354 g / cm^3
# Si number density = 22.785402 Si / 1000 Ang^3
#
#
#
# Elastic Constant Matrix: (Units=GPa)
#
#
# Indices 1 2 3 4 5 6 
#
# 1 83.6154 39.6935 54.8603 0.0000 0.0000 0.0000
# 2 39.6935 121.0013 93.8692 0.0000 0.0000 0.0000
# 3 54.8603 93.8692 172.7167 0.0000 0.0000 0.0000
# 4 0.0000 0.0000 0.0000 49.5117 0.0000 0.0000
# 5 0.0000 0.0000 0.0000 0.0000 41.7031 0.0000
# 6 0.0000 0.0000 0.0000 0.0000 0.0000 43.6346
#
#
#
# Elastic Compliance Matrix: (Units=1/GPa)
#
#
# Indices 1 2 3 4 5 6 
#
# 1 0.015433 -0.002178 -0.003718 0.000000 0.000000 0.000000
# 2 -0.002178 0.014596 -0.007241 0.000000 0.000000 0.000000
# 3 -0.003718 -0.007241 0.010906 0.000000 0.000000 0.000000
# 4 0.000000 0.000000 0.000000 0.020197 0.000000 0.000000
# 5 0.000000 0.000000 0.000000 0.000000 0.023979 0.000000
# 6 0.000000 0.000000 0.000000 0.000000 0.000000 0.022918
#
#
# Mechanical properties :
#
#
# Convention : Reuss Voigt Hill
#
# Bulk Modulus (GPa) = 68.20945 83.79772 76.00359
# Shear Modulus (GPa) = 35.92180 39.56391 37.74286
#
# Velocity S-wave (km/s) = 3.97486 4.17150 4.07436
# Velocity P-wave (km/s) = 7.14609 7.74975 7.45403
#
# Compressibility (1/GPa) = 0.01466072
#
# Stress axis : x y z
#
# Youngs Moduli (GPa) = 64.79591 68.51059 91.69067
#
# Poissons Ratio (x) = 0.14923 0.34092
# Poissons Ratio (y) = 0.14114 0.66393
# Poissons Ratio (z) = 0.24092 0.49609
#
# Static dielectric constant tensor:
#      x y z
#    x 3.841160 0.000000 0.000000 
#    y 0.000000 4.533890 0.000000 
#    z 0.000000 0.000000 5.678700 
# 
# 
# High freq. dielectric constant tensor:
#      x y z
#    x 1.868750 0.000000 0.000000 
#    y 0.000000 1.912450 0.000000 
#    z 0.000000 0.000000 1.921420 
# 
# From -- ./inp_files/9977.got.cif
#   From: 2010.03.12/outbox.cif.g09.slc.cpg/sg56_5_cif.got.tgz:9977.got - 2010.04.16 15:33:40.
