data_PCOD8229765
_publ_section_title
;
Structure prediction by ZEFSAII (Michael W. Deem and Ramdas Pophale) SiO2 
 PCOD8229765
Probable space group: P C C N
;
_chemical_formula_sum "Si O2"
_cell_formula_units_Z 32
_cell_length_a 7.241205
_cell_length_b 8.938882
_cell_length_c 18.164108
_cell_angle_alpha 90.000000
_cell_angle_beta 90.000000
_cell_angle_gamma 90.000000
_cell_volume 1175.731415
_symmetry_space_group_name_H-M "P C C N"
_symmetry_group_IT_number 56
_symmetry_cell_setting 'orthorhombic'
loop_
_space_group_symop_operation_xyz
x,y,z
1/2-x,1/2-y,z
1/2+x,-y,1/2-z
-x,1/2+y,1/2-z
-x,-y,-z
1/2+x,1/2+y,-z
1/2-x,y,1/2+z
x,1/2-y,1/2+z
loop_
_atom_site_type_symbol
_atom_site_label
_atom_site_fract_x
_atom_site_fract_y
_atom_site_fract_z
Si Si1 0.095097 0.115665 0.407596
Si Si2 0.677122 0.394488 0.291415
Si Si3 0.457876 0.210819 0.070225
Si Si4 0.957067 0.993601 0.144588
O O1 0.023584 0.188362 0.482523
O O2 0.989921 0.184476 0.337531
O O3 0.322422 0.125552 0.399683
O O4 0.032991 0.941675 0.394144
O O5 0.750000 0.250000 0.247136
O O6 0.614368 0.509434 0.229102
O O7 0.824987 0.459224 0.351019
O O8 0.250000 0.250000 0.093951
O O9 0.576272 0.352691 0.098825
#
# Coordination Sequence:
#
# PCOD8229765 Si02
#       4
#     8   8   8   8
#     4  11  26  48  73 116 150 201 254 316 389 462
#     4  12  27  46  79 115 148 201 262 317 391 462
#     4  11  25  47  77 109 156 201 251 313 393 462
#     4  12  26  51  79 108 157 204 255 328 386 463
#
# _framework density 27.217099000000001
#
# number of rings (size 3 to 8) (size 9 to 14) (size 15 to 20)
#    0.000    0.500    5.000    2.250    3.500    5.000 
#    0.000    0.000    0.000    0.000    0.000    0.000 
#    0.000    0.000    0.000    0.000    0.000    0.000 
#
# Total GULP energy -396645.247525 kJ/mol
# GULP energy per Si atom -12395.163985 kJ/mol
# Density = 2.715515 g / cm^3
# Si number density = 27.217099 Si / 1000 Ang^3
#
#
#
# Elastic Constant Matrix: (Units=GPa)
#
#
# Indices 1 2 3 4 5 6 
#
# 1 130.3964 20.7707 33.9145 0.0000 0.0000 0.0000
# 2 20.7707 61.4718 12.5587 0.0000 0.0000 0.0000
# 3 33.9145 12.5587 109.3572 0.0000 0.0000 0.0000
# 4 0.0000 0.0000 0.0000 51.3924 0.0000 0.0000
# 5 0.0000 0.0000 0.0000 0.0000 40.8293 0.0000
# 6 0.0000 0.0000 0.0000 0.0000 0.0000 47.2610
#
#
#
# Elastic Compliance Matrix: (Units=1/GPa)
#
#
# Indices 1 2 3 4 5 6 
#
# 1 0.008686 -0.002442 -0.002413 0.000000 0.000000 0.000000
# 2 -0.002442 0.017345 -0.001235 0.000000 0.000000 0.000000
# 3 -0.002413 -0.001235 0.010035 0.000000 0.000000 0.000000
# 4 0.000000 0.000000 0.000000 0.019458 0.000000 0.000000
# 5 0.000000 0.000000 0.000000 0.000000 0.024492 0.000000
# 6 0.000000 0.000000 0.000000 0.000000 0.000000 0.021159
#
#
# Mechanical properties :
#
#
# Convention : Reuss Voigt Hill
#
# Bulk Modulus (GPa) = 41.86592 48.41258 45.13925
# Shear Modulus (GPa) = 41.21485 43.49530 42.35507
#
# Velocity S-wave (km/s) = 3.89562 4.00195 3.94914
# Velocity P-wave (km/s) = 5.97077 6.25941 6.11680
#
# Compressibility (1/GPa) = 0.02388577
#
# Stress axis : x y z
#
# Youngs Moduli (GPa) = 115.13428 57.65380 99.65589
#
# Poissons Ratio (x) = 0.14078 0.24049
# Poissons Ratio (y) = 0.28113 0.12304
# Poissons Ratio (z) = 0.27784 0.07118
#
# Static dielectric constant tensor:
#      x y z
#    x 5.279250 0.000000 0.000000 
#    y 0.000000 5.402800 0.000000 
#    z 0.000000 0.000000 4.396480 
# 
# 
# High freq. dielectric constant tensor:
#      x y z
#    x 2.109010 0.000000 0.000000 
#    y 0.000000 2.134720 0.000000 
#    z 0.000000 0.000000 2.080330 
# 
# From -- ./inp_files/17807.got.cif
#   From: 2010.03.12/outbox.cif.g09.slc.cpg/sg56_9_cif.got.tgz:17807.got - 2010.04.16 15:33:40.
