data_PCOD8229272
_publ_section_title
;
Structure prediction by ZEFSAII (Michael W. Deem and Ramdas Pophale) SiO2 
 PCOD8229272
Probable space group: P C C N
;
_chemical_formula_sum "Si O2"
_cell_formula_units_Z 48
_cell_length_a 5.108279
_cell_length_b 27.473072
_cell_length_c 16.817059
_cell_angle_alpha 90.000000
_cell_angle_beta 90.000000
_cell_angle_gamma 90.000000
_cell_volume 2360.108024
_symmetry_space_group_name_H-M "P C C N"
_symmetry_group_IT_number 56
_symmetry_cell_setting 'orthorhombic'
loop_
_space_group_symop_operation_xyz
x,y,z
1/2-x,1/2-y,z
1/2+x,-y,1/2-z
-x,1/2+y,1/2-z
-x,-y,-z
1/2+x,1/2+y,-z
1/2-x,y,1/2+z
x,1/2-y,1/2+z
loop_
_atom_site_type_symbol
_atom_site_label
_atom_site_fract_x
_atom_site_fract_y
_atom_site_fract_z
Si Si1 0.254844 0.192338 0.792820
Si Si2 0.687449 0.986370 0.295662
Si Si3 0.790896 0.128046 0.539696
Si Si4 0.250356 0.525325 0.535684
Si Si5 0.292748 0.376957 0.146019
Si Si6 0.254416 0.692860 0.107988
O O1 0.250000 0.250000 0.775543
O O2 0.233852 0.164991 0.709327
O O3 0.515692 0.174995 0.837417
O O4 0.018256 0.175476 0.849142
O O5 0.720307 0.929553 0.313428
O O6 0.388344 0.997860 0.272935
O O7 0.757274 0.020006 0.370079
O O8 0.741560 0.081577 0.485033
O O9 0.578912 0.131808 0.609619
O O10 0.766271 0.173661 0.481489
O O11 0.079069 0.126480 0.576710
O O12 0.500000 0.500000 0.500000
O O13 0.000000 0.500000 0.500000
O O14 0.250000 0.750000 0.098674
#
# Coordination Sequence:
#
# PCOD8229272 Si02
#       6
#     8   8   8   8   8   8
#     4  10  23  43  65  91 126 162 201 257 312 364
#     4  12  26  41  62  92 125 165 208 256 300 369
#     4  12  24  41  65  93 123 166 204 256 307 368
#     4  12  23  44  62  87 130 165 200 250 313 359
#     4  12  25  42  62  95 127 160 212 252 309 366
#     4  10  23  43  66  94 123 160 209 253 309 374
#
# _framework density 20.338052000000001
#
# number of rings (size 3 to 8) (size 9 to 14) (size 15 to 20)
#    0.000    0.667    3.333    4.000    4.667    1.333 
#    0.000    0.000    0.000    0.000    0.000    0.000 
#    0.000    0.000    0.000    0.000    0.000    0.000 
#
# Total GULP energy -595556.089631 kJ/mol
# GULP energy per Si atom -12407.418534 kJ/mol
# Density = 2.029176 g / cm^3
# Si number density = 20.338052 Si / 1000 Ang^3
#
#
#
# Elastic Constant Matrix: (Units=GPa)
#
#
# Indices 1 2 3 4 5 6 
#
# 1 111.8387 25.0527 17.7355 0.0000 0.0000 0.0000
# 2 25.0527 61.1624 42.7776 0.0000 0.0000 0.0000
# 3 17.7355 42.7776 97.9323 0.0000 0.0000 0.0000
# 4 0.0000 0.0000 0.0000 40.3979 0.0000 0.0000
# 5 0.0000 0.0000 0.0000 0.0000 45.5380 0.0000
# 6 0.0000 0.0000 0.0000 0.0000 0.0000 18.5824
#
#
#
# Elastic Compliance Matrix: (Units=1/GPa)
#
#
# Indices 1 2 3 4 5 6 
#
# 1 0.009845 -0.004011 -0.000031 0.000000 0.000000 0.000000
# 2 -0.004011 0.025176 -0.010271 0.000000 0.000000 0.000000
# 3 -0.000031 -0.010271 0.014703 0.000000 0.000000 0.000000
# 4 0.000000 0.000000 0.000000 0.024754 0.000000 0.000000
# 5 0.000000 0.000000 0.000000 0.000000 0.021960 0.000000
# 6 0.000000 0.000000 0.000000 0.000000 0.000000 0.053814
#
#
# Mechanical properties :
#
#
# Convention : Reuss Voigt Hill
#
# Bulk Modulus (GPa) = 47.39568 49.11832 48.25700
# Shear Modulus (GPa) = 26.89463 33.26148 30.07806
#
# Velocity S-wave (km/s) = 3.64040 4.04843 3.84983
# Velocity P-wave (km/s) = 6.40504 6.78649 6.59852
#
# Compressibility (1/GPa) = 0.02109897
#
# Stress axis : x y z
#
# Youngs Moduli (GPa) = 101.57621 39.71974 68.01269
#
# Poissons Ratio (x) = 0.15931 0.00210
# Poissons Ratio (y) = 0.40742 0.69855
# Poissons Ratio (z) = 0.00314 0.40796
#
# Static dielectric constant tensor:
#      x y z
#    x 3.574480 0.000000 0.000000 
#    y 0.000000 4.463290 0.000000 
#    z 0.000000 0.000000 3.757100 
# 
# 
# High freq. dielectric constant tensor:
#      x y z
#    x 1.817910 0.000000 0.000000 
#    y 0.000000 1.798210 0.000000 
#    z 0.000000 0.000000 1.804330 
# 
# From -- ./inp_files/9677.got.cif
#   From: 2010.03.12/outbox.cif.g09.slc.cpg/sg56_5_cif.got.tgz:9677.got - 2010.04.16 15:33:40.
