data_PCOD8229648
_publ_section_title
;
Structure prediction by ZEFSAII (Michael W. Deem and Ramdas Pophale) SiO2 
 PCOD8229648
Probable space group: P C C N
;
_chemical_formula_sum "Si O2"
_cell_formula_units_Z 60
_cell_length_a 17.231458
_cell_length_b 9.299098
_cell_length_c 17.478982
_cell_angle_alpha 90.000000
_cell_angle_beta 90.000000
_cell_angle_gamma 90.000000
_cell_volume 2800.779929
_symmetry_space_group_name_H-M "P C C N"
_symmetry_group_IT_number 56
_symmetry_cell_setting 'orthorhombic'
loop_
_space_group_symop_operation_xyz
x,y,z
1/2-x,1/2-y,z
1/2+x,-y,1/2-z
-x,1/2+y,1/2-z
-x,-y,-z
1/2+x,1/2+y,-z
1/2-x,y,1/2+z
x,1/2-y,1/2+z
loop_
_atom_site_type_symbol
_atom_site_label
_atom_site_fract_x
_atom_site_fract_y
_atom_site_fract_z
Si Si1 0.711551 0.030735 0.922253
Si Si2 0.750000 0.750000 0.517826
Si Si3 0.137247 0.275500 0.347261
Si Si4 0.905321 0.317432 0.635980
Si Si5 0.875929 0.039787 0.714473
Si Si6 0.638300 0.309177 0.968730
Si Si7 0.202869 0.512679 0.253655
Si Si8 0.519217 0.446499 0.862467
O O1 0.645422 0.136278 0.957144
O O2 0.793309 0.111686 0.924159
O O3 0.686649 0.998918 0.835920
O O4 0.719893 0.881358 0.966686
O O5 0.823935 0.706398 0.569323
O O6 0.196632 0.352085 0.288366
O O7 0.055586 0.353943 0.342556
O O8 0.120035 0.113788 0.324737
O O9 0.915424 0.149360 0.654449
O O10 0.855440 0.340359 0.559039
O O11 0.861346 0.385592 0.708281
O O12 0.989936 0.389893 0.623101
O O13 0.786760 0.081260 0.729882
O O14 0.920612 0.048117 0.793751
O O15 0.558140 0.373732 0.936534
#
# Coordination Sequence:
#
# PCOD8229648 Si02
#       8
#     8   4   8   8   8   8   8   8
#     4  11  25  40  69 100 135 177 232 285 344 413
#     4  12  24  44  66 104 136 176 234 292 342 410
#     4  11  25  44  70  98 139 180 227 285 350 410
#     4  11  25  40  70  98 134 180 231 279 343 411
#     4  12  22  41  68  98 133 179 226 283 342 408
#     4  11  24  44  66  98 137 180 227 281 345 410
#     4  11  23  42  66 101 131 176 226 282 340 407
#     4  11  24  45  64  99 141 180 226 281 346 417
#
# _framework density 21.422604
#
# number of rings (size 3 to 8) (size 9 to 14) (size 15 to 20)
#    0.000    0.800    2.667    4.800    7.467    1.067 
#    0.000    6.667    0.000    0.000    0.000    0.000 
#    0.000    0.000    0.000    0.000    0.000    0.000 
#
# Total GULP energy -744078.295362 kJ/mol
# GULP energy per Si atom -12401.304923 kJ/mol
# Density = 2.137385 g / cm^3
# Si number density = 21.422604 Si / 1000 Ang^3
#
#
#
# Elastic Constant Matrix: (Units=GPa)
#
#
# Indices 1 2 3 4 5 6 
#
# 1 92.1582 43.1666 34.7172 0.0000 0.0000 0.0000
# 2 43.1666 153.9079 62.0912 0.0000 0.0000 0.0000
# 3 34.7172 62.0912 162.6770 0.0000 0.0000 0.0000
# 4 0.0000 0.0000 0.0000 56.3878 0.0000 0.0000
# 5 0.0000 0.0000 0.0000 0.0000 33.4623 0.0000
# 6 0.0000 0.0000 0.0000 0.0000 0.0000 22.7537
#
#
#
# Elastic Compliance Matrix: (Units=1/GPa)
#
#
# Indices 1 2 3 4 5 6 
#
# 1 0.012841 -0.002950 -0.001614 0.000000 0.000000 0.000000
# 2 -0.002950 0.008358 -0.002560 0.000000 0.000000 0.000000
# 3 -0.001614 -0.002560 0.007469 0.000000 0.000000 0.000000
# 4 0.000000 0.000000 0.000000 0.017734 0.000000 0.000000
# 5 0.000000 0.000000 0.000000 0.000000 0.029884 0.000000
# 6 0.000000 0.000000 0.000000 0.000000 0.000000 0.043949
#
#
# Mechanical properties :
#
#
# Convention : Reuss Voigt Hill
#
# Bulk Modulus (GPa) = 69.35931 76.52145 72.94038
# Shear Modulus (GPa) = 35.89602 40.43863 38.16732
#
# Velocity S-wave (km/s) = 4.09787 4.34944 4.22552
# Velocity P-wave (km/s) = 7.40520 7.81159 7.61111
#
# Compressibility (1/GPa) = 0.01441768
#
# Stress axis : x y z
#
# Youngs Moduli (GPa) = 77.87603 119.64877 133.88768
#
# Poissons Ratio (x) = 0.35299 0.21614
# Poissons Ratio (y) = 0.22975 0.34281
# Poissons Ratio (z) = 0.12572 0.30635
#
# Static dielectric constant tensor:
#      x y z
#    x 3.938970 0.000000 0.000000 
#    y 0.000000 4.250740 0.000000 
#    z 0.000000 0.000000 3.833760 
# 
# 
# High freq. dielectric constant tensor:
#      x y z
#    x 1.834490 0.000000 0.000000 
#    y 0.000000 1.855150 0.000000 
#    z 0.000000 0.000000 1.846740 
# 
# From -- ./inp_files/16658.got.cif
#   From: 2010.03.12/outbox.cif.g09.slc.cpg/sg56_9_cif.got.tgz:16658.got - 2010.04.16 15:33:40.
