data_PCOD8229340
_publ_section_title
;
Structure prediction by ZEFSAII (Michael W. Deem and Ramdas Pophale) SiO2 
 PCOD8229340
Probable space group: P C C N
;
_chemical_formula_sum "Si O2"
_cell_formula_units_Z 56
_cell_length_a 20.676311
_cell_length_b 13.680618
_cell_length_c 9.148551
_cell_angle_alpha 90.000000
_cell_angle_beta 90.000000
_cell_angle_gamma 90.000000
_cell_volume 2587.802248
_symmetry_space_group_name_H-M "P C C N"
_symmetry_group_IT_number 56
_symmetry_cell_setting 'orthorhombic'
loop_
_space_group_symop_operation_xyz
x,y,z
1/2-x,1/2-y,z
1/2+x,-y,1/2-z
-x,1/2+y,1/2-z
-x,-y,-z
1/2+x,1/2+y,-z
1/2-x,y,1/2+z
x,1/2-y,1/2+z
loop_
_atom_site_type_symbol
_atom_site_label
_atom_site_fract_x
_atom_site_fract_y
_atom_site_fract_z
Si Si1 0.839762 0.473763 0.871140
Si Si2 0.745828 0.064652 0.117790
Si Si3 0.579556 0.290220 0.395337
Si Si4 0.425393 0.053409 0.612690
Si Si5 0.041574 0.444678 0.283954
Si Si6 0.990887 0.754064 0.842578
Si Si7 0.665132 0.110800 0.368651
O O1 0.794191 0.491248 0.729319
O O2 0.858541 0.360752 0.908073
O O3 0.907392 0.528485 0.844218
O O4 0.799994 0.507362 0.017069
O O5 0.701851 0.136290 0.217620
O O6 0.787378 0.128881 0.004977
O O7 0.524419 0.298671 0.519450
O O8 0.545834 0.317157 0.241059
O O9 0.602703 0.177821 0.390127
O O10 0.435444 0.024179 0.444239
O O11 0.431448 0.171603 0.622806
O O12 0.473732 0.002087 0.730369
O O13 0.355498 0.004816 0.645424
O O14 0.033347 0.328353 0.269549
#
# Coordination Sequence:
#
# PCOD8229340 Si02
#       7
#     8   8   8   8   8   8   8
#     4  11  23  40  62  91 127 165 215 260 308 378
#     4  10  24  40  62  90 123 176 217 258 306 374
#     4  12  23  36  61  96 133 166 205 256 313 398
#     4  11  21  41  65  91 129 171 198 265 334 372
#     4  11  22  40  66  92 128 169 206 261 329 378
#     4  12  23  38  62  99 130 163 206 256 328 387
#     4  11  22  42  64  90 130 173 214 259 318 373
#
# _framework density 21.639984999999999
#
# number of rings (size 3 to 8) (size 9 to 14) (size 15 to 20)
#    0.000    0.857    5.714    2.571    0.000    5.143 
#    0.000    0.000    0.000    5.143    0.000    0.000 
#    0.000    0.000    0.000    0.000    0.000    0.000 
#
# Total GULP energy -693844.608701 kJ/mol
# GULP energy per Si atom -12390.082298 kJ/mol
# Density = 2.159073 g / cm^3
# Si number density = 21.639985 Si / 1000 Ang^3
#
#
#
# Elastic Constant Matrix: (Units=GPa)
#
#
# Indices 1 2 3 4 5 6 
#
# 1 83.5917 34.0870 36.6756 0.0000 0.0000 0.0000
# 2 34.0870 76.2394 19.1458 0.0000 0.0000 0.0000
# 3 36.6756 19.1458 113.1182 0.0000 0.0000 0.0000
# 4 0.0000 0.0000 0.0000 25.2384 0.0000 0.0000
# 5 0.0000 0.0000 0.0000 0.0000 37.7217 0.0000
# 6 0.0000 0.0000 0.0000 0.0000 0.0000 15.6915
#
#
#
# Elastic Compliance Matrix: (Units=1/GPa)
#
#
# Indices 1 2 3 4 5 6 
#
# 1 0.016379 -0.006255 -0.004252 0.000000 0.000000 0.000000
# 2 -0.006255 0.016088 -0.000695 0.000000 0.000000 0.000000
# 3 -0.004252 -0.000695 0.010336 0.000000 0.000000 0.000000
# 4 0.000000 0.000000 0.000000 0.039622 0.000000 0.000000
# 5 0.000000 0.000000 0.000000 0.000000 0.026510 0.000000
# 6 0.000000 0.000000 0.000000 0.000000 0.000000 0.063729
#
#
# Mechanical properties :
#
#
# Convention : Reuss Voigt Hill
#
# Bulk Modulus (GPa) = 49.02079 50.30733 49.66406
# Shear Modulus (GPa) = 24.76860 27.93304 26.35082
#
# Velocity S-wave (km/s) = 3.38683 3.59668 3.49333
# Velocity P-wave (km/s) = 6.16411 6.36757 6.26666
#
# Compressibility (1/GPa) = 0.02039951
#
# Stress axis : x y z
#
# Youngs Moduli (GPa) = 61.05292 62.15848 96.74521
#
# Poissons Ratio (x) = 0.38883 0.41134
# Poissons Ratio (y) = 0.38192 0.06722
# Poissons Ratio (z) = 0.25958 0.04319
#
# Static dielectric constant tensor:
#      x y z
#    x 3.955010 0.000000 0.000000 
#    y 0.000000 3.404880 0.000000 
#    z 0.000000 0.000000 4.009550 
# 
# 
# High freq. dielectric constant tensor:
#      x y z
#    x 1.848460 0.000000 0.000000 
#    y 0.000000 1.801550 0.000000 
#    z 0.000000 0.000000 1.866450 
# 
# From -- ./inp_files/4476.got.cif
#   From: 2010.03.12/outbox.cif.g09.slc.cpg/sg56_3_cif.got.tgz:4476.got - 2010.04.16 15:33:40.
