data_PCOD8229481
_publ_section_title
;
Structure prediction by ZEFSAII (Michael W. Deem and Ramdas Pophale) SiO2 
 PCOD8229481
Probable space group: P C C N
;
_chemical_formula_sum "Si O2"
_cell_formula_units_Z 60
_cell_length_a 30.032781
_cell_length_b 8.330152
_cell_length_c 11.380038
_cell_angle_alpha 90.000000
_cell_angle_beta 90.000000
_cell_angle_gamma 90.000000
_cell_volume 2847.030944
_symmetry_space_group_name_H-M "P C C N"
_symmetry_group_IT_number 56
_symmetry_cell_setting 'orthorhombic'
loop_
_space_group_symop_operation_xyz
x,y,z
1/2-x,1/2-y,z
1/2+x,-y,1/2-z
-x,1/2+y,1/2-z
-x,-y,-z
1/2+x,1/2+y,-z
1/2-x,y,1/2+z
x,1/2-y,1/2+z
loop_
_atom_site_type_symbol
_atom_site_label
_atom_site_fract_x
_atom_site_fract_y
_atom_site_fract_z
Si Si1 0.893843 0.679517 0.176046
Si Si2 0.551832 0.270354 0.157597
Si Si3 0.750000 0.750000 0.221912
Si Si4 0.088147 0.567402 0.028441
Si Si5 0.172532 0.433407 0.396925
Si Si6 0.820988 0.969862 0.834207
Si Si7 0.856039 0.298852 0.778450
Si Si8 0.465967 0.095582 0.233207
O O1 0.862918 0.631139 0.286242
O O2 0.940872 0.744258 0.223388
O O3 0.899528 0.534538 0.086162
O O4 0.871381 0.825931 0.107514
O O5 0.595906 0.241830 0.233947
O O6 0.516373 0.144806 0.209235
O O7 0.535496 0.454860 0.168164
O O8 0.562462 0.226222 0.021254
O O9 0.725103 0.881593 0.302220
O O10 0.715956 0.665465 0.135370
O O11 0.133918 0.617460 0.094901
O O12 0.055855 0.468572 0.113216
O O13 0.176627 0.496068 0.527723
O O14 0.167835 0.579938 0.308298
O O15 0.822325 0.149855 0.783575
#
# Coordination Sequence:
#
# PCOD8229481 Si02
#       8
#     8   8   4   8   8   8   8   8
#     4  11  22  41  68  98 131 180 221 276 329 395
#     4  11  22  41  61  93 137 179 230 275 328 380
#     4  10  26  46  72 106 130 162 216 268 340 414
#     4  11  22  42  63  97 137 178 227 277 333 382
#     4  11  23  46  68 102 132 166 221 265 336 402
#     4  11  24  44  73  98 134 172 213 273 336 398
#     4  11  24  43  68 101 133 178 222 273 326 405
#     4  11  24  41  61  96 136 182 232 283 324 390
#
# _framework density 21.074587000000001
#
# number of rings (size 3 to 8) (size 9 to 14) (size 15 to 20)
#    0.000    1.067    4.000    3.200    1.867    1.600 
#    0.000    4.667    0.000    0.000    0.000    0.000 
#    0.000    0.000    0.000    0.000    0.000    0.000 
#
# Total GULP energy -744085.788321 kJ/mol
# GULP energy per Si atom -12401.429805 kJ/mol
# Density = 2.102662 g / cm^3
# Si number density = 21.074587 Si / 1000 Ang^3
#
#
#
# Elastic Constant Matrix: (Units=GPa)
#
#
# Indices 1 2 3 4 5 6 
#
# 1 74.0794 30.8012 20.3030 0.0000 0.0000 0.0000
# 2 30.8012 108.1118 36.3518 0.0000 0.0000 0.0000
# 3 20.3030 36.3518 90.3589 0.0000 0.0000 0.0000
# 4 0.0000 0.0000 0.0000 37.3016 0.0000 0.0000
# 5 0.0000 0.0000 0.0000 0.0000 12.6774 0.0000
# 6 0.0000 0.0000 0.0000 0.0000 0.0000 41.4852
#
#
#
# Elastic Compliance Matrix: (Units=1/GPa)
#
#
# Indices 1 2 3 4 5 6 
#
# 1 0.015616 -0.003781 -0.001988 0.000000 0.000000 0.000000
# 2 -0.003781 0.011612 -0.003822 0.000000 0.000000 0.000000
# 3 -0.001988 -0.003822 0.013051 0.000000 0.000000 0.000000
# 4 0.000000 0.000000 0.000000 0.026808 0.000000 0.000000
# 5 0.000000 0.000000 0.000000 0.000000 0.078881 0.000000
# 6 0.000000 0.000000 0.000000 0.000000 0.000000 0.024105
#
#
# Mechanical properties :
#
#
# Convention : Reuss Voigt Hill
#
# Bulk Modulus (GPa) = 47.39776 49.71801 48.55788
# Shear Modulus (GPa) = 25.47295 30.63243 28.05269
#
# Velocity S-wave (km/s) = 3.48041 3.81665 3.65240
# Velocity P-wave (km/s) = 6.22016 6.56240 6.39357
#
# Compressibility (1/GPa) = 0.02109805
#
# Stress axis : x y z
#
# Youngs Moduli (GPa) = 64.03802 86.11843 76.62093
#
# Poissons Ratio (x) = 0.32558 0.15231
# Poissons Ratio (y) = 0.24210 0.29285
# Poissons Ratio (z) = 0.12730 0.32915
#
# Static dielectric constant tensor:
#      x y z
#    x 3.773820 0.000000 0.000000 
#    y 0.000000 4.014260 0.000000 
#    z 0.000000 0.000000 3.884710 
# 
# 
# High freq. dielectric constant tensor:
#      x y z
#    x 1.817640 0.000000 0.000000 
#    y 0.000000 1.840650 0.000000 
#    z 0.000000 0.000000 1.826890 
# 
# From -- ./inp_files/9087.got.cif
#   From: 2010.03.12/outbox.cif.g09.slc.cpg/sg56_5_cif.got.tgz:9087.got - 2010.04.16 15:33:40.
