data_PCOD8229999
_publ_section_title
;
Structure prediction by ZEFSAII (Michael W. Deem and Ramdas Pophale) SiO2 
 PCOD8229999
Probable space group: P B C M
;
_chemical_formula_sum "Si O2"
_cell_formula_units_Z 36
_cell_length_a 8.567284
_cell_length_b 19.452917
_cell_length_c 7.985447
_cell_angle_alpha 90.000000
_cell_angle_beta 90.000000
_cell_angle_gamma 90.000000
_cell_volume 1330.843933
_symmetry_space_group_name_H-M "P B C M"
_symmetry_group_IT_number 57
_symmetry_cell_setting 'orthorhombic'
loop_
_space_group_symop_operation_xyz
x,y,z
-x,-y,1/2+z
x,1/2-y,-z
-x,1/2+y,1/2-z
-x,-y,-z
x,y,1/2-z
-x,1/2+y,z
x,1/2-y,1/2+z
loop_
_atom_site_type_symbol
_atom_site_label
_atom_site_fract_x
_atom_site_fract_y
_atom_site_fract_z
Si Si1 0.374078 0.112762 0.750000
Si Si2 0.214614 0.324885 0.558633
Si Si3 0.690364 0.325347 0.250000
Si Si4 0.175031 0.509634 0.061952
Si Si5 0.346997 0.977903 0.250000
Si Si6 0.153974 0.832842 0.572068
O O1 0.276661 0.119222 0.576002
O O2 0.467105 0.038614 0.750000
O O3 0.501728 0.175304 0.750000
O O4 0.272079 0.250000 0.500000
O O5 0.272308 0.339596 0.750000
O O6 0.029855 0.329310 0.547443
O O7 0.762699 0.292509 0.419434
O O8 0.748677 0.405451 0.250000
O O9 0.198901 0.473742 0.250000
O O10 0.212204 0.589322 0.085885
O O11 0.000000 0.500000 0.000000
O O12 0.292494 0.480460 0.917456
O O13 0.202509 0.797741 0.750000
#
# Coordination Sequence:
#
# PCOD8229999 Si02
#       6
#     4   8   4   8   4   8
#     4  10  21  37  58  81 113 153 183 228 279 356
#     4  11  22  38  60  80 109 151 196 232 280 342
#     4   8  17  33  56  76 108 136 178 224 289 316
#     4  10  17  30  55  87 115 141 183 234 288 343
#     4   8  18  32  50  79 107 147 175 220 280 324
#     4   9  19  34  56  85 110 145 188 236 284 332
#
# _framework density 27.050504
#
# number of rings (size 3 to 8) (size 9 to 14) (size 15 to 20)
#    0.667    1.778    2.222    0.667    0.000    1.778 
#    0.000    1.111    0.000    1.333    0.000    0.000 
#    0.000    0.000    0.000    0.000    0.000    0.000 
#
# Total GULP energy -446160.994046 kJ/mol
# GULP energy per Si atom -12393.360946 kJ/mol
# Density = 2.698894 g / cm^3
# Si number density = 27.050504 Si / 1000 Ang^3
#
#
#
# Elastic Constant Matrix: (Units=GPa)
#
#
# Indices 1 2 3 4 5 6 
#
# 1 101.9212 -4.5585 98.2268 0.0000 0.0000 0.0000
# 2 -4.5585 67.0534 78.9958 0.0000 0.0000 0.0000
# 3 98.2268 78.9958 313.8365 0.0000 0.0000 0.0000
# 4 0.0000 0.0000 0.0000 58.7033 0.0000 0.0000
# 5 0.0000 0.0000 0.0000 0.0000 13.4856 0.0000
# 6 0.0000 0.0000 0.0000 0.0000 0.0000 73.0772
#
#
#
# Elastic Compliance Matrix: (Units=1/GPa)
#
#
# Indices 1 2 3 4 5 6 
#
# 1 0.018869 0.011714 -0.008854 0.000000 0.000000 0.000000
# 2 0.011714 0.028472 -0.010833 0.000000 0.000000 0.000000
# 3 -0.008854 -0.010833 0.008684 0.000000 0.000000 0.000000
# 4 0.000000 0.000000 0.000000 0.017035 0.000000 0.000000
# 5 0.000000 0.000000 0.000000 0.000000 0.074153 0.000000
# 6 0.000000 0.000000 0.000000 0.000000 0.000000 0.013684
#
#
# Mechanical properties :
#
#
# Convention : Reuss Voigt Hill
#
# Bulk Modulus (GPa) = 24.95106 92.01547 58.48327
# Shear Modulus (GPa) = 26.28767 49.72970 38.00868
#
# Velocity S-wave (km/s) = 3.12075 4.29231 3.75253
# Velocity P-wave (km/s) = 4.71480 7.65867 6.35943
#
# Compressibility (1/GPa) = 0.04007845
#
# Stress axis : x y z
#
# Youngs Moduli (GPa) = 52.99827 35.12201 115.14959
#
# Poissons Ratio (x) = -0.41141 1.01954
# Poissons Ratio (y) = -0.62081 1.24741
# Poissons Ratio (z) = 0.46925 0.38048
#
# Static dielectric constant tensor:
#      x y z
#    x 4.392730 0.000000 0.000000 
#    y 0.000000 5.024620 0.000000 
#    z 0.000000 0.000000 6.277100 
# 
# 
# High freq. dielectric constant tensor:
#      x y z
#    x 2.051410 0.000000 0.000000 
#    y 0.000000 2.116440 0.000000 
#    z 0.000000 0.000000 2.131770 
# 
# From -- ./inp_files/1690.got.cif
#   From: 2010.03.12/outbox.cif.g09.slc.cpg/sg57_1_cif.got.tgz:1690.got - 2010.04.16 15:48:40.
