data_PCOD8229874
_publ_section_title
;
Structure prediction by ZEFSAII (Michael W. Deem and Ramdas Pophale) SiO2 
 PCOD8229874
Probable space group: P C C N
;
_chemical_formula_sum "Si O2"
_cell_formula_units_Z 20
_cell_length_a 5.212041
_cell_length_b 7.369018
_cell_length_c 19.079896
_cell_angle_alpha 90.000000
_cell_angle_beta 90.000000
_cell_angle_gamma 90.000000
_cell_volume 732.813470
_symmetry_space_group_name_H-M "P C C N"
_symmetry_group_IT_number 56
_symmetry_cell_setting 'orthorhombic'
loop_
_space_group_symop_operation_xyz
x,y,z
1/2-x,1/2-y,z
1/2+x,-y,1/2-z
-x,1/2+y,1/2-z
-x,-y,-z
1/2+x,1/2+y,-z
1/2-x,y,1/2+z
x,1/2-y,1/2+z
loop_
_atom_site_type_symbol
_atom_site_label
_atom_site_fract_x
_atom_site_fract_y
_atom_site_fract_z
Si Si1 0.954292 0.112479 0.659190
Si Si2 0.749462 0.043228 0.955624
Si Si3 0.750000 0.750000 0.214416
O O1 0.750000 0.250000 0.622269
O O2 0.014589 0.189003 0.736172
O O3 0.822873 0.915207 0.663990
O O4 0.216945 0.084583 0.613716
O O5 0.750000 0.250000 0.930491
O O6 0.500000 0.000000 0.000000
O O7 0.000000 0.000000 0.000000
#
# Coordination Sequence:
#
# PCOD8229874 Si02
#       3
#     8   8   4
#     4  12  29  51  84 123 175 218 288 353 430 521
#     4  12  31  54  84 120 165 228 289 354 424 502
#     4  12  28  50  82 126 166 224 272 352 440 510
#
# _framework density 27.292074
#
# number of rings (size 3 to 8) (size 9 to 14) (size 15 to 20)
#    0.000    0.000    4.000    2.400   22.400    0.000 
#    0.000    0.000    0.000    0.000    0.000    0.000 
#    0.000    0.000    0.000    0.000    0.000    0.000 
#
# Total GULP energy -248101.844979 kJ/mol
# GULP energy per Si atom -12405.092249 kJ/mol
# Density = 2.722996 g / cm^3
# Si number density = 27.292074 Si / 1000 Ang^3
#
#
#
# Elastic Constant Matrix: (Units=GPa)
#
#
# Indices 1 2 3 4 5 6 
#
# 1 186.2364 71.7755 53.8738 0.0000 0.0000 0.0000
# 2 71.7755 223.9050 50.4380 0.0000 0.0000 0.0000
# 3 53.8738 50.4380 107.5350 0.0000 0.0000 0.0000
# 4 0.0000 0.0000 0.0000 32.1757 0.0000 0.0000
# 5 0.0000 0.0000 0.0000 0.0000 54.2964 0.0000
# 6 0.0000 0.0000 0.0000 0.0000 0.0000 50.6034
#
#
#
# Elastic Compliance Matrix: (Units=1/GPa)
#
#
# Indices 1 2 3 4 5 6 
#
# 1 0.006736 -0.001565 -0.002641 0.000000 0.000000 0.000000
# 2 -0.001565 0.005357 -0.001729 0.000000 0.000000 0.000000
# 3 -0.002641 -0.001729 0.011433 0.000000 0.000000 0.000000
# 4 0.000000 0.000000 0.000000 0.031079 0.000000 0.000000
# 5 0.000000 0.000000 0.000000 0.000000 0.018417 0.000000
# 6 0.000000 0.000000 0.000000 0.000000 0.000000 0.019762
#
#
# Mechanical properties :
#
#
# Convention : Reuss Voigt Hill
#
# Bulk Modulus (GPa) = 85.77796 96.65012 91.21404
# Shear Modulus (GPa) = 46.06581 50.18771 48.12676
#
# Velocity S-wave (km/s) = 4.11284 4.29291 4.20384
# Velocity P-wave (km/s) = 7.35199 7.74998 7.55361
#
# Compressibility (1/GPa) = 0.01165801
#
# Stress axis : x y z
#
# Youngs Moduli (GPa) = 148.44520 186.66578 87.46318
#
# Poissons Ratio (x) = 0.29204 0.23100
# Poissons Ratio (y) = 0.23225 0.15122
# Poissons Ratio (z) = 0.39206 0.32273
#
# Static dielectric constant tensor:
#      x y z
#    x 5.548160 0.000000 0.000000 
#    y 0.000000 5.902730 0.000000 
#    z 0.000000 0.000000 5.028620 
# 
# 
# High freq. dielectric constant tensor:
#      x y z
#    x 2.107280 0.000000 0.000000 
#    y 0.000000 2.132640 0.000000 
#    z 0.000000 0.000000 2.092450 
# 
# From -- ./inp_files/13552.got.cif
#   From: 2010.03.12/outbox.cif.g09.slc.cpg/sg56_7_cif.got.tgz:13552.got - 2010.04.16 15:33:40.
