data_PCOD8229425
_publ_section_title
;
Structure prediction by ZEFSAII (Michael W. Deem and Ramdas Pophale) SiO2 
 PCOD8229425
Probable space group: P C C N
;
_chemical_formula_sum "Si O2"
_cell_formula_units_Z 40
_cell_length_a 23.937266
_cell_length_b 7.334702
_cell_length_c 9.248129
_cell_angle_alpha 90.000000
_cell_angle_beta 90.000000
_cell_angle_gamma 90.000000
_cell_volume 1623.719097
_symmetry_space_group_name_H-M "P C C N"
_symmetry_group_IT_number 56
_symmetry_cell_setting 'orthorhombic'
loop_
_space_group_symop_operation_xyz
x,y,z
1/2-x,1/2-y,z
1/2+x,-y,1/2-z
-x,1/2+y,1/2-z
-x,-y,-z
1/2+x,1/2+y,-z
1/2-x,y,1/2+z
x,1/2-y,1/2+z
loop_
_atom_site_type_symbol
_atom_site_label
_atom_site_fract_x
_atom_site_fract_y
_atom_site_fract_z
Si Si1 0.941054 0.085130 0.337883
Si Si2 0.136225 0.287905 0.286728
Si Si3 0.294174 0.963158 0.448756
Si Si4 0.250000 0.750000 0.182555
Si Si5 0.940633 0.444593 0.168243
Si Si6 0.750000 0.750000 0.373002
O O1 0.920419 0.270541 0.260836
O O2 0.947653 0.128989 0.506246
O O3 0.898890 0.916933 0.318924
O O4 0.000870 0.023715 0.271888
O O5 0.150357 0.411268 0.431000
O O6 0.194995 0.225305 0.221942
O O7 0.104697 0.104382 0.327558
O O8 0.274777 0.905756 0.287319
O O9 0.301120 0.804286 0.570549
O O10 0.243324 0.076427 0.521006
#
# Coordination Sequence:
#
# PCOD8229425 Si02
#       6
#     8   8   8   4   8   4
#     4  11  26  50  81 113 153 202 271 333 402 469
#     4  12  26  49  79 115 157 212 260 327 400 476
#     4  11  24  47  72 107 153 203 255 318 386 467
#     4  10  24  46  76 104 152 202 264 320 372 474
#     4  11  26  51  82 114 154 206 266 335 399 474
#     4  12  26  48  72 110 164 210 252 312 400 490
#
# _framework density 24.634803000000002
#
# number of rings (size 3 to 8) (size 9 to 14) (size 15 to 20)
#    0.000    0.800    4.000    1.800    0.000    7.200 
#    3.600    0.000    0.000    0.000    0.000    0.000 
#    0.000    0.000    0.000    0.000    0.000    0.000 
#
# Total GULP energy -495798.204945 kJ/mol
# GULP energy per Si atom -12394.955124 kJ/mol
# Density = 2.457873 g / cm^3
# Si number density = 24.634803 Si / 1000 Ang^3
#
#
#
# Elastic Constant Matrix: (Units=GPa)
#
#
# Indices 1 2 3 4 5 6 
#
# 1 119.2727 43.2025 40.8229 0.0000 0.0000 0.0000
# 2 43.2025 143.3946 62.5969 0.0000 0.0000 0.0000
# 3 40.8229 62.5969 136.5266 0.0000 0.0000 0.0000
# 4 0.0000 0.0000 0.0000 45.1713 0.0000 0.0000
# 5 0.0000 0.0000 0.0000 0.0000 19.7585 0.0000
# 6 0.0000 0.0000 0.0000 0.0000 0.0000 51.3930
#
#
#
# Elastic Compliance Matrix: (Units=1/GPa)
#
#
# Indices 1 2 3 4 5 6 
#
# 1 0.009819 -0.002096 -0.001975 0.000000 0.000000 0.000000
# 2 -0.002096 0.009166 -0.003576 0.000000 0.000000 0.000000
# 3 -0.001975 -0.003576 0.009555 0.000000 0.000000 0.000000
# 4 0.000000 0.000000 0.000000 0.022138 0.000000 0.000000
# 5 0.000000 0.000000 0.000000 0.000000 0.050611 0.000000
# 6 0.000000 0.000000 0.000000 0.000000 0.000000 0.019458
#
#
# Mechanical properties :
#
#
# Convention : Reuss Voigt Hill
#
# Bulk Modulus (GPa) = 75.49407 76.93761 76.21584
# Shear Modulus (GPa) = 35.59805 40.10266 37.85036
#
# Velocity S-wave (km/s) = 3.80548 4.03908 3.92402
# Velocity P-wave (km/s) = 7.07253 7.28364 7.17886
#
# Compressibility (1/GPa) = 0.01324607
#
# Stress axis : x y z
#
# Youngs Moduli (GPa) = 101.83902 109.09460 104.66087
#
# Poissons Ratio (x) = 0.22869 0.20670
# Poissons Ratio (y) = 0.21348 0.37426
# Poissons Ratio (z) = 0.20113 0.39011
#
# Static dielectric constant tensor:
#      x y z
#    x 4.331540 0.000000 0.000000 
#    y 0.000000 4.815620 0.000000 
#    z 0.000000 0.000000 4.560650 
# 
# 
# High freq. dielectric constant tensor:
#      x y z
#    x 1.959400 0.000000 0.000000 
#    y 0.000000 2.004220 0.000000 
#    z 0.000000 0.000000 1.990070 
# 
# From -- ./inp_files/4694.got.cif
#   From: 2010.03.12/outbox.cif.g09.slc.cpg/sg56_3_cif.got.tgz:4694.got - 2010.04.16 15:33:40.
