data_PCOD8229447
_publ_section_title
;
Structure prediction by ZEFSAII (Michael W. Deem and Ramdas Pophale) SiO2 
 PCOD8229447
Probable space group: P C C N
;
_chemical_formula_sum "Si O2"
_cell_formula_units_Z 64
_cell_length_a 14.211078
_cell_length_b 9.398353
_cell_length_c 22.428611
_cell_angle_alpha 90.000000
_cell_angle_beta 90.000000
_cell_angle_gamma 90.000000
_cell_volume 2995.581603
_symmetry_space_group_name_H-M "P C C N"
_symmetry_group_IT_number 56
_symmetry_cell_setting 'orthorhombic'
loop_
_space_group_symop_operation_xyz
x,y,z
1/2-x,1/2-y,z
1/2+x,-y,1/2-z
-x,1/2+y,1/2-z
-x,-y,-z
1/2+x,1/2+y,-z
1/2-x,y,1/2+z
x,1/2-y,1/2+z
loop_
_atom_site_type_symbol
_atom_site_label
_atom_site_fract_x
_atom_site_fract_y
_atom_site_fract_z
Si Si1 0.657837 0.820921 0.715171
Si Si2 0.048713 0.432493 0.078333
Si Si3 0.880444 0.030403 0.301758
Si Si4 0.523564 0.352336 0.123655
Si Si5 0.065572 0.448428 0.734611
Si Si6 0.368066 0.101310 0.951845
Si Si7 0.150612 0.781778 0.275579
Si Si8 0.345267 0.418118 0.911962
O O1 0.750000 0.750000 0.687928
O O2 0.581368 0.705536 0.735882
O O3 0.626139 0.911105 0.658011
O O4 0.691819 0.919078 0.770816
O O5 0.115224 0.500218 0.128592
O O6 0.029527 0.264761 0.083995
O O7 0.950926 0.521341 0.084012
O O8 0.111881 0.449047 0.019293
O O9 0.856810 0.192588 0.286478
O O10 0.973841 0.982748 0.265211
O O11 0.446420 0.441848 0.162330
O O12 0.577249 0.263874 0.174725
O O13 0.587099 0.444458 0.076018
O O14 0.148033 0.555655 0.753784
O O15 0.377203 0.272551 0.944676
O O16 0.264510 0.050122 0.928730
O O17 0.250000 0.750000 0.306335
#
# Coordination Sequence:
#
# PCOD8229447 Si02
#       8
#     8   8   8   8   8   8   8   8
#     4  12  21  35  60  95 126 164 203 258 327 377
#     4  11  23  45  65  92 126 175 219 267 324 373
#     4  11  21  37  60  89 127 164 203 258 328 394
#     4  11  24  37  67  95 130 167 209 271 323 384
#     4  11  21  36  57 100 133 167 198 255 329 402
#     4  10  25  43  69  89 122 177 227 271 308 373
#     4  11  23  35  56  97 134 167 205 252 328 393
#     4  11  23  42  65  98 124 165 220 268 312 380
#
# _framework density 21.364799000000001
#
# number of rings (size 3 to 8) (size 9 to 14) (size 15 to 20)
#    0.000    1.000    6.250    2.250    3.500    0.500 
#    2.250    0.000    5.500    0.000    0.000    0.000 
#    0.000    0.000    0.000    0.000    0.000    0.000 
#
# Total GULP energy -792894.600166 kJ/mol
# GULP energy per Si atom -12388.978128 kJ/mol
# Density = 2.131617 g / cm^3
# Si number density = 21.364799 Si / 1000 Ang^3
#
#
#
# Elastic Constant Matrix: (Units=GPa)
#
#
# Indices 1 2 3 4 5 6 
#
# 1 43.2839 14.2513 10.2851 0.0000 0.0000 0.0000
# 2 14.2513 81.4882 17.8757 0.0000 0.0000 0.0000
# 3 10.2851 17.8757 81.8473 0.0000 0.0000 0.0000
# 4 0.0000 0.0000 0.0000 24.6668 0.0000 0.0000
# 5 0.0000 0.0000 0.0000 0.0000 27.0080 0.0000
# 6 0.0000 0.0000 0.0000 0.0000 0.0000 34.6291
#
#
#
# Elastic Compliance Matrix: (Units=1/GPa)
#
#
# Indices 1 2 3 4 5 6 
#
# 1 0.024917 -0.003855 -0.002289 0.000000 0.000000 0.000000
# 2 -0.003855 0.013486 -0.002461 0.000000 0.000000 0.000000
# 3 -0.002289 -0.002461 0.013043 0.000000 0.000000 0.000000
# 4 0.000000 0.000000 0.000000 0.040540 0.000000 0.000000
# 5 0.000000 0.000000 0.000000 0.000000 0.037026 0.000000
# 6 0.000000 0.000000 0.000000 0.000000 0.000000 0.028877
#
#
# Mechanical properties :
#
#
# Convention : Reuss Voigt Hill
#
# Bulk Modulus (GPa) = 29.21015 32.38263 30.79639
# Shear Modulus (GPa) = 26.80798 28.20791 27.50795
#
# Velocity S-wave (km/s) = 3.54612 3.63753 3.59212
# Velocity P-wave (km/s) = 5.51982 5.72993 5.62586
#
# Compressibility (1/GPa) = 0.03423467
#
# Stress axis : x y z
#
# Youngs Moduli (GPa) = 40.13384 74.15195 76.66957
#
# Poissons Ratio (x) = 0.28589 0.17550
# Poissons Ratio (y) = 0.15474 0.18867
# Poissons Ratio (z) = 0.09187 0.18248
#
# Static dielectric constant tensor:
#      x y z
#    x 3.834130 0.000000 0.000000 
#    y 0.000000 4.061370 0.000000 
#    z 0.000000 0.000000 3.598780 
# 
# 
# High freq. dielectric constant tensor:
#      x y z
#    x 1.831100 0.000000 0.000000 
#    y 0.000000 1.853510 0.000000 
#    z 0.000000 0.000000 1.811910 
# 
# From -- ./inp_files/21191.got.cif
#   From: 2010.03.12/outbox.cif.g09.slc.cpg/sg56_11_cif.got.tgz:21191.got - 2010.04.16 15:33:40.
