data_PCOD8229647
_publ_section_title
;
Structure prediction by ZEFSAII (Michael W. Deem and Ramdas Pophale) SiO2 
 PCOD8229647
Probable space group: P C C N
;
_chemical_formula_sum "Si O2"
_cell_formula_units_Z 32
_cell_length_a 16.722272
_cell_length_b 4.798002
_cell_length_c 17.364832
_cell_angle_alpha 90.000000
_cell_angle_beta 90.000000
_cell_angle_gamma 90.000000
_cell_volume 1393.241153
_symmetry_space_group_name_H-M "P C C N"
_symmetry_group_IT_number 56
_symmetry_cell_setting 'orthorhombic'
loop_
_space_group_symop_operation_xyz
x,y,z
1/2-x,1/2-y,z
1/2+x,-y,1/2-z
-x,1/2+y,1/2-z
-x,-y,-z
1/2+x,1/2+y,-z
1/2-x,y,1/2+z
x,1/2-y,1/2+z
loop_
_atom_site_type_symbol
_atom_site_label
_atom_site_fract_x
_atom_site_fract_y
_atom_site_fract_z
Si Si1 0.421670 0.440867 0.450744
Si Si2 0.305549 0.508621 0.175963
Si Si3 0.452605 0.335319 0.276744
Si Si4 0.668858 0.083677 0.494238
O O1 0.500000 0.500000 0.500000
O O2 0.445037 0.329418 0.367848
O O3 0.390794 0.755714 0.449377
O O4 0.350203 0.241691 0.485838
O O5 0.250000 0.250000 0.152945
O O6 0.369758 0.431171 0.239812
O O7 0.347905 0.614684 0.097401
O O8 0.250000 0.750000 0.211874
O O9 0.527153 0.526163 0.251747
O O10 0.750000 0.250000 0.513468
#
# Coordination Sequence:
#
# PCOD8229647 Si02
#       4
#     8   8   8   8
#     4  12  24  41  66  95 127 168 216 268 319 382
#     4  11  23  42  65  92 127 169 210 260 323 388
#     4  12  25  43  65  94 131 171 215 266 321 385
#     4  11  23  42  65  93 127 166 211 264 324 385
#
# _framework density 22.968024
#
# number of rings (size 3 to 8) (size 9 to 14) (size 15 to 20)
#    0.000    0.500    0.000   10.500    0.000    3.000 
#    0.000    0.000    0.000    0.000    0.000    0.000 
#    0.000    0.000    0.000    0.000    0.000    0.000 
#
# Total GULP energy -396427.186660 kJ/mol
# GULP energy per Si atom -12388.349583 kJ/mol
# Density = 2.291575 g / cm^3
# Si number density = 22.968024 Si / 1000 Ang^3
#
#
#
# Elastic Constant Matrix: (Units=GPa)
#
#
# Indices 1 2 3 4 5 6 
#
# 1 85.6243 23.4684 48.4196 0.0000 0.0000 0.0000
# 2 23.4684 95.5670 11.6054 0.0000 0.0000 0.0000
# 3 48.4196 11.6054 128.0872 0.0000 0.0000 0.0000
# 4 0.0000 0.0000 0.0000 26.2415 0.0000 0.0000
# 5 0.0000 0.0000 0.0000 0.0000 20.6942 0.0000
# 6 0.0000 0.0000 0.0000 0.0000 0.0000 58.5023
#
#
#
# Elastic Compliance Matrix: (Units=1/GPa)
#
#
# Indices 1 2 3 4 5 6 
#
# 1 0.015756 -0.003181 -0.005668 0.000000 0.000000 0.000000
# 2 -0.003181 0.011222 0.000186 0.000000 0.000000 0.000000
# 3 -0.005668 0.000186 0.009933 0.000000 0.000000 0.000000
# 4 0.000000 0.000000 0.000000 0.038108 0.000000 0.000000
# 5 0.000000 0.000000 0.000000 0.000000 0.048323 0.000000
# 6 0.000000 0.000000 0.000000 0.000000 0.000000 0.017093
#
#
# Mechanical properties :
#
#
# Convention : Reuss Voigt Hill
#
# Bulk Modulus (GPa) = 51.05938 52.91838 51.98888
# Shear Modulus (GPa) = 30.43411 36.13995 33.28703
#
# Velocity S-wave (km/s) = 3.64409 3.97103 3.81107
# Velocity P-wave (km/s) = 6.32335 6.64195 6.48461
#
# Compressibility (1/GPa) = 0.01958504
#
# Stress axis : x y z
#
# Youngs Moduli (GPa) = 63.46847 89.10710 100.67536
#
# Poissons Ratio (x) = 0.28344 0.57061
# Poissons Ratio (y) = 0.20189 -0.01869
# Poissons Ratio (z) = 0.35973 -0.01654
#
# Static dielectric constant tensor:
#      x y z
#    x 4.047180 0.000000 0.000000 
#    y 0.000000 4.459500 0.000000 
#    z 0.000000 0.000000 3.973470 
# 
# 
# High freq. dielectric constant tensor:
#      x y z
#    x 1.915560 0.000000 0.000000 
#    y 0.000000 1.931020 0.000000 
#    z 0.000000 0.000000 1.898750 
# 
# From -- ./inp_files/9420.got.cif
#   From: 2010.03.12/outbox.cif.g09.slc.cpg/sg56_5_cif.got.tgz:9420.got - 2010.04.16 15:33:40.
