data_PCOD8229921
_publ_section_title
;
Structure prediction by ZEFSAII (Michael W. Deem and Ramdas Pophale) SiO2 
 PCOD8229921
Probable space group: P B C M
;
_chemical_formula_sum "Si O2"
_cell_formula_units_Z 64
_cell_length_a 16.943299
_cell_length_b 24.936449
_cell_length_c 9.011284
_cell_angle_alpha 90.000000
_cell_angle_beta 90.000000
_cell_angle_gamma 90.000000
_cell_volume 3807.318957
_symmetry_space_group_name_H-M "P B C M"
_symmetry_group_IT_number 57
_symmetry_cell_setting 'orthorhombic'
loop_
_space_group_symop_operation_xyz
x,y,z
-x,-y,1/2+z
x,1/2-y,-z
-x,1/2+y,1/2-z
-x,-y,-z
x,y,1/2-z
-x,1/2+y,z
x,1/2-y,1/2+z
loop_
_atom_site_type_symbol
_atom_site_label
_atom_site_fract_x
_atom_site_fract_y
_atom_site_fract_z
Si Si1 0.783612 0.105084 0.085524
Si Si2 0.328263 0.514119 0.085094
Si Si3 0.922699 0.065454 0.919729
Si Si4 0.666456 0.804150 0.922273
Si Si5 0.516680 0.195057 0.075838
Si Si6 0.259357 0.096266 0.922853
Si Si7 0.369180 0.886840 0.425351
Si Si8 0.095994 0.455709 0.080161
O O1 0.786943 0.131083 0.250000
O O2 0.758481 0.042102 0.096099
O O3 0.869836 0.108271 0.011038
O O4 0.715595 0.134725 0.987509
O O5 0.367016 0.514024 0.250000
O O6 0.314767 0.453829 0.027275
O O7 0.381304 0.550262 0.973012
O O8 0.896922 0.070973 0.750000
O O9 0.015148 0.078240 0.943968
O O10 0.903818 0.005132 0.968684
O O11 0.682400 0.797263 0.750000
O O12 0.575012 0.814988 0.957084
O O13 0.695648 0.750000 0.000000
O O14 0.717853 0.852965 0.981227
O O15 0.535567 0.197674 0.250000
O O16 0.545373 0.250000 0.000000
O O17 0.561318 0.146016 0.000694
O O18 0.273219 0.108353 0.750000
O O19 0.168065 0.083772 0.955927
O O20 0.373013 0.880741 0.250000
O O21 0.099684 0.476902 0.250000
#
# Coordination Sequence:
#
# PCOD8229921 Si02
#       8
#     8   8   8   8   8   8   8   8
#     4   9  16  28  43  61  95 135 165 194 240 288
#     4   8  16  29  46  67  97 135 165 194 239 292
#     4  10  17  24  40  66  96 130 168 204 236 279
#     4  10  22  38  56  76  97 123 160 206 253 300
#     4  10  20  36  55  75  99 125 157 201 251 297
#     4  10  18  32  52  71  98 134 169 206 251 300
#     4  10  18  29  49  75 100 127 163 201 238 288
#     4   9  17  28  41  63  96 131 163 198 242 285
#
# _framework density 16.809730999999999
#
# number of rings (size 3 to 8) (size 9 to 14) (size 15 to 20)
#    0.750    1.750    1.250    2.250    0.000    3.000 
#    0.000    0.625    0.000    0.000    0.000    0.875 
#    0.000    2.000    0.000    0.000    0.000    0.000 
#
# Total GULP energy -793168.475738 kJ/mol
# GULP energy per Si atom -12393.257433 kJ/mol
# Density = 1.677147 g / cm^3
# Si number density = 16.809731 Si / 1000 Ang^3
#
#
#
# Elastic Constant Matrix: (Units=GPa)
#
#
# Indices 1 2 3 4 5 6 
#
# 1 68.7983 45.2723 46.0645 0.0000 0.0000 0.0000
# 2 45.2723 81.4480 41.7099 0.0000 0.0000 0.0000
# 3 46.0645 41.7099 105.6153 0.0000 0.0000 0.0000
# 4 0.0000 0.0000 0.0000 27.5141 0.0000 0.0000
# 5 0.0000 0.0000 0.0000 0.0000 27.0513 0.0000
# 6 0.0000 0.0000 0.0000 0.0000 0.0000 -0.3562
#
#
#
# Elastic Compliance Matrix: (Units=1/GPa)
#
#
# Indices 1 2 3 4 5 6 
#
# 1 0.026723 -0.011138 -0.007257 0.000000 0.000000 0.000000
# 2 -0.011138 0.020032 -0.003053 0.000000 0.000000 0.000000
# 3 -0.007257 -0.003053 0.013839 0.000000 0.000000 0.000000
# 4 0.000000 0.000000 0.000000 0.036345 0.000000 0.000000
# 5 0.000000 0.000000 0.000000 0.000000 0.036967 0.000000
# 6 0.000000 0.000000 0.000000 0.000000 0.000000 -2.807681
#
#
# Mechanical properties :
#
#
# Convention : Reuss Voigt Hill
#
# Bulk Modulus (GPa) = 56.50111 57.99500 57.24805
# Shear Modulus (GPa) = -1.90478 19.02949 8.56236
#
# Velocity S-wave (km/s) = -1.06565 3.36825 2.25937
# Velocity P-wave (km/s) = 5.67195 7.05000 6.39818
#
# Compressibility (1/GPa) = 0.01769877
#
# Stress axis : x y z
#
# Youngs Moduli (GPa) = 37.42061 49.91956 72.25768
#
# Poissons Ratio (x) = 0.55598 0.52437
# Poissons Ratio (y) = 0.41678 0.22064
# Poissons Ratio (z) = 0.27156 0.15243
#
# Static dielectric constant tensor:
#      x y z
#    x 3.118700 0.000000 0.000000 
#    y 0.000000 2.789750 0.000000 
#    z 0.000000 0.000000 3.209080 
# 
# 
# High freq. dielectric constant tensor:
#      x y z
#    x 1.639530 0.000000 0.000000 
#    y 0.000000 1.604640 0.000000 
#    z 0.000000 0.000000 1.659110 
# 
# From -- ./inp_files/7497.got.cif
#   From: 2010.03.12/outbox.cif.g09.slc.cpg/sg57_4_cif.got.tgz:7497.got - 2010.04.16 15:48:40.
