data_PCOD8229924
_publ_section_title
;
Structure prediction by ZEFSAII (Michael W. Deem and Ramdas Pophale) SiO2 
 PCOD8229924
Probable space group: P B C M
;
_chemical_formula_sum "Si O2"
_cell_formula_units_Z 64
_cell_length_a 19.993544
_cell_length_b 22.940431
_cell_length_c 9.051126
_cell_angle_alpha 90.000000
_cell_angle_beta 90.000000
_cell_angle_gamma 90.000000
_cell_volume 4151.394127
_symmetry_space_group_name_H-M "P B C M"
_symmetry_group_IT_number 57
_symmetry_cell_setting 'orthorhombic'
loop_
_space_group_symop_operation_xyz
x,y,z
-x,-y,1/2+z
x,1/2-y,-z
-x,1/2+y,1/2-z
-x,-y,-z
x,y,1/2-z
-x,1/2+y,z
x,1/2-y,1/2+z
loop_
_atom_site_type_symbol
_atom_site_label
_atom_site_fract_x
_atom_site_fract_y
_atom_site_fract_z
Si Si1 0.289491 0.024696 0.077523
Si Si2 0.671166 0.105246 0.920636
Si Si3 0.543541 0.080918 0.083447
Si Si4 0.015728 0.440108 0.078485
Si Si5 0.897211 0.105435 0.424303
Si Si6 0.792920 0.188043 0.924759
Si Si7 0.157217 0.022475 0.581981
Si Si8 0.582598 0.946208 0.416940
O O1 0.295105 0.036333 0.250000
O O2 0.297427 0.956887 0.035757
O O3 0.216896 0.044812 0.021476
O O4 0.346939 0.062855 0.999365
O O5 0.651020 0.105663 0.750000
O O6 0.724705 0.154188 0.960840
O O7 0.603621 0.117989 0.011539
O O8 0.533389 0.102548 0.250000
O O9 0.562187 0.013369 0.076482
O O10 0.474582 0.092117 0.996168
O O11 0.994635 0.443027 0.250000
O O12 0.095946 0.431507 0.063738
O O13 0.000000 0.500000 0.000000
O O14 0.972172 0.390865 0.994486
O O15 0.901355 0.116644 0.250000
O O16 0.854967 0.155506 0.501780
O O17 0.865511 0.042705 0.462875
O O18 0.805073 0.193429 0.750000
O O19 0.785641 0.250000 0.000000
O O20 0.183040 0.021642 0.750000
O O21 0.589816 0.923972 0.250000
#
# Coordination Sequence:
#
# PCOD8229924 Si02
#       8
#     8   8   8   8   8   8   8   8
#     4  10  17  25  39  58  81 109 141 174 207 246
#     4   9  18  30  42  57  77 105 138 174 216 255
#     4   9  16  25  39  56  74 100 135 171 204 242
#     4   9  17  28  42  61  83 108 139 175 212 256
#     4  10  19  31  46  62  81 108 141 179 219 262
#     4  11  22  35  48  64  84 110 144 185 226 264
#     4   9  17  27  40  60  84 110 140 172 210 254
#     4   9  16  25  36  53  78 106 134 167 203 241
#
# _framework density 15.416508
#
# number of rings (size 3 to 8) (size 9 to 14) (size 15 to 20)
#    0.000    2.500    1.250    3.000    0.000    7.000 
#    0.000    0.000    0.000    0.000    0.000    0.000 
#    0.000    0.000    0.000    1.125    0.000   17.500 
#
# Total GULP energy -793435.733600 kJ/mol
# GULP energy per Si atom -12397.433338 kJ/mol
# Density = 1.538142 g / cm^3
# Si number density = 15.416508 Si / 1000 Ang^3
#
#
#
# Elastic Constant Matrix: (Units=GPa)
#
#
# Indices 1 2 3 4 5 6 
#
# 1 133.8273 35.2810 76.8873 0.0000 0.0000 0.0000
# 2 35.2810 35.7806 27.9474 0.0000 0.0000 0.0000
# 3 76.8873 27.9474 114.9549 0.0000 0.0000 0.0000
# 4 0.0000 0.0000 0.0000 16.0817 0.0000 0.0000
# 5 0.0000 0.0000 0.0000 0.0000 34.3054 0.0000
# 6 0.0000 0.0000 0.0000 0.0000 0.0000 12.8969
#
#
#
# Elastic Compliance Matrix: (Units=1/GPa)
#
#
# Indices 1 2 3 4 5 6 
#
# 1 0.013716 -0.007849 -0.007266 0.000000 0.000000 0.000000
# 2 -0.007849 0.038991 -0.004229 0.000000 0.000000 0.000000
# 3 -0.007266 -0.004229 0.014587 0.000000 0.000000 0.000000
# 4 0.000000 0.000000 0.000000 0.062183 0.000000 0.000000
# 5 0.000000 0.000000 0.000000 0.000000 0.029150 0.000000
# 6 0.000000 0.000000 0.000000 0.000000 0.000000 0.077538
#
#
# Mechanical properties :
#
#
# Convention : Reuss Voigt Hill
#
# Bulk Modulus (GPa) = 34.95835 62.75491 48.85663
# Shear Modulus (GPa) = 17.58156 22.28658 19.93407
#
# Velocity S-wave (km/s) = 3.38070 3.80627 3.59978
# Velocity P-wave (km/s) = 6.16149 7.75317 7.00270
#
# Compressibility (1/GPa) = 0.02860547
#
# Stress axis : x y z
#
# Youngs Moduli (GPa) = 72.90803 25.64669 68.55505
#
# Poissons Ratio (x) = 0.20131 0.49809
# Poissons Ratio (y) = 0.57229 0.28994
# Poissons Ratio (z) = 0.52972 0.10847
#
# Static dielectric constant tensor:
#      x y z
#    x 3.192380 0.000000 0.000000 
#    y 0.000000 2.398300 0.000000 
#    z 0.000000 0.000000 3.120890 
# 
# 
# High freq. dielectric constant tensor:
#      x y z
#    x 1.604560 0.000000 0.000000 
#    y 0.000000 1.509300 0.000000 
#    z 0.000000 0.000000 1.610740 
# 
# From -- ./inp_files/8798.got.cif
#   From: 2010.03.12/outbox.cif.g09.slc.cpg/sg57_5_cif.got.tgz:8798.got - 2010.04.16 15:48:40.
