data_PCOD8229663
_publ_section_title
;
Structure prediction by ZEFSAII (Michael W. Deem and Ramdas Pophale) SiO2 
 PCOD8229663
Probable space group: P C C N
;
_chemical_formula_sum "Si O2"
_cell_formula_units_Z 48
_cell_length_a 9.631693
_cell_length_b 16.290850
_cell_length_c 14.233085
_cell_angle_alpha 90.000000
_cell_angle_beta 90.000000
_cell_angle_gamma 90.000000
_cell_volume 2233.291533
_symmetry_space_group_name_H-M "P C C N"
_symmetry_group_IT_number 56
_symmetry_cell_setting 'orthorhombic'
loop_
_space_group_symop_operation_xyz
x,y,z
1/2-x,1/2-y,z
1/2+x,-y,1/2-z
-x,1/2+y,1/2-z
-x,-y,-z
1/2+x,1/2+y,-z
1/2-x,y,1/2+z
x,1/2-y,1/2+z
loop_
_atom_site_type_symbol
_atom_site_label
_atom_site_fract_x
_atom_site_fract_y
_atom_site_fract_z
Si Si1 0.459448 0.669607 0.244753
Si Si2 0.040331 0.835543 0.648694
Si Si3 0.328889 0.664927 0.445053
Si Si4 0.663414 0.003619 0.512357
Si Si5 0.755356 0.036499 0.814899
Si Si6 0.258771 0.392656 0.825466
O O1 0.404209 0.755943 0.204149
O O2 0.429818 0.658209 0.355186
O O3 0.381773 0.600608 0.184408
O O4 0.623156 0.660166 0.225855
O O5 0.078219 0.834529 0.538722
O O6 0.109898 0.915146 0.697130
O O7 0.875881 0.836531 0.663306
O O8 0.250000 0.750000 0.437970
O O9 0.218351 0.589849 0.443388
O O10 0.740660 0.989375 0.413670
O O11 0.500000 0.000000 0.500000
O O12 0.700273 0.923651 0.571959
O O13 0.776281 0.973641 0.732252
#
# Coordination Sequence:
#
# PCOD8229663 Si02
#       6
#     8   8   8   8   8   8
#     4  12  24  46  68  98 136 181 228 281 340 414
#     4  11  26  45  66 102 137 180 229 284 340 409
#     4  11  25  45  74  99 133 189 235 278 340 419
#     4  11  24  42  69 102 136 177 226 289 344 405
#     4  11  23  43  72  94 134 181 233 271 340 411
#     4  12  26  43  67 103 141 174 225 289 350 395
#
# _framework density 21.492940000000001
#
# number of rings (size 3 to 8) (size 9 to 14) (size 15 to 20)
#    0.000    0.667    3.333    5.000    2.333    1.333 
#    0.000    1.667    0.000    0.000    0.000    0.000 
#    0.000    0.000    0.000    0.000    0.000    0.000 
#
# Total GULP energy -595348.360612 kJ/mol
# GULP energy per Si atom -12403.090846 kJ/mol
# Density = 2.144402 g / cm^3
# Si number density = 21.492940 Si / 1000 Ang^3
#
#
#
# Elastic Constant Matrix: (Units=GPa)
#
#
# Indices 1 2 3 4 5 6 
#
# 1 131.3192 30.7183 38.9242 0.0000 0.0000 0.0000
# 2 30.7183 71.4635 40.9094 0.0000 0.0000 0.0000
# 3 38.9242 40.9094 125.2810 0.0000 0.0000 0.0000
# 4 0.0000 0.0000 0.0000 33.2345 0.0000 0.0000
# 5 0.0000 0.0000 0.0000 0.0000 33.9934 0.0000
# 6 0.0000 0.0000 0.0000 0.0000 0.0000 34.3132
#
#
#
# Elastic Compliance Matrix: (Units=1/GPa)
#
#
# Indices 1 2 3 4 5 6 
#
# 1 0.008799 -0.002727 -0.001843 0.000000 0.000000 0.000000
# 2 -0.002727 0.018055 -0.005049 0.000000 0.000000 0.000000
# 3 -0.001843 -0.005049 0.010203 0.000000 0.000000 0.000000
# 4 0.000000 0.000000 0.000000 0.030089 0.000000 0.000000
# 5 0.000000 0.000000 0.000000 0.000000 0.029417 0.000000
# 6 0.000000 0.000000 0.000000 0.000000 0.000000 0.029143
#
#
# Mechanical properties :
#
#
# Convention : Reuss Voigt Hill
#
# Bulk Modulus (GPa) = 56.11660 61.01860 58.56760
# Shear Modulus (GPa) = 33.13754 34.80901 33.97327
#
# Velocity S-wave (km/s) = 3.93082 4.02874 3.98008
# Velocity P-wave (km/s) = 6.83870 7.07762 6.95918
#
# Compressibility (1/GPa) = 0.01782004
#
# Stress axis : x y z
#
# Youngs Moduli (GPa) = 113.64460 55.38498 98.00699
#
# Poissons Ratio (x) = 0.15104 0.18067
# Poissons Ratio (y) = 0.30992 0.49479
# Poissons Ratio (z) = 0.20949 0.27961
#
# Static dielectric constant tensor:
#      x y z
#    x 3.839720 0.000000 0.000000 
#    y 0.000000 4.289350 0.000000 
#    z 0.000000 0.000000 4.156420 
# 
# 
# High freq. dielectric constant tensor:
#      x y z
#    x 1.847360 0.000000 0.000000 
#    y 0.000000 1.845570 0.000000 
#    z 0.000000 0.000000 1.856820 
# 
# From -- ./inp_files/10659.got.cif
#   From: 2010.03.12/outbox.cif.g09.slc.cpg/sg56_6_cif.got.tgz:10659.got - 2010.04.16 15:33:40.
