data_PCOD8229368
_publ_section_title
;
Structure prediction by ZEFSAII (Michael W. Deem and Ramdas Pophale) SiO2 
 PCOD8229368
Probable space group: P C C N
;
_chemical_formula_sum "Si O2"
_cell_formula_units_Z 48
_cell_length_a 13.481680
_cell_length_b 17.433918
_cell_length_c 8.944214
_cell_angle_alpha 90.000000
_cell_angle_beta 90.000000
_cell_angle_gamma 90.000000
_cell_volume 2102.234675
_symmetry_space_group_name_H-M "P C C N"
_symmetry_group_IT_number 56
_symmetry_cell_setting 'orthorhombic'
loop_
_space_group_symop_operation_xyz
x,y,z
1/2-x,1/2-y,z
1/2+x,-y,1/2-z
-x,1/2+y,1/2-z
-x,-y,-z
1/2+x,1/2+y,-z
1/2-x,y,1/2+z
x,1/2-y,1/2+z
loop_
_atom_site_type_symbol
_atom_site_label
_atom_site_fract_x
_atom_site_fract_y
_atom_site_fract_z
Si Si1 0.716136 0.591520 0.085314
Si Si2 0.627530 0.165377 0.301126
Si Si3 0.750000 0.250000 0.553090
Si Si4 0.250000 0.250000 0.562823
Si Si5 0.079939 0.007808 0.126177
Si Si6 0.581265 0.667988 0.310095
Si Si7 0.063920 0.435816 0.922694
O O1 0.640248 0.597125 0.227212
O O2 0.818943 0.546312 0.111404
O O3 0.738636 0.678499 0.044174
O O4 0.673398 0.550761 0.940714
O O5 0.673022 0.202163 0.451164
O O6 0.692224 0.189010 0.156668
O O7 0.618420 0.073589 0.309334
O O8 0.514615 0.196338 0.281361
O O9 0.346286 0.259464 0.669717
O O10 0.026351 0.062367 0.251053
O O11 0.000000 0.000000 0.000000
O O12 0.549429 0.639802 0.477139
O O13 0.000000 0.500000 0.000000
#
# Coordination Sequence:
#
# PCOD8229368 Si02
#       7
#     8   8   4   4   8   8   8
#     4  11  24  44  68 106 145 189 243 301 362 441
#     4  11  25  51  75 106 144 195 251 312 375 448
#     4  10  28  54  72 108 142 192 260 312 376 456
#     4  10  24  42  70 106 150 194 238 302 356 454
#     4  12  25  44  71 107 143 187 243 303 370 437
#     4  11  23  45  71 107 144 197 246 296 374 435
#     4  11  22  42  65 102 146 182 234 291 362 435
#
# _framework density 22.832844999999999
#
# number of rings (size 3 to 8) (size 9 to 14) (size 15 to 20)
#    0.000    1.000    3.333    2.500    4.667    1.333 
#    6.000    0.000    0.000    0.000    0.000    0.000 
#    0.000    0.000    0.000    0.000    0.000    0.000 
#
# Total GULP energy -594690.888230 kJ/mol
# GULP energy per Si atom -12389.393505 kJ/mol
# Density = 2.278088 g / cm^3
# Si number density = 22.832845 Si / 1000 Ang^3
#
#
#
# Elastic Constant Matrix: (Units=GPa)
#
#
# Indices 1 2 3 4 5 6 
#
# 1 143.7837 45.5699 64.0694 0.0000 0.0000 0.0000
# 2 45.5699 98.1057 45.3820 0.0000 0.0000 0.0000
# 3 64.0694 45.3820 149.4359 0.0000 0.0000 0.0000
# 4 0.0000 0.0000 0.0000 31.1736 0.0000 0.0000
# 5 0.0000 0.0000 0.0000 0.0000 38.3010 0.0000
# 6 0.0000 0.0000 0.0000 0.0000 0.0000 47.0841
#
#
#
# Elastic Compliance Matrix: (Units=1/GPa)
#
#
# Indices 1 2 3 4 5 6 
#
# 1 0.009240 -0.002861 -0.003093 0.000000 0.000000 0.000000
# 2 -0.002861 0.012745 -0.002644 0.000000 0.000000 0.000000
# 3 -0.003093 -0.002644 0.008821 0.000000 0.000000 0.000000
# 4 0.000000 0.000000 0.000000 0.032078 0.000000 0.000000
# 5 0.000000 0.000000 0.000000 0.000000 0.026109 0.000000
# 6 0.000000 0.000000 0.000000 0.000000 0.000000 0.021239
#
#
# Mechanical properties :
#
#
# Convention : Reuss Voigt Hill
#
# Bulk Modulus (GPa) = 73.47395 77.92976 75.70186
# Shear Modulus (GPa) = 37.88926 39.06533 38.47729
#
# Velocity S-wave (km/s) = 4.07802 4.14082 4.10954
# Velocity P-wave (km/s) = 7.37716 7.55424 7.46623
#
# Compressibility (1/GPa) = 0.01361027
#
# Stress axis : x y z
#
# Youngs Moduli (GPa) = 108.22806 78.46137 113.37082
#
# Poissons Ratio (x) = 0.22450 0.35060
# Poissons Ratio (y) = 0.30967 0.29973
# Poissons Ratio (z) = 0.33470 0.20744
#
# Static dielectric constant tensor:
#      x y z
#    x 3.988950 0.000000 0.000000 
#    y 0.000000 3.727370 0.000000 
#    z 0.000000 0.000000 4.934580 
# 
# 
# High freq. dielectric constant tensor:
#      x y z
#    x 1.911750 0.000000 0.000000 
#    y 0.000000 1.877250 0.000000 
#    z 0.000000 0.000000 1.927710 
# 
# From -- ./inp_files/3408.got.cif
#   From: 2010.03.12/outbox.cif.g09.slc.cpg/sg56_2_cif.got.tgz:3408.got - 2010.04.16 15:33:40.
