data_PCOD8229791
_publ_section_title
;
Structure prediction by ZEFSAII (Michael W. Deem and Ramdas Pophale) SiO2 
 PCOD8229791
Probable space group: P C C N
;
_chemical_formula_sum "Si O2"
_cell_formula_units_Z 56
_cell_length_a 19.037870
_cell_length_b 13.859431
_cell_length_c 9.219488
_cell_angle_alpha 90.000000
_cell_angle_beta 90.000000
_cell_angle_gamma 90.000000
_cell_volume 2432.599208
_symmetry_space_group_name_H-M "P C C N"
_symmetry_group_IT_number 56
_symmetry_cell_setting 'orthorhombic'
loop_
_space_group_symop_operation_xyz
x,y,z
1/2-x,1/2-y,z
1/2+x,-y,1/2-z
-x,1/2+y,1/2-z
-x,-y,-z
1/2+x,1/2+y,-z
1/2-x,y,1/2+z
x,1/2-y,1/2+z
loop_
_atom_site_type_symbol
_atom_site_label
_atom_site_fract_x
_atom_site_fract_y
_atom_site_fract_z
Si Si1 0.668347 0.331590 0.423528
Si Si2 0.966267 0.457156 0.860254
Si Si3 0.336490 0.054525 0.613538
Si Si4 0.093767 0.326209 0.840437
Si Si5 0.600736 0.612478 0.171584
Si Si6 0.813301 0.145082 0.765919
Si Si7 0.296460 0.345530 0.588363
O O1 0.606816 0.406118 0.394218
O O2 0.686190 0.328151 0.595206
O O3 0.646535 0.225405 0.363718
O O4 0.734057 0.363339 0.325071
O O5 0.954421 0.546911 0.755142
O O6 0.023822 0.384354 0.798253
O O7 0.000000 0.500000 0.000000
O O8 0.352750 0.151231 0.708371
O O9 0.385705 0.052950 0.474110
O O10 0.255569 0.063898 0.560652
O O11 0.350534 0.958133 0.707371
O O12 0.066495 0.216940 0.855590
O O13 0.134762 0.354660 0.987250
O O14 0.674532 0.639566 0.249346
O O15 0.250000 0.250000 0.561395
#
# Coordination Sequence:
#
# PCOD8229791 Si02
#       7
#     8   8   8   8   8   8   8
#     4  11  26  51  78 107 150 193 250 323 369 448
#     4  12  28  49  76 103 155 206 246 295 390 459
#     4  12  27  41  76 115 145 191 259 313 374 442
#     4  12  26  49  70 113 154 203 251 307 384 456
#     4  12  26  47  72 110 151 200 247 312 371 456
#     4  11  26  47  78 112 142 190 259 314 382 428
#     4  12  23  45  76 107 156 194 245 319 386 440
#
# _framework density 23.020641999999999
#
# number of rings (size 3 to 8) (size 9 to 14) (size 15 to 20)
#    0.000    0.286    4.286    4.286    8.000    2.857 
#    0.000    0.000    0.000    0.000    0.000    0.000 
#    0.000    0.000    0.000    0.000    0.000    0.000 
#
# Total GULP energy -694291.161360 kJ/mol
# GULP energy per Si atom -12398.056453 kJ/mol
# Density = 2.296825 g / cm^3
# Si number density = 23.020642 Si / 1000 Ang^3
#
#
#
# Elastic Constant Matrix: (Units=GPa)
#
#
# Indices 1 2 3 4 5 6 
#
# 1 74.9538 32.3173 25.8498 0.0000 0.0000 0.0000
# 2 32.3173 111.5710 34.1332 0.0000 0.0000 0.0000
# 3 25.8498 34.1332 130.2189 0.0000 0.0000 0.0000
# 4 0.0000 0.0000 0.0000 34.8801 0.0000 0.0000
# 5 0.0000 0.0000 0.0000 0.0000 27.9761 0.0000
# 6 0.0000 0.0000 0.0000 0.0000 0.0000 35.1833
#
#
#
# Elastic Compliance Matrix: (Units=1/GPa)
#
#
# Indices 1 2 3 4 5 6 
#
# 1 0.015757 -0.003922 -0.002100 0.000000 0.000000 0.000000
# 2 -0.003922 0.010720 -0.002032 0.000000 0.000000 0.000000
# 3 -0.002100 -0.002032 0.008629 0.000000 0.000000 0.000000
# 4 0.000000 0.000000 0.000000 0.028670 0.000000 0.000000
# 5 0.000000 0.000000 0.000000 0.000000 0.035745 0.000000
# 6 0.000000 0.000000 0.000000 0.000000 0.000000 0.028423
#
#
# Mechanical properties :
#
#
# Convention : Reuss Voigt Hill
#
# Bulk Modulus (GPa) = 52.63273 55.70491 54.16882
# Shear Modulus (GPa) = 33.24868 34.57081 33.90975
#
# Velocity S-wave (km/s) = 3.80452 3.87942 3.84215
# Velocity P-wave (km/s) = 6.49708 6.65709 6.57757
#
# Compressibility (1/GPa) = 0.01899958
#
# Stress axis : x y z
#
# Youngs Moduli (GPa) = 63.46544 93.28064 115.89167
#
# Poissons Ratio (x) = 0.36581 0.24336
# Poissons Ratio (y) = 0.24888 0.23544
# Poissons Ratio (z) = 0.13327 0.18951
#
# Static dielectric constant tensor:
#      x y z
#    x -67.978820 0.000000 0.000000 
#    y 0.000000 4.157210 0.000000 
#    z 0.000000 0.000000 4.253280 
# 
# 
# High freq. dielectric constant tensor:
#      x y z
#    x 1.897100 0.000000 0.000000 
#    y 0.000000 1.926510 0.000000 
#    z 0.000000 0.000000 1.915470 
# 
# From -- ./inp_files/4471.got.cif
#   From: 2010.03.12/outbox.cif.g09.slc.cpg/sg56_3_cif.got.tgz:4471.got - 2010.04.16 15:33:40.
