data_PCOD8229789
_publ_section_title
;
Structure prediction by ZEFSAII (Michael W. Deem and Ramdas Pophale) SiO2 
 PCOD8229789
Probable space group: P C C N
;
_chemical_formula_sum "Si O2"
_cell_formula_units_Z 32
_cell_length_a 10.067811
_cell_length_b 7.528882
_cell_length_c 18.050151
_cell_angle_alpha 90.000000
_cell_angle_beta 90.000000
_cell_angle_gamma 90.000000
_cell_volume 1368.189912
_symmetry_space_group_name_H-M "P C C N"
_symmetry_group_IT_number 56
_symmetry_cell_setting 'orthorhombic'
loop_
_space_group_symop_operation_xyz
x,y,z
1/2-x,1/2-y,z
1/2+x,-y,1/2-z
-x,1/2+y,1/2-z
-x,-y,-z
1/2+x,1/2+y,-z
1/2-x,y,1/2+z
x,1/2-y,1/2+z
loop_
_atom_site_type_symbol
_atom_site_label
_atom_site_fract_x
_atom_site_fract_y
_atom_site_fract_z
Si Si1 0.402499 0.771679 0.564978
Si Si2 0.030498 0.469238 0.172558
Si Si3 0.046202 0.872554 0.900536
Si Si4 0.755403 0.956520 0.204808
O O1 0.250000 0.750000 0.584607
O O2 0.426419 0.772737 0.477475
O O3 0.478417 0.608414 0.604507
O O4 0.452208 0.957650 0.596445
O O5 0.039949 0.266745 0.146235
O O6 0.156328 0.505853 0.224180
O O7 0.894748 0.018757 0.720164
O O8 0.186448 0.932607 0.864909
O O9 0.750000 0.750000 0.184810
#
# Coordination Sequence:
#
# PCOD8229789 Si02
#       4
#     8   8   8   8
#     4  11  26  47  76 112 150 195 253 308 373 453
#     4  12  27  47  77 108 151 199 247 312 377 450
#     4  11  26  49  74 110 149 197 250 310 378 447
#     4  12  26  47  74 111 152 199 249 313 384 449
#
# _framework density 23.388566999999998
#
# number of rings (size 3 to 8) (size 9 to 14) (size 15 to 20)
#    0.000    0.500    2.500    4.500    7.000    0.000 
#    0.000    0.000    0.000    0.000    0.000    0.000 
#    0.000    0.000    0.000    0.000    0.000    0.000 
#
# Total GULP energy -396933.145826 kJ/mol
# GULP energy per Si atom -12404.160807 kJ/mol
# Density = 2.333533 g / cm^3
# Si number density = 23.388567 Si / 1000 Ang^3
#
#
#
# Elastic Constant Matrix: (Units=GPa)
#
#
# Indices 1 2 3 4 5 6 
#
# 1 118.8978 34.9448 35.6078 0.0000 0.0000 0.0000
# 2 34.9448 145.6622 66.1195 0.0000 0.0000 0.0000
# 3 35.6078 66.1195 112.2068 0.0000 0.0000 0.0000
# 4 0.0000 0.0000 0.0000 31.0702 0.0000 0.0000
# 5 0.0000 0.0000 0.0000 0.0000 19.1458 0.0000
# 6 0.0000 0.0000 0.0000 0.0000 0.0000 34.3057
#
#
#
# Elastic Compliance Matrix: (Units=1/GPa)
#
#
# Indices 1 2 3 4 5 6 
#
# 1 0.009454 -0.001237 -0.002271 0.000000 0.000000 0.000000
# 2 -0.001237 0.009534 -0.005225 0.000000 0.000000 0.000000
# 3 -0.002271 -0.005225 0.012712 0.000000 0.000000 0.000000
# 4 0.000000 0.000000 0.000000 0.032185 0.000000 0.000000
# 5 0.000000 0.000000 0.000000 0.000000 0.052231 0.000000
# 6 0.000000 0.000000 0.000000 0.000000 0.000000 0.029150
#
#
# Mechanical properties :
#
#
# Convention : Reuss Voigt Hill
#
# Bulk Modulus (GPa) = 70.26070 72.23458 71.24764
# Shear Modulus (GPa) = 29.85468 32.91065 31.38267
#
# Velocity S-wave (km/s) = 3.57664 3.75524 3.66703
# Velocity P-wave (km/s) = 6.86748 7.05365 6.96119
#
# Compressibility (1/GPa) = 0.01423271
#
# Stress axis : x y z
#
# Youngs Moduli (GPa) = 105.77096 104.88850 78.66568
#
# Poissons Ratio (x) = 0.12976 0.17867
# Poissons Ratio (y) = 0.13086 0.41106
# Poissons Ratio (z) = 0.24023 0.54809
#
# Static dielectric constant tensor:
#      x y z
#    x 4.224590 0.000000 0.000000 
#    y 0.000000 4.374480 0.000000 
#    z 0.000000 0.000000 4.276180 
# 
# 
# High freq. dielectric constant tensor:
#      x y z
#    x 1.929930 0.000000 0.000000 
#    y 0.000000 1.948160 0.000000 
#    z 0.000000 0.000000 1.926630 
# 
# From -- ./inp_files/11231.got.cif
#   From: 2010.03.12/outbox.cif.g09.slc.cpg/sg56_6_cif.got.tgz:11231.got - 2010.04.16 15:33:40.
