data_PCOD8229351
_publ_section_title
;
Structure prediction by ZEFSAII (Michael W. Deem and Ramdas Pophale) SiO2 
 PCOD8229351
Probable space group: P C C N
;
_chemical_formula_sum "Si O2"
_cell_formula_units_Z 60
_cell_length_a 16.307412
_cell_length_b 5.974882
_cell_length_c 28.869302
_cell_angle_alpha 90.000000
_cell_angle_beta 90.000000
_cell_angle_gamma 90.000000
_cell_volume 2812.876469
_symmetry_space_group_name_H-M "P C C N"
_symmetry_group_IT_number 56
_symmetry_cell_setting 'orthorhombic'
loop_
_space_group_symop_operation_xyz
x,y,z
1/2-x,1/2-y,z
1/2+x,-y,1/2-z
-x,1/2+y,1/2-z
-x,-y,-z
1/2+x,1/2+y,-z
1/2-x,y,1/2+z
x,1/2-y,1/2+z
loop_
_atom_site_type_symbol
_atom_site_label
_atom_site_fract_x
_atom_site_fract_y
_atom_site_fract_z
Si Si1 0.750000 0.250000 0.887838
Si Si2 0.335242 0.849365 0.914564
Si Si3 0.663251 0.837583 0.166368
Si Si4 0.052611 0.448586 0.399818
Si Si5 0.545188 0.607354 0.751441
Si Si6 0.335883 0.138757 0.074221
Si Si7 0.389202 0.052373 0.648989
Si Si8 0.073357 0.351642 0.983107
O O1 0.817020 0.374612 0.920575
O O2 0.695545 0.413108 0.855626
O O3 0.250000 0.750000 0.932846
O O4 0.415518 0.695268 0.910611
O O5 0.319086 0.942339 0.863389
O O6 0.356529 0.028833 0.953445
O O7 0.750000 0.750000 0.185873
O O8 0.622728 0.661913 0.131392
O O9 0.605335 0.902090 0.208380
O O10 0.038088 0.343293 0.450578
O O11 0.968555 0.425648 0.371274
O O12 0.499579 0.357679 0.750569
O O13 0.598422 0.612879 0.797773
O O14 0.250000 0.250000 0.069019
O O15 0.382080 0.216070 0.120819
O O16 0.386191 0.229360 0.030595
O O17 0.000000 0.500000 0.000000
#
# Coordination Sequence:
#
# PCOD8229351 Si02
#       8
#     4   8   8   8   8   8   8   8
#     4  10  24  44  68  96 138 192 236 304 360 430
#     4  11  24  40  69 100 144 190 241 305 377 438
#     4  11  24  45  70 107 141 186 242 302 370 446
#     4  11  23  44  70  99 145 188 232 306 362 438
#     4  12  28  49  78 112 147 195 246 309 378 450
#     4  10  24  41  64  95 136 184 238 296 355 426
#     4  11  24  46  71  99 144 187 245 299 370 439
#     4  11  25  39  64 103 136 188 244 292 361 442
#
# _framework density 21.330476000000001
#
# number of rings (size 3 to 8) (size 9 to 14) (size 15 to 20)
#    0.000    1.067    2.667    2.400    4.667    6.933 
#    1.200    0.000    0.000    0.000    0.000    0.000 
#    0.000    0.000    0.000    0.000    0.000    0.000 
#
# Total GULP energy -743325.944620 kJ/mol
# GULP energy per Si atom -12388.765744 kJ/mol
# Density = 2.128193 g / cm^3
# Si number density = 21.330476 Si / 1000 Ang^3
#
#
#
# Elastic Constant Matrix: (Units=GPa)
#
#
# Indices 1 2 3 4 5 6 
#
# 1 94.8315 18.8929 29.9860 0.0000 0.0000 0.0000
# 2 18.8929 91.5553 27.5370 0.0000 0.0000 0.0000
# 3 29.9860 27.5370 126.2808 0.0000 0.0000 0.0000
# 4 0.0000 0.0000 0.0000 185.1012 0.0000 0.0000
# 5 0.0000 0.0000 0.0000 0.0000 -84.1765 0.0000
# 6 0.0000 0.0000 0.0000 0.0000 0.0000 26.4239
#
#
#
# Elastic Compliance Matrix: (Units=1/GPa)
#
#
# Indices 1 2 3 4 5 6 
#
# 1 0.011638 -0.001681 -0.002397 0.000000 0.000000 0.000000
# 2 -0.001681 0.011932 -0.002203 0.000000 0.000000 0.000000
# 3 -0.002397 -0.002203 0.008968 0.000000 0.000000 0.000000
# 4 0.000000 0.000000 0.000000 0.005402 0.000000 0.000000
# 5 0.000000 0.000000 0.000000 0.000000 -0.011880 0.000000
# 6 0.000000 0.000000 0.000000 0.000000 0.000000 0.037845
#
#
# Mechanical properties :
#
#
# Convention : Reuss Voigt Hill
#
# Bulk Modulus (GPa) = 50.05716 51.72215 50.88965
# Shear Modulus (GPa) = 60.15060 41.21983 50.68522
#
# Velocity S-wave (km/s) = 5.31607 4.40072 4.87990
# Velocity P-wave (km/s) = 7.82299 7.07972 7.46062
#
# Compressibility (1/GPa) = 0.01997716
#
# Stress axis : x y z
#
# Youngs Moduli (GPa) = 85.92716 83.81049 111.50297
#
# Poissons Ratio (x) = 0.14085 0.26727
# Poissons Ratio (y) = 0.14441 0.24562
# Poissons Ratio (z) = 0.20597 0.18462
#
# Static dielectric constant tensor:
#      x y z
#    x 3.568670 0.000000 0.000000 
#    y 0.000000 3.433180 0.000000 
#    z 0.000000 0.000000 3.803590 
# 
# 
# High freq. dielectric constant tensor:
#      x y z
#    x 1.850380 0.000000 0.000000 
#    y 0.000000 1.839440 0.000000 
#    z 0.000000 0.000000 1.842660 
# 
# From -- ./inp_files/22527.got.cif
#   From: 2010.03.12/outbox.cif.g09.slc.cpg/sg56_12_cif.got.tgz:22527.got - 2010.04.16 15:33:40.
