data_PCOD8229777
_publ_section_title
;
Structure prediction by ZEFSAII (Michael W. Deem and Ramdas Pophale) SiO2 
 PCOD8229777
Probable space group: P C C N
;
_chemical_formula_sum "Si O2"
_cell_formula_units_Z 24
_cell_length_a 9.789142
_cell_length_b 7.084359
_cell_length_c 12.977097
_cell_angle_alpha 90.000000
_cell_angle_beta 90.000000
_cell_angle_gamma 90.000000
_cell_volume 899.959033
_symmetry_space_group_name_H-M "P C C N"
_symmetry_group_IT_number 56
_symmetry_cell_setting 'orthorhombic'
loop_
_space_group_symop_operation_xyz
x,y,z
1/2-x,1/2-y,z
1/2+x,-y,1/2-z
-x,1/2+y,1/2-z
-x,-y,-z
1/2+x,1/2+y,-z
1/2-x,y,1/2+z
x,1/2-y,1/2+z
loop_
_atom_site_type_symbol
_atom_site_label
_atom_site_fract_x
_atom_site_fract_y
_atom_site_fract_z
Si Si1 0.574600 0.692511 0.519232
Si Si2 0.246795 0.544245 0.337548
Si Si3 0.442863 0.496895 0.147214
O O1 0.500000 0.500000 0.500000
O O2 0.711924 0.621129 0.581716
O O3 0.610468 0.812270 0.416150
O O4 0.460777 0.818464 0.576906
O O5 0.250000 0.750000 0.391451
O O6 0.336813 0.536211 0.236174
O O7 0.091079 0.523661 0.300563
#
# Coordination Sequence:
#
# PCOD8229777 Si02
#       3
#     8   8   8
#     4  11  25  52  78 114 164 210 268 333 409 491
#     4  12  25  54  83 120 162 212 276 336 416 494
#     4  11  27  54  83 118 162 213 270 342 410 488
#
# _framework density 26.667881000000001
#
# number of rings (size 3 to 8) (size 9 to 14) (size 15 to 20)
#    0.000    0.667    3.333    3.000    0.000    0.000 
#   48.000    0.000    0.000    0.000    0.000    0.000 
#    0.000    0.000    0.000    0.000    0.000    0.000 
#
# Total GULP energy -297321.467813 kJ/mol
# GULP energy per Si atom -12388.394492 kJ/mol
# Density = 2.660718 g / cm^3
# Si number density = 26.667881 Si / 1000 Ang^3
#
#
#
# Elastic Constant Matrix: (Units=GPa)
#
#
# Indices 1 2 3 4 5 6 
#
# 1 139.8364 55.2764 86.6429 0.0000 0.0000 0.0000
# 2 55.2764 250.4438 59.7148 0.0000 0.0000 0.0000
# 3 86.6429 59.7148 87.9020 0.0000 0.0000 0.0000
# 4 0.0000 0.0000 0.0000 35.8155 0.0000 0.0000
# 5 0.0000 0.0000 0.0000 0.0000 29.0346 0.0000
# 6 0.0000 0.0000 0.0000 0.0000 0.0000 44.0787
#
#
#
# Elastic Compliance Matrix: (Units=1/GPa)
#
#
# Indices 1 2 3 4 5 6 
#
# 1 0.018391 0.000314 -0.018341 0.000000 0.000000 0.000000
# 2 0.000314 0.004770 -0.003550 0.000000 0.000000 0.000000
# 3 -0.018341 -0.003550 0.031866 0.000000 0.000000 0.000000
# 4 0.000000 0.000000 0.000000 0.027921 0.000000 0.000000
# 5 0.000000 0.000000 0.000000 0.000000 0.034442 0.000000
# 6 0.000000 0.000000 0.000000 0.000000 0.000000 0.022687
#
#
# Mechanical properties :
#
#
# Convention : Reuss Voigt Hill
#
# Bulk Modulus (GPa) = 84.22152 97.93892 91.08022
# Shear Modulus (GPa) = 26.71095 40.22229 33.46662
#
# Velocity S-wave (km/s) = 3.16826 3.88785 3.54636
# Velocity P-wave (km/s) = 6.71074 7.54712 7.14119
#
# Compressibility (1/GPa) = 0.01187345
#
# Stress axis : x y z
#
# Youngs Moduli (GPa) = 54.37340 209.64165 31.38104
#
# Poissons Ratio (x) = -0.06582 0.57557
# Poissons Ratio (y) = -0.01707 0.11140
# Poissons Ratio (z) = 0.99727 0.74421
#
# Static dielectric constant tensor:
#      x y z
#    x 4.358490 0.000000 0.000000 
#    y 0.000000 7.480620 0.000000 
#    z 0.000000 0.000000 4.901870 
# 
# 
# High freq. dielectric constant tensor:
#      x y z
#    x 2.089070 0.000000 0.000000 
#    y 0.000000 2.121400 0.000000 
#    z 0.000000 0.000000 2.048210 
# 
# From -- ./inp_files/9916.got.cif
#   From: 2010.03.12/outbox.cif.g09.slc.cpg/sg56_5_cif.got.tgz:9916.got - 2010.04.16 15:33:40.
