data_PCOD8229269
_publ_section_title
;
Structure prediction by ZEFSAII (Michael W. Deem and Ramdas Pophale) SiO2 
 PCOD8229269
Probable space group: P C C N
;
_chemical_formula_sum "Si O2"
_cell_formula_units_Z 60
_cell_length_a 16.876769
_cell_length_b 18.349891
_cell_length_c 9.063031
_cell_angle_alpha 90.000000
_cell_angle_beta 90.000000
_cell_angle_gamma 90.000000
_cell_volume 2806.701717
_symmetry_space_group_name_H-M "P C C N"
_symmetry_group_IT_number 56
_symmetry_cell_setting 'orthorhombic'
loop_
_space_group_symop_operation_xyz
x,y,z
1/2-x,1/2-y,z
1/2+x,-y,1/2-z
-x,1/2+y,1/2-z
-x,-y,-z
1/2+x,1/2+y,-z
1/2-x,y,1/2+z
x,1/2-y,1/2+z
loop_
_atom_site_type_symbol
_atom_site_label
_atom_site_fract_x
_atom_site_fract_y
_atom_site_fract_z
Si Si1 0.015392 0.188157 0.402819
Si Si2 0.509214 0.435037 0.182483
Si Si3 0.045126 0.165947 0.729596
Si Si4 0.164884 0.829846 0.515149
Si Si5 0.250000 0.750000 0.765880
Si Si6 0.652469 0.533473 0.230043
Si Si7 0.079440 0.576911 0.620107
Si Si8 0.742309 0.467379 0.960101
O O1 0.032407 0.121328 0.292832
O O2 0.923705 0.187929 0.441224
O O3 0.061743 0.179563 0.556863
O O4 0.046194 0.260569 0.323410
O O5 0.582133 0.475892 0.262731
O O6 0.441553 0.491811 0.136839
O O7 0.542510 0.394512 0.035783
O O8 0.115913 0.114032 0.786606
O O9 0.959038 0.126329 0.750847
O O10 0.214227 0.812233 0.662776
O O11 0.181906 0.781051 0.372428
O O12 0.189352 0.913290 0.477852
O O13 0.697778 0.513550 0.082222
O O14 0.716326 0.528170 0.359664
O O15 0.174880 0.582084 0.622600
#
# Coordination Sequence:
#
# PCOD8229269 Si02
#       8
#     8   8   8   8   4   8   8   8
#     4  12  24  40  66  91 133 175 230 274 334 405
#     4   9  19  41  61  92 129 170 220 270 322 405
#     4  11  26  42  65  96 132 177 227 277 335 408
#     4  11  23  37  59  92 128 180 211 266 330 401
#     4  10  24  36  50  84 140 172 206 256 328 416
#     4  10  23  43  64  99 130 172 222 279 338 401
#     4   9  21  37  63  90 129 173 214 269 336 389
#     4  11  22  38  67  92 132 167 223 277 334 396
#
# _framework density 21.377405
#
# number of rings (size 3 to 8) (size 9 to 14) (size 15 to 20)
#    0.000    1.600    1.333    3.200    9.333    3.200 
#    0.000    0.000    0.000    6.400    0.000    0.000 
#    0.000    0.000    0.000    0.000    0.000    0.000 
#
# Total GULP energy -743950.572384 kJ/mol
# GULP energy per Si atom -12399.176206 kJ/mol
# Density = 2.132875 g / cm^3
# Si number density = 21.377405 Si / 1000 Ang^3
#
#
#
# Elastic Constant Matrix: (Units=GPa)
#
#
# Indices 1 2 3 4 5 6 
#
# 1 56.0367 30.9052 27.0792 0.0000 0.0000 0.0000
# 2 30.9052 111.1897 65.9417 0.0000 0.0000 0.0000
# 3 27.0792 65.9417 117.6330 0.0000 0.0000 0.0000
# 4 0.0000 0.0000 0.0000 31.0652 0.0000 0.0000
# 5 0.0000 0.0000 0.0000 0.0000 28.0364 0.0000
# 6 0.0000 0.0000 0.0000 0.0000 0.0000 29.2645
#
#
#
# Elastic Compliance Matrix: (Units=1/GPa)
#
#
# Indices 1 2 3 4 5 6 
#
# 1 0.021519 -0.004559 -0.002398 0.000000 0.000000 0.000000
# 2 -0.004559 0.014438 -0.007044 0.000000 0.000000 0.000000
# 3 -0.002398 -0.007044 0.013002 0.000000 0.000000 0.000000
# 4 0.000000 0.000000 0.000000 0.032190 0.000000 0.000000
# 5 0.000000 0.000000 0.000000 0.000000 0.035668 0.000000
# 6 0.000000 0.000000 0.000000 0.000000 0.000000 0.034171
#
#
# Mechanical properties :
#
#
# Convention : Reuss Voigt Hill
#
# Bulk Modulus (GPa) = 47.71804 59.19019 53.45412
# Shear Modulus (GPa) = 26.88514 28.40210 27.64362
#
# Velocity S-wave (km/s) = 3.55017 3.64896 3.59990
# Velocity P-wave (km/s) = 6.25901 6.74548 6.50679
#
# Compressibility (1/GPa) = 0.02095643
#
# Stress axis : x y z
#
# Youngs Moduli (GPa) = 46.47137 69.25943 76.91204
#
# Poissons Ratio (x) = 0.31575 0.18443
# Poissons Ratio (y) = 0.21186 0.54179
# Poissons Ratio (z) = 0.11144 0.48788
#
# Static dielectric constant tensor:
#      x y z
#    x 3.843570 0.000000 0.000000 
#    y 0.000000 3.723050 0.000000 
#    z 0.000000 0.000000 4.122730 
# 
# 
# High freq. dielectric constant tensor:
#      x y z
#    x 1.817590 0.000000 0.000000 
#    y 0.000000 1.824150 0.000000 
#    z 0.000000 0.000000 1.853430 
# 
# From -- ./inp_files/4123.got.cif
#   From: 2010.03.12/outbox.cif.g09.slc.cpg/sg56_3_cif.got.tgz:4123.got - 2010.04.16 15:33:40.
