data_PCOD8229619
_publ_section_title
;
Structure prediction by ZEFSAII (Michael W. Deem and Ramdas Pophale) SiO2 
 PCOD8229619
Probable space group: P C C N
;
_chemical_formula_sum "Si O2"
_cell_formula_units_Z 56
_cell_length_a 26.224082
_cell_length_b 6.447627
_cell_length_c 14.353240
_cell_angle_alpha 90.000000
_cell_angle_beta 90.000000
_cell_angle_gamma 90.000000
_cell_volume 2426.890302
_symmetry_space_group_name_H-M "P C C N"
_symmetry_group_IT_number 56
_symmetry_cell_setting 'orthorhombic'
loop_
_space_group_symop_operation_xyz
x,y,z
1/2-x,1/2-y,z
1/2+x,-y,1/2-z
-x,1/2+y,1/2-z
-x,-y,-z
1/2+x,1/2+y,-z
1/2-x,y,1/2+z
x,1/2-y,1/2+z
loop_
_atom_site_type_symbol
_atom_site_label
_atom_site_fract_x
_atom_site_fract_y
_atom_site_fract_z
Si Si1 0.942609 0.917549 0.503533
Si Si2 0.836486 0.158578 0.182309
Si Si3 0.345569 0.814993 0.013878
Si Si4 0.035931 0.308177 0.670696
Si Si5 0.699057 0.879377 0.837414
Si Si6 0.866874 0.011692 0.823631
Si Si7 0.056783 0.437876 0.346062
O O1 0.931381 0.823236 0.403077
O O2 0.935128 0.736037 0.577473
O O3 0.899834 0.092864 0.520945
O O4 0.000000 0.000000 0.500000
O O5 0.841314 0.371299 0.238207
O O6 0.796859 0.017040 0.242176
O O7 0.889470 0.035279 0.179976
O O8 0.817327 0.222378 0.078570
O O9 0.356317 0.618810 0.078197
O O10 0.310631 0.978535 0.070467
O O11 0.072344 0.503248 0.695905
O O12 0.027056 0.162356 0.758943
O O13 0.982591 0.380716 0.623944
O O14 0.750000 0.750000 0.854338
O O15 0.652915 0.722349 0.824731
#
# Coordination Sequence:
#
# PCOD8229619 Si02
#       7
#     8   8   8   8   8   8   8
#     4  12  23  39  61 100 144 187 234 285 343 417
#     4  11  24  43  70 106 138 183 236 296 346 420
#     4  11  24  43  72 103 141 185 237 291 355 424
#     4  12  21  38  60  95 140 188 228 281 347 409
#     4  11  26  50  76 101 141 185 231 298 364 418
#     4  11  22  45  69  97 144 180 235 294 350 416
#     4  12  23  37  64  99 143 185 239 282 344 422
#
# _framework density 23.074797
#
# number of rings (size 3 to 8) (size 9 to 14) (size 15 to 20)
#    0.000    0.571    2.857    6.429    0.000    2.286 
#    0.000    4.286    0.000    0.000    0.000    0.000 
#    0.000    0.000    0.000    0.000    0.000    0.000 
#
# Total GULP energy -694302.070744 kJ/mol
# GULP energy per Si atom -12398.251263 kJ/mol
# Density = 2.302228 g / cm^3
# Si number density = 23.074797 Si / 1000 Ang^3
#
#
#
# Elastic Constant Matrix: (Units=GPa)
#
#
# Indices 1 2 3 4 5 6 
#
# 1 90.0545 23.9121 21.8934 0.0000 0.0000 0.0000
# 2 23.9121 101.3702 53.5767 0.0000 0.0000 0.0000
# 3 21.8934 53.5767 150.3831 0.0000 0.0000 0.0000
# 4 0.0000 0.0000 0.0000 34.9562 0.0000 0.0000
# 5 0.0000 0.0000 0.0000 0.0000 21.7861 0.0000
# 6 0.0000 0.0000 0.0000 0.0000 0.0000 33.7718
#
#
#
# Elastic Compliance Matrix: (Units=1/GPa)
#
#
# Indices 1 2 3 4 5 6 
#
# 1 0.011946 -0.002339 -0.000906 0.000000 0.000000 0.000000
# 2 -0.002339 0.012611 -0.004152 0.000000 0.000000 0.000000
# 3 -0.000906 -0.004152 0.008261 0.000000 0.000000 0.000000
# 4 0.000000 0.000000 0.000000 0.028607 0.000000 0.000000
# 5 0.000000 0.000000 0.000000 0.000000 0.045901 0.000000
# 6 0.000000 0.000000 0.000000 0.000000 0.000000 0.029610
#
#
# Mechanical properties :
#
#
# Convention : Reuss Voigt Hill
#
# Bulk Modulus (GPa) = 55.48399 60.06360 57.77379
# Shear Modulus (GPa) = 31.69796 34.26454 32.98125
#
# Velocity S-wave (km/s) = 3.71037 3.85766 3.78474
# Velocity P-wave (km/s) = 6.51562 6.77706 6.64763
#
# Compressibility (1/GPa) = 0.01802322
#
# Stress axis : x y z
#
# Youngs Moduli (GPa) = 83.71217 79.29402 121.05174
#
# Poissons Ratio (x) = 0.18548 0.10964
# Poissons Ratio (y) = 0.19582 0.50266
# Poissons Ratio (z) = 0.07582 0.32926
#
# Static dielectric constant tensor:
#      x y z
#    x 3.941110 0.000000 0.000000 
#    y 0.000000 4.315050 0.000000 
#    z 0.000000 0.000000 4.518580 
# 
# 
# High freq. dielectric constant tensor:
#      x y z
#    x 1.897120 0.000000 0.000000 
#    y 0.000000 1.927420 0.000000 
#    z 0.000000 0.000000 1.920930 
# 
# From -- ./inp_files/13469.got.cif
#   From: 2010.03.12/outbox.cif.g09.slc.cpg/sg56_7_cif.got.tgz:13469.got - 2010.04.16 15:33:40.
