data_PCOD8229569
_publ_section_title
;
Structure prediction by ZEFSAII (Michael W. Deem and Ramdas Pophale) SiO2 
 PCOD8229569
Probable space group: P C C N
;
_chemical_formula_sum "Si O2"
_cell_formula_units_Z 48
_cell_length_a 9.458344
_cell_length_b 13.321981
_cell_length_c 18.142008
_cell_angle_alpha 90.000000
_cell_angle_beta 90.000000
_cell_angle_gamma 90.000000
_cell_volume 2285.963382
_symmetry_space_group_name_H-M "P C C N"
_symmetry_group_IT_number 56
_symmetry_cell_setting 'orthorhombic'
loop_
_space_group_symop_operation_xyz
x,y,z
1/2-x,1/2-y,z
1/2+x,-y,1/2-z
-x,1/2+y,1/2-z
-x,-y,-z
1/2+x,1/2+y,-z
1/2-x,y,1/2+z
x,1/2-y,1/2+z
loop_
_atom_site_type_symbol
_atom_site_label
_atom_site_fract_x
_atom_site_fract_y
_atom_site_fract_z
Si Si1 0.755703 0.469940 0.391630
Si Si2 0.241772 0.021427 0.944155
Si Si3 0.501548 0.325622 0.930517
Si Si4 0.971188 0.622144 0.151929
Si Si5 0.139041 0.336757 0.689700
Si Si6 0.383678 0.685030 0.912073
O O1 0.707096 0.486013 0.475754
O O2 0.894293 0.400346 0.387262
O O3 0.632258 0.414146 0.347825
O O4 0.784592 0.576648 0.355757
O O5 0.378826 0.046148 0.896618
O O6 0.141544 0.117593 0.952459
O O7 0.152284 0.932728 0.906146
O O8 0.460469 0.234939 0.877712
O O9 0.572951 0.283722 0.004956
O O10 0.915965 0.616972 0.234577
O O11 0.250000 0.250000 0.707073
O O12 0.010197 0.289797 0.643416
O O13 0.250000 0.750000 0.887268
#
# Coordination Sequence:
#
# PCOD8229569 Si02
#       6
#     8   8   8   8   8   8
#     4  11  24  46  71  98 138 180 231 278 338 406
#     4  11  22  44  72 104 130 178 231 279 341 401
#     4  11  21  46  70 100 137 181 227 279 339 403
#     4  12  28  41  72 101 139 179 227 277 347 408
#     4  12  28  45  65 104 136 183 224 287 344 399
#     4  11  24  43  69 100 136 177 230 284 334 404
#
# _framework density 20.997713999999998
#
# number of rings (size 3 to 8) (size 9 to 14) (size 15 to 20)
#    0.000    0.667    3.333    5.500    7.000    2.667 
#    0.000    0.000    0.000    0.000    0.000    0.000 
#    0.000    0.000    0.000    0.000    0.000    0.000 
#
# Total GULP energy -595639.345166 kJ/mol
# GULP energy per Si atom -12409.153024 kJ/mol
# Density = 2.094992 g / cm^3
# Si number density = 20.997714 Si / 1000 Ang^3
#
#
#
# Elastic Constant Matrix: (Units=GPa)
#
#
# Indices 1 2 3 4 5 6 
#
# 1 88.3463 23.3863 28.8097 0.0000 0.0000 0.0000
# 2 23.3863 54.4496 24.9033 0.0000 0.0000 0.0000
# 3 28.8097 24.9033 84.9721 0.0000 0.0000 0.0000
# 4 0.0000 0.0000 0.0000 24.8551 0.0000 0.0000
# 5 0.0000 0.0000 0.0000 0.0000 29.7608 0.0000
# 6 0.0000 0.0000 0.0000 0.0000 0.0000 51.6783
#
#
#
# Elastic Compliance Matrix: (Units=1/GPa)
#
#
# Indices 1 2 3 4 5 6 
#
# 1 0.013542 -0.004292 -0.003334 0.000000 0.000000 0.000000
# 2 -0.004292 0.022569 -0.005159 0.000000 0.000000 0.000000
# 3 -0.003334 -0.005159 0.014411 0.000000 0.000000 0.000000
# 4 0.000000 0.000000 0.000000 0.040233 0.000000 0.000000
# 5 0.000000 0.000000 0.000000 0.000000 0.033601 0.000000
# 6 0.000000 0.000000 0.000000 0.000000 0.000000 0.019350
#
#
# Mechanical properties :
#
#
# Convention : Reuss Voigt Hill
#
# Bulk Modulus (GPa) = 40.07620 42.44073 41.25846
# Shear Modulus (GPa) = 28.15421 31.30343 29.72882
#
# Velocity S-wave (km/s) = 3.66570 3.86528 3.76681
# Velocity P-wave (km/s) = 6.08637 6.33849 6.21371
#
# Compressibility (1/GPa) = 0.02495247
#
# Stress axis : x y z
#
# Youngs Moduli (GPa) = 73.84274 44.30950 69.39202
#
# Poissons Ratio (x) = 0.19017 0.23133
# Poissons Ratio (y) = 0.31691 0.35801
# Poissons Ratio (z) = 0.24617 0.22860
#
# Static dielectric constant tensor:
#      x y z
#    x 3.901820 0.000000 0.000000 
#    y 0.000000 3.767640 0.000000 
#    z 0.000000 0.000000 3.691600 
# 
# 
# High freq. dielectric constant tensor:
#      x y z
#    x 1.837100 0.000000 0.000000 
#    y 0.000000 1.829130 0.000000 
#    z 0.000000 0.000000 1.816430 
# 
# From -- ./inp_files/14784.got.cif
#   From: 2010.03.12/outbox.cif.g09.slc.cpg/sg56_8_cif.got.tgz:14784.got - 2010.04.16 15:33:40.
