data_PCOD8229508
_publ_section_title
;
Structure prediction by ZEFSAII (Michael W. Deem and Ramdas Pophale) SiO2 
 PCOD8229508
Probable space group: P C C N
;
_chemical_formula_sum "Si O2"
_cell_formula_units_Z 48
_cell_length_a 12.932710
_cell_length_b 11.443269
_cell_length_c 17.539778
_cell_angle_alpha 90.000000
_cell_angle_beta 90.000000
_cell_angle_gamma 90.000000
_cell_volume 2595.755235
_symmetry_space_group_name_H-M "P C C N"
_symmetry_group_IT_number 56
_symmetry_cell_setting 'orthorhombic'
loop_
_space_group_symop_operation_xyz
x,y,z
1/2-x,1/2-y,z
1/2+x,-y,1/2-z
-x,1/2+y,1/2-z
-x,-y,-z
1/2+x,1/2+y,-z
1/2-x,y,1/2+z
x,1/2-y,1/2+z
loop_
_atom_site_type_symbol
_atom_site_label
_atom_site_fract_x
_atom_site_fract_y
_atom_site_fract_z
Si Si1 0.815420 0.077938 0.021875
Si Si2 0.392748 0.829129 0.018397
Si Si3 0.638413 0.472478 0.333900
Si Si4 0.146101 0.073123 0.116158
Si Si5 0.460080 0.302843 0.610398
Si Si6 0.430366 0.597088 0.829668
O O1 0.691502 0.090165 0.024935
O O2 0.862465 0.193535 0.982752
O O3 0.853369 0.970856 0.970471
O O4 0.852835 0.048175 0.106564
O O5 0.395163 0.873408 0.105654
O O6 0.502716 0.841963 0.974719
O O7 0.755580 0.519371 0.340601
O O8 0.564423 0.583157 0.341630
O O9 0.622274 0.417707 0.251435
O O10 0.139970 0.215480 0.108173
O O11 0.042087 0.032344 0.161643
O O12 0.554498 0.235777 0.652885
#
# Coordination Sequence:
#
# PCOD8229508 Si02
#       6
#     8   8   8   8   8   8
#     4   9  17  37  55  82 109 142 195 225 278 348
#     4   9  19  32  59  81 109 145 182 235 272 344
#     4  11  20  36  56  84 113 145 191 236 288 334
#     4   9  20  36  57  77 111 154 185 231 285 342
#     4   9  20  37  53  79 112 151 184 228 285 342
#     4   9  21  33  54  82 107 152 180 240 285 320
#
# _framework density 18.49173
#
# number of rings (size 3 to 8) (size 9 to 14) (size 15 to 20)
#    1.000    1.667    0.000    1.500    0.000    2.667 
#    0.000   11.667    0.000    2.000    0.000    0.000 
#    0.000    0.000    0.000    0.000    0.000    0.000 
#
# Total GULP energy -594675.942309 kJ/mol
# GULP energy per Si atom -12389.082131 kJ/mol
# Density = 1.844964 g / cm^3
# Si number density = 18.491730 Si / 1000 Ang^3
#
#
#
# Elastic Constant Matrix: (Units=GPa)
#
#
# Indices 1 2 3 4 5 6 
#
# 1 71.0819 8.0808 53.8754 0.0000 0.0000 0.0000
# 2 8.0808 64.1526 42.7738 0.0000 0.0000 0.0000
# 3 53.8754 42.7738 155.5683 0.0000 0.0000 0.0000
# 4 0.0000 0.0000 0.0000 21.7238 0.0000 0.0000
# 5 0.0000 0.0000 0.0000 0.0000 29.5680 0.0000
# 6 0.0000 0.0000 0.0000 0.0000 0.0000 20.3962
#
#
#
# Elastic Compliance Matrix: (Units=1/GPa)
#
#
# Indices 1 2 3 4 5 6 
#
# 1 0.019395 0.002492 -0.007402 0.000000 0.000000 0.000000
# 2 0.002492 0.019407 -0.006199 0.000000 0.000000 0.000000
# 3 -0.007402 -0.006199 0.010696 0.000000 0.000000 0.000000
# 4 0.000000 0.000000 0.000000 0.046032 0.000000 0.000000
# 5 0.000000 0.000000 0.000000 0.000000 0.033820 0.000000
# 6 0.000000 0.000000 0.000000 0.000000 0.000000 0.049029
#
#
# Mechanical properties :
#
#
# Convention : Reuss Voigt Hill
#
# Bulk Modulus (GPa) = 36.65629 55.58477 46.12053
# Shear Modulus (GPa) = 23.84456 26.74245 25.29351
#
# Velocity S-wave (km/s) = 3.59482 3.80700 3.70243
# Velocity P-wave (km/s) = 6.09068 7.03199 6.57819
#
# Compressibility (1/GPa) = 0.02728045
#
# Stress axis : x y z
#
# Youngs Moduli (GPa) = 51.55904 51.52732 93.49331
#
# Poissons Ratio (x) = -0.12842 0.69205
# Poissons Ratio (y) = -0.12850 0.57958
# Poissons Ratio (z) = 0.38164 0.31943
#
# Static dielectric constant tensor:
#      x y z
#    x 3.448100 0.000000 0.000000 
#    y 0.000000 3.274130 0.000000 
#    z 0.000000 0.000000 3.122320 
# 
# 
# High freq. dielectric constant tensor:
#      x y z
#    x 1.715600 0.000000 0.000000 
#    y 0.000000 1.708460 0.000000 
#    z 0.000000 0.000000 1.699410 
# 
# From -- ./inp_files/12199.got.cif
#   From: 2010.03.12/outbox.cif.g09.slc.cpg/sg56_7_cif.got.tgz:12199.got - 2010.04.16 15:33:40.
