data_PCOD8229445
_publ_section_title
;
Structure prediction by ZEFSAII (Michael W. Deem and Ramdas Pophale) SiO2 
 PCOD8229445
Probable space group: P C C N
;
_chemical_formula_sum "Si O2"
_cell_formula_units_Z 40
_cell_length_a 18.691544
_cell_length_b 11.681591
_cell_length_c 8.549660
_cell_angle_alpha 90.000000
_cell_angle_beta 90.000000
_cell_angle_gamma 90.000000
_cell_volume 1866.792374
_symmetry_space_group_name_H-M "P C C N"
_symmetry_group_IT_number 56
_symmetry_cell_setting 'orthorhombic'
loop_
_space_group_symop_operation_xyz
x,y,z
1/2-x,1/2-y,z
1/2+x,-y,1/2-z
-x,1/2+y,1/2-z
-x,-y,-z
1/2+x,1/2+y,-z
1/2-x,y,1/2+z
x,1/2-y,1/2+z
loop_
_atom_site_type_symbol
_atom_site_label
_atom_site_fract_x
_atom_site_fract_y
_atom_site_fract_z
Si Si1 0.842173 0.297060 0.093322
Si Si2 0.001642 0.368397 0.038733
Si Si3 0.090811 0.268579 0.306759
Si Si4 0.719432 0.106508 0.415950
Si Si5 0.688692 0.844416 0.427435
O O1 0.925549 0.322561 0.093784
O O2 0.808179 0.341922 0.253395
O O3 0.828068 0.161122 0.059363
O O4 0.802107 0.358962 0.947130
O O5 0.059238 0.352070 0.175860
O O6 0.000000 0.500000 0.000000
O O7 0.025889 0.300131 0.885204
O O8 0.146622 0.179156 0.232755
O O9 0.132956 0.345620 0.430331
O O10 0.720517 0.970105 0.414598
O O11 0.750000 0.750000 0.454201
#
# Coordination Sequence:
#
# PCOD8229445 Si02
#       5
#     8   8   8   8   8
#     4  11  24  43  65 102 129 183 217 279 341 395
#     4  11  24  43  69  94 144 179 225 278 336 415
#     4  10  25  43  64 105 126 180 231 264 350 404
#     4  11  25  42  70  96 137 169 234 276 343 402
#     4  11  25  43  70 100 136 175 229 290 344 401
#
# _framework density 21.427128
#
# number of rings (size 3 to 8) (size 9 to 14) (size 15 to 20)
#    0.000    1.200    0.000    5.400   11.200    3.200 
#    0.000    5.000    0.000    0.000    0.000    0.000 
#    0.000    0.000    0.000    0.000    0.000    0.000 
#
# Total GULP energy -495940.959652 kJ/mol
# GULP energy per Si atom -12398.523991 kJ/mol
# Density = 2.137836 g / cm^3
# Si number density = 21.427128 Si / 1000 Ang^3
#
#
#
# Elastic Constant Matrix: (Units=GPa)
#
#
# Indices 1 2 3 4 5 6 
#
# 1 98.0676 26.6080 15.5413 0.0000 0.0000 0.0000
# 2 26.6080 144.4981 38.5413 0.0000 0.0000 0.0000
# 3 15.5413 38.5413 90.6047 0.0000 0.0000 0.0000
# 4 0.0000 0.0000 0.0000 20.3549 0.0000 0.0000
# 5 0.0000 0.0000 0.0000 0.0000 30.4252 0.0000
# 6 0.0000 0.0000 0.0000 0.0000 0.0000 24.1629
#
#
#
# Elastic Compliance Matrix: (Units=1/GPa)
#
#
# Indices 1 2 3 4 5 6 
#
# 1 0.010837 -0.001692 -0.001139 0.000000 0.000000 0.000000
# 2 -0.001692 0.008070 -0.003143 0.000000 0.000000 0.000000
# 3 -0.001139 -0.003143 0.012569 0.000000 0.000000 0.000000
# 4 0.000000 0.000000 0.000000 0.049128 0.000000 0.000000
# 5 0.000000 0.000000 0.000000 0.000000 0.032868 0.000000
# 6 0.000000 0.000000 0.000000 0.000000 0.000000 0.041386
#
#
# Mechanical properties :
#
#
# Convention : Reuss Voigt Hill
#
# Bulk Modulus (GPa) = 51.20617 54.95020 53.07818
# Shear Modulus (GPa) = 28.84932 31.82058 30.33495
#
# Velocity S-wave (km/s) = 3.67330 3.85783 3.76670
# Velocity P-wave (km/s) = 6.47615 6.74868 6.61382
#
# Compressibility (1/GPa) = 0.01952890
#
# Stress axis : x y z
#
# Youngs Moduli (GPa) = 92.28025 123.91189 79.55938
#
# Poissons Ratio (x) = 0.20961 0.09064
# Poissons Ratio (y) = 0.15610 0.25004
# Poissons Ratio (z) = 0.10513 0.38943
#
# Static dielectric constant tensor:
#      x y z
#    x 4.046570 0.000000 0.000000 
#    y 0.000000 3.831010 0.000000 
#    z 0.000000 0.000000 4.080580 
# 
# 
# High freq. dielectric constant tensor:
#      x y z
#    x 1.848020 0.000000 0.000000 
#    y 0.000000 1.837060 0.000000 
#    z 0.000000 0.000000 1.859040 
# 
# From -- ./inp_files/2587.got.cif
#   From: 2010.03.12/outbox.cif.g09.slc.cpg/sg56_2_cif.got.tgz:2587.got - 2010.04.16 15:33:40.
