data_PCOD8229880
_publ_section_title
;
Structure prediction by ZEFSAII (Michael W. Deem and Ramdas Pophale) SiO2 
 PCOD8229880
Probable space group: P B C M
;
_chemical_formula_sum "Si O2"
_cell_formula_units_Z 48
_cell_length_a 27.406544
_cell_length_b 5.105778
_cell_length_c 16.301226
_cell_angle_alpha 90.000000
_cell_angle_beta 90.000000
_cell_angle_gamma 90.000000
_cell_volume 2281.058746
_symmetry_space_group_name_H-M "P B C M"
_symmetry_group_IT_number 57
_symmetry_cell_setting 'orthorhombic'
loop_
_space_group_symop_operation_xyz
x,y,z
-x,-y,1/2+z
x,1/2-y,-z
-x,1/2+y,1/2-z
-x,-y,-z
x,y,1/2-z
-x,1/2+y,z
x,1/2-y,1/2+z
loop_
_atom_site_type_symbol
_atom_site_label
_atom_site_fract_x
_atom_site_fract_y
_atom_site_fract_z
Si Si1 0.873192 0.003839 0.553993
Si Si2 0.729784 0.156480 0.406755
Si Si3 0.521479 0.520361 0.907534
Si Si4 0.628609 0.501611 0.946887
Si Si5 0.219320 0.146520 0.344191
Si Si6 0.031159 0.964525 0.155291
O O1 0.855307 0.250000 0.500000
O O2 0.883804 0.750000 0.500000
O O3 0.832223 0.943599 0.620694
O O4 0.921940 0.089382 0.600421
O O5 0.735185 0.250000 0.500000
O O6 0.673741 0.073378 0.387433
O O7 0.743171 0.403198 0.349958
O O8 0.763720 0.904378 0.392978
O O9 0.506510 0.255144 0.861176
O O10 0.579222 0.577122 0.899725
O O11 0.500000 0.500000 0.000000
O O12 0.614267 0.250000 0.000000
O O13 0.646318 0.750000 0.000000
O O14 0.213181 0.226985 0.250000
O O15 0.046962 0.944512 0.250000
O O16 0.009224 0.247341 0.134145
#
# Coordination Sequence:
#
# PCOD8229880 Si02
#       6
#     8   8   8   8   8   8
#     4  12  25  40  65  93 123 158 203 255 310 362
#     4  11  23  39  61  89 121 155 197 254 313 362
#     4  10  15  24  39  65 108 152 176 219 279 362
#     4  11  18  28  47  75 111 156 181 227 299 359
#     4  12  25  44  64  86 119 162 210 252 305 373
#     4  10  22  41  63  90 127 166 203 244 295 356
#
# _framework density 21.042860000000001
#
# number of rings (size 3 to 8) (size 9 to 14) (size 15 to 20)
#    0.000    1.000    3.333    7.000    0.000    2.000 
#    0.000    5.000    0.000    0.000    0.000    0.000 
#    0.000   13.333    0.000    0.000    0.000    0.000 
#
# Total GULP energy -595183.481642 kJ/mol
# GULP energy per Si atom -12399.655868 kJ/mol
# Density = 2.099497 g / cm^3
# Si number density = 21.042860 Si / 1000 Ang^3
#
#
#
# Elastic Constant Matrix: (Units=GPa)
#
#
# Indices 1 2 3 4 5 6 
#
# 1 124.0596 28.1669 46.3400 0.0000 0.0000 0.0000
# 2 28.1669 151.8459 24.9085 0.0000 0.0000 0.0000
# 3 46.3400 24.9085 64.0213 0.0000 0.0000 0.0000
# 4 0.0000 0.0000 0.0000 21.7841 0.0000 0.0000
# 5 0.0000 0.0000 0.0000 0.0000 2.2859 0.0000
# 6 0.0000 0.0000 0.0000 0.0000 0.0000 36.1320
#
#
#
# Elastic Compliance Matrix: (Units=1/GPa)
#
#
# Indices 1 2 3 4 5 6 
#
# 1 0.011137 -0.000794 -0.007752 0.000000 0.000000 0.000000
# 2 -0.000794 0.007091 -0.002184 0.000000 0.000000 0.000000
# 3 -0.007752 -0.002184 0.022081 0.000000 0.000000 0.000000
# 4 0.000000 0.000000 0.000000 0.045905 0.000000 0.000000
# 5 0.000000 0.000000 0.000000 0.000000 0.437459 0.000000
# 6 0.000000 0.000000 0.000000 0.000000 0.000000 0.027676
#
#
# Mechanical properties :
#
#
# Convention : Reuss Voigt Hill
#
# Bulk Modulus (GPa) = 53.05611 59.86194 56.45903
# Shear Modulus (GPa) = 8.63421 28.07452 18.35436
#
# Velocity S-wave (km/s) = 2.02782 3.65658 2.95657
# Velocity P-wave (km/s) = 5.54534 6.80711 6.20837
#
# Compressibility (1/GPa) = 0.01884797
#
# Stress axis : x y z
#
# Youngs Moduli (GPa) = 89.79480 141.01953 45.28881
#
# Poissons Ratio (x) = 0.11200 0.35107
# Poissons Ratio (y) = 0.07131 0.09892
# Poissons Ratio (z) = 0.69608 0.30800
#
# Static dielectric constant tensor:
#      x y z
#    x 3.893370 0.000000 0.000000 
#    y 0.000000 9.446210 0.000000 
#    z 0.000000 0.000000 3.371740 
# 
# 
# High freq. dielectric constant tensor:
#      x y z
#    x 1.838500 0.000000 0.000000 
#    y 0.000000 1.857500 0.000000 
#    z 0.000000 0.000000 1.771850 
# 
# From -- ./inp_files/19580.got.cif
#   From: 2010.03.12/outbox.cif.g09.slc.cpg/sg57_10_cif.got.tgz:19580.got - 2010.04.16 15:48:40.
