data_PCOD8229112
_publ_section_title
;
Structure prediction by ZEFSAII (Michael W. Deem and Ramdas Pophale) SiO2 
 PCOD8229112
Probable space group: P C C N
;
_chemical_formula_sum "Si O2"
_cell_formula_units_Z 36
_cell_length_a 27.102739
_cell_length_b 6.513947
_cell_length_c 9.786524
_cell_angle_alpha 90.000000
_cell_angle_beta 90.000000
_cell_angle_gamma 90.000000
_cell_volume 1727.769762
_symmetry_space_group_name_H-M "P C C N"
_symmetry_group_IT_number 56
_symmetry_cell_setting 'orthorhombic'
loop_
_space_group_symop_operation_xyz
x,y,z
1/2-x,1/2-y,z
1/2+x,-y,1/2-z
-x,1/2+y,1/2-z
-x,-y,-z
1/2+x,1/2+y,-z
1/2-x,y,1/2+z
x,1/2-y,1/2+z
loop_
_atom_site_type_symbol
_atom_site_label
_atom_site_fract_x
_atom_site_fract_y
_atom_site_fract_z
Si Si1 0.939609 0.542590 0.363676
Si Si2 0.988455 0.803111 0.588916
Si Si3 0.297799 0.872269 0.982863
Si Si4 0.668876 0.056399 0.298516
Si Si5 0.250000 0.250000 0.609441
O O1 0.951470 0.661277 0.503163
O O2 0.963666 0.649874 0.233047
O O3 0.881007 0.547700 0.348989
O O4 0.960118 0.311556 0.378434
O O5 0.000000 0.000000 0.500000
O O6 0.250000 0.750000 0.929992
O O7 0.336879 0.872470 0.858554
O O8 0.321070 0.758301 0.112225
O O9 0.284686 0.106706 0.017380
O O10 0.714275 0.895418 0.301522
#
# Coordination Sequence:
#
# PCOD8229112 Si02
#       5
#     8   8   8   8   4
#     4  11  26  43  71  96 132 176 221 277 337 394
#     4  11  24  47  66  98 134 172 219 281 329 396
#     4  10  22  43  63  91 133 168 215 269 322 386
#     4  11  25  40  66  98 128 173 215 271 327 394
#     4  10  22  42  66  96 128 174 218 274 316 394
#
# _framework density 20.836110999999999
#
# number of rings (size 3 to 8) (size 9 to 14) (size 15 to 20)
#    0.000    1.333    2.222    2.667    6.222    1.778 
#    0.000    0.000    0.000    0.000    0.000    0.000 
#    0.000    0.000    0.000    0.000    0.000    0.000 
#
# Total GULP energy -446513.160378 kJ/mol
# GULP energy per Si atom -12403.143344 kJ/mol
# Density = 2.078869 g / cm^3
# Si number density = 20.836111 Si / 1000 Ang^3
#
#
#
# Elastic Constant Matrix: (Units=GPa)
#
#
# Indices 1 2 3 4 5 6 
#
# 1 81.9327 25.9949 15.4083 0.0000 0.0000 0.0000
# 2 25.9949 116.9908 46.1791 0.0000 0.0000 0.0000
# 3 15.4083 46.1791 117.5676 0.0000 0.0000 0.0000
# 4 0.0000 0.0000 0.0000 33.8705 0.0000 0.0000
# 5 0.0000 0.0000 0.0000 0.0000 22.2491 0.0000
# 6 0.0000 0.0000 0.0000 0.0000 0.0000 20.7640
#
#
#
# Elastic Compliance Matrix: (Units=1/GPa)
#
#
# Indices 1 2 3 4 5 6 
#
# 1 0.013177 -0.002658 -0.000683 0.000000 0.000000 0.000000
# 2 -0.002658 0.010652 -0.003836 0.000000 0.000000 0.000000
# 3 -0.000683 -0.003836 0.010102 0.000000 0.000000 0.000000
# 4 0.000000 0.000000 0.000000 0.029524 0.000000 0.000000
# 5 0.000000 0.000000 0.000000 0.000000 0.044946 0.000000
# 6 0.000000 0.000000 0.000000 0.000000 0.000000 0.048160
#
#
# Mechanical properties :
#
#
# Convention : Reuss Voigt Hill
#
# Bulk Modulus (GPa) = 51.07911 54.62842 52.85376
# Shear Modulus (GPa) = 28.17838 30.63730 29.40784
#
# Velocity S-wave (km/s) = 3.68146 3.83873 3.76092
# Velocity P-wave (km/s) = 6.52984 6.77664 6.65439
#
# Compressibility (1/GPa) = 0.01957748
#
# Stress axis : x y z
#
# Youngs Moduli (GPa) = 75.88994 93.87535 98.99166
#
# Poissons Ratio (x) = 0.24956 0.06759
# Poissons Ratio (y) = 0.20174 0.37971
# Poissons Ratio (z) = 0.05182 0.36008
#
# Static dielectric constant tensor:
#      x y z
#    x 3.674770 0.000000 0.000000 
#    y 0.000000 3.944000 0.000000 
#    z 0.000000 0.000000 3.857850 
# 
# 
# High freq. dielectric constant tensor:
#      x y z
#    x 1.802640 0.000000 0.000000 
#    y 0.000000 1.826180 0.000000 
#    z 0.000000 0.000000 1.831600 
# 
# From -- ./inp_files/5549.got.cif
#   From: 2010.03.12/outbox.cif.g09.slc.cpg/sg56_3_cif.got.tgz:5549.got - 2010.04.16 15:33:40.
