data_PCOD8229324
_publ_section_title
;
Structure prediction by ZEFSAII (Michael W. Deem and Ramdas Pophale) SiO2 
 PCOD8229324
Probable space group: P C C N
;
_chemical_formula_sum "Si O2"
_cell_formula_units_Z 64
_cell_length_a 22.791497
_cell_length_b 9.580630
_cell_length_c 13.634096
_cell_angle_alpha 90.000000
_cell_angle_beta 90.000000
_cell_angle_gamma 90.000000
_cell_volume 2977.098936
_symmetry_space_group_name_H-M "P C C N"
_symmetry_group_IT_number 56
_symmetry_cell_setting 'orthorhombic'
loop_
_space_group_symop_operation_xyz
x,y,z
1/2-x,1/2-y,z
1/2+x,-y,1/2-z
-x,1/2+y,1/2-z
-x,-y,-z
1/2+x,1/2+y,-z
1/2-x,y,1/2+z
x,1/2-y,1/2+z
loop_
_atom_site_type_symbol
_atom_site_label
_atom_site_fract_x
_atom_site_fract_y
_atom_site_fract_z
Si Si1 0.339395 0.032852 0.800547
Si Si2 0.019118 0.181617 0.112118
Si Si3 0.615944 0.674816 0.274758
Si Si4 0.441389 0.881329 0.557946
Si Si5 0.910879 0.228750 0.742006
Si Si6 0.748821 0.915169 0.050599
Si Si7 0.737975 0.587465 0.333614
Si Si8 0.633403 0.465489 0.128046
O O1 0.365482 0.179339 0.769620
O O2 0.314533 0.034217 0.910818
O O3 0.281720 0.998487 0.734611
O O4 0.391979 0.923840 0.793834
O O5 0.071600 0.291169 0.135125
O O6 0.971170 0.216766 0.194510
O O7 0.038309 0.019036 0.118053
O O8 0.993523 0.198675 0.001355
O O9 0.668475 0.574600 0.313934
O O10 0.591522 0.581784 0.183071
O O11 0.416361 0.773453 0.639165
O O12 0.392913 0.926881 0.477939
O O13 0.861087 0.333214 0.701404
O O14 0.750000 0.750000 0.058453
O O15 0.801689 0.973735 0.115928
O O16 0.754381 0.968627 0.940659
O O17 0.750000 0.750000 0.320044
#
# Coordination Sequence:
#
# PCOD8229324 Si02
#       8
#     8   8   8   8   8   8   8   8
#     4  11  20  41  65  94 140 177 220 289 351 402
#     4  10  24  40  71  98 130 185 236 275 345 418
#     4  11  21  40  67 102 135 174 231 294 338 404
#     4  10  23  48  70  97 136 191 227 283 361 421
#     4  11  25  44  67  99 139 184 231 285 350 418
#     4  11  20  37  66 101 130 175 229 278 340 418
#     4   9  20  36  63 100 130 171 228 273 341 410
#     4  11  24  42  73 101 135 179 235 281 350 424
#
# _framework density 21.497437999999999
#
# number of rings (size 3 to 8) (size 9 to 14) (size 15 to 20)
#    0.000    1.500    3.750    1.125    8.750    0.500 
#    4.500    0.625    2.750    0.000    0.000    0.000 
#    0.000    0.000    0.000    0.000    0.000    0.000 
#
# Total GULP energy -792896.277194 kJ/mol
# GULP energy per Si atom -12389.004331 kJ/mol
# Density = 2.144851 g / cm^3
# Si number density = 21.497438 Si / 1000 Ang^3
#
#
#
# Elastic Constant Matrix: (Units=GPa)
#
#
# Indices 1 2 3 4 5 6 
#
# 1 62.7415 29.7013 34.3522 0.0000 0.0000 0.0000
# 2 29.7013 79.7544 56.8550 0.0000 0.0000 0.0000
# 3 34.3522 56.8550 122.7327 0.0000 0.0000 0.0000
# 4 0.0000 0.0000 0.0000 40.3913 0.0000 0.0000
# 5 0.0000 0.0000 0.0000 0.0000 -8.0148 0.0000
# 6 0.0000 0.0000 0.0000 0.0000 0.0000 16.5390
#
#
#
# Elastic Compliance Matrix: (Units=1/GPa)
#
#
# Indices 1 2 3 4 5 6 
#
# 1 0.020174 -0.005207 -0.003234 0.000000 0.000000 0.000000
# 2 -0.005207 0.020065 -0.007837 0.000000 0.000000 0.000000
# 3 -0.003234 -0.007837 0.012684 0.000000 0.000000 0.000000
# 4 0.000000 0.000000 0.000000 0.024758 0.000000 0.000000
# 5 0.000000 0.000000 0.000000 0.000000 -0.124769 0.000000
# 6 0.000000 0.000000 0.000000 0.000000 0.000000 0.060463
#
#
# Mechanical properties :
#
#
# Convention : Reuss Voigt Hill
#
# Bulk Modulus (GPa) = 49.10483 56.33840 52.72161
# Shear Modulus (GPa) = 94.83776 19.40445 57.12110
#
# Velocity S-wave (km/s) = 6.64918 3.00766 5.16031
# Velocity P-wave (km/s) = 9.04658 6.19074 7.75132
#
# Compressibility (1/GPa) = 0.02036460
#
# Stress axis : x y z
#
# Youngs Moduli (GPa) = 49.56757 49.83838 78.84140
#
# Poissons Ratio (x) = 0.25953 0.25501
# Poissons Ratio (y) = 0.25812 0.61791
# Poissons Ratio (z) = 0.16032 0.39060
#
# Static dielectric constant tensor:
#      x y z
#    x 4.080090 0.000000 0.000000 
#    y 0.000000 3.865540 0.000000 
#    z 0.000000 0.000000 4.172950 
# 
# 
# High freq. dielectric constant tensor:
#      x y z
#    x 1.842770 0.000000 0.000000 
#    y 0.000000 1.816230 0.000000 
#    z 0.000000 0.000000 1.854960 
# 
# From -- ./inp_files/13300.got.cif
#   From: 2010.03.12/outbox.cif.g09.slc.cpg/sg56_7_cif.got.tgz:13300.got - 2010.04.16 15:33:40.
