data_PCOD8229638
_publ_section_title
;
Structure prediction by ZEFSAII (Michael W. Deem and Ramdas Pophale) SiO2 
 PCOD8229638
Probable space group: P C C N
;
_chemical_formula_sum "Si O2"
_cell_formula_units_Z 32
_cell_length_a 8.299971
_cell_length_b 15.385366
_cell_length_c 10.103171
_cell_angle_alpha 90.000000
_cell_angle_beta 90.000000
_cell_angle_gamma 90.000000
_cell_volume 1290.155656
_symmetry_space_group_name_H-M "P C C N"
_symmetry_group_IT_number 56
_symmetry_cell_setting 'orthorhombic'
loop_
_space_group_symop_operation_xyz
x,y,z
1/2-x,1/2-y,z
1/2+x,-y,1/2-z
-x,1/2+y,1/2-z
-x,-y,-z
1/2+x,1/2+y,-z
1/2-x,y,1/2+z
x,1/2-y,1/2+z
loop_
_atom_site_type_symbol
_atom_site_label
_atom_site_fract_x
_atom_site_fract_y
_atom_site_fract_z
Si Si1 0.381847 0.825802 0.684226
Si Si2 0.555422 0.595835 0.952465
Si Si3 0.915006 0.425314 0.823630
Si Si4 0.071480 0.384801 0.083880
O O1 0.250000 0.750000 0.686655
O O2 0.477102 0.830605 0.546072
O O3 0.509933 0.815952 0.805605
O O4 0.277330 0.915333 0.697547
O O5 0.503748 0.613575 0.803191
O O6 0.744078 0.616221 0.959938
O O7 0.500000 0.500000 0.000000
O O8 0.965919 0.523834 0.845552
O O9 0.967232 0.369193 0.951879
#
# Coordination Sequence:
#
# PCOD8229638 Si02
#       4
#     8   8   8   8
#     4  12  27  47  71 110 159 202 251 325 406 463
#     4  12  23  42  75 112 149 197 266 323 382 472
#     4  11  23  40  72 110 149 198 259 316 382 466
#     4  11  23  43  72 109 150 199 260 319 387 469
#
# _framework density 24.803208999999999
#
# number of rings (size 3 to 8) (size 9 to 14) (size 15 to 20)
#    0.000    0.500    5.000    3.000    3.500    4.000 
#    0.000    7.500    0.000    0.000    0.000    0.000 
#    0.000    0.000    0.000    0.000    0.000    0.000 
#
# Total GULP energy -396745.136018 kJ/mol
# GULP energy per Si atom -12398.285501 kJ/mol
# Density = 2.474676 g / cm^3
# Si number density = 24.803209 Si / 1000 Ang^3
#
#
#
# Elastic Constant Matrix: (Units=GPa)
#
#
# Indices 1 2 3 4 5 6 
#
# 1 170.7414 36.1524 55.1459 0.0000 0.0000 0.0000
# 2 36.1524 62.9380 51.6152 0.0000 0.0000 0.0000
# 3 55.1459 51.6152 171.9290 0.0000 0.0000 0.0000
# 4 0.0000 0.0000 0.0000 16.5758 0.0000 0.0000
# 5 0.0000 0.0000 0.0000 0.0000 60.4294 0.0000
# 6 0.0000 0.0000 0.0000 0.0000 0.0000 41.4950
#
#
#
# Elastic Compliance Matrix: (Units=1/GPa)
#
#
# Indices 1 2 3 4 5 6 
#
# 1 0.006899 -0.002850 -0.001357 0.000000 0.000000 0.000000
# 2 -0.002850 0.022255 -0.005767 0.000000 0.000000 0.000000
# 3 -0.001357 -0.005767 0.007983 0.000000 0.000000 0.000000
# 4 0.000000 0.000000 0.000000 0.060329 0.000000 0.000000
# 5 0.000000 0.000000 0.000000 0.000000 0.016548 0.000000
# 6 0.000000 0.000000 0.000000 0.000000 0.000000 0.024099
#
#
# Mechanical properties :
#
#
# Convention : Reuss Voigt Hill
#
# Bulk Modulus (GPa) = 58.17775 76.82614 67.50195
# Shear Modulus (GPa) = 30.52673 41.21303 35.86988
#
# Velocity S-wave (km/s) = 3.51202 4.08070 3.80699
# Velocity P-wave (km/s) = 6.32079 7.29687 6.82630
#
# Compressibility (1/GPa) = 0.01718870
#
# Stress axis : x y z
#
# Youngs Moduli (GPa) = 144.95864 44.93327 125.26472
#
# Poissons Ratio (x) = 0.12804 0.17001
# Poissons Ratio (y) = 0.41307 0.72244
# Poissons Ratio (z) = 0.19674 0.25914
#
# Static dielectric constant tensor:
#      x y z
#    x 4.623150 0.000000 0.000000 
#    y 0.000000 4.294650 0.000000 
#    z 0.000000 0.000000 4.675180 
# 
# 
# High freq. dielectric constant tensor:
#      x y z
#    x 1.999830 0.000000 0.000000 
#    y 0.000000 1.967450 0.000000 
#    z 0.000000 0.000000 2.006820 
# 
# From -- ./inp_files/6072.got.cif
#   From: 2010.03.12/outbox.cif.g09.slc.cpg/sg56_4_cif.got.tgz:6072.got - 2010.04.16 15:33:40.
