data_PCOD8229589
_publ_section_title
;
Structure prediction by ZEFSAII (Michael W. Deem and Ramdas Pophale) SiO2 
 PCOD8229589
Probable space group: P C C N
;
_chemical_formula_sum "Si O2"
_cell_formula_units_Z 60
_cell_length_a 16.592743
_cell_length_b 9.984768
_cell_length_c 17.446375
_cell_angle_alpha 90.000000
_cell_angle_beta 90.000000
_cell_angle_gamma 90.000000
_cell_volume 2890.422758
_symmetry_space_group_name_H-M "P C C N"
_symmetry_group_IT_number 56
_symmetry_cell_setting 'orthorhombic'
loop_
_space_group_symop_operation_xyz
x,y,z
1/2-x,1/2-y,z
1/2+x,-y,1/2-z
-x,1/2+y,1/2-z
-x,-y,-z
1/2+x,1/2+y,-z
1/2-x,y,1/2+z
x,1/2-y,1/2+z
loop_
_atom_site_type_symbol
_atom_site_label
_atom_site_fract_x
_atom_site_fract_y
_atom_site_fract_z
Si Si1 0.594779 0.784935 0.183627
Si Si2 0.569260 0.449979 0.325308
Si Si3 0.293503 0.046475 0.918785
Si Si4 0.425183 0.601302 0.509006
Si Si5 0.897856 0.746780 0.849877
Si Si6 0.024804 0.622116 0.447154
Si Si7 0.750000 0.750000 0.461386
Si Si8 0.860243 0.489700 0.667876
O O1 0.510905 0.863371 0.186147
O O2 0.650552 0.840540 0.117301
O O3 0.635054 0.800060 0.268092
O O4 0.588415 0.627522 0.164700
O O5 0.610597 0.402986 0.404648
O O6 0.551743 0.609252 0.335305
O O7 0.628581 0.425344 0.252752
O O8 0.234840 0.997612 0.850773
O O9 0.241524 0.116747 0.986319
O O10 0.351455 0.929224 0.950970
O O11 0.500000 0.500000 0.500000
O O12 0.462391 0.747326 0.498316
O O13 0.826261 0.723031 0.908623
O O14 0.955235 0.858849 0.884643
O O15 0.106346 0.601290 0.400094
O O16 0.000000 0.500000 0.500000
#
# Coordination Sequence:
#
# PCOD8229589 Si02
#       8
#     8   8   8   8   8   8   4   8
#     4  11  22  40  66  96 132 180 229 284 341 414
#     4  11  22  42  66  94 131 178 236 273 343 426
#     4  12  23  41  70  99 137 179 234 289 351 411
#     4  12  23  42  71 100 131 182 231 282 344 420
#     4  11  24  39  63  99 134 176 226 286 343 411
#     4  12  24  43  66 100 137 176 229 281 342 411
#     4  12  22  38  64 102 136 174 232 294 344 414
#     4  11  25  40  64 101 139 173 223 291 356 410
#
# _framework density 20.758209000000001
#
# number of rings (size 3 to 8) (size 9 to 14) (size 15 to 20)
#    0.000    0.533    6.667    1.600    3.733    0.533 
#    0.000    0.000    0.000    1.600    0.000    0.000 
#    0.000    0.000    0.000    0.000    0.000    0.000 
#
# Total GULP energy -743822.441497 kJ/mol
# GULP energy per Si atom -12397.040692 kJ/mol
# Density = 2.071096 g / cm^3
# Si number density = 20.758209 Si / 1000 Ang^3
#
#
#
# Elastic Constant Matrix: (Units=GPa)
#
#
# Indices 1 2 3 4 5 6 
#
# 1 93.4556 30.9557 37.3287 0.0000 0.0000 0.0000
# 2 30.9557 99.6832 42.1912 0.0000 0.0000 0.0000
# 3 37.3287 42.1912 141.5130 0.0000 0.0000 0.0000
# 4 0.0000 0.0000 0.0000 33.2346 0.0000 0.0000
# 5 0.0000 0.0000 0.0000 0.0000 39.9383 0.0000
# 6 0.0000 0.0000 0.0000 0.0000 0.0000 25.7046
#
#
#
# Elastic Compliance Matrix: (Units=1/GPa)
#
#
# Indices 1 2 3 4 5 6 
#
# 1 0.012643 -0.002878 -0.002477 0.000000 0.000000 0.000000
# 2 -0.002878 0.012136 -0.002859 0.000000 0.000000 0.000000
# 3 -0.002477 -0.002859 0.008572 0.000000 0.000000 0.000000
# 4 0.000000 0.000000 0.000000 0.030089 0.000000 0.000000
# 5 0.000000 0.000000 0.000000 0.000000 0.025039 0.000000
# 6 0.000000 0.000000 0.000000 0.000000 0.000000 0.038904
#
#
# Mechanical properties :
#
#
# Convention : Reuss Voigt Hill
#
# Bulk Modulus (GPa) = 59.09066 61.73367 60.41216
# Shear Modulus (GPa) = 33.45588 34.72057 34.08822
#
# Velocity S-wave (km/s) = 4.01895 4.09420 4.05675
# Velocity P-wave (km/s) = 7.07558 7.22177 7.14905
#
# Compressibility (1/GPa) = 0.01692315
#
# Stress axis : x y z
#
# Youngs Moduli (GPa) = 79.09608 82.40275 116.65506
#
# Poissons Ratio (x) = 0.23713 0.28895
# Poissons Ratio (y) = 0.22762 0.33352
# Poissons Ratio (z) = 0.19592 0.23559
#
# Static dielectric constant tensor:
#      x y z
#    x 3.761230 0.000000 0.000000 
#    y 0.000000 3.697970 0.000000 
#    z 0.000000 0.000000 4.306040 
# 
# 
# High freq. dielectric constant tensor:
#      x y z
#    x 1.791230 0.000000 0.000000 
#    y 0.000000 1.801410 0.000000 
#    z 0.000000 0.000000 1.842590 
# 
# From -- ./inp_files/16323.got.cif
#   From: 2010.03.12/outbox.cif.g09.slc.cpg/sg56_9_cif.got.tgz:16323.got - 2010.04.16 15:33:40.
