data_PCOD8229588
_publ_section_title
;
Structure prediction by ZEFSAII (Michael W. Deem and Ramdas Pophale) SiO2 
 PCOD8229588
Probable space group: P C C N
;
_chemical_formula_sum "Si O2"
_cell_formula_units_Z 52
_cell_length_a 8.314008
_cell_length_b 20.827606
_cell_length_c 13.779370
_cell_angle_alpha 90.000000
_cell_angle_beta 90.000000
_cell_angle_gamma 90.000000
_cell_volume 2386.047875
_symmetry_space_group_name_H-M "P C C N"
_symmetry_group_IT_number 56
_symmetry_cell_setting 'orthorhombic'
loop_
_space_group_symop_operation_xyz
x,y,z
1/2-x,1/2-y,z
1/2+x,-y,1/2-z
-x,1/2+y,1/2-z
-x,-y,-z
1/2+x,1/2+y,-z
1/2-x,y,1/2+z
x,1/2-y,1/2+z
loop_
_atom_site_type_symbol
_atom_site_label
_atom_site_fract_x
_atom_site_fract_y
_atom_site_fract_z
Si Si1 0.499445 0.944668 0.176300
Si Si2 0.279167 0.402630 0.499008
Si Si3 0.558731 0.080936 0.136228
Si Si4 0.354024 0.845347 0.297174
Si Si5 0.033646 0.663945 0.504192
Si Si6 0.725870 0.040837 0.462677
Si Si7 0.750000 0.250000 0.858489
O O1 0.481918 0.902363 0.274072
O O2 0.318002 0.941738 0.135587
O O3 0.528975 0.019219 0.206552
O O4 0.629346 0.913380 0.103201
O O5 0.398663 0.386858 0.589954
O O6 0.175801 0.465992 0.530720
O O7 0.160366 0.341011 0.486125
O O8 0.667988 0.132763 0.190336
O O9 0.643693 0.048118 0.046201
O O10 0.413966 0.813191 0.396827
O O11 0.357432 0.795972 0.208440
O O12 0.082554 0.590440 0.524907
O O13 0.117646 0.713074 0.577439
#
# Coordination Sequence:
#
# PCOD8229588 Si02
#       7
#     8   8   8   8   8   8   4
#     4   9  17  36  62  96 136 163 203 271 339 393
#     4   9  18  36  65  99 132 157 204 286 339 377
#     4   8  18  35  62  96 131 162 202 271 335 392
#     4  11  23  42  66  90 124 179 222 260 322 410
#     4  11  22  40  66  91 121 175 225 269 317 394
#     4   8  15  34  62  93 128 167 201 254 346 396
#     4  12  26  46  64  82 128 182 232 252 316 412
#
# _framework density 21.79336
#
# number of rings (size 3 to 8) (size 9 to 14) (size 15 to 20)
#    0.000    2.462    1.538    2.769    0.000    2.462 
#   11.077    0.769    0.000    0.000    0.000    0.000 
#    0.000    0.000    0.000    0.000    0.000    0.000 
#
# Total GULP energy -644259.878115 kJ/mol
# GULP energy per Si atom -12389.613041 kJ/mol
# Density = 2.174376 g / cm^3
# Si number density = 21.793360 Si / 1000 Ang^3
#
#
#
# Elastic Constant Matrix: (Units=GPa)
#
#
# Indices 1 2 3 4 5 6 
#
# 1 109.8246 50.6136 37.4381 0.0000 0.0000 0.0000
# 2 50.6136 62.5458 43.5819 0.0000 0.0000 0.0000
# 3 37.4381 43.5819 98.1300 0.0000 0.0000 0.0000
# 4 0.0000 0.0000 0.0000 33.8229 0.0000 0.0000
# 5 0.0000 0.0000 0.0000 0.0000 17.1391 0.0000
# 6 0.0000 0.0000 0.0000 0.0000 0.0000 27.1562
#
#
#
# Elastic Compliance Matrix: (Units=1/GPa)
#
#
# Indices 1 2 3 4 5 6 
#
# 1 0.014535 -0.011438 -0.000466 0.000000 0.000000 0.000000
# 2 -0.011438 0.032154 -0.009917 0.000000 0.000000 0.000000
# 3 -0.000466 -0.009917 0.014772 0.000000 0.000000 0.000000
# 4 0.000000 0.000000 0.000000 0.029566 0.000000 0.000000
# 5 0.000000 0.000000 0.000000 0.000000 0.058346 0.000000
# 6 0.000000 0.000000 0.000000 0.000000 0.000000 0.036824
#
#
# Mechanical properties :
#
#
# Convention : Reuss Voigt Hill
#
# Bulk Modulus (GPa) = 56.11209 59.30752 57.70980
# Shear Modulus (GPa) = 21.20632 24.88144 23.04388
#
# Velocity S-wave (km/s) = 3.12278 3.38257 3.25527
# Velocity P-wave (km/s) = 6.22941 6.52138 6.37706
#
# Compressibility (1/GPa) = 0.01782147
#
# Stress axis : x y z
#
# Youngs Moduli (GPa) = 68.79723 31.10022 67.69380
#
# Poissons Ratio (x) = 0.35573 0.03152
# Poissons Ratio (y) = 0.78691 0.67129
# Poissons Ratio (z) = 0.03203 0.30841
#
# Static dielectric constant tensor:
#      x y z
#    x 4.690560 0.000000 0.000000 
#    y 0.000000 4.099810 0.000000 
#    z 0.000000 0.000000 3.839960 
# 
# 
# High freq. dielectric constant tensor:
#      x y z
#    x 1.846490 0.000000 0.000000 
#    y 0.000000 1.833000 0.000000 
#    z 0.000000 0.000000 1.850900 
# 
# From -- ./inp_files/10836.got.cif
#   From: 2010.03.12/outbox.cif.g09.slc.cpg/sg56_6_cif.got.tgz:10836.got - 2010.04.16 15:33:40.
