data_PCOD8229244
_publ_section_title
;
Structure prediction by ZEFSAII (Michael W. Deem and Ramdas Pophale) SiO2 
 PCOD8229244
Probable space group: P C C N
;
_chemical_formula_sum "Si O2"
_cell_formula_units_Z 60
_cell_length_a 8.863007
_cell_length_b 15.965994
_cell_length_c 17.814920
_cell_angle_alpha 90.000000
_cell_angle_beta 90.000000
_cell_angle_gamma 90.000000
_cell_volume 2520.930835
_symmetry_space_group_name_H-M "P C C N"
_symmetry_group_IT_number 56
_symmetry_cell_setting 'orthorhombic'
loop_
_space_group_symop_operation_xyz
x,y,z
1/2-x,1/2-y,z
1/2+x,-y,1/2-z
-x,1/2+y,1/2-z
-x,-y,-z
1/2+x,1/2+y,-z
1/2-x,y,1/2+z
x,1/2-y,1/2+z
loop_
_atom_site_type_symbol
_atom_site_label
_atom_site_fract_x
_atom_site_fract_y
_atom_site_fract_z
Si Si1 0.777707 0.981335 0.478901
Si Si2 0.423631 0.044769 0.246560
Si Si3 0.138583 0.646107 0.234323
Si Si4 0.750000 0.250000 0.133216
Si Si5 0.841674 0.670585 0.546467
Si Si6 0.927749 0.091734 0.593899
Si Si7 0.617658 0.115706 0.375493
Si Si8 0.305823 0.163055 0.797484
O O1 0.652243 0.909546 0.491122
O O2 0.920055 0.925573 0.452221
O O3 0.806240 0.028569 0.557872
O O4 0.723847 0.050218 0.419441
O O5 0.542476 0.069288 0.181099
O O6 0.501393 0.062639 0.325784
O O7 0.265461 0.095715 0.240323
O O8 0.362693 0.952365 0.244558
O O9 0.149696 0.689467 0.315059
O O10 0.276698 0.671724 0.179048
O O11 0.983582 0.670791 0.196645
O O12 0.636943 0.188200 0.085916
O O13 0.750000 0.750000 0.510443
O O14 0.742819 0.646015 0.617990
O O15 0.019079 0.679667 0.571584
O O16 0.250000 0.250000 0.764671
#
# Coordination Sequence:
#
# PCOD8229244 Si02
#       8
#     8   8   8   4   8   8   8   8
#     4  11  25  47  74 102 148 203 254 303 379 460
#     4  11  22  45  72 106 147 194 248 301 378 451
#     4  12  24  41  73 109 143 189 238 317 369 448
#     4  12  28  44  70 116 152 180 256 320 384 438
#     4  10  24  44  68 102 150 193 248 310 364 450
#     4  11  25  46  70 107 149 196 250 314 378 457
#     4  11  24  44  76 110 141 200 256 298 379 457
#     4  10  23  41  67 103 144 187 243 305 367 434
#
# _framework density 23.800733000000001
#
# number of rings (size 3 to 8) (size 9 to 14) (size 15 to 20)
#    0.000    1.067    2.667    2.800    9.333    1.067 
#    2.400    1.333    0.000    0.000    0.000    0.000 
#    0.000    0.000    0.000    0.000    0.000    0.000 
#
# Total GULP energy -743465.989495 kJ/mol
# GULP energy per Si atom -12391.099825 kJ/mol
# Density = 2.374656 g / cm^3
# Si number density = 23.800733 Si / 1000 Ang^3
#
#
#
# Elastic Constant Matrix: (Units=GPa)
#
#
# Indices 1 2 3 4 5 6 
#
# 1 126.6381 35.7925 8.8290 0.0000 0.0000 0.0000
# 2 35.7925 134.3208 18.7123 0.0000 0.0000 0.0000
# 3 8.8290 18.7123 45.3619 0.0000 0.0000 0.0000
# 4 0.0000 0.0000 0.0000 33.3767 0.0000 0.0000
# 5 0.0000 0.0000 0.0000 0.0000 24.3111 0.0000
# 6 0.0000 0.0000 0.0000 0.0000 0.0000 45.2646
#
#
#
# Elastic Compliance Matrix: (Units=1/GPa)
#
#
# Indices 1 2 3 4 5 6 
#
# 1 0.008565 -0.002175 -0.000770 0.000000 0.000000 0.000000
# 2 -0.002175 0.008451 -0.003063 0.000000 0.000000 0.000000
# 3 -0.000770 -0.003063 0.023458 0.000000 0.000000 0.000000
# 4 0.000000 0.000000 0.000000 0.029961 0.000000 0.000000
# 5 0.000000 0.000000 0.000000 0.000000 0.041134 0.000000
# 6 0.000000 0.000000 0.000000 0.000000 0.000000 0.022092
#
#
# Mechanical properties :
#
#
# Convention : Reuss Voigt Hill
#
# Bulk Modulus (GPa) = 35.13841 48.10982 41.62411
# Shear Modulus (GPa) = 32.22419 36.78959 34.50689
#
# Velocity S-wave (km/s) = 3.68355 3.93585 3.81179
# Velocity P-wave (km/s) = 5.73472 6.39625 6.07450
#
# Compressibility (1/GPa) = 0.02845889
#
# Stress axis : x y z
#
# Youngs Moduli (GPa) = 116.75505 118.32722 42.62897
#
# Poissons Ratio (x) = 0.25737 0.03282
# Poissons Ratio (y) = 0.25395 0.13057
# Poissons Ratio (z) = 0.08988 0.36242
#
# Static dielectric constant tensor:
#      x y z
#    x 4.490550 0.000000 0.000000 
#    y 0.000000 4.485930 0.000000 
#    z 0.000000 0.000000 4.115820 
# 
# 
# High freq. dielectric constant tensor:
#      x y z
#    x 1.952860 0.000000 0.000000 
#    y 0.000000 1.952770 0.000000 
#    z 0.000000 0.000000 1.922410 
# 
# From -- ./inp_files/15126.got.cif
#   From: 2010.03.12/outbox.cif.g09.slc.cpg/sg56_8_cif.got.tgz:15126.got - 2010.04.16 15:33:40.
