data_PCOD8229046
_publ_section_title
;
Structure prediction by ZEFSAII (Michael W. Deem and Ramdas Pophale) SiO2 
 PCOD8229046
Probable space group: P C C N
;
_chemical_formula_sum "Si O2"
_cell_formula_units_Z 40
_cell_length_a 7.934413
_cell_length_b 10.576920
_cell_length_c 20.516925
_cell_angle_alpha 90.000000
_cell_angle_beta 90.000000
_cell_angle_gamma 90.000000
_cell_volume 1721.814231
_symmetry_space_group_name_H-M "P C C N"
_symmetry_group_IT_number 56
_symmetry_cell_setting 'orthorhombic'
loop_
_space_group_symop_operation_xyz
x,y,z
1/2-x,1/2-y,z
1/2+x,-y,1/2-z
-x,1/2+y,1/2-z
-x,-y,-z
1/2+x,1/2+y,-z
1/2-x,y,1/2+z
x,1/2-y,1/2+z
loop_
_atom_site_type_symbol
_atom_site_label
_atom_site_fract_x
_atom_site_fract_y
_atom_site_fract_z
Si Si1 0.864853 0.633963 0.761179
Si Si2 0.950174 0.253296 0.119630
Si Si3 0.402604 0.991830 0.659644
Si Si4 0.363998 0.137263 0.993615
Si Si5 0.788685 0.114563 0.454635
O O1 0.750000 0.750000 0.738366
O O2 0.746583 0.526961 0.791460
O O3 0.006608 0.677587 0.812591
O O4 0.948017 0.577088 0.697036
O O5 0.750000 0.250000 0.110122
O O6 0.026746 0.112380 0.120530
O O7 0.046543 0.328170 0.062343
O O8 0.323964 0.890680 0.609652
O O9 0.250000 0.250000 0.967038
O O10 0.251153 0.009435 0.000585
O O11 0.509827 0.110861 0.940373
O O12 0.750000 0.250000 0.490079
#
# Coordination Sequence:
#
# PCOD8229046 Si02
#       5
#     8   8   8   8   8
#     4  10  22  40  67 101 136 186 226 280 346 415
#     4  11  21  41  70  99 134 190 230 274 349 420
#     4  11  22  44  67 102 141 178 233 288 340 416
#     4  11  22  48  72  96 139 184 235 284 351 421
#     4  11  25  43  69 104 136 175 231 300 338 406
#
# _framework density 23.231311999999999
#
# number of rings (size 3 to 8) (size 9 to 14) (size 15 to 20)
#    0.000    1.200    4.000    2.400    0.000    4.800 
#   10.800    0.000    0.000    0.000    0.000    0.000 
#    0.000    0.000    0.000    0.000    0.000    0.000 
#
# Total GULP energy -495901.014944 kJ/mol
# GULP energy per Si atom -12397.525374 kJ/mol
# Density = 2.317844 g / cm^3
# Si number density = 23.231312 Si / 1000 Ang^3
#
#
#
# Elastic Constant Matrix: (Units=GPa)
#
#
# Indices 1 2 3 4 5 6 
#
# 1 104.3128 42.9280 36.8971 0.0000 0.0000 0.0000
# 2 42.9280 148.5811 29.3717 0.0000 0.0000 0.0000
# 3 36.8971 29.3717 50.8932 0.0000 0.0000 0.0000
# 4 0.0000 0.0000 0.0000 9.8450 0.0000 0.0000
# 5 0.0000 0.0000 0.0000 0.0000 35.2820 0.0000
# 6 0.0000 0.0000 0.0000 0.0000 0.0000 44.0407
#
#
#
# Elastic Compliance Matrix: (Units=1/GPa)
#
#
# Indices 1 2 3 4 5 6 
#
# 1 0.013512 -0.002221 -0.008515 0.000000 0.000000 0.000000
# 2 -0.002221 0.007962 -0.002985 0.000000 0.000000 0.000000
# 3 -0.008515 -0.002985 0.027545 0.000000 0.000000 0.000000
# 4 0.000000 0.000000 0.000000 0.101575 0.000000 0.000000
# 5 0.000000 0.000000 0.000000 0.000000 0.028343 0.000000
# 6 0.000000 0.000000 0.000000 0.000000 0.000000 0.022706
#
#
# Mechanical properties :
#
#
# Convention : Reuss Voigt Hill
#
# Bulk Modulus (GPa) = 46.34309 58.02006 52.18157
# Shear Modulus (GPa) = 21.16165 30.80622 25.98394
#
# Velocity S-wave (km/s) = 3.02140 3.64547 3.34801
# Velocity P-wave (km/s) = 5.67130 6.53823 6.12013
#
# Compressibility (1/GPa) = 0.02157819
#
# Stress axis : x y z
#
# Youngs Moduli (GPa) = 74.00716 125.59589 36.30465
#
# Poissons Ratio (x) = 0.27892 0.30912
# Poissons Ratio (y) = 0.16435 0.10837
# Poissons Ratio (z) = 0.63014 0.37491
#
# Static dielectric constant tensor:
#      x y z
#    x 4.348920 0.000000 0.000000 
#    y 0.000000 4.479170 0.000000 
#    z 0.000000 0.000000 3.822070 
# 
# 
# High freq. dielectric constant tensor:
#      x y z
#    x 1.928820 0.000000 0.000000 
#    y 0.000000 1.938130 0.000000 
#    z 0.000000 0.000000 1.888450 
# 
# From -- ./inp_files/17995.got.cif
#   From: 2010.03.12/outbox.cif.g09.slc.cpg/sg56_9_cif.got.tgz:17995.got - 2010.04.16 15:33:40.
