data_PCOD8229975
_publ_section_title
;
Structure prediction by ZEFSAII (Michael W. Deem and Ramdas Pophale) SiO2 
 PCOD8229975
Probable space group: P B C M
;
_chemical_formula_sum "Si O2"
_cell_formula_units_Z 56
_cell_length_a 13.736511
_cell_length_b 28.414745
_cell_length_c 8.678098
_cell_angle_alpha 90.000000
_cell_angle_beta 90.000000
_cell_angle_gamma 90.000000
_cell_volume 3387.230501
_symmetry_space_group_name_H-M "P B C M"
_symmetry_group_IT_number 57
_symmetry_cell_setting 'orthorhombic'
loop_
_space_group_symop_operation_xyz
x,y,z
-x,-y,1/2+z
x,1/2-y,-z
-x,1/2+y,1/2-z
-x,-y,-z
x,y,1/2-z
-x,1/2+y,z
x,1/2-y,1/2+z
loop_
_atom_site_type_symbol
_atom_site_label
_atom_site_fract_x
_atom_site_fract_y
_atom_site_fract_z
Si Si1 0.418572 0.889265 0.931969
Si Si2 0.602000 0.945900 0.932388
Si Si3 0.100514 0.016537 0.068239
Si Si4 0.293239 0.537518 0.568438
Si Si5 0.209886 0.395425 0.932104
Si Si6 0.508762 0.799462 0.432937
Si Si7 0.721136 0.701559 0.067789
O O1 0.421970 0.881503 0.750000
O O2 0.501132 0.925207 0.995804
O O3 0.316417 0.913265 0.982206
O O4 0.432454 0.839131 0.013769
O O5 0.601799 0.942411 0.750000
O O6 0.688161 0.913651 0.000791
O O7 0.623673 0.999636 0.982310
O O8 0.091354 0.015910 0.250000
O O9 0.123426 0.070166 0.008206
O O10 0.187389 0.981545 0.016199
O O11 0.000000 0.000000 0.000000
O O12 0.294963 0.546213 0.750000
O O13 0.213560 0.401275 0.750000
O O14 0.201949 0.340081 0.976508
O O15 0.470665 0.750000 0.500000
O O16 0.513462 0.796803 0.250000
O O17 0.615890 0.810514 0.498342
O O18 0.708352 0.706241 0.250000
O O19 0.763824 0.750000 0.000000
#
# Coordination Sequence:
#
# PCOD8229975 Si02
#       7
#     8   8   8   8   8   8   8
#     4  11  19  29  46  67  93 125 159 194 230 271
#     4   8  14  26  43  62  90 125 157 184 219 268
#     4   9  18  33  52  70  92 121 155 195 242 290
#     4   9  18  31  46  66  92 123 156 190 232 281
#     4   8  14  27  46  65  90 127 157 184 230 284
#     4  11  21  32  45  64  92 127 165 199 232 271
#     4  10  17  28  45  65  93 125 160 193 228 272
#
# _framework density 16.532679999999999
#
# number of rings (size 3 to 8) (size 9 to 14) (size 15 to 20)
#    0.000    2.571    1.429    5.143    0.000    0.571 
#    0.000    2.143    0.000    0.000    0.000    1.000 
#    0.000    4.571    0.000    0.000    0.000    0.000 
#
# Total GULP energy -693857.948418 kJ/mol
# GULP energy per Si atom -12390.320507 kJ/mol
# Density = 1.649505 g / cm^3
# Si number density = 16.532680 Si / 1000 Ang^3
#
#
#
# Elastic Constant Matrix: (Units=GPa)
#
#
# Indices 1 2 3 4 5 6 
#
# 1 72.5984 64.8013 25.1444 0.0000 0.0000 0.0000
# 2 64.8013 151.0429 45.3014 0.0000 0.0000 0.0000
# 3 25.1444 45.3014 63.6550 0.0000 0.0000 0.0000
# 4 0.0000 0.0000 0.0000 23.4255 0.0000 0.0000
# 5 0.0000 0.0000 0.0000 0.0000 20.2549 0.0000
# 6 0.0000 0.0000 0.0000 0.0000 0.0000 26.9975
#
#
#
# Elastic Compliance Matrix: (Units=1/GPa)
#
#
# Indices 1 2 3 4 5 6 
#
# 1 0.022652 -0.008944 -0.002583 0.000000 0.000000 0.000000
# 2 -0.008944 0.011948 -0.004971 0.000000 0.000000 0.000000
# 3 -0.002583 -0.004971 0.020267 0.000000 0.000000 0.000000
# 4 0.000000 0.000000 0.000000 0.042689 0.000000 0.000000
# 5 0.000000 0.000000 0.000000 0.000000 0.049371 0.000000
# 6 0.000000 0.000000 0.000000 0.000000 0.000000 0.037040
#
#
# Mechanical properties :
#
#
# Convention : Reuss Voigt Hill
#
# Bulk Modulus (GPa) = 45.71687 61.97670 53.84679
# Shear Modulus (GPa) = 22.29625 24.27221 23.28423
#
# Velocity S-wave (km/s) = 3.67634 3.83578 3.75690
# Velocity P-wave (km/s) = 6.76262 7.56217 7.17354
#
# Compressibility (1/GPa) = 0.02187376
#
# Stress axis : x y z
#
# Youngs Moduli (GPa) = 44.14600 83.69260 49.34053
#
# Poissons Ratio (x) = 0.74852 0.12744
# Poissons Ratio (y) = 0.39483 0.24525
# Poissons Ratio (z) = 0.11402 0.41600
#
# Static dielectric constant tensor:
#      x y z
#    x 3.215120 0.000000 0.000000 
#    y 0.000000 3.461240 0.000000 
#    z 0.000000 0.000000 2.883770 
# 
# 
# High freq. dielectric constant tensor:
#      x y z
#    x 1.588180 0.000000 0.000000 
#    y 0.000000 1.646230 0.000000 
#    z 0.000000 0.000000 1.622650 
# 
# From -- ./inp_files/5877.got.cif
#   From: 2010.03.12/outbox.cif.g09.slc.cpg/sg57_3_cif.got.tgz:5877.got - 2010.04.16 15:48:40.
