data_PCOD8229674
_publ_section_title
;
Structure prediction by ZEFSAII (Michael W. Deem and Ramdas Pophale) SiO2 
 PCOD8229674
Probable space group: P C C N
;
_chemical_formula_sum "Si O2"
_cell_formula_units_Z 56
_cell_length_a 19.733591
_cell_length_b 9.065226
_cell_length_c 14.110857
_cell_angle_alpha 90.000000
_cell_angle_beta 90.000000
_cell_angle_gamma 90.000000
_cell_volume 2524.283620
_symmetry_space_group_name_H-M "P C C N"
_symmetry_group_IT_number 56
_symmetry_cell_setting 'orthorhombic'
loop_
_space_group_symop_operation_xyz
x,y,z
1/2-x,1/2-y,z
1/2+x,-y,1/2-z
-x,1/2+y,1/2-z
-x,-y,-z
1/2+x,1/2+y,-z
1/2-x,y,1/2+z
x,1/2-y,1/2+z
loop_
_atom_site_type_symbol
_atom_site_label
_atom_site_fract_x
_atom_site_fract_y
_atom_site_fract_z
Si Si1 0.552528 0.073266 0.431566
Si Si2 0.250000 0.750000 0.160870
Si Si3 0.147860 0.889642 0.804932
Si Si4 0.007245 0.130575 0.218312
Si Si5 0.695459 0.463518 0.994832
Si Si6 0.462538 0.911304 0.080488
Si Si7 0.750000 0.750000 0.937212
Si Si8 0.375785 0.139920 0.174687
O O1 0.622012 0.993795 0.456930
O O2 0.559258 0.247544 0.450694
O O3 0.500000 0.000000 0.500000
O O4 0.530367 0.027397 0.325560
O O5 0.313686 0.790007 0.227386
O O6 0.267295 0.618185 0.090704
O O7 0.070286 0.830560 0.813141
O O8 0.146176 0.062899 0.773940
O O9 0.188100 0.877490 0.905019
O O10 0.057561 0.259764 0.186082
O O11 0.012913 0.106043 0.330431
O O12 0.737906 0.613580 0.007913
O O13 0.395075 0.001563 0.107073
O O14 0.500000 0.000000 0.000000
O O15 0.685649 0.769101 0.868517
#
# Coordination Sequence:
#
# PCOD8229674 Si02
#       8
#     8   4   8   8   8   8   4   8
#     4  12  24  44  72 105 137 191 243 299 372 433
#     4  12  26  50  72 108 150 192 254 302 372 448
#     4  11  25  46  76 107 147 196 247 302 376 447
#     4  11  23  45  76 102 147 188 245 306 368 433
#     4  12  26  47  76 102 149 196 248 307 367 453
#     4  11  25  41  69 107 146 183 236 305 363 439
#     4  12  26  46  72 104 148 200 240 314 366 436
#     4  11  24  48  69 108 149 188 249 303 363 440
#
# _framework density 22.184511000000001
#
# number of rings (size 3 to 8) (size 9 to 14) (size 15 to 20)
#    0.000    0.571    4.286    4.714    0.000    0.571 
#    0.000    0.000    0.000    0.000    0.000    0.000 
#    0.000    0.000    0.000    0.000    0.000    0.000 
#
# Total GULP energy -694249.969738 kJ/mol
# GULP energy per Si atom -12397.320888 kJ/mol
# Density = 2.213402 g / cm^3
# Si number density = 22.184511 Si / 1000 Ang^3
#
#
#
# Elastic Constant Matrix: (Units=GPa)
#
#
# Indices 1 2 3 4 5 6 
#
# 1 111.0776 49.9279 38.0147 0.0000 0.0000 0.0000
# 2 49.9279 126.9761 41.2844 0.0000 0.0000 0.0000
# 3 38.0147 41.2844 126.2044 0.0000 0.0000 0.0000
# 4 0.0000 0.0000 0.0000 33.4832 0.0000 0.0000
# 5 0.0000 0.0000 0.0000 0.0000 34.1944 0.0000
# 6 0.0000 0.0000 0.0000 0.0000 0.0000 40.8387
#
#
#
# Elastic Compliance Matrix: (Units=1/GPa)
#
#
# Indices 1 2 3 4 5 6 
#
# 1 0.011463 -0.003787 -0.002214 0.000000 0.000000 0.000000
# 2 -0.003787 0.010064 -0.002151 0.000000 0.000000 0.000000
# 3 -0.002214 -0.002151 0.009294 0.000000 0.000000 0.000000
# 4 0.000000 0.000000 0.000000 0.029866 0.000000 0.000000
# 5 0.000000 0.000000 0.000000 0.000000 0.029245 0.000000
# 6 0.000000 0.000000 0.000000 0.000000 0.000000 0.024487
#
#
# Mechanical properties :
#
#
# Convention : Reuss Voigt Hill
#
# Bulk Modulus (GPa) = 68.88975 69.19025 69.04000
# Shear Modulus (GPa) = 36.88346 37.37200 37.12773
#
# Velocity S-wave (km/s) = 4.08189 4.10884 4.09539
# Velocity P-wave (km/s) = 7.30317 7.33255 7.31788
#
# Compressibility (1/GPa) = 0.01451595
#
# Stress axis : x y z
#
# Youngs Moduli (GPa) = 87.23892 99.36160 107.59330
#
# Poissons Ratio (x) = 0.37633 0.23819
# Poissons Ratio (y) = 0.33041 0.23148
# Poissons Ratio (z) = 0.19313 0.21377
#
# Static dielectric constant tensor:
#      x y z
#    x 3.834270 0.000000 0.000000 
#    y 0.000000 5.269780 0.000000 
#    z 0.000000 0.000000 4.571210 
# 
# 
# High freq. dielectric constant tensor:
#      x y z
#    x 1.879230 0.000000 0.000000 
#    y 0.000000 1.877580 0.000000 
#    z 0.000000 0.000000 1.874080 
# 
# From -- ./inp_files/13095.got.cif
#   From: 2010.03.12/outbox.cif.g09.slc.cpg/sg56_7_cif.got.tgz:13095.got - 2010.04.16 15:33:40.
