data_PCOD8229438
_publ_section_title
;
Structure prediction by ZEFSAII (Michael W. Deem and Ramdas Pophale) SiO2 
 PCOD8229438
Probable space group: P C C N
;
_chemical_formula_sum "Si O2"
_cell_formula_units_Z 56
_cell_length_a 14.872213
_cell_length_b 14.233869
_cell_length_c 11.755227
_cell_angle_alpha 90.000000
_cell_angle_beta 90.000000
_cell_angle_gamma 90.000000
_cell_volume 2488.453795
_symmetry_space_group_name_H-M "P C C N"
_symmetry_group_IT_number 56
_symmetry_cell_setting 'orthorhombic'
loop_
_space_group_symop_operation_xyz
x,y,z
1/2-x,1/2-y,z
1/2+x,-y,1/2-z
-x,1/2+y,1/2-z
-x,-y,-z
1/2+x,1/2+y,-z
1/2-x,y,1/2+z
x,1/2-y,1/2+z
loop_
_atom_site_type_symbol
_atom_site_label
_atom_site_fract_x
_atom_site_fract_y
_atom_site_fract_z
Si Si1 0.558868 0.747954 0.106319
Si Si2 0.094984 0.687745 0.761915
Si Si3 0.328191 0.061357 0.209325
Si Si4 0.786757 0.416440 0.417205
Si Si5 0.750000 0.750000 0.206168
Si Si6 0.412126 0.452921 0.950922
Si Si7 0.250000 0.750000 0.914813
Si Si8 0.012770 0.096472 0.558906
O O1 0.497195 0.737586 0.220080
O O2 0.660666 0.776064 0.136005
O O3 0.569458 0.656297 0.027291
O O4 0.504298 0.822210 0.033252
O O5 0.139571 0.642447 0.651167
O O6 0.163090 0.756413 0.830868
O O7 0.065474 0.605778 0.847690
O O8 0.263254 0.151074 0.228152
O O9 0.388143 0.099781 0.108276
O O10 0.281771 0.963069 0.172632
O O11 0.391661 0.035149 0.316561
O O12 0.827077 0.505912 0.482664
O O13 0.742516 0.343734 0.507284
O O14 0.500000 0.500000 0.000000
O O15 0.000000 0.000000 0.500000
#
# Coordination Sequence:
#
# PCOD8229438 Si02
#       8
#     8   8   8   8   4   8   4   8
#     4  11  26  48  76 107 149 196 249 313 380 449
#     4  12  25  51  70 111 147 196 249 305 379 443
#     4  11  26  46  72 112 144 199 247 311 377 445
#     4  12  26  45  77 108 146 199 252 310 370 457
#     4  10  24  48  74 106 146 192 246 306 372 448
#     4  11  23  48  73 107 144 194 253 299 377 451
#     4  12  28  48  76 108 156 198 248 312 382 458
#     4  12  27  46  72 108 150 189 250 313 383 448
#
# _framework density 22.503934000000001
#
# number of rings (size 3 to 8) (size 9 to 14) (size 15 to 20)
#    0.000    0.571    4.286    3.000    8.000    2.286 
#    0.000    0.000    0.000    0.000    0.000    0.000 
#    0.000    0.000    0.000    0.000    0.000    0.000 
#
# Total GULP energy -694066.132838 kJ/mol
# GULP energy per Si atom -12394.038086 kJ/mol
# Density = 2.245271 g / cm^3
# Si number density = 22.503934 Si / 1000 Ang^3
#
#
#
# Elastic Constant Matrix: (Units=GPa)
#
#
# Indices 1 2 3 4 5 6 
#
# 1 118.4216 41.9665 48.9396 0.0000 0.0000 0.0000
# 2 41.9665 138.3480 61.5199 0.0000 0.0000 0.0000
# 3 48.9396 61.5199 116.4299 0.0000 0.0000 0.0000
# 4 0.0000 0.0000 0.0000 40.9760 0.0000 0.0000
# 5 0.0000 0.0000 0.0000 0.0000 45.1671 0.0000
# 6 0.0000 0.0000 0.0000 0.0000 0.0000 42.3717
#
#
#
# Elastic Compliance Matrix: (Units=1/GPa)
#
#
# Indices 1 2 3 4 5 6 
#
# 1 0.010482 -0.001595 -0.003563 0.000000 0.000000 0.000000
# 2 -0.001595 0.009691 -0.004450 0.000000 0.000000 0.000000
# 3 -0.003563 -0.004450 0.012438 0.000000 0.000000 0.000000
# 4 0.000000 0.000000 0.000000 0.024405 0.000000 0.000000
# 5 0.000000 0.000000 0.000000 0.000000 0.022140 0.000000
# 6 0.000000 0.000000 0.000000 0.000000 0.000000 0.023601
#
#
# Mechanical properties :
#
#
# Convention : Reuss Voigt Hill
#
# Bulk Modulus (GPa) = 74.65893 75.33905 74.99899
# Shear Modulus (GPa) = 39.54518 40.42119 39.98319
#
# Velocity S-wave (km/s) = 4.19651 4.24274 4.21969
# Velocity P-wave (km/s) = 7.53186 7.58630 7.55913
#
# Compressibility (1/GPa) = 0.01339425
#
# Stress axis : x y z
#
# Youngs Moduli (GPa) = 95.39925 103.19020 80.39954
#
# Poissons Ratio (x) = 0.16461 0.28648
# Poissons Ratio (y) = 0.15219 0.35778
# Poissons Ratio (z) = 0.33992 0.45919
#
# Static dielectric constant tensor:
#      x y z
#    x 3.235410 0.000000 0.000000 
#    y 0.000000 3.661410 0.000000 
#    z 0.000000 0.000000 4.209430 
# 
# 
# High freq. dielectric constant tensor:
#      x y z
#    x 1.900880 0.000000 0.000000 
#    y 0.000000 1.887880 0.000000 
#    z 0.000000 0.000000 1.893930 
# 
# From -- ./inp_files/7932.got.cif
#   From: 2010.03.12/outbox.cif.g09.slc.cpg/sg56_4_cif.got.tgz:7932.got - 2010.04.16 15:33:40.
