data_PCOD8229264
_publ_section_title
;
Structure prediction by ZEFSAII (Michael W. Deem and Ramdas Pophale) SiO2 
 PCOD8229264
Probable space group: P C C N
;
_chemical_formula_sum "Si O2"
_cell_formula_units_Z 40
_cell_length_a 15.711218
_cell_length_b 9.662859
_cell_length_c 12.022913
_cell_angle_alpha 90.000000
_cell_angle_beta 90.000000
_cell_angle_gamma 90.000000
_cell_volume 1825.261955
_symmetry_space_group_name_H-M "P C C N"
_symmetry_group_IT_number 56
_symmetry_cell_setting 'orthorhombic'
loop_
_space_group_symop_operation_xyz
x,y,z
1/2-x,1/2-y,z
1/2+x,-y,1/2-z
-x,1/2+y,1/2-z
-x,-y,-z
1/2+x,1/2+y,-z
1/2-x,y,1/2+z
x,1/2-y,1/2+z
loop_
_atom_site_type_symbol
_atom_site_label
_atom_site_fract_x
_atom_site_fract_y
_atom_site_fract_z
Si Si1 0.990593 0.359085 0.063899
Si Si2 0.626065 0.562559 0.263009
Si Si3 0.831280 0.182308 0.114777
Si Si4 0.246119 0.039052 0.533087
Si Si5 0.133971 0.246104 0.942671
O O1 0.894415 0.305880 0.077589
O O2 0.038631 0.386571 0.180689
O O3 0.000000 0.500000 0.000000
O O4 0.036512 0.246780 0.983725
O O5 0.614191 0.421820 0.191588
O O6 0.703021 0.527774 0.346348
O O7 0.650245 0.685676 0.179207
O O8 0.750000 0.250000 0.178683
O O9 0.787509 0.104868 0.008684
O O10 0.320586 0.153075 0.537347
O O11 0.174040 0.098494 0.446903
#
# Coordination Sequence:
#
# PCOD8229264 Si02
#       5
#     8   8   8   8   8
#     4  11  25  43  65  94 140 174 220 287 334 396
#     4  10  23  42  68  98 129 182 223 275 340 404
#     4  11  24  43  65 100 134 176 228 278 345 402
#     4   9  20  40  66  98 132 173 218 286 324 398
#     4   9  20  40  67  93 132 176 229 264 335 403
#
# _framework density 21.914662
#
# number of rings (size 3 to 8) (size 9 to 14) (size 15 to 20)
#    0.000    2.000    0.000    2.400    2.800   18.400 
#    3.600    0.000    0.000    0.000    0.000    0.000 
#    0.000    0.000    0.000    0.000    0.000    0.000 
#
# Total GULP energy -495528.872610 kJ/mol
# GULP energy per Si atom -12388.221815 kJ/mol
# Density = 2.186478 g / cm^3
# Si number density = 21.914662 Si / 1000 Ang^3
#
#
#
# Elastic Constant Matrix: (Units=GPa)
#
#
# Indices 1 2 3 4 5 6 
#
# 1 150.1782 53.9254 43.6023 0.0000 0.0000 0.0000
# 2 53.9254 114.1460 48.7459 0.0000 0.0000 0.0000
# 3 43.6023 48.7459 110.1256 0.0000 0.0000 0.0000
# 4 0.0000 0.0000 0.0000 30.6226 0.0000 0.0000
# 5 0.0000 0.0000 0.0000 0.0000 23.7229 0.0000
# 6 0.0000 0.0000 0.0000 0.0000 0.0000 42.0005
#
#
#
# Elastic Compliance Matrix: (Units=1/GPa)
#
#
# Indices 1 2 3 4 5 6 
#
# 1 0.008336 -0.003118 -0.001920 0.000000 0.000000 0.000000
# 2 -0.003118 0.011969 -0.004063 0.000000 0.000000 0.000000
# 3 -0.001920 -0.004063 0.011639 0.000000 0.000000 0.000000
# 4 0.000000 0.000000 0.000000 0.032656 0.000000 0.000000
# 5 0.000000 0.000000 0.000000 0.000000 0.042153 0.000000
# 6 0.000000 0.000000 0.000000 0.000000 0.000000 0.023809
#
#
# Mechanical properties :
#
#
# Convention : Reuss Voigt Hill
#
# Bulk Modulus (GPa) = 72.77542 74.11077 73.44309
# Shear Modulus (GPa) = 32.60591 34.48095 33.54343
#
# Velocity S-wave (km/s) = 3.86146 3.97094 3.91658
# Velocity P-wave (km/s) = 7.29122 7.41052 7.35111
#
# Compressibility (1/GPa) = 0.01374090
#
# Stress axis : x y z
#
# Youngs Moduli (GPa) = 119.96310 83.54893 85.91448
#
# Poissons Ratio (x) = 0.26051 0.16498
# Poissons Ratio (y) = 0.37405 0.34911
# Poissons Ratio (z) = 0.23036 0.33950
#
# Static dielectric constant tensor:
#      x y z
#    x 4.284750 0.000000 0.000000 
#    y 0.000000 4.086250 0.000000 
#    z 0.000000 0.000000 2.760850 
# 
# 
# High freq. dielectric constant tensor:
#      x y z
#    x 1.867300 0.000000 0.000000 
#    y 0.000000 1.870900 0.000000 
#    z 0.000000 0.000000 1.838940 
# 
# From -- ./inp_files/7680.got.cif
#   From: 2010.03.12/outbox.cif.g09.slc.cpg/sg56_4_cif.got.tgz:7680.got - 2010.04.16 15:33:40.
