data_PCOD8229337
_publ_section_title
;
Structure prediction by ZEFSAII (Michael W. Deem and Ramdas Pophale) SiO2 
 PCOD8229337
Probable space group: P C C N
;
_chemical_formula_sum "Si O2"
_cell_formula_units_Z 44
_cell_length_a 14.930450
_cell_length_b 14.589226
_cell_length_c 8.704002
_cell_angle_alpha 90.000000
_cell_angle_beta 90.000000
_cell_angle_gamma 90.000000
_cell_volume 1895.938002
_symmetry_space_group_name_H-M "P C C N"
_symmetry_group_IT_number 56
_symmetry_cell_setting 'orthorhombic'
loop_
_space_group_symop_operation_xyz
x,y,z
1/2-x,1/2-y,z
1/2+x,-y,1/2-z
-x,1/2+y,1/2-z
-x,-y,-z
1/2+x,1/2+y,-z
1/2-x,y,1/2+z
x,1/2-y,1/2+z
loop_
_atom_site_type_symbol
_atom_site_label
_atom_site_fract_x
_atom_site_fract_y
_atom_site_fract_z
Si Si1 0.857089 0.020786 0.991401
Si Si2 0.750000 0.750000 0.253531
Si Si3 0.156238 0.366489 0.992679
Si Si4 0.688907 0.441118 0.641775
Si Si5 0.477448 0.364126 0.967687
Si Si6 0.480985 0.675404 0.380812
O O1 0.876446 0.910192 0.019701
O O2 0.826962 0.035434 0.817028
O O3 0.792835 0.080631 0.106571
O O4 0.952517 0.062672 0.029680
O O5 0.701189 0.672504 0.353076
O O6 0.826184 0.702650 0.148419
O O7 0.050072 0.382753 0.016410
O O8 0.190574 0.468028 0.964608
O O9 0.620185 0.361740 0.583781
O O10 0.494065 0.279318 0.079745
O O11 0.499537 0.335078 0.796860
#
# Coordination Sequence:
#
# PCOD8229337 Si02
#       6
#     8   4   8   8   8   8
#     4  10  25  47  69  99 139 181 226 282 340 405
#     4  10  24  38  64  94 136 182 224 278 348 402
#     4  11  23  40  60  98 132 174 220 280 336 412
#     4  11  25  43  68  98 134 178 224 278 342 409
#     4  10  25  47  69  99 139 181 226 282 340 405
#     4  11  25  43  68  98 134 178 224 278 342 409
#
# _framework density 23.207509000000002
#
# number of rings (size 3 to 8) (size 9 to 14) (size 15 to 20)
#    0.000    1.455    0.000    2.727   15.273    2.182 
#    0.000    3.636    0.000    0.000    0.000    0.000 
#    0.000    0.000    0.000    0.000    0.000    0.000 
#
# Total GULP energy -545121.144614 kJ/mol
# GULP energy per Si atom -12389.116923 kJ/mol
# Density = 2.315469 g / cm^3
# Si number density = 23.207509 Si / 1000 Ang^3
#
#
#
# Elastic Constant Matrix: (Units=GPa)
#
#
# Indices 1 2 3 4 5 6 
#
# 1 122.7271 9.4500 34.1664 0.0000 0.0000 0.0000
# 2 9.4500 39.5212 10.7452 0.0000 0.0000 0.0000
# 3 34.1664 10.7452 73.2432 0.0000 0.0000 0.0000
# 4 0.0000 0.0000 0.0000 81.7409 0.0000 0.0000
# 5 0.0000 0.0000 0.0000 0.0000 25.1360 0.0000
# 6 0.0000 0.0000 0.0000 0.0000 0.0000 44.6421
#
#
#
# Elastic Compliance Matrix: (Units=1/GPa)
#
#
# Indices 1 2 3 4 5 6 
#
# 1 0.009410 -0.001100 -0.004228 0.000000 0.000000 0.000000
# 2 -0.001100 0.026483 -0.003372 0.000000 0.000000 0.000000
# 3 -0.004228 -0.003372 0.016120 0.000000 0.000000 0.000000
# 4 0.000000 0.000000 0.000000 0.012234 0.000000 0.000000
# 5 0.000000 0.000000 0.000000 0.000000 0.039784 0.000000
# 6 0.000000 0.000000 0.000000 0.000000 0.000000 0.022400
#
#
# Mechanical properties :
#
#
# Convention : Reuss Voigt Hill
#
# Bulk Modulus (GPa) = 28.89166 38.24607 33.56886
# Shear Modulus (GPa) = 32.18148 42.37911 37.28030
#
# Velocity S-wave (km/s) = 3.72786 4.27792 4.01233
# Velocity P-wave (km/s) = 5.56826 6.39661 5.99676
#
# Compressibility (1/GPa) = 0.03461207
#
# Stress axis : x y z
#
# Youngs Moduli (GPa) = 106.27020 37.76038 62.03425
#
# Poissons Ratio (x) = 0.04156 0.26229
# Poissons Ratio (y) = 0.11695 0.20917
# Poissons Ratio (z) = 0.44932 0.12732
#
# Static dielectric constant tensor:
#      x y z
#    x 4.733310 0.000000 0.000000 
#    y 0.000000 4.289910 0.000000 
#    z 0.000000 0.000000 4.086690 
# 
# 
# High freq. dielectric constant tensor:
#      x y z
#    x 1.936210 0.000000 0.000000 
#    y 0.000000 1.911320 0.000000 
#    z 0.000000 0.000000 1.918560 
# 
# From -- ./inp_files/3339.got.cif
#   From: 2010.03.12/outbox.cif.g09.slc.cpg/sg56_2_cif.got.tgz:3339.got - 2010.04.16 15:33:40.
