data_PCOD8229443
_publ_section_title
;
Structure prediction by ZEFSAII (Michael W. Deem and Ramdas Pophale) SiO2 
 PCOD8229443
Probable space group: P C C N
;
_chemical_formula_sum "Si O2"
_cell_formula_units_Z 60
_cell_length_a 30.343002
_cell_length_b 10.321327
_cell_length_c 8.801911
_cell_angle_alpha 90.000000
_cell_angle_beta 90.000000
_cell_angle_gamma 90.000000
_cell_volume 2756.582890
_symmetry_space_group_name_H-M "P C C N"
_symmetry_group_IT_number 56
_symmetry_cell_setting 'orthorhombic'
loop_
_space_group_symop_operation_xyz
x,y,z
1/2-x,1/2-y,z
1/2+x,-y,1/2-z
-x,1/2+y,1/2-z
-x,-y,-z
1/2+x,1/2+y,-z
1/2-x,y,1/2+z
x,1/2-y,1/2+z
loop_
_atom_site_type_symbol
_atom_site_label
_atom_site_fract_x
_atom_site_fract_y
_atom_site_fract_z
Si Si1 0.021178 0.841451 0.631473
Si Si2 0.569677 0.949443 0.067365
Si Si3 0.794042 0.089099 0.973384
Si Si4 0.882391 0.985520 0.866459
Si Si5 0.750000 0.250000 0.720511
Si Si6 0.292953 0.174124 0.355852
Si Si7 0.647568 0.699081 0.413164
Si Si8 0.459443 0.912490 0.466597
O O1 0.038559 0.701874 0.587413
O O2 0.040019 0.861331 0.797589
O O3 0.967496 0.847860 0.627406
O O4 0.042829 0.943098 0.519910
O O5 0.594977 0.019172 0.205939
O O6 0.604323 0.882438 0.954149
O O7 0.788549 0.193941 0.109898
O O8 0.780121 0.946939 0.035870
O O9 0.765125 0.130487 0.826892
O O10 0.843333 0.084830 0.907861
O O11 0.866843 0.838584 0.852130
O O12 0.916098 0.001681 0.005653
O O13 0.250000 0.250000 0.294351
O O14 0.323627 0.125888 0.216344
O O15 0.320911 0.283179 0.443224
O O16 0.500000 0.000000 0.500000
#
# Coordination Sequence:
#
# PCOD8229443 Si02
#       8
#     8   8   8   8   4   8   8   8
#     4  11  27  42  71 105 135 193 231 290 355 419
#     4  11  24  45  68 101 145 182 238 284 357 420
#     4  10  26  45  75 101 141 186 241 286 358 425
#     4  11  24  46  66 106 135 185 236 293 345 427
#     4  10  24  52  70 102 140 196 230 292 356 428
#     4  11  25  43  69 111 139 183 236 299 359 429
#     4  11  24  42  71 101 141 186 226 293 360 418
#     4  12  25  45  71  99 145 180 236 292 350 421
#
# _framework density 21.766078
#
# number of rings (size 3 to 8) (size 9 to 14) (size 15 to 20)
#    0.000    1.067    2.667    2.000   11.200    2.133 
#    2.400    0.000    0.000    0.000    0.000    0.000 
#    0.000    0.000    0.000    0.000    0.000    0.000 
#
# Total GULP energy -743944.129702 kJ/mol
# GULP energy per Si atom -12399.068828 kJ/mol
# Density = 2.171654 g / cm^3
# Si number density = 21.766078 Si / 1000 Ang^3
#
#
#
# Elastic Constant Matrix: (Units=GPa)
#
#
# Indices 1 2 3 4 5 6 
#
# 1 137.8987 35.7212 59.1242 0.0000 0.0000 0.0000
# 2 35.7212 72.0029 29.4521 0.0000 0.0000 0.0000
# 3 59.1242 29.4521 141.2182 0.0000 0.0000 0.0000
# 4 0.0000 0.0000 0.0000 62.2559 0.0000 0.0000
# 5 0.0000 0.0000 0.0000 0.0000 43.2294 0.0000
# 6 0.0000 0.0000 0.0000 0.0000 0.0000 113.5015
#
#
#
# Elastic Compliance Matrix: (Units=1/GPa)
#
#
# Indices 1 2 3 4 5 6 
#
# 1 0.009539 -0.003388 -0.003287 0.000000 0.000000 0.000000
# 2 -0.003388 0.016387 -0.001999 0.000000 0.000000 0.000000
# 3 -0.003287 -0.001999 0.008874 0.000000 0.000000 0.000000
# 4 0.000000 0.000000 0.000000 0.016063 0.000000 0.000000
# 5 0.000000 0.000000 0.000000 0.000000 0.023132 0.000000
# 6 0.000000 0.000000 0.000000 0.000000 0.000000 0.008810
#
#
# Mechanical properties :
#
#
# Convention : Reuss Voigt Hill
#
# Bulk Modulus (GPa) = 57.30050 66.63498 61.96774
# Shear Modulus (GPa) = 47.18301 58.91885 53.05093
#
# Velocity S-wave (km/s) = 4.66094 5.20844 4.94228
# Velocity P-wave (km/s) = 7.43966 8.17625 7.81664
#
# Compressibility (1/GPa) = 0.01745185
#
# Stress axis : x y z
#
# Youngs Moduli (GPa) = 104.83779 61.02496 112.68385
#
# Poissons Ratio (x) = 0.20673 0.37039
# Poissons Ratio (y) = 0.35515 0.22528
# Poissons Ratio (z) = 0.34460 0.12200
#
# Static dielectric constant tensor:
#      x y z
#    x 4.102550 0.000000 0.000000 
#    y 0.000000 3.766660 0.000000 
#    z 0.000000 0.000000 3.963630 
# 
# 
# High freq. dielectric constant tensor:
#      x y z
#    x 1.863500 0.000000 0.000000 
#    y 0.000000 1.843450 0.000000 
#    z 0.000000 0.000000 1.872160 
# 
# From -- ./inp_files/4964.got.cif
#   From: 2010.03.12/outbox.cif.g09.slc.cpg/sg56_3_cif.got.tgz:4964.got - 2010.04.16 15:33:40.
