data_PCOD8229339
_publ_section_title
;
Structure prediction by ZEFSAII (Michael W. Deem and Ramdas Pophale) SiO2 
 PCOD8229339
Probable space group: P C C N
;
_chemical_formula_sum "Si O2"
_cell_formula_units_Z 60
_cell_length_a 10.658677
_cell_length_b 28.289324
_cell_length_c 8.776369
_cell_angle_alpha 90.000000
_cell_angle_beta 90.000000
_cell_angle_gamma 90.000000
_cell_volume 2646.310171
_symmetry_space_group_name_H-M "P C C N"
_symmetry_group_IT_number 56
_symmetry_cell_setting 'orthorhombic'
loop_
_space_group_symop_operation_xyz
x,y,z
1/2-x,1/2-y,z
1/2+x,-y,1/2-z
-x,1/2+y,1/2-z
-x,-y,-z
1/2+x,1/2+y,-z
1/2-x,y,1/2+z
x,1/2-y,1/2+z
loop_
_atom_site_type_symbol
_atom_site_label
_atom_site_fract_x
_atom_site_fract_y
_atom_site_fract_z
Si Si1 0.651173 0.584966 0.334243
Si Si2 0.873205 0.543179 0.157579
Si Si3 0.250000 0.250000 0.502227
Si Si4 0.120346 0.907166 0.681405
Si Si5 0.861075 0.812290 0.253175
Si Si6 0.105415 0.789157 0.136545
Si Si7 0.630124 0.304760 0.220743
Si Si8 0.875694 0.434211 0.153949
O O1 0.756021 0.549507 0.270276
O O2 0.646026 0.577373 0.514466
O O3 0.700204 0.638113 0.301687
O O4 0.510897 0.575908 0.264933
O O5 0.875357 0.489054 0.105925
O O6 0.008913 0.556811 0.231863
O O7 0.302341 0.207473 0.402271
O O8 0.145679 0.226554 0.612257
O O9 0.075200 0.856266 0.744085
O O10 0.134835 0.903554 0.499545
O O11 0.257077 0.922378 0.741370
O O12 0.003595 0.824242 0.207797
O O13 0.060309 0.735484 0.179077
O O14 0.226723 0.803808 0.228605
O O15 0.121624 0.793614 0.957216
#
# Coordination Sequence:
#
# PCOD8229339 Si02
#       8
#     8   8   4   8   8   8   8   8
#     4  11  24  41  67  93 129 165 215 259 314 385
#     4  11  24  43  66  95 127 166 208 266 323 379
#     4  10  24  40  62  88 126 162 216 256 308 370
#     4  11  24  41  67  93 129 165 215 259 314 386
#     4  11  23  42  62  91 123 171 208 260 311 367
#     4  11  23  39  62  88 130 163 209 256 312 370
#     4  11  23  39  61  95 124 170 208 256 311 373
#     4  11  23  44  66  95 127 166 208 266 323 380
#
# _framework density 22.673081
#
# number of rings (size 3 to 8) (size 9 to 14) (size 15 to 20)
#    0.000    1.067    0.000    8.000    0.000   10.667 
#    0.000    2.667    0.000    0.000    0.000    0.000 
#    0.000    0.000    0.000    0.000    0.000    0.000 
#
# Total GULP energy -743872.353177 kJ/mol
# GULP energy per Si atom -12397.872553 kJ/mol
# Density = 2.262148 g / cm^3
# Si number density = 22.673081 Si / 1000 Ang^3
#
#
#
# Elastic Constant Matrix: (Units=GPa)
#
#
# Indices 1 2 3 4 5 6 
#
# 1 114.0068 3.2793 32.8220 0.0000 0.0000 0.0000
# 2 3.2793 110.6818 42.0007 0.0000 0.0000 0.0000
# 3 32.8220 42.0007 110.6643 0.0000 0.0000 0.0000
# 4 0.0000 0.0000 0.0000 1.1944 0.0000 0.0000
# 5 0.0000 0.0000 0.0000 0.0000 27.4168 0.0000
# 6 0.0000 0.0000 0.0000 0.0000 0.0000 28.8167
#
#
#
# Elastic Compliance Matrix: (Units=1/GPa)
#
#
# Indices 1 2 3 4 5 6 
#
# 1 0.009673 0.000937 -0.003224 0.000000 0.000000 0.000000
# 2 0.000937 0.010646 -0.004318 0.000000 0.000000 0.000000
# 3 -0.003224 -0.004318 0.011632 0.000000 0.000000 0.000000
# 4 0.000000 0.000000 0.000000 0.837219 0.000000 0.000000
# 5 0.000000 0.000000 0.000000 0.000000 0.036474 0.000000
# 6 0.000000 0.000000 0.000000 0.000000 0.000000 0.034702
#
#
# Mechanical properties :
#
#
# Convention : Reuss Voigt Hill
#
# Bulk Modulus (GPa) = 53.36574 54.61743 53.99159
# Shear Modulus (GPa) = 5.20940 28.63566 16.92253
#
# Velocity S-wave (km/s) = 1.51743 3.55770 2.73494
# Velocity P-wave (km/s) = 5.16317 6.40451 5.81704
#
# Compressibility (1/GPa) = 0.01873861
#
# Stress axis : x y z
#
# Youngs Moduli (GPa) = 103.38310 93.93343 85.97241
#
# Poissons Ratio (x) = -0.08802 0.27722
# Poissons Ratio (y) = -0.09687 0.37126
# Poissons Ratio (z) = 0.33336 0.40564
#
# Static dielectric constant tensor:
#      x y z
#    x 4.363300 0.000000 0.000000 
#    y 0.000000 4.430680 0.000000 
#    z 0.000000 0.000000 3.897840 
# 
# 
# High freq. dielectric constant tensor:
#      x y z
#    x 1.903170 0.000000 0.000000 
#    y 0.000000 1.903720 0.000000 
#    z 0.000000 0.000000 1.888060 
# 
# From -- ./inp_files/2906.got.cif
#   From: 2010.03.12/outbox.cif.g09.slc.cpg/sg56_2_cif.got.tgz:2906.got - 2010.04.16 15:33:40.
