data_PCOD8229633
_publ_section_title
;
Structure prediction by ZEFSAII (Michael W. Deem and Ramdas Pophale) SiO2 
 PCOD8229633
Probable space group: P C C N
;
_chemical_formula_sum "Si O2"
_cell_formula_units_Z 60
_cell_length_a 11.536706
_cell_length_b 11.611159
_cell_length_c 19.886506
_cell_angle_alpha 90.000000
_cell_angle_beta 90.000000
_cell_angle_gamma 90.000000
_cell_volume 2663.887519
_symmetry_space_group_name_H-M "P C C N"
_symmetry_group_IT_number 56
_symmetry_cell_setting 'orthorhombic'
loop_
_space_group_symop_operation_xyz
x,y,z
1/2-x,1/2-y,z
1/2+x,-y,1/2-z
-x,1/2+y,1/2-z
-x,-y,-z
1/2+x,1/2+y,-z
1/2-x,y,1/2+z
x,1/2-y,1/2+z
loop_
_atom_site_type_symbol
_atom_site_label
_atom_site_fract_x
_atom_site_fract_y
_atom_site_fract_z
Si Si1 0.695788 0.130254 0.446268
Si Si2 0.674418 0.465992 0.742483
Si Si3 0.250000 0.750000 0.841374
Si Si4 0.055992 0.331151 0.794645
Si Si5 0.360229 0.510693 0.647350
Si Si6 0.433706 0.616350 0.920101
Si Si7 0.500818 0.601980 0.155416
Si Si8 0.611196 0.745565 0.351665
O O1 0.750000 0.250000 0.469693
O O2 0.801512 0.045769 0.424571
O O3 0.611380 0.084209 0.505456
O O4 0.613965 0.145806 0.382285
O O5 0.718995 0.355203 0.705639
O O6 0.657472 0.575017 0.692142
O O7 0.759582 0.512090 0.799170
O O8 0.545248 0.443134 0.772510
O O9 0.355399 0.715661 0.888305
O O10 0.083261 0.212911 0.834090
O O11 0.051347 0.300499 0.714831
O O12 0.937221 0.385231 0.823588
O O13 0.427119 0.388549 0.638089
O O14 0.425155 0.495822 0.880835
O O15 0.562662 0.673654 0.913599
O O16 0.750000 0.750000 0.351055
#
# Coordination Sequence:
#
# PCOD8229633 Si02
#       8
#     8   8   4   8   8   8   8   8
#     4  11  23  48  71 100 132 191 247 292 339 420
#     4  11  23  39  65 101 138 184 216 283 354 434
#     4  12  26  42  66 104 146 186 234 294 360 428
#     4  12  22  39  68 104 144 176 220 288 361 431
#     4  11  23  43  70 100 139 180 238 281 356 422
#     4  12  25  46  71 101 139 189 246 291 347 418
#     4  11  23  40  67  99 137 180 233 283 349 421
#     4  12  24  43  67 107 148 187 227 294 368 428
#
# _framework density 22.523474
#
# number of rings (size 3 to 8) (size 9 to 14) (size 15 to 20)
#    0.000    0.533    4.667    5.200    3.733    0.000 
#    0.000    2.000    0.000    2.400    0.000    0.000 
#    0.000    0.000    0.000    0.000    0.000    0.000 
#
# Total GULP energy -743692.987873 kJ/mol
# GULP energy per Si atom -12394.883131 kJ/mol
# Density = 2.247221 g / cm^3
# Si number density = 22.523474 Si / 1000 Ang^3
#
#
#
# Elastic Constant Matrix: (Units=GPa)
#
#
# Indices 1 2 3 4 5 6 
#
# 1 74.4922 45.7218 37.8997 0.0000 0.0000 0.0000
# 2 45.7218 169.6920 40.9285 0.0000 0.0000 0.0000
# 3 37.8997 40.9285 80.9385 0.0000 0.0000 0.0000
# 4 0.0000 0.0000 0.0000 22.4178 0.0000 0.0000
# 5 0.0000 0.0000 0.0000 0.0000 37.5998 0.0000
# 6 0.0000 0.0000 0.0000 0.0000 0.0000 41.2511
#
#
#
# Elastic Compliance Matrix: (Units=1/GPa)
#
#
# Indices 1 2 3 4 5 6 
#
# 1 0.019226 -0.003427 -0.007270 0.000000 0.000000 0.000000
# 2 -0.003427 0.007322 -0.002098 0.000000 0.000000 0.000000
# 3 -0.007270 -0.002098 0.016820 0.000000 0.000000 0.000000
# 4 0.000000 0.000000 0.000000 0.044607 0.000000 0.000000
# 5 0.000000 0.000000 0.000000 0.000000 0.026596 0.000000
# 6 0.000000 0.000000 0.000000 0.000000 0.000000 0.024242
#
#
# Mechanical properties :
#
#
# Convention : Reuss Voigt Hill
#
# Bulk Modulus (GPa) = 56.24574 63.80254 60.02414
# Shear Modulus (GPa) = 29.35476 33.62524 31.49000
#
# Velocity S-wave (km/s) = 3.61404 3.86800 3.74317
# Velocity P-wave (km/s) = 6.51470 6.95249 6.73715
#
# Compressibility (1/GPa) = 0.01777912
#
# Stress axis : x y z
#
# Youngs Moduli (GPa) = 52.01209 136.56687 59.45248
#
# Poissons Ratio (x) = 0.46800 0.43221
# Poissons Ratio (y) = 0.17824 0.12474
# Poissons Ratio (z) = 0.37812 0.28653
#
# Static dielectric constant tensor:
#      x y z
#    x 4.061210 0.000000 0.000000 
#    y 0.000000 4.462850 0.000000 
#    z 0.000000 0.000000 3.895470 
# 
# 
# High freq. dielectric constant tensor:
#      x y z
#    x 1.880620 0.000000 0.000000 
#    y 0.000000 1.916570 0.000000 
#    z 0.000000 0.000000 1.852270 
# 
# From -- ./inp_files/18832.got.cif
#   From: 2010.03.12/outbox.cif.g09.slc.cpg/sg56_10_cif.got.tgz:18832.got - 2010.04.16 15:33:40.
