data_PCOD8229903
_publ_section_title
;
Structure prediction by ZEFSAII (Michael W. Deem and Ramdas Pophale) SiO2 
 PCOD8229903
Probable space group: P B C M
;
_chemical_formula_sum "Si O2"
_cell_formula_units_Z 64
_cell_length_a 20.034412
_cell_length_b 5.173384
_cell_length_c 32.218263
_cell_angle_alpha 90.000000
_cell_angle_beta 90.000000
_cell_angle_gamma 90.000000
_cell_volume 3339.284631
_symmetry_space_group_name_H-M "P B C M"
_symmetry_group_IT_number 57
_symmetry_cell_setting 'orthorhombic'
loop_
_space_group_symop_operation_xyz
x,y,z
-x,-y,1/2+z
x,1/2-y,-z
-x,1/2+y,1/2-z
-x,-y,-z
x,y,1/2-z
-x,1/2+y,z
x,1/2-y,1/2+z
loop_
_atom_site_type_symbol
_atom_site_label
_atom_site_fract_x
_atom_site_fract_y
_atom_site_fract_z
Si Si1 0.683265 0.002163 0.027606
Si Si2 0.326239 0.450703 0.325791
Si Si3 0.221228 0.467672 0.396855
Si Si4 0.730103 0.037746 0.795023
Si Si5 0.530558 0.008268 0.046443
Si Si6 0.043634 0.939436 0.203180
Si Si7 0.839014 0.481057 0.138361
Si Si8 0.540111 0.398123 0.797453
O O1 0.747053 0.983840 0.057711
O O2 0.610726 0.027690 0.049205
O O3 0.681530 0.750000 0.000000
O O4 0.696778 0.250000 0.000000
O O5 0.287502 0.443559 0.369046
O O6 0.291686 0.666257 0.297031
O O7 0.402447 0.539620 0.331031
O O8 0.328688 0.169674 0.303761
O O9 0.176516 0.718592 0.386433
O O10 0.169971 0.224717 0.392954
O O11 0.760511 0.989678 0.750000
O O12 0.786108 0.959917 0.826709
O O13 0.496932 0.252993 0.069687
O O14 0.500000 0.000000 0.000000
O O15 0.076223 0.962242 0.250000
O O16 0.091982 0.972385 0.163559
O O17 0.012981 0.655151 0.198741
O O18 0.566858 0.427777 0.750000
O O19 0.481897 0.604943 0.805355
#
# Coordination Sequence:
#
# PCOD8229903 Si02
#       8
#     8   8   8   8   8   8   8   8
#     4  12  21  35  58  79 107 136 184 237 283 348
#     4  10  20  34  47  66 100 123 169 217 262 319
#     4  10  23  37  53  78 106 148 175 219 283 327
#     4  10  18  29  51  73  93 134 176 209 250 299
#     4  10  16  30  49  75 102 129 167 219 271 351
#     4  10  20  34  57  90 124 160 198 229 258 301
#     4  10  20  37  53  76 120 149 177 220 262 321
#     4  10  19  30  46  63  85 120 164 217 267 306
#
# _framework density 19.165780999999999
#
# number of rings (size 3 to 8) (size 9 to 14) (size 15 to 20)
#    0.000    1.750    2.500    3.750    0.000    1.000 
#    0.000    5.000    0.000    0.000    0.000    0.000 
#    0.000   35.000    0.000    0.000    0.000    0.000 
#
# Total GULP energy -792992.885043 kJ/mol
# GULP energy per Si atom -12390.513829 kJ/mol
# Density = 1.912216 g / cm^3
# Si number density = 19.165781 Si / 1000 Ang^3
#
#
#
# Elastic Constant Matrix: (Units=GPa)
#
#
# Indices 1 2 3 4 5 6 
#
# 1 67.2748 5.6607 21.0410 0.0000 0.0000 0.0000
# 2 5.6607 98.2779 18.9989 0.0000 0.0000 0.0000
# 3 21.0410 18.9989 39.6868 0.0000 0.0000 0.0000
# 4 0.0000 0.0000 0.0000 1.7823 0.0000 0.0000
# 5 0.0000 0.0000 0.0000 0.0000 74.4267 0.0000
# 6 0.0000 0.0000 0.0000 0.0000 0.0000 24.8132
#
#
#
# Elastic Compliance Matrix: (Units=1/GPa)
#
#
# Indices 1 2 3 4 5 6 
#
# 1 0.017889 0.000885 -0.009908 0.000000 0.000000 0.000000
# 2 0.000885 0.011257 -0.005858 0.000000 0.000000 0.000000
# 3 -0.009908 -0.005858 0.033255 0.000000 0.000000 0.000000
# 4 0.000000 0.000000 0.000000 0.561061 0.000000 0.000000
# 5 0.000000 0.000000 0.000000 0.000000 0.013436 0.000000
# 6 0.000000 0.000000 0.000000 0.000000 0.000000 0.040301
#
#
# Mechanical properties :
#
#
# Convention : Reuss Voigt Hill
#
# Bulk Modulus (GPa) = 30.63890 32.96009 31.79949
# Shear Modulus (GPa) = 6.96535 30.84036 18.90286
#
# Velocity S-wave (km/s) = 1.90844 4.01576 3.14392
# Velocity P-wave (km/s) = 4.56915 6.22386 5.45956
#
# Compressibility (1/GPa) = 0.03263825
#
# Stress axis : x y z
#
# Youngs Moduli (GPa) = 55.90111 88.83591 30.07108
#
# Poissons Ratio (x) = -0.07862 0.29794
# Poissons Ratio (y) = -0.04947 0.17616
# Poissons Ratio (z) = 0.55386 0.52040
#
# Static dielectric constant tensor:
#      x y z
#    x 3.283030 0.000000 0.000000 
#    y 0.000000 4.625130 0.000000 
#    z 0.000000 0.000000 3.241260 
# 
# 
# High freq. dielectric constant tensor:
#      x y z
#    x 1.716830 0.000000 0.000000 
#    y 0.000000 1.777290 0.000000 
#    z 0.000000 0.000000 1.707460 
# 
# From -- ./inp_files/29956.got.cif
#   From: 2010.03.12/outbox.cif.g09.slc.cpg/sg57_15_cif.got.tgz:29956.got - 2010.04.16 15:48:40.
