data_PCOD8229847
_publ_section_title
;
Structure prediction by ZEFSAII (Michael W. Deem and Ramdas Pophale) SiO2 
 PCOD8229847
Probable space group: P C C N
;
_chemical_formula_sum "Si O2"
_cell_formula_units_Z 20
_cell_length_a 6.273975
_cell_length_b 4.961241
_cell_length_c 25.814397
_cell_angle_alpha 90.000000
_cell_angle_beta 90.000000
_cell_angle_gamma 90.000000
_cell_volume 803.517043
_symmetry_space_group_name_H-M "P C C N"
_symmetry_group_IT_number 56
_symmetry_cell_setting 'orthorhombic'
loop_
_space_group_symop_operation_xyz
x,y,z
1/2-x,1/2-y,z
1/2+x,-y,1/2-z
-x,1/2+y,1/2-z
-x,-y,-z
1/2+x,1/2+y,-z
1/2-x,y,1/2+z
x,1/2-y,1/2+z
loop_
_atom_site_type_symbol
_atom_site_label
_atom_site_fract_x
_atom_site_fract_y
_atom_site_fract_z
Si Si1 0.597131 0.496903 0.556840
Si Si2 0.529987 0.131977 0.716123
Si Si3 0.750000 0.750000 0.872691
O O1 0.750000 0.250000 0.563866
O O2 0.500000 0.500000 0.500000
O O3 0.392749 0.459638 0.594294
O O4 0.750000 0.750000 0.569274
O O5 0.750000 0.250000 0.695097
O O6 0.420387 0.364171 0.751380
O O7 0.392888 0.062994 0.665135
#
# Coordination Sequence:
#
# PCOD8229847 Si02
#       3
#     8   8   4
#     4  12  28  51  80 116 158 205 265 328 398 479
#     4  12  25  48  73 107 151 199 257 321 386 469
#     4  12  28  48  84 110 160 210 262 328 412 462
#
# _framework density 24.890577
#
# number of rings (size 3 to 8) (size 9 to 14) (size 15 to 20)
#    0.000    0.000    6.000    2.400    0.000    9.600 
#    0.000    0.000    0.000    0.000    0.000    0.000 
#    0.000    0.000    0.000    0.000    0.000    0.000 
#
# Total GULP energy -247931.278332 kJ/mol
# GULP energy per Si atom -12396.563917 kJ/mol
# Density = 2.483392 g / cm^3
# Si number density = 24.890577 Si / 1000 Ang^3
#
#
#
# Elastic Constant Matrix: (Units=GPa)
#
#
# Indices 1 2 3 4 5 6 
#
# 1 191.6973 72.0857 97.7938 0.0000 0.0000 0.0000
# 2 72.0857 164.7244 57.7928 0.0000 0.0000 0.0000
# 3 97.7938 57.7928 187.1818 0.0000 0.0000 0.0000
# 4 0.0000 0.0000 0.0000 18.5235 0.0000 0.0000
# 5 0.0000 0.0000 0.0000 0.0000 73.1407 0.0000
# 6 0.0000 0.0000 0.0000 0.0000 0.0000 58.1783
#
#
#
# Elastic Compliance Matrix: (Units=1/GPa)
#
#
# Indices 1 2 3 4 5 6 
#
# 1 0.007773 -0.002217 -0.003376 0.000000 0.000000 0.000000
# 2 -0.002217 0.007440 -0.001139 0.000000 0.000000 0.000000
# 3 -0.003376 -0.001139 0.007458 0.000000 0.000000 0.000000
# 4 0.000000 0.000000 0.000000 0.053986 0.000000 0.000000
# 5 0.000000 0.000000 0.000000 0.000000 0.013672 0.000000
# 6 0.000000 0.000000 0.000000 0.000000 0.000000 0.017189
#
#
# Mechanical properties :
#
#
# Convention : Reuss Voigt Hill
#
# Bulk Modulus (GPa) = 108.61725 110.99423 109.80574
# Shear Modulus (GPa) = 40.30599 51.03056 45.66827
#
# Velocity S-wave (km/s) = 4.02845 4.53282 4.28806
# Velocity P-wave (km/s) = 8.08520 8.49029 8.29022
#
# Compressibility (1/GPa) = 0.00920664
#
# Stress axis : x y z
#
# Youngs Moduli (GPa) = 128.65666 134.39958 134.08239
#
# Poissons Ratio (x) = 0.29794 0.45271
# Poissons Ratio (y) = 0.28521 0.15273
# Poissons Ratio (z) = 0.43440 0.15309
#
# Static dielectric constant tensor:
#      x y z
#    x 5.091670 0.000000 0.000000 
#    y 0.000000 4.294160 0.000000 
#    z 0.000000 0.000000 4.597980 
# 
# 
# High freq. dielectric constant tensor:
#      x y z
#    x 2.034770 0.000000 0.000000 
#    y 0.000000 1.979020 0.000000 
#    z 0.000000 0.000000 1.998180 
# 
# From -- ./inp_files/21417.got.cif
#   From: 2010.03.12/outbox.cif.g09.slc.cpg/sg56_11_cif.got.tgz:21417.got - 2010.04.16 15:33:40.
