data_PCOD8229293
_publ_section_title
;
Structure prediction by ZEFSAII (Michael W. Deem and Ramdas Pophale) SiO2 
 PCOD8229293
Probable space group: P C C N
;
_chemical_formula_sum "Si O2"
_cell_formula_units_Z 48
_cell_length_a 9.014154
_cell_length_b 16.675170
_cell_length_c 14.457389
_cell_angle_alpha 90.000000
_cell_angle_beta 90.000000
_cell_angle_gamma 90.000000
_cell_volume 2173.127012
_symmetry_space_group_name_H-M "P C C N"
_symmetry_group_IT_number 56
_symmetry_cell_setting 'orthorhombic'
loop_
_space_group_symop_operation_xyz
x,y,z
1/2-x,1/2-y,z
1/2+x,-y,1/2-z
-x,1/2+y,1/2-z
-x,-y,-z
1/2+x,1/2+y,-z
1/2-x,y,1/2+z
x,1/2-y,1/2+z
loop_
_atom_site_type_symbol
_atom_site_label
_atom_site_fract_x
_atom_site_fract_y
_atom_site_fract_z
Si Si1 0.719855 0.012546 0.626199
Si Si2 0.016940 0.061212 0.720819
Si Si3 0.420741 0.267928 0.443237
Si Si4 0.382286 0.066325 0.025932
Si Si5 0.880143 0.313106 0.575848
Si Si6 0.076562 0.740898 0.738291
O O1 0.870781 0.014343 0.686180
O O2 0.686028 0.098603 0.582146
O O3 0.586132 0.983522 0.690982
O O4 0.737362 0.952132 0.537674
O O5 0.969168 0.148969 0.752783
O O6 0.139569 0.063894 0.637458
O O7 0.250000 0.250000 0.433323
O O8 0.449291 0.346761 0.503770
O O9 0.502935 0.192867 0.492036
O O10 0.485509 0.283570 0.342187
O O11 0.500000 0.000000 0.000000
O O12 0.750000 0.250000 0.556711
O O13 0.965188 0.290104 0.670000
O O14 0.250000 0.750000 0.716577
#
# Coordination Sequence:
#
# PCOD8229293 Si02
#       6
#     8   8   8   8   8   8
#     4  11  24  41  69 104 135 179 230 283 338 408
#     4  11  23  44  68  99 140 179 226 280 345 402
#     4  12  26  43  69 103 137 177 226 287 349 396
#     4  10  23  44  66  96 137 179 219 280 343 403
#     4  11  22  47  69  98 137 185 234 274 333 414
#     4  11  23  43  70  95 132 181 233 269 334 418
#
# _framework density 22.087986000000001
#
# number of rings (size 3 to 8) (size 9 to 14) (size 15 to 20)
#    0.000    1.000    5.000    2.500    4.667    3.333 
#    0.000    2.500    0.000    0.000    0.000    0.000 
#    0.000    0.000    0.000    0.000    0.000    0.000 
#
# Total GULP energy -595203.203323 kJ/mol
# GULP energy per Si atom -12400.066736 kJ/mol
# Density = 2.203771 g / cm^3
# Si number density = 22.087986 Si / 1000 Ang^3
#
#
#
# Elastic Constant Matrix: (Units=GPa)
#
#
# Indices 1 2 3 4 5 6 
#
# 1 83.7114 24.5006 44.6765 0.0000 0.0000 0.0000
# 2 24.5006 94.5159 22.2105 0.0000 0.0000 0.0000
# 3 44.6765 22.2105 97.0350 0.0000 0.0000 0.0000
# 4 0.0000 0.0000 0.0000 22.6296 0.0000 0.0000
# 5 0.0000 0.0000 0.0000 0.0000 15.5486 0.0000
# 6 0.0000 0.0000 0.0000 0.0000 0.0000 29.1715
#
#
#
# Elastic Compliance Matrix: (Units=1/GPa)
#
#
# Indices 1 2 3 4 5 6 
#
# 1 0.016430 -0.002622 -0.006965 0.000000 0.000000 0.000000
# 2 -0.002622 0.011600 -0.001448 0.000000 0.000000 0.000000
# 3 -0.006965 -0.001448 0.013844 0.000000 0.000000 0.000000
# 4 0.000000 0.000000 0.000000 0.044190 0.000000 0.000000
# 5 0.000000 0.000000 0.000000 0.000000 0.064314 0.000000
# 6 0.000000 0.000000 0.000000 0.000000 0.000000 0.034280
#
#
# Mechanical properties :
#
#
# Convention : Reuss Voigt Hill
#
# Bulk Modulus (GPa) = 50.49347 50.89304 50.69326
# Shear Modulus (GPa) = 23.43793 25.72826 24.58310
#
# Velocity S-wave (km/s) = 3.26101 3.41663 3.33973
# Velocity P-wave (km/s) = 6.09005 6.21736 6.15403
#
# Compressibility (1/GPa) = 0.01980454
#
# Stress axis : x y z
#
# Youngs Moduli (GPa) = 60.86322 86.20511 72.23604
#
# Poissons Ratio (x) = 0.22607 0.50309
# Poissons Ratio (y) = 0.15961 0.10458
# Poissons Ratio (z) = 0.42388 0.12480
#
# Static dielectric constant tensor:
#      x y z
#    x 3.863190 0.000000 0.000000 
#    y 0.000000 3.956990 0.000000 
#    z 0.000000 0.000000 4.543620 
# 
# 
# High freq. dielectric constant tensor:
#      x y z
#    x 1.854930 0.000000 0.000000 
#    y 0.000000 1.875020 0.000000 
#    z 0.000000 0.000000 1.883560 
# 
# From -- ./inp_files/10624.got.cif
#   From: 2010.03.12/outbox.cif.g09.slc.cpg/sg56_6_cif.got.tgz:10624.got - 2010.04.16 15:33:40.
