data_PCOD8229314
_publ_section_title
;
Structure prediction by ZEFSAII (Michael W. Deem and Ramdas Pophale) SiO2 
 PCOD8229314
Probable space group: P C C N
;
_chemical_formula_sum "Si O2"
_cell_formula_units_Z 36
_cell_length_a 7.839211
_cell_length_b 8.259870
_cell_length_c 22.201144
_cell_angle_alpha 90.000000
_cell_angle_beta 90.000000
_cell_angle_gamma 90.000000
_cell_volume 1437.543251
_symmetry_space_group_name_H-M "P C C N"
_symmetry_group_IT_number 56
_symmetry_cell_setting 'orthorhombic'
loop_
_space_group_symop_operation_xyz
x,y,z
1/2-x,1/2-y,z
1/2+x,-y,1/2-z
-x,1/2+y,1/2-z
-x,-y,-z
1/2+x,1/2+y,-z
1/2-x,y,1/2+z
x,1/2-y,1/2+z
loop_
_atom_site_type_symbol
_atom_site_label
_atom_site_fract_x
_atom_site_fract_y
_atom_site_fract_z
Si Si1 0.250000 0.250000 0.468396
Si Si2 0.815676 0.420444 0.835378
Si Si3 0.673907 0.922066 0.226503
Si Si4 0.666922 0.033171 0.607451
Si Si5 0.978112 0.836836 0.425561
O O1 0.133157 0.361243 0.424458
O O2 0.108222 0.161771 0.509016
O O3 0.750000 0.250000 0.864036
O O4 0.669541 0.475964 0.788393
O O5 0.849219 0.558142 0.884931
O O6 0.985754 0.395159 0.797315
O O7 0.750000 0.750000 0.242843
O O8 0.789790 0.016986 0.177706
O O9 0.504140 0.152017 0.599692
O O10 0.833783 0.091509 0.570907
#
# Coordination Sequence:
#
# PCOD8229314 Si02
#       5
#     4   8   8   8   8
#     4  12  22  44  70 102 130 188 236 294 340 430
#     4  11  26  45  69 103 139 183 235 291 361 435
#     4  11  24  42  71 100 141 181 228 292 357 434
#     4  10  23  46  68 100 141 184 229 290 362 410
#     4  10  25  44  69  99 139 180 233 290 350 422
#
# _framework density 25.042725000000001
#
# number of rings (size 3 to 8) (size 9 to 14) (size 15 to 20)
#    0.000    1.333    1.111    2.667   10.889    1.778 
#   12.000    0.000    0.000    0.000    0.000    0.000 
#    0.000    0.000    0.000    0.000    0.000    0.000 
#
# Total GULP energy -446295.452618 kJ/mol
# GULP energy per Si atom -12397.095906 kJ/mol
# Density = 2.498573 g / cm^3
# Si number density = 25.042725 Si / 1000 Ang^3
#
#
#
# Elastic Constant Matrix: (Units=GPa)
#
#
# Indices 1 2 3 4 5 6 
#
# 1 83.8628 23.0842 7.3107 0.0000 0.0000 0.0000
# 2 23.0842 163.9689 54.0654 0.0000 0.0000 0.0000
# 3 7.3107 54.0654 81.4145 0.0000 0.0000 0.0000
# 4 0.0000 0.0000 0.0000 35.5848 0.0000 0.0000
# 5 0.0000 0.0000 0.0000 0.0000 30.7046 0.0000
# 6 0.0000 0.0000 0.0000 0.0000 0.0000 54.7405
#
#
#
# Elastic Compliance Matrix: (Units=1/GPa)
#
#
# Indices 1 2 3 4 5 6 
#
# 1 0.012405 -0.001766 0.000059 0.000000 0.000000 0.000000
# 2 -0.001766 0.008060 -0.005194 0.000000 0.000000 0.000000
# 3 0.000059 -0.005194 0.015727 0.000000 0.000000 0.000000
# 4 0.000000 0.000000 0.000000 0.028102 0.000000 0.000000
# 5 0.000000 0.000000 0.000000 0.000000 0.032568 0.000000
# 6 0.000000 0.000000 0.000000 0.000000 0.000000 0.018268
#
#
# Mechanical properties :
#
#
# Convention : Reuss Voigt Hill
#
# Bulk Modulus (GPa) = 44.66311 55.35187 50.00749
# Shear Modulus (GPa) = 36.65822 40.52504 38.59163
#
# Velocity S-wave (km/s) = 3.83015 4.02709 3.92986
# Velocity P-wave (km/s) = 6.11830 6.61621 6.37212
#
# Compressibility (1/GPa) = 0.02238984
#
# Stress axis : x y z
#
# Youngs Moduli (GPa) = 80.61146 124.07158 63.58644
#
# Poissons Ratio (x) = 0.21909 -0.00373
# Poissons Ratio (y) = 0.14234 0.33025
# Poissons Ratio (z) = -0.00473 0.64440
#
# Static dielectric constant tensor:
#      x y z
#    x 4.556900 0.000000 0.000000 
#    y 0.000000 4.923650 0.000000 
#    z 0.000000 0.000000 4.363540 
# 
# 
# High freq. dielectric constant tensor:
#      x y z
#    x 1.999450 0.000000 0.000000 
#    y 0.000000 2.010400 0.000000 
#    z 0.000000 0.000000 1.991780 
# 
# From -- ./inp_files/17864.got.cif
#   From: 2010.03.12/outbox.cif.g09.slc.cpg/sg56_9_cif.got.tgz:17864.got - 2010.04.16 15:33:40.
