data_PCOD8229047
_publ_section_title
;
Structure prediction by ZEFSAII (Michael W. Deem and Ramdas Pophale) SiO2 
 PCOD8229047
Probable space group: P C C N
;
_chemical_formula_sum "Si O2"
_cell_formula_units_Z 40
_cell_length_a 19.023452
_cell_length_b 16.054219
_cell_length_c 5.114674
_cell_angle_alpha 90.000000
_cell_angle_beta 90.000000
_cell_angle_gamma 90.000000
_cell_volume 1562.055527
_symmetry_space_group_name_H-M "P C C N"
_symmetry_group_IT_number 56
_symmetry_cell_setting 'orthorhombic'
loop_
_space_group_symop_operation_xyz
x,y,z
1/2-x,1/2-y,z
1/2+x,-y,1/2-z
-x,1/2+y,1/2-z
-x,-y,-z
1/2+x,1/2+y,-z
1/2-x,y,1/2+z
x,1/2-y,1/2+z
loop_
_atom_site_type_symbol
_atom_site_label
_atom_site_fract_x
_atom_site_fract_y
_atom_site_fract_z
Si Si1 0.288302 0.564663 0.485797
Si Si2 0.055596 0.120275 0.630560
Si Si3 0.931422 0.433756 0.768070
Si Si4 0.211178 0.367914 0.994610
Si Si5 0.562532 0.299744 0.880789
O O1 0.259540 0.603957 0.217765
O O2 0.370067 0.586673 0.523159
O O3 0.278031 0.466280 0.488284
O O4 0.129328 0.155186 0.527884
O O5 0.002800 0.105673 0.384894
O O6 0.022040 0.187049 0.833741
O O7 0.064208 0.032343 0.784840
O O8 0.912119 0.390388 0.488341
O O9 0.257973 0.329164 0.228561
O O10 0.587714 0.268559 0.594916
#
# Coordination Sequence:
#
# PCOD8229047 Si02
#       5
#     8   8   8   8   8
#     4   9  19  34  56  89 126 159 198 257 322 372
#     4  10  22  40  67  98 126 162 216 269 313 372
#     4  10  22  40  67  98 126 162 216 269 313 372
#     4   9  19  34  56  89 126 159 198 257 322 372
#     4  12  25  42  61  90 128 168 206 256 317 376
#
# _framework density 25.607285000000001
#
# number of rings (size 3 to 8) (size 9 to 14) (size 15 to 20)
#    0.000    2.000    2.000    0.600    5.600    0.000 
#    0.000    0.000    0.000    7.200    0.000    0.000 
#    0.000    0.000    0.000    0.000    0.000    0.000 
#
# Total GULP energy -495527.750295 kJ/mol
# GULP energy per Si atom -12388.193757 kJ/mol
# Density = 2.554900 g / cm^3
# Si number density = 25.607285 Si / 1000 Ang^3
#
#
#
# Elastic Constant Matrix: (Units=GPa)
#
#
# Indices 1 2 3 4 5 6 
#
# 1 90.8524 -21.5172 10.7518 0.0000 0.0000 0.0000
# 2 -21.5172 30.5604 5.0167 0.0000 0.0000 0.0000
# 3 10.7518 5.0167 96.4363 0.0000 0.0000 0.0000
# 4 0.0000 0.0000 0.0000 8.9028 0.0000 0.0000
# 5 0.0000 0.0000 0.0000 0.0000 31.2014 0.0000
# 6 0.0000 0.0000 0.0000 0.0000 0.0000 13.4418
#
#
#
# Elastic Compliance Matrix: (Units=1/GPa)
#
#
# Indices 1 2 3 4 5 6 
#
# 1 0.013593 0.009904 -0.002031 0.000000 0.000000 0.000000
# 2 0.009904 0.040220 -0.003196 0.000000 0.000000 0.000000
# 3 -0.002031 -0.003196 0.010762 0.000000 0.000000 0.000000
# 4 0.000000 0.000000 0.000000 0.112324 0.000000 0.000000
# 5 0.000000 0.000000 0.000000 0.000000 0.032050 0.000000
# 6 0.000000 0.000000 0.000000 0.000000 0.000000 0.074395
#
#
# Mechanical properties :
#
#
# Convention : Reuss Voigt Hill
#
# Bulk Modulus (GPa) = 13.52659 22.92796 18.22727
# Shear Modulus (GPa) = 16.74297 25.61574 21.17935
#
# Velocity S-wave (km/s) = 2.55980 3.16623 2.87903
# Velocity P-wave (km/s) = 3.74573 4.72650 4.26441
#
# Compressibility (1/GPa) = 0.07392849
#
# Stress axis : x y z
#
# Youngs Moduli (GPa) = 73.56844 24.86324 92.91758
#
# Poissons Ratio (x) = -0.24624 0.18869
# Poissons Ratio (y) = -0.72861 0.29701
# Poissons Ratio (z) = 0.14939 0.07947
#
# Static dielectric constant tensor:
#      x y z
#    x 4.480580 0.000000 0.000000 
#    y 0.000000 4.552890 0.000000 
#    z 0.000000 0.000000 4.799990 
# 
# 
# High freq. dielectric constant tensor:
#      x y z
#    x 2.006680 0.000000 0.000000 
#    y 0.000000 2.005210 0.000000 
#    z 0.000000 0.000000 2.026840 
# 
# From -- ./inp_files/629.got.cif
#   From: 2010.03.12/outbox.cif.g09.slc.cpg/sg56_1_cif.got.tgz:629.got - 2010.04.16 15:33:40.
