data_PCOD8229016
_publ_section_title
;
Structure prediction by ZEFSAII (Michael W. Deem and Ramdas Pophale) SiO2 
 PCOD8229016
Probable space group: P C C N
;
_chemical_formula_sum "Si O2"
_cell_formula_units_Z 48
_cell_length_a 4.953677
_cell_length_b 27.915214
_cell_length_c 16.807329
_cell_angle_alpha 90.000000
_cell_angle_beta 90.000000
_cell_angle_gamma 90.000000
_cell_volume 2324.167095
_symmetry_space_group_name_H-M "P C C N"
_symmetry_group_IT_number 56
_symmetry_cell_setting 'orthorhombic'
loop_
_space_group_symop_operation_xyz
x,y,z
1/2-x,1/2-y,z
1/2+x,-y,1/2-z
-x,1/2+y,1/2-z
-x,-y,-z
1/2+x,1/2+y,-z
1/2-x,y,1/2+z
x,1/2-y,1/2+z
loop_
_atom_site_type_symbol
_atom_site_label
_atom_site_fract_x
_atom_site_fract_y
_atom_site_fract_z
Si Si1 0.234401 0.304987 0.925067
Si Si2 0.172625 0.371003 0.572417
Si Si3 0.154896 0.625725 0.820961
Si Si4 0.542051 0.978959 0.785782
Si Si5 0.253752 0.477725 0.543098
Si Si6 0.270143 0.805430 0.679034
O O1 0.250000 0.250000 0.950508
O O2 0.433281 0.316723 0.852682
O O3 0.938410 0.318049 0.891993
O O4 0.329647 0.332860 0.002528
O O5 0.385735 0.352891 0.638692
O O6 0.264448 0.420739 0.533472
O O7 0.880093 0.379399 0.610891
O O8 0.076018 0.574744 0.782460
O O9 0.276186 0.661225 0.755190
O O10 0.714853 0.991375 0.864448
O O11 0.777315 0.986730 0.719524
O O12 0.500000 0.500000 0.500000
O O13 0.000000 0.500000 0.500000
O O14 0.250000 0.750000 0.705601
#
# Coordination Sequence:
#
# PCOD8229016 Si02
#       6
#     8   8   8   8   8   8
#     4  10  22  40  61  88 120 153 195 243 291 349
#     4  11  23  40  60  88 120 154 196 242 291 348
#     4  11  23  40  61  88 121 154 196 244 292 349
#     4  11  23  40  60  87 120 156 198 243 290 346
#     4  11  23  40  59  85 119 155 196 242 290 346
#     4  10  22  40  61  88 119 152 194 242 291 348
#
# _framework density 20.652560000000001
#
# number of rings (size 3 to 8) (size 9 to 14) (size 15 to 20)
#    0.000    1.333    0.000    7.000    0.000    5.333 
#    0.000    0.000    0.000    0.000    0.000    0.000 
#    0.000    0.000    0.000    0.000    0.000    0.000 
#
# Total GULP energy -595172.295281 kJ/mol
# GULP energy per Si atom -12399.422818 kJ/mol
# Density = 2.060555 g / cm^3
# Si number density = 20.652560 Si / 1000 Ang^3
#
#
#
# Elastic Constant Matrix: (Units=GPa)
#
#
# Indices 1 2 3 4 5 6 
#
# 1 132.6705 48.8945 37.4416 0.0000 0.0000 0.0000
# 2 48.8945 104.7565 76.2508 0.0000 0.0000 0.0000
# 3 37.4416 76.2508 94.0851 0.0000 0.0000 0.0000
# 4 0.0000 0.0000 0.0000 30.6741 0.0000 0.0000
# 5 0.0000 0.0000 0.0000 0.0000 42.1026 0.0000
# 6 0.0000 0.0000 0.0000 0.0000 0.0000 28.8004
#
#
#
# Elastic Compliance Matrix: (Units=1/GPa)
#
#
# Indices 1 2 3 4 5 6 
#
# 1 0.009111 -0.003934 -0.000437 0.000000 0.000000 0.000000
# 2 -0.003934 0.024977 -0.018677 0.000000 0.000000 0.000000
# 3 -0.000437 -0.018677 0.025939 0.000000 0.000000 0.000000
# 4 0.000000 0.000000 0.000000 0.032601 0.000000 0.000000
# 5 0.000000 0.000000 0.000000 0.000000 0.023752 0.000000
# 6 0.000000 0.000000 0.000000 0.000000 0.000000 0.034722
#
#
# Mechanical properties :
#
#
# Convention : Reuss Voigt Hill
#
# Bulk Modulus (GPa) = 71.78514 72.96511 72.37513
# Shear Modulus (GPa) = 24.77213 31.57709 28.17461
#
# Velocity S-wave (km/s) = 3.46709 3.91444 3.69754
# Velocity P-wave (km/s) = 7.13173 7.47242 7.30406
#
# Compressibility (1/GPa) = 0.01393046
#
# Stress axis : x y z
#
# Youngs Moduli (GPa) = 109.76031 40.03756 38.55201
#
# Poissons Ratio (x) = 0.15751 0.01686
# Poissons Ratio (y) = 0.43181 0.72002
# Poissons Ratio (z) = 0.04800 0.74776
#
# Static dielectric constant tensor:
#      x y z
#    x 4.009820 0.000000 0.000000 
#    y 0.000000 3.688820 0.000000 
#    z 0.000000 0.000000 3.548050 
# 
# 
# High freq. dielectric constant tensor:
#      x y z
#    x 1.834290 0.000000 0.000000 
#    y 0.000000 1.802030 0.000000 
#    z 0.000000 0.000000 1.805830 
# 
# From -- ./inp_files/9667.got.cif
#   From: 2010.03.12/outbox.cif.g09.slc.cpg/sg56_5_cif.got.tgz:9667.got - 2010.04.16 15:33:40.
