data_PCOD8229575
_publ_section_title
;
Structure prediction by ZEFSAII (Michael W. Deem and Ramdas Pophale) SiO2 
 PCOD8229575
Probable space group: P C C N
;
_chemical_formula_sum "Si O2"
_cell_formula_units_Z 48
_cell_length_a 17.153617
_cell_length_b 16.336924
_cell_length_c 8.528080
_cell_angle_alpha 90.000000
_cell_angle_beta 90.000000
_cell_angle_gamma 90.000000
_cell_volume 2389.886431
_symmetry_space_group_name_H-M "P C C N"
_symmetry_group_IT_number 56
_symmetry_cell_setting 'orthorhombic'
loop_
_space_group_symop_operation_xyz
x,y,z
1/2-x,1/2-y,z
1/2+x,-y,1/2-z
-x,1/2+y,1/2-z
-x,-y,-z
1/2+x,1/2+y,-z
1/2-x,y,1/2+z
x,1/2-y,1/2+z
loop_
_atom_site_type_symbol
_atom_site_label
_atom_site_fract_x
_atom_site_fract_y
_atom_site_fract_z
Si Si1 0.005501 0.637149 0.068354
Si Si2 0.432790 0.448534 0.917168
Si Si3 0.259532 0.431531 0.978101
Si Si4 0.199170 0.178599 0.230087
Si Si5 0.896663 0.513878 0.932000
Si Si6 0.466670 0.202741 0.618034
O O1 0.023612 0.664598 0.248693
O O2 0.076393 0.577132 0.018984
O O3 0.926211 0.582686 0.056711
O O4 0.001279 0.712897 0.947484
O O5 0.344320 0.475555 0.966341
O O6 0.437293 0.458573 0.731028
O O7 0.500000 0.500000 0.000000
O O8 0.450189 0.355354 0.968905
O O9 0.216047 0.408162 0.816399
O O10 0.271525 0.342390 0.055801
O O11 0.197499 0.487839 0.073212
O O12 0.250000 0.250000 0.305589
O O13 0.111229 0.212495 0.224265
#
# Coordination Sequence:
#
# PCOD8229575 Si02
#       6
#     8   8   8   8   8   8
#     4  11  23  37  63  88 129 165 208 257 313 381
#     4  11  23  42  65  93 126 166 215 266 322 383
#     4  11  22  36  60  88 122 166 209 256 319 381
#     4  11  22  33  53  87 130 162 196 251 319 390
#     4  11  22  42  60  91 126 168 216 257 315 380
#     4  11  23  37  58  93 125 167 206 255 320 382
#
# _framework density 20.084637000000001
#
# number of rings (size 3 to 8) (size 9 to 14) (size 15 to 20)
#    0.000    1.000    5.000    2.500    4.667    0.000 
#    0.000    0.000    0.000    1.000    0.000    0.000 
#    0.000    0.000    0.000    0.000    0.000    0.000 
#
# Total GULP energy -594675.097230 kJ/mol
# GULP energy per Si atom -12389.064526 kJ/mol
# Density = 2.003892 g / cm^3
# Si number density = 20.084637 Si / 1000 Ang^3
#
#
#
# Elastic Constant Matrix: (Units=GPa)
#
#
# Indices 1 2 3 4 5 6 
#
# 1 104.6597 50.5645 24.3331 0.0000 0.0000 0.0000
# 2 50.5645 115.2998 40.2528 0.0000 0.0000 0.0000
# 3 24.3331 40.2528 82.2789 0.0000 0.0000 0.0000
# 4 0.0000 0.0000 0.0000 33.0276 0.0000 0.0000
# 5 0.0000 0.0000 0.0000 0.0000 26.3132 0.0000
# 6 0.0000 0.0000 0.0000 0.0000 0.0000 26.8850
#
#
#
# Elastic Compliance Matrix: (Units=1/GPa)
#
#
# Indices 1 2 3 4 5 6 
#
# 1 0.012220 -0.004941 -0.001197 0.000000 0.000000 0.000000
# 2 -0.004941 0.012458 -0.004633 0.000000 0.000000 0.000000
# 3 -0.001197 -0.004633 0.014774 0.000000 0.000000 0.000000
# 4 0.000000 0.000000 0.000000 0.030278 0.000000 0.000000
# 5 0.000000 0.000000 0.000000 0.000000 0.038004 0.000000
# 6 0.000000 0.000000 0.000000 0.000000 0.000000 0.037195
#
#
# Mechanical properties :
#
#
# Convention : Reuss Voigt Hill
#
# Bulk Modulus (GPa) = 55.83513 59.17104 57.50309
# Shear Modulus (GPa) = 28.99532 29.71768 29.35650
#
# Velocity S-wave (km/s) = 3.80367 3.85076 3.82729
# Velocity P-wave (km/s) = 6.86665 7.02111 6.94431
#
# Compressibility (1/GPa) = 0.01790987
#
# Stress axis : x y z
#
# Youngs Moduli (GPa) = 81.83062 80.27208 67.68506
#
# Poissons Ratio (x) = 0.39666 0.08099
# Poissons Ratio (y) = 0.40436 0.31360
# Poissons Ratio (z) = 0.09791 0.37191
#
# Static dielectric constant tensor:
#      x y z
#    x 3.553310 0.000000 0.000000 
#    y 0.000000 3.415360 0.000000 
#    z 0.000000 0.000000 3.780740 
# 
# 
# High freq. dielectric constant tensor:
#      x y z
#    x 1.761970 0.000000 0.000000 
#    y 0.000000 1.756190 0.000000 
#    z 0.000000 0.000000 1.803370 
# 
# From -- ./inp_files/3357.got.cif
#   From: 2010.03.12/outbox.cif.g09.slc.cpg/sg56_2_cif.got.tgz:3357.got - 2010.04.16 15:33:40.
