data_PCOD8229832
_publ_section_title
;
Structure prediction by ZEFSAII (Michael W. Deem and Ramdas Pophale) SiO2 
 PCOD8229832
Probable space group: P C C N
;
_chemical_formula_sum "Si O2"
_cell_formula_units_Z 32
_cell_length_a 4.874779
_cell_length_b 32.065549
_cell_length_c 8.371700
_cell_angle_alpha 90.000000
_cell_angle_beta 90.000000
_cell_angle_gamma 90.000000
_cell_volume 1308.601062
_symmetry_space_group_name_H-M "P C C N"
_symmetry_group_IT_number 56
_symmetry_cell_setting 'orthorhombic'
loop_
_space_group_symop_operation_xyz
x,y,z
1/2-x,1/2-y,z
1/2+x,-y,1/2-z
-x,1/2+y,1/2-z
-x,-y,-z
1/2+x,1/2+y,-z
1/2-x,y,1/2+z
x,1/2-y,1/2+z
loop_
_atom_site_type_symbol
_atom_site_label
_atom_site_fract_x
_atom_site_fract_y
_atom_site_fract_z
Si Si1 0.932102 0.953537 0.447416
Si Si2 0.084888 0.579173 0.276412
Si Si3 0.399683 0.826458 0.380081
Si Si4 0.372447 0.204650 0.942411
O O1 0.622370 0.946065 0.391313
O O2 0.123101 0.943376 0.295845
O O3 0.996729 0.922109 0.592438
O O4 0.000000 0.000000 0.500000
O O5 0.133289 0.626713 0.321804
O O6 0.617938 0.826782 0.525998
O O7 0.521516 0.798472 0.237431
O O8 0.114289 0.806114 0.433335
O O9 0.250000 0.250000 0.977086
#
# Coordination Sequence:
#
# PCOD8229832 Si02
#       4
#     8   8   8   8
#     4  12  25  44  68 102 141 184 231 284 342 406
#     4  12  24  43  70 101 138 183 230 283 341 408
#     4  12  25  46  71 103 137 180 230 283 344 415
#     4  12  27  47  72 102 138 179 227 286 348 415
#
# _framework density 24.453596000000001
#
# number of rings (size 3 to 8) (size 9 to 14) (size 15 to 20)
#    0.000    0.000    0.000   11.250    0.000    2.000 
#    0.000    1.250    0.000    0.000    0.000    0.000 
#    0.000    0.000    0.000    0.000    0.000    0.000 
#
# Total GULP energy -396990.316070 kJ/mol
# GULP energy per Si atom -12405.947377 kJ/mol
# Density = 2.439794 g / cm^3
# Si number density = 24.453596 Si / 1000 Ang^3
#
#
#
# Elastic Constant Matrix: (Units=GPa)
#
#
# Indices 1 2 3 4 5 6 
#
# 1 120.1364 53.4000 5.3496 0.0000 0.0000 0.0000
# 2 53.4000 107.5471 13.6559 0.0000 0.0000 0.0000
# 3 5.3496 13.6559 65.6148 0.0000 0.0000 0.0000
# 4 0.0000 0.0000 0.0000 40.2245 0.0000 0.0000
# 5 0.0000 0.0000 0.0000 0.0000 37.1602 0.0000
# 6 0.0000 0.0000 0.0000 0.0000 0.0000 43.5273
#
#
#
# Elastic Compliance Matrix: (Units=1/GPa)
#
#
# Indices 1 2 3 4 5 6 
#
# 1 0.010685 -0.005336 0.000239 0.000000 0.000000 0.000000
# 2 -0.005336 0.012215 -0.002107 0.000000 0.000000 0.000000
# 3 0.000239 -0.002107 0.015660 0.000000 0.000000 0.000000
# 4 0.000000 0.000000 0.000000 0.024860 0.000000 0.000000
# 5 0.000000 0.000000 0.000000 0.000000 0.026911 0.000000
# 6 0.000000 0.000000 0.000000 0.000000 0.000000 0.022974
#
#
# Mechanical properties :
#
#
# Convention : Reuss Voigt Hill
#
# Bulk Modulus (GPa) = 41.40381 48.67880 45.04130
# Shear Modulus (GPa) = 36.82896 38.90858 37.86877
#
# Velocity S-wave (km/s) = 3.88503 3.99321 3.93949
# Velocity P-wave (km/s) = 6.09040 6.41956 6.25715
#
# Compressibility (1/GPa) = 0.02415237
#
# Stress axis : x y z
#
# Youngs Moduli (GPa) = 93.58982 81.86550 63.85893
#
# Poissons Ratio (x) = 0.43681 -0.01528
# Poissons Ratio (y) = 0.49937 0.13456
# Poissons Ratio (z) = -0.02240 0.17251
#
# Static dielectric constant tensor:
#      x y z
#    x 4.768300 0.000000 0.000000 
#    y 0.000000 4.311930 0.000000 
#    z 0.000000 0.000000 4.795330 
# 
# 
# High freq. dielectric constant tensor:
#      x y z
#    x 1.992800 0.000000 0.000000 
#    y 0.000000 1.979830 0.000000 
#    z 0.000000 0.000000 1.981570 
# 
# From -- ./inp_files/1547.got.cif
#   From: 2010.03.12/outbox.cif.g09.slc.cpg/sg56_1_cif.got.tgz:1547.got - 2010.04.16 15:33:40.
