data_PCOD8229028
_publ_section_title
;
Structure prediction by ZEFSAII (Michael W. Deem and Ramdas Pophale) SiO2 
 PCOD8229028
Probable space group: P C C N
;
_chemical_formula_sum "Si O2"
_cell_formula_units_Z 56
_cell_length_a 13.245777
_cell_length_b 14.767956
_cell_length_c 13.615705
_cell_angle_alpha 90.000000
_cell_angle_beta 90.000000
_cell_angle_gamma 90.000000
_cell_volume 2663.409609
_symmetry_space_group_name_H-M "P C C N"
_symmetry_group_IT_number 56
_symmetry_cell_setting 'orthorhombic'
loop_
_space_group_symop_operation_xyz
x,y,z
1/2-x,1/2-y,z
1/2+x,-y,1/2-z
-x,1/2+y,1/2-z
-x,-y,-z
1/2+x,1/2+y,-z
1/2-x,y,1/2+z
x,1/2-y,1/2+z
loop_
_atom_site_type_symbol
_atom_site_label
_atom_site_fract_x
_atom_site_fract_y
_atom_site_fract_z
Si Si1 0.680844 0.101482 0.618576
Si Si2 0.502923 0.519877 0.199370
Si Si3 0.843873 0.849775 0.267320
Si Si4 0.331816 0.451063 0.339763
Si Si5 0.600580 0.331807 0.918077
Si Si6 0.904027 0.729823 0.093277
Si Si7 0.250000 0.250000 0.059012
Si Si8 0.750000 0.250000 0.264833
O O1 0.665344 0.151733 0.515327
O O2 0.690548 0.178616 0.699496
O O3 0.580438 0.048451 0.649028
O O4 0.783834 0.040696 0.609099
O O5 0.556960 0.587877 0.276765
O O6 0.416435 0.469923 0.258986
O O7 0.457799 0.576468 0.108928
O O8 0.762289 0.908233 0.213077
O O9 0.871584 0.760452 0.203477
O O10 0.801454 0.826458 0.374249
O O11 0.379676 0.378007 0.416323
O O12 0.520526 0.249653 0.931167
O O13 0.673727 0.307077 0.830004
O O14 0.838395 0.786635 0.013047
#
# Coordination Sequence:
#
# PCOD8229028 Si02
#       8
#     8   8   8   8   8   8   4   4
#     4  11  25  43  72  99 135 181 230 276 343 407
#     4  10  23  42  66  99 133 177 220 283 333 397
#     4  10  22  40  63  98 133 169 217 269 339 393
#     4  11  20  44  66  96 142 167 220 288 329 386
#     4  11  25  44  70  99 135 181 226 269 339 418
#     4  11  23  41  66 102 130 168 229 271 323 411
#     4  12  20  38  68  98 130 176 206 276 334 392
#     4  12  24  50  68  94 140 182 224 274 344 408
#
# _framework density 21.025680000000001
#
# number of rings (size 3 to 8) (size 9 to 14) (size 15 to 20)
#    0.000    1.143    4.286    1.714    2.000    3.429 
#    2.571    0.714    0.000    0.000    0.000    0.000 
#    0.000    0.000    0.000    0.000    0.000    0.000 
#
# Total GULP energy -694278.466299 kJ/mol
# GULP energy per Si atom -12397.829755 kJ/mol
# Density = 2.097782 g / cm^3
# Si number density = 21.025680 Si / 1000 Ang^3
#
#
#
# Elastic Constant Matrix: (Units=GPa)
#
#
# Indices 1 2 3 4 5 6 
#
# 1 63.0382 32.1334 30.7981 0.0000 0.0000 0.0000
# 2 32.1334 89.7646 41.8295 0.0000 0.0000 0.0000
# 3 30.7981 41.8295 101.3873 0.0000 0.0000 0.0000
# 4 0.0000 0.0000 0.0000 25.4533 0.0000 0.0000
# 5 0.0000 0.0000 0.0000 0.0000 41.2982 0.0000
# 6 0.0000 0.0000 0.0000 0.0000 0.0000 20.2021
#
#
#
# Elastic Compliance Matrix: (Units=1/GPa)
#
#
# Indices 1 2 3 4 5 6 
#
# 1 0.020628 -0.005527 -0.003986 0.000000 0.000000 0.000000
# 2 -0.005527 0.015273 -0.004622 0.000000 0.000000 0.000000
# 3 -0.003986 -0.004622 0.012981 0.000000 0.000000 0.000000
# 4 0.000000 0.000000 0.000000 0.039288 0.000000 0.000000
# 5 0.000000 0.000000 0.000000 0.000000 0.024214 0.000000
# 6 0.000000 0.000000 0.000000 0.000000 0.000000 0.049500
#
#
# Mechanical properties :
#
#
# Convention : Reuss Voigt Hill
#
# Bulk Modulus (GPa) = 48.51614 51.52357 50.01986
# Shear Modulus (GPa) = 25.37766 27.35265 26.36516
#
# Velocity S-wave (km/s) = 3.47794 3.61073 3.54496
# Velocity P-wave (km/s) = 6.26521 6.47622 6.37159
#
# Compressibility (1/GPa) = 0.02061170
#
# Stress axis : x y z
#
# Youngs Moduli (GPa) = 48.47766 65.47665 77.03615
#
# Poissons Ratio (x) = 0.36188 0.30706
# Poissons Ratio (y) = 0.26793 0.35607
# Poissons Ratio (z) = 0.19323 0.30264
#
# Static dielectric constant tensor:
#      x y z
#    x 4.087250 0.000000 0.000000 
#    y 0.000000 3.990500 0.000000 
#    z 0.000000 0.000000 3.933980 
# 
# 
# High freq. dielectric constant tensor:
#      x y z
#    x 1.839820 0.000000 0.000000 
#    y 0.000000 1.822980 0.000000 
#    z 0.000000 0.000000 1.811850 
# 
# From -- ./inp_files/7927.got.cif
#   From: 2010.03.12/outbox.cif.g09.slc.cpg/sg56_4_cif.got.tgz:7927.got - 2010.04.16 15:33:40.
