data_PCOD8229525
_publ_section_title
;
Structure prediction by ZEFSAII (Michael W. Deem and Ramdas Pophale) SiO2 
 PCOD8229525
Probable space group: P C C N
;
_chemical_formula_sum "Si O2"
_cell_formula_units_Z 48
_cell_length_a 8.720914
_cell_length_b 17.624243
_cell_length_c 14.365930
_cell_angle_alpha 90.000000
_cell_angle_beta 90.000000
_cell_angle_gamma 90.000000
_cell_volume 2208.036366
_symmetry_space_group_name_H-M "P C C N"
_symmetry_group_IT_number 56
_symmetry_cell_setting 'orthorhombic'
loop_
_space_group_symop_operation_xyz
x,y,z
1/2-x,1/2-y,z
1/2+x,-y,1/2-z
-x,1/2+y,1/2-z
-x,-y,-z
1/2+x,1/2+y,-z
1/2-x,y,1/2+z
x,1/2-y,1/2+z
loop_
_atom_site_type_symbol
_atom_site_label
_atom_site_fract_x
_atom_site_fract_y
_atom_site_fract_z
Si Si1 0.720450 0.021113 0.631667
Si Si2 0.023248 0.067004 0.723034
Si Si3 0.424487 0.275836 0.449491
Si Si4 0.308183 0.081736 0.039765
Si Si5 0.985510 0.344016 0.581378
Si Si6 0.928456 0.743703 0.754950
O O1 0.849837 0.039634 0.707695
O O2 0.652497 0.096974 0.585910
O O3 0.589171 0.974035 0.685178
O O4 0.789614 0.975669 0.545152
O O5 0.118411 0.043514 0.630935
O O6 0.024231 0.156291 0.743406
O O7 0.250000 0.250000 0.455254
O O8 0.430731 0.354611 0.505725
O O9 0.536316 0.212813 0.494294
O O10 0.470564 0.283893 0.342305
O O11 0.145779 0.113225 0.072224
O O12 0.976075 0.292060 0.672297
O O13 0.750000 0.750000 0.780222
#
# Coordination Sequence:
#
# PCOD8229525 Si02
#       6
#     8   8   8   8   8   8
#     4  12  28  42  70 100 147 181 233 290 359 420
#     4  12  25  45  68 101 139 186 230 288 351 415
#     4   9  19  35  69  98 125 172 235 277 334 410
#     4  11  22  44  69 100 132 185 231 287 349 422
#     4  11  21  42  69 101 132 176 232 291 346 413
#     4  11  20  40  72  99 132 178 236 280 343 422
#
# _framework density 21.738772999999998
#
# number of rings (size 3 to 8) (size 9 to 14) (size 15 to 20)
#    0.000    1.000    3.333    5.500    2.333    2.000 
#    0.000    0.000    3.667    0.000    0.000    0.000 
#    0.000    0.000    0.000    0.000    0.000    0.000 
#
# Total GULP energy -595264.003501 kJ/mol
# GULP energy per Si atom -12401.333406 kJ/mol
# Density = 2.168929 g / cm^3
# Si number density = 21.738773 Si / 1000 Ang^3
#
#
#
# Elastic Constant Matrix: (Units=GPa)
#
#
# Indices 1 2 3 4 5 6 
#
# 1 53.2140 24.7514 -0.2263 0.0000 0.0000 0.0000
# 2 24.7514 99.3283 10.7395 0.0000 0.0000 0.0000
# 3 -0.2263 10.7395 80.1937 0.0000 0.0000 0.0000
# 4 0.0000 0.0000 0.0000 28.0716 0.0000 0.0000
# 5 0.0000 0.0000 0.0000 0.0000 17.4830 0.0000
# 6 0.0000 0.0000 0.0000 0.0000 0.0000 34.5084
#
#
#
# Elastic Compliance Matrix: (Units=1/GPa)
#
#
# Indices 1 2 3 4 5 6 
#
# 1 0.021304 -0.005393 0.000782 0.000000 0.000000 0.000000
# 2 -0.005393 0.011581 -0.001566 0.000000 0.000000 0.000000
# 3 0.000782 -0.001566 0.012682 0.000000 0.000000 0.000000
# 4 0.000000 0.000000 0.000000 0.035623 0.000000 0.000000
# 5 0.000000 0.000000 0.000000 0.000000 0.057199 0.000000
# 6 0.000000 0.000000 0.000000 0.000000 0.000000 0.028978
#
#
# Mechanical properties :
#
#
# Convention : Reuss Voigt Hill
#
# Bulk Modulus (GPa) = 30.10910 33.69612 31.90261
# Shear Modulus (GPa) = 26.20660 29.17736 27.69198
#
# Velocity S-wave (km/s) = 3.47583 3.66755 3.57298
# Velocity P-wave (km/s) = 5.47622 5.78521 5.63284
#
# Compressibility (1/GPa) = 0.03321255
#
# Stress axis : x y z
#
# Youngs Moduli (GPa) = 46.93966 86.34914 78.85353
#
# Poissons Ratio (x) = 0.46570 -0.06169
# Poissons Ratio (y) = 0.25316 0.12349
# Poissons Ratio (z) = -0.03672 0.13523
#
# Static dielectric constant tensor:
#      x y z
#    x 3.639510 0.000000 0.000000 
#    y 0.000000 4.461870 0.000000 
#    z 0.000000 0.000000 4.204200 
# 
# 
# High freq. dielectric constant tensor:
#      x y z
#    x 1.822230 0.000000 0.000000 
#    y 0.000000 1.860650 0.000000 
#    z 0.000000 0.000000 1.873480 
# 
# From -- ./inp_files/10623.got.cif
#   From: 2010.03.12/outbox.cif.g09.slc.cpg/sg56_6_cif.got.tgz:10623.got - 2010.04.16 15:33:40.
