data_PCOD8229640
_publ_section_title
;
Structure prediction by ZEFSAII (Michael W. Deem and Ramdas Pophale) SiO2 
 PCOD8229640
Probable space group: P C C N
;
_chemical_formula_sum "Si O2"
_cell_formula_units_Z 32
_cell_length_a 4.691771
_cell_length_b 12.329324
_cell_length_c 23.447856
_cell_angle_alpha 90.000000
_cell_angle_beta 90.000000
_cell_angle_gamma 90.000000
_cell_volume 1356.373232
_symmetry_space_group_name_H-M "P C C N"
_symmetry_group_IT_number 56
_symmetry_cell_setting 'orthorhombic'
loop_
_space_group_symop_operation_xyz
x,y,z
1/2-x,1/2-y,z
1/2+x,-y,1/2-z
-x,1/2+y,1/2-z
-x,-y,-z
1/2+x,1/2+y,-z
1/2-x,y,1/2+z
x,1/2-y,1/2+z
loop_
_atom_site_type_symbol
_atom_site_label
_atom_site_fract_x
_atom_site_fract_y
_atom_site_fract_z
Si Si1 0.295817 0.501373 0.211306
Si Si2 0.804977 0.875820 0.896321
Si Si3 0.495519 0.321871 0.365287
Si Si4 0.680865 0.003126 0.057307
O O1 0.576391 0.547693 0.242543
O O2 0.407339 0.407704 0.167380
O O3 0.142614 0.601402 0.180741
O O4 0.750000 0.750000 0.908211
O O5 0.488997 0.922727 0.898419
O O6 0.006826 0.937281 0.944354
O O7 0.750000 0.250000 0.392675
O O8 0.320275 0.382957 0.415947
O O9 0.250000 0.250000 0.335088
O O10 0.500000 0.000000 0.000000
#
# Coordination Sequence:
#
# PCOD8229640 Si02
#       4
#     8   8   8   8
#     4  11  23  41  64  94 130 170 217 266 319 383
#     4  11  24  43  65  94 130 168 214 270 324 387
#     4  11  23  41  63  92 129 170 217 272 326 390
#     4  11  24  43  65  94 128 166 214 270 327 392
#
# _framework density 23.592327999999998
#
# number of rings (size 3 to 8) (size 9 to 14) (size 15 to 20)
#    0.000    1.000    0.000    9.000    0.000    6.000 
#    0.000    2.500    0.000    0.000    0.000    0.000 
#    0.000    0.000    0.000    0.000    0.000    0.000 
#
# Total GULP energy -396451.002269 kJ/mol
# GULP energy per Si atom -12389.093821 kJ/mol
# Density = 2.353863 g / cm^3
# Si number density = 23.592328 Si / 1000 Ang^3
#
#
#
# Elastic Constant Matrix: (Units=GPa)
#
#
# Indices 1 2 3 4 5 6 
#
# 1 120.8122 46.1256 8.4370 0.0000 0.0000 0.0000
# 2 46.1256 133.7359 21.8597 0.0000 0.0000 0.0000
# 3 8.4370 21.8597 73.3500 0.0000 0.0000 0.0000
# 4 0.0000 0.0000 0.0000 14.6566 0.0000 0.0000
# 5 0.0000 0.0000 0.0000 0.0000 34.6336 0.0000
# 6 0.0000 0.0000 0.0000 0.0000 0.0000 43.5433
#
#
#
# Elastic Compliance Matrix: (Units=1/GPa)
#
#
# Indices 1 2 3 4 5 6 
#
# 1 0.009534 -0.003268 -0.000123 0.000000 0.000000 0.000000
# 2 -0.003268 0.008981 -0.002300 0.000000 0.000000 0.000000
# 3 -0.000123 -0.002300 0.014333 0.000000 0.000000 0.000000
# 4 0.000000 0.000000 0.000000 0.068228 0.000000 0.000000
# 5 0.000000 0.000000 0.000000 0.000000 0.028874 0.000000
# 6 0.000000 0.000000 0.000000 0.000000 0.000000 0.022966
#
#
# Mechanical properties :
#
#
# Convention : Reuss Voigt Hill
#
# Bulk Modulus (GPa) = 46.58801 53.41586 50.00194
# Shear Modulus (GPa) = 29.16262 35.33177 32.24720
#
# Velocity S-wave (km/s) = 3.51964 3.87408 3.70111
# Velocity P-wave (km/s) = 6.02554 6.53465 6.28525
#
# Compressibility (1/GPa) = 0.02146475
#
# Stress axis : x y z
#
# Youngs Moduli (GPa) = 104.89194 111.35086 69.76922
#
# Poissons Ratio (x) = 0.36391 0.00856
# Poissons Ratio (y) = 0.34280 0.16050
# Poissons Ratio (z) = 0.01286 0.25616
#
# Static dielectric constant tensor:
#      x y z
#    x 4.847240 0.000000 0.000000 
#    y 0.000000 4.395070 0.000000 
#    z 0.000000 0.000000 4.449030 
# 
# 
# High freq. dielectric constant tensor:
#      x y z
#    x 1.961200 0.000000 0.000000 
#    y 0.000000 1.926010 0.000000 
#    z 0.000000 0.000000 1.919390 
# 
# From -- ./inp_files/19821.got.cif
#   From: 2010.03.12/outbox.cif.g09.slc.cpg/sg56_10_cif.got.tgz:19821.got - 2010.04.16 15:33:40.
