data_PCOD8229873
_publ_section_title
;
Structure prediction by ZEFSAII (Michael W. Deem and Ramdas Pophale) SiO2 
 PCOD8229873
Probable space group: P C C N
;
_chemical_formula_sum "Si O2"
_cell_formula_units_Z 24
_cell_length_a 19.190881
_cell_length_b 4.822682
_cell_length_c 9.479683
_cell_angle_alpha 90.000000
_cell_angle_beta 90.000000
_cell_angle_gamma 90.000000
_cell_volume 877.359036
_symmetry_space_group_name_H-M "P C C N"
_symmetry_group_IT_number 56
_symmetry_cell_setting 'orthorhombic'
loop_
_space_group_symop_operation_xyz
x,y,z
1/2-x,1/2-y,z
1/2+x,-y,1/2-z
-x,1/2+y,1/2-z
-x,-y,-z
1/2+x,1/2+y,-z
1/2-x,y,1/2+z
x,1/2-y,1/2+z
loop_
_atom_site_type_symbol
_atom_site_label
_atom_site_fract_x
_atom_site_fract_y
_atom_site_fract_z
Si Si1 0.365052 0.880859 0.960037
Si Si2 0.045478 0.611567 0.222493
Si Si3 0.250000 0.750000 0.641843
Si Si4 0.750000 0.750000 0.163310
O O1 0.394249 0.746655 0.817786
O O2 0.316849 0.149272 0.927116
O O3 0.427705 0.960216 0.065452
O O4 0.314296 0.660002 0.039855
O O5 0.019087 0.325718 0.292291
O O6 0.276479 0.499291 0.738092
#
# Coordination Sequence:
#
# PCOD8229873 Si02
#       4
#     8   8   4   4
#     4  12  28  55  85 123 171 216 291 342 434 494
#     4  12  30  52  85 123 172 229 279 343 414 517
#     4  12  28  50  82 124 164 216 270 366 416 498
#     4  12  28  50  86 122 166 218 272 366 420 492
#
# _framework density 27.354824000000001
#
# number of rings (size 3 to 8) (size 9 to 14) (size 15 to 20)
#    0.000    0.000    3.333    4.000    4.667    8.000 
#    0.000    0.000    0.000    0.000    0.000    0.000 
#    0.000    0.000    0.000    0.000    0.000    0.000 
#
# Total GULP energy -297669.354116 kJ/mol
# GULP energy per Si atom -12402.889755 kJ/mol
# Density = 2.729256 g / cm^3
# Si number density = 27.354824 Si / 1000 Ang^3
#
#
#
# Elastic Constant Matrix: (Units=GPa)
#
#
# Indices 1 2 3 4 5 6 
#
# 1 119.9909 22.0072 44.7314 0.0000 0.0000 0.0000
# 2 22.0072 112.6722 35.1843 0.0000 0.0000 0.0000
# 3 44.7314 35.1843 146.1776 0.0000 0.0000 0.0000
# 4 0.0000 0.0000 0.0000 31.3308 0.0000 0.0000
# 5 0.0000 0.0000 0.0000 0.0000 33.4103 0.0000
# 6 0.0000 0.0000 0.0000 0.0000 0.0000 64.0752
#
#
#
# Elastic Compliance Matrix: (Units=1/GPa)
#
#
# Indices 1 2 3 4 5 6 
#
# 1 0.009516 -0.001026 -0.002665 0.000000 0.000000 0.000000
# 2 -0.001026 0.009707 -0.002022 0.000000 0.000000 0.000000
# 3 -0.002665 -0.002022 0.008143 0.000000 0.000000 0.000000
# 4 0.000000 0.000000 0.000000 0.031918 0.000000 0.000000
# 5 0.000000 0.000000 0.000000 0.000000 0.029931 0.000000
# 6 0.000000 0.000000 0.000000 0.000000 0.000000 0.015607
#
#
# Mechanical properties :
#
#
# Convention : Reuss Voigt Hill
#
# Bulk Modulus (GPa) = 62.73969 64.74295 63.74132
# Shear Modulus (GPa) = 41.13144 44.22444 42.67794
#
# Velocity S-wave (km/s) = 3.88187 4.02518 3.95417
# Velocity P-wave (km/s) = 6.56332 6.73216 6.64828
#
# Compressibility (1/GPa) = 0.01593887
#
# Stress axis : x y z
#
# Youngs Moduli (GPa) = 105.09020 103.01488 122.80144
#
# Poissons Ratio (x) = 0.10574 0.32724
# Poissons Ratio (y) = 0.10787 0.24835
# Poissons Ratio (z) = 0.28004 0.20834
#
# Static dielectric constant tensor:
#      x y z
#    x 5.181390 0.000000 0.000000 
#    y 0.000000 5.270120 0.000000 
#    z 0.000000 0.000000 5.195770 
# 
# 
# High freq. dielectric constant tensor:
#      x y z
#    x 2.120510 0.000000 0.000000 
#    y 0.000000 2.089160 0.000000 
#    z 0.000000 0.000000 2.124690 
# 
# From -- ./inp_files/8513.got.cif
#   From: 2010.03.12/outbox.cif.g09.slc.cpg/sg56_5_cif.got.tgz:8513.got - 2010.04.16 15:33:40.
