data_PCOD8229335
_publ_section_title
;
Structure prediction by ZEFSAII (Michael W. Deem and Ramdas Pophale) SiO2 
 PCOD8229335
Probable space group: P C C N
;
_chemical_formula_sum "Si O2"
_cell_formula_units_Z 64
_cell_length_a 24.121151
_cell_length_b 14.786508
_cell_length_c 8.626041
_cell_angle_alpha 90.000000
_cell_angle_beta 90.000000
_cell_angle_gamma 90.000000
_cell_volume 3076.629274
_symmetry_space_group_name_H-M "P C C N"
_symmetry_group_IT_number 56
_symmetry_cell_setting 'orthorhombic'
loop_
_space_group_symop_operation_xyz
x,y,z
1/2-x,1/2-y,z
1/2+x,-y,1/2-z
-x,1/2+y,1/2-z
-x,-y,-z
1/2+x,1/2+y,-z
1/2-x,y,1/2+z
x,1/2-y,1/2+z
loop_
_atom_site_type_symbol
_atom_site_label
_atom_site_fract_x
_atom_site_fract_y
_atom_site_fract_z
Si Si1 0.026780 0.158530 0.131241
Si Si2 0.820584 0.426211 0.322413
Si Si3 0.839499 0.245001 0.436788
Si Si4 0.041691 0.346788 0.276789
Si Si5 0.095265 0.658552 0.306394
Si Si6 0.938137 0.026049 0.714921
Si Si7 0.782010 0.057561 0.497728
Si Si8 0.889400 0.990372 0.376588
O O1 0.049389 0.243114 0.227348
O O2 0.035939 0.068918 0.233340
O O3 0.962007 0.180366 0.110551
O O4 0.053090 0.147402 0.961026
O O5 0.814285 0.317219 0.315581
O O6 0.885352 0.453978 0.327484
O O7 0.782508 0.463418 0.462820
O O8 0.790517 0.468027 0.174614
O O9 0.896183 0.205044 0.362440
O O10 0.854563 0.305975 0.586525
O O11 0.796938 0.163714 0.469380
O O12 0.090322 0.392577 0.176262
O O13 0.982615 0.393384 0.234989
O O14 0.096229 0.552072 0.272206
O O15 0.919925 0.023003 0.535334
O O16 0.823141 0.993151 0.399759
#
# Coordination Sequence:
#
# PCOD8229335 Si02
#       8
#     8   8   8   8   8   8   8   8
#     4  12  25  38  65  94 125 172 213 259 333 384
#     4  11  23  39  58  85 125 162 217 260 317 375
#     4  11  22  36  57  85 126 164 217 256 308 382
#     4  12  25  41  64  94 128 166 212 267 325 393
#     4  11  22  37  57  88 127 168 211 261 318 381
#     4  11  24  44  63  94 130 170 217 273 321 390
#     4  10  24  38  58  88 118 176 207 266 318 375
#     4  10  24  41  61  86 127 166 212 268 326 377
#
# _framework density 20.801987
#
# number of rings (size 3 to 8) (size 9 to 14) (size 15 to 20)
#    0.000    1.000    2.500    4.125   10.500    1.000 
#    0.000    0.000    0.000    0.750    0.000    5.250 
#    0.000    0.000    0.000    0.000    0.000    0.000 
#
# Total GULP energy -793125.804507 kJ/mol
# GULP energy per Si atom -12392.590695 kJ/mol
# Density = 2.075464 g / cm^3
# Si number density = 20.801987 Si / 1000 Ang^3
#
#
#
# Elastic Constant Matrix: (Units=GPa)
#
#
# Indices 1 2 3 4 5 6 
#
# 1 80.4244 28.1554 11.5428 0.0000 0.0000 0.0000
# 2 28.1554 75.0768 21.1280 0.0000 0.0000 0.0000
# 3 11.5428 21.1280 63.4329 0.0000 0.0000 0.0000
# 4 0.0000 0.0000 0.0000 36.8485 0.0000 0.0000
# 5 0.0000 0.0000 0.0000 0.0000 30.1676 0.0000
# 6 0.0000 0.0000 0.0000 0.0000 0.0000 16.4425
#
#
#
# Elastic Compliance Matrix: (Units=1/GPa)
#
#
# Indices 1 2 3 4 5 6 
#
# 1 0.014360 -0.005131 -0.000904 0.000000 0.000000 0.000000
# 2 -0.005131 0.016531 -0.004572 0.000000 0.000000 0.000000
# 3 -0.000904 -0.004572 0.017452 0.000000 0.000000 0.000000
# 4 0.000000 0.000000 0.000000 0.027138 0.000000 0.000000
# 5 0.000000 0.000000 0.000000 0.000000 0.033148 0.000000
# 6 0.000000 0.000000 0.000000 0.000000 0.000000 0.060818
#
#
# Mechanical properties :
#
#
# Convention : Reuss Voigt Hill
#
# Bulk Modulus (GPa) = 36.86196 37.84292 37.35244
# Shear Modulus (GPa) = 25.03701 27.23225 26.13463
#
# Velocity S-wave (km/s) = 3.47304 3.62210 3.54835
# Velocity P-wave (km/s) = 5.81735 5.97698 5.89770
#
# Compressibility (1/GPa) = 0.02712824
#
# Stress axis : x y z
#
# Youngs Moduli (GPa) = 69.63764 60.49386 57.29961
#
# Poissons Ratio (x) = 0.31039 0.05180
# Poissons Ratio (y) = 0.35730 0.26199
# Poissons Ratio (z) = 0.06296 0.27660
#
# Static dielectric constant tensor:
#      x y z
#    x 3.717610 0.000000 0.000000 
#    y 0.000000 3.652520 0.000000 
#    z 0.000000 0.000000 3.897340 
# 
# 
# High freq. dielectric constant tensor:
#      x y z
#    x 1.798910 0.000000 0.000000 
#    y 0.000000 1.787650 0.000000 
#    z 0.000000 0.000000 1.831590 
# 
# From -- ./inp_files/4816.got.cif
#   From: 2010.03.12/outbox.cif.g09.slc.cpg/sg56_3_cif.got.tgz:4816.got - 2010.04.16 15:33:40.
