data_PCOD8229455
_publ_section_title
;
Structure prediction by ZEFSAII (Michael W. Deem and Ramdas Pophale) SiO2 
 PCOD8229455
Probable space group: P C C N
;
_chemical_formula_sum "Si O2"
_cell_formula_units_Z 36
_cell_length_a 9.213714
_cell_length_b 8.058823
_cell_length_c 21.825709
_cell_angle_alpha 90.000000
_cell_angle_beta 90.000000
_cell_angle_gamma 90.000000
_cell_volume 1620.595785
_symmetry_space_group_name_H-M "P C C N"
_symmetry_group_IT_number 56
_symmetry_cell_setting 'orthorhombic'
loop_
_space_group_symop_operation_xyz
x,y,z
1/2-x,1/2-y,z
1/2+x,-y,1/2-z
-x,1/2+y,1/2-z
-x,-y,-z
1/2+x,1/2+y,-z
1/2-x,y,1/2+z
x,1/2-y,1/2+z
loop_
_atom_site_type_symbol
_atom_site_label
_atom_site_fract_x
_atom_site_fract_y
_atom_site_fract_z
Si Si1 0.737252 0.551471 0.931880
Si Si2 0.953121 0.363313 0.621052
Si Si3 0.734463 0.567310 0.698155
Si Si4 0.422763 0.064682 0.182790
Si Si5 0.750000 0.250000 0.023500
O O1 0.750000 0.750000 0.949459
O O2 0.575596 0.513834 0.905773
O O3 0.854360 0.500045 0.880555
O O4 0.761983 0.423499 0.986935
O O5 0.812988 0.451233 0.649230
O O6 0.894694 0.250906 0.565097
O O7 0.031349 0.255989 0.673910
O O8 0.750000 0.750000 0.671850
O O9 0.802681 0.547606 0.765071
O O10 0.563915 0.535499 0.702680
#
# Coordination Sequence:
#
# PCOD8229455 Si02
#       5
#     8   8   8   8   4
#     4  10  25  44  72 100 144 184 240 287 351 414
#     4  11  24  48  65 101 145 182 231 295 352 417
#     4  12  24  40  72 101 137 177 234 288 367 428
#     4  11  23  46  66 103 137 181 226 298 354 428
#     4  12  24  46  72 102 142 196 234 296 338 420
#
# _framework density 22.214053
#
# number of rings (size 3 to 8) (size 9 to 14) (size 15 to 20)
#    0.000    0.889    2.222    5.333    3.111    4.444 
#    4.000    0.000    0.000    0.000    0.000    0.000 
#    0.000    0.000    0.000    0.000    0.000    0.000 
#
# Total GULP energy -446328.222081 kJ/mol
# GULP energy per Si atom -12398.006169 kJ/mol
# Density = 2.216349 g / cm^3
# Si number density = 22.214053 Si / 1000 Ang^3
#
#
#
# Elastic Constant Matrix: (Units=GPa)
#
#
# Indices 1 2 3 4 5 6 
#
# 1 147.9689 33.0255 60.1854 0.0000 0.0000 0.0000
# 2 33.0255 98.6573 64.3111 0.0000 0.0000 0.0000
# 3 60.1854 64.3111 122.2205 0.0000 0.0000 0.0000
# 4 0.0000 0.0000 0.0000 21.4576 0.0000 0.0000
# 5 0.0000 0.0000 0.0000 0.0000 26.1894 0.0000
# 6 0.0000 0.0000 0.0000 0.0000 0.0000 35.9251
#
#
#
# Elastic Compliance Matrix: (Units=1/GPa)
#
#
# Indices 1 2 3 4 5 6 
#
# 1 0.008453 -0.000177 -0.004069 0.000000 0.000000 0.000000
# 2 -0.000177 0.015432 -0.008033 0.000000 0.000000 0.000000
# 3 -0.004069 -0.008033 0.014413 0.000000 0.000000 0.000000
# 4 0.000000 0.000000 0.000000 0.046604 0.000000 0.000000
# 5 0.000000 0.000000 0.000000 0.000000 0.038183 0.000000
# 6 0.000000 0.000000 0.000000 0.000000 0.000000 0.027836
#
#
# Mechanical properties :
#
#
# Convention : Reuss Voigt Hill
#
# Bulk Modulus (GPa) = 72.78626 75.98783 74.38704
# Shear Modulus (GPa) = 27.76888 30.80273 29.28581
#
# Velocity S-wave (km/s) = 3.53945 3.72779 3.63484
# Velocity P-wave (km/s) = 7.03851 7.26704 7.15369
#
# Compressibility (1/GPa) = 0.01373886
#
# Stress axis : x y z
#
# Youngs Moduli (GPa) = 118.30323 64.80198 69.38362
#
# Poissons Ratio (x) = 0.01146 0.28235
# Poissons Ratio (y) = 0.02093 0.55735
# Poissons Ratio (z) = 0.48142 0.52054
#
# Static dielectric constant tensor:
#      x y z
#    x 4.484170 0.000000 0.000000 
#    y 0.000000 3.923730 0.000000 
#    z 0.000000 0.000000 3.930250 
# 
# 
# High freq. dielectric constant tensor:
#      x y z
#    x 1.902920 0.000000 0.000000 
#    y 0.000000 1.858480 0.000000 
#    z 0.000000 0.000000 1.876050 
# 
# From -- ./inp_files/17878.got.cif
#   From: 2010.03.12/outbox.cif.g09.slc.cpg/sg56_9_cif.got.tgz:17878.got - 2010.04.16 15:33:40.
