data_PCOD8229762
_publ_section_title
;
Structure prediction by ZEFSAII (Michael W. Deem and Ramdas Pophale) SiO2 
 PCOD8229762
Probable space group: P C C N
;
_chemical_formula_sum "Si O2"
_cell_formula_units_Z 36
_cell_length_a 11.120445
_cell_length_b 5.283560
_cell_length_c 24.604491
_cell_angle_alpha 90.000000
_cell_angle_beta 90.000000
_cell_angle_gamma 90.000000
_cell_volume 1445.650115
_symmetry_space_group_name_H-M "P C C N"
_symmetry_group_IT_number 56
_symmetry_cell_setting 'orthorhombic'
loop_
_space_group_symop_operation_xyz
x,y,z
1/2-x,1/2-y,z
1/2+x,-y,1/2-z
-x,1/2+y,1/2-z
-x,-y,-z
1/2+x,1/2+y,-z
1/2-x,y,1/2+z
x,1/2-y,1/2+z
loop_
_atom_site_type_symbol
_atom_site_label
_atom_site_fract_x
_atom_site_fract_y
_atom_site_fract_z
Si Si1 0.417151 0.806643 0.469385
Si Si2 0.319589 0.507967 0.862698
Si Si3 0.028085 0.951150 0.216928
Si Si4 0.647688 0.956437 0.937437
Si Si5 0.750000 0.250000 0.340280
O O1 0.329566 0.950543 0.427626
O O2 0.338461 0.654384 0.513252
O O3 0.509281 0.632111 0.435084
O O4 0.500000 0.000000 0.500000
O O5 0.250000 0.750000 0.836918
O O6 0.450823 0.493895 0.837095
O O7 0.250000 0.250000 0.850748
O O8 0.979323 0.699529 0.246122
O O9 0.166053 0.918921 0.198518
O O10 0.750000 0.750000 0.949466
O O11 0.667610 0.074748 0.878215
#
# Coordination Sequence:
#
# PCOD8229762 Si02
#       5
#     8   8   8   8   4
#     4  11  27  45  72 117 162 213 268 319 394 492
#     4  12  30  50  80 117 164 207 263 337 407 485
#     4  12  31  56  85 119 154 212 278 350 422 484
#     4  11  25  46  76 113 164 213 270 324 402 489
#     4  12  30  52  84 114 164 212 280 346 406 520
#
# _framework density 24.902291000000002
#
# number of rings (size 3 to 8) (size 9 to 14) (size 15 to 20)
#    0.000    0.444    0.000    5.333   24.889    0.000 
#    0.000    0.000    0.000    0.000    0.000    0.000 
#    0.000    0.000    0.000    0.000    0.000    0.000 
#
# Total GULP energy -446568.094116 kJ/mol
# GULP energy per Si atom -12404.669281 kJ/mol
# Density = 2.484561 g / cm^3
# Si number density = 24.902291 Si / 1000 Ang^3
#
#
#
# Elastic Constant Matrix: (Units=GPa)
#
#
# Indices 1 2 3 4 5 6 
#
# 1 72.3053 14.8268 15.1522 0.0000 0.0000 0.0000
# 2 14.8268 149.9541 37.6167 0.0000 0.0000 0.0000
# 3 15.1522 37.6167 112.2481 0.0000 0.0000 0.0000
# 4 0.0000 0.0000 0.0000 38.0844 0.0000 0.0000
# 5 0.0000 0.0000 0.0000 0.0000 49.4598 0.0000
# 6 0.0000 0.0000 0.0000 0.0000 0.0000 56.4638
#
#
#
# Elastic Compliance Matrix: (Units=1/GPa)
#
#
# Indices 1 2 3 4 5 6 
#
# 1 0.014374 -0.001020 -0.001598 0.000000 0.000000 0.000000
# 2 -0.001020 0.007353 -0.002326 0.000000 0.000000 0.000000
# 3 -0.001598 -0.002326 0.009904 0.000000 0.000000 0.000000
# 4 0.000000 0.000000 0.000000 0.026257 0.000000 0.000000
# 5 0.000000 0.000000 0.000000 0.000000 0.020218 0.000000
# 6 0.000000 0.000000 0.000000 0.000000 0.000000 0.017710
#
#
# Mechanical properties :
#
#
# Convention : Reuss Voigt Hill
#
# Bulk Modulus (GPa) = 45.99517 52.18877 49.09197
# Shear Modulus (GPa) = 44.26507 46.59572 45.43039
#
# Velocity S-wave (km/s) = 4.22067 4.33036 4.27587
# Velocity P-wave (km/s) = 6.50096 6.78275 6.64335
#
# Compressibility (1/GPa) = 0.02174141
#
# Stress axis : x y z
#
# Youngs Moduli (GPa) = 69.56791 135.99519 100.96663
#
# Poissons Ratio (x) = 0.13876 0.16139
# Poissons Ratio (y) = 0.07098 0.23490
# Poissons Ratio (z) = 0.11120 0.31639
#
# Static dielectric constant tensor:
#      x y z
#    x 3.438200 0.000000 0.000000 
#    y 0.000000 4.752000 0.000000 
#    z 0.000000 0.000000 1.464770 
# 
# 
# High freq. dielectric constant tensor:
#      x y z
#    x 2.012970 0.000000 0.000000 
#    y 0.000000 2.004090 0.000000 
#    z 0.000000 0.000000 1.993570 
# 
# From -- ./inp_files/20781.got.cif
#   From: 2010.03.12/outbox.cif.g09.slc.cpg/sg56_11_cif.got.tgz:20781.got - 2010.04.16 15:33:40.
