data_PCOD8229587
_publ_section_title
;
Structure prediction by ZEFSAII (Michael W. Deem and Ramdas Pophale) SiO2 
 PCOD8229587
Probable space group: P C C N
;
_chemical_formula_sum "Si O2"
_cell_formula_units_Z 32
_cell_length_a 16.834505
_cell_length_b 9.704467
_cell_length_c 8.650442
_cell_angle_alpha 90.000000
_cell_angle_beta 90.000000
_cell_angle_gamma 90.000000
_cell_volume 1413.221829
_symmetry_space_group_name_H-M "P C C N"
_symmetry_group_IT_number 56
_symmetry_cell_setting 'orthorhombic'
loop_
_space_group_symop_operation_xyz
x,y,z
1/2-x,1/2-y,z
1/2+x,-y,1/2-z
-x,1/2+y,1/2-z
-x,-y,-z
1/2+x,1/2+y,-z
1/2-x,y,1/2+z
x,1/2-y,1/2+z
loop_
_atom_site_type_symbol
_atom_site_label
_atom_site_fract_x
_atom_site_fract_y
_atom_site_fract_z
Si Si1 0.424371 0.643877 0.356465
Si Si2 0.832198 0.675762 0.636047
Si Si3 0.085865 0.930791 0.012062
Si Si4 0.899686 0.897952 0.447389
O O1 0.393165 0.617452 0.184352
O O2 0.410583 0.802288 0.396022
O O3 0.516112 0.598592 0.361882
O O4 0.377998 0.545930 0.478281
O O5 0.750000 0.750000 0.594241
O O6 0.844803 0.535709 0.539354
O O7 0.900957 0.783822 0.584167
O O8 0.835357 0.643650 0.818093
O O9 0.000000 0.000000 0.000000
#
# Coordination Sequence:
#
# PCOD8229587 Si02
#       4
#     8   8   8   8
#     4  11  23  39  70 105 138 183 247 307 359 413
#     4  12  25  42  66 100 144 193 235 288 370 447
#     4  12  23  41  69 105 143 185 242 309 358 427
#     4  11  22  40  66 101 142 185 239 301 356 428
#
# _framework density 22.643295999999999
#
# number of rings (size 3 to 8) (size 9 to 14) (size 15 to 20)
#    0.000    0.500    5.000    3.750    3.500    0.000 
#    0.000    2.500    0.000    6.000    0.000    0.000 
#    0.000    0.000    0.000    0.000    0.000    0.000 
#
# Total GULP energy -396920.496065 kJ/mol
# GULP energy per Si atom -12403.765502 kJ/mol
# Density = 2.259176 g / cm^3
# Si number density = 22.643296 Si / 1000 Ang^3
#
#
#
# Elastic Constant Matrix: (Units=GPa)
#
#
# Indices 1 2 3 4 5 6 
#
# 1 55.4717 45.8722 47.7421 0.0000 0.0000 0.0000
# 2 45.8722 201.2587 80.7125 0.0000 0.0000 0.0000
# 3 47.7421 80.7125 156.6049 0.0000 0.0000 0.0000
# 4 0.0000 0.0000 0.0000 53.6643 0.0000 0.0000
# 5 0.0000 0.0000 0.0000 0.0000 26.2022 0.0000
# 6 0.0000 0.0000 0.0000 0.0000 0.0000 38.4864
#
#
#
# Elastic Compliance Matrix: (Units=1/GPa)
#
#
# Indices 1 2 3 4 5 6 
#
# 1 0.026257 -0.003497 -0.006202 0.000000 0.000000 0.000000
# 2 -0.003497 0.006729 -0.002402 0.000000 0.000000 0.000000
# 3 -0.006202 -0.002402 0.009514 0.000000 0.000000 0.000000
# 4 0.000000 0.000000 0.000000 0.018634 0.000000 0.000000
# 5 0.000000 0.000000 0.000000 0.000000 0.038165 0.000000
# 6 0.000000 0.000000 0.000000 0.000000 0.000000 0.025983
#
#
# Mechanical properties :
#
#
# Convention : Reuss Voigt Hill
#
# Bulk Modulus (GPa) = 54.65193 84.66544 69.65868
# Shear Modulus (GPa) = 32.13672 39.60449 35.87060
#
# Velocity S-wave (km/s) = 3.77139 4.18671 3.98447
# Velocity P-wave (km/s) = 6.56909 7.80023 7.21098
#
# Compressibility (1/GPa) = 0.01829762
#
# Stress axis : x y z
#
# Youngs Moduli (GPa) = 38.08457 148.60722 105.10601
#
# Poissons Ratio (x) = 0.51974 0.65189
# Poissons Ratio (y) = 0.13320 0.25246
# Poissons Ratio (z) = 0.23621 0.35694
#
# Static dielectric constant tensor:
#      x y z
#    x 3.586010 0.000000 0.000000 
#    y 0.000000 4.334870 0.000000 
#    z 0.000000 0.000000 4.222030 
# 
# 
# High freq. dielectric constant tensor:
#      x y z
#    x 1.846470 0.000000 0.000000 
#    y 0.000000 1.911760 0.000000 
#    z 0.000000 0.000000 1.913470 
# 
# From -- ./inp_files/1914.got.cif
#   From: 2010.03.12/outbox.cif.g09.slc.cpg/sg56_1_cif.got.tgz:1914.got - 2010.04.16 15:33:40.
