data_PCOD8229681
_publ_section_title
;
Structure prediction by ZEFSAII (Michael W. Deem and Ramdas Pophale) SiO2 
 PCOD8229681
Probable space group: P C C N
;
_chemical_formula_sum "Si O2"
_cell_formula_units_Z 48
_cell_length_a 9.427070
_cell_length_b 16.816903
_cell_length_c 14.967874
_cell_angle_alpha 90.000000
_cell_angle_beta 90.000000
_cell_angle_gamma 90.000000
_cell_volume 2372.918759
_symmetry_space_group_name_H-M "P C C N"
_symmetry_group_IT_number 56
_symmetry_cell_setting 'orthorhombic'
loop_
_space_group_symop_operation_xyz
x,y,z
1/2-x,1/2-y,z
1/2+x,-y,1/2-z
-x,1/2+y,1/2-z
-x,-y,-z
1/2+x,1/2+y,-z
1/2-x,y,1/2+z
x,1/2-y,1/2+z
loop_
_atom_site_type_symbol
_atom_site_label
_atom_site_fract_x
_atom_site_fract_y
_atom_site_fract_z
Si Si1 0.988241 0.921985 0.559049
Si Si2 0.917029 0.754445 0.490124
Si Si3 0.495980 0.173054 0.334170
Si Si4 0.260382 0.429834 0.288958
Si Si5 0.961313 0.686665 0.296882
Si Si6 0.709796 0.400420 0.289968
O O1 0.972243 0.844747 0.496841
O O2 0.851573 0.928000 0.621405
O O3 0.130171 0.914343 0.616971
O O4 0.000000 0.000000 0.500000
O O5 0.750000 0.750000 0.505333
O O6 0.991238 0.697109 0.562123
O O7 0.962771 0.724029 0.393905
O O8 0.398768 0.096756 0.313072
O O9 0.437605 0.247186 0.278407
O O10 0.656461 0.155414 0.307574
O O11 0.329242 0.373495 0.213170
O O12 0.261215 0.517356 0.250280
O O13 0.110013 0.642123 0.282404
#
# Coordination Sequence:
#
# PCOD8229681 Si02
#       6
#     8   8   8   8   8   8
#     4  11  26  45  65 102 140 178 227 283 346 403
#     4  12  24  44  74 102 133 184 237 282 332 417
#     4  12  22  46  69  99 136 174 230 283 330 412
#     4  11  23  46  70  95 139 182 226 278 340 416
#     4  11  25  43  70 101 131 180 230 275 346 399
#     4  11  26  44  66 102 143 175 218 288 351 403
#
# _framework density 20.228252000000001
#
# number of rings (size 3 to 8) (size 9 to 14) (size 15 to 20)
#    0.000    0.667    5.000    4.000    7.000    1.333 
#    3.000    2.500    0.000    0.000    0.000    0.000 
#    0.000    0.000    0.000    0.000    0.000    0.000 
#
# Total GULP energy -595541.840867 kJ/mol
# GULP energy per Si atom -12407.121685 kJ/mol
# Density = 2.018221 g / cm^3
# Si number density = 20.228252 Si / 1000 Ang^3
#
#
#
# Elastic Constant Matrix: (Units=GPa)
#
#
# Indices 1 2 3 4 5 6 
#
# 1 101.6955 30.4334 22.4520 0.0000 0.0000 0.0000
# 2 30.4334 114.1116 52.2173 0.0000 0.0000 0.0000
# 3 22.4520 52.2173 130.0927 0.0000 0.0000 0.0000
# 4 0.0000 0.0000 0.0000 33.1968 0.0000 0.0000
# 5 0.0000 0.0000 0.0000 0.0000 18.9703 0.0000
# 6 0.0000 0.0000 0.0000 0.0000 0.0000 43.2710
#
#
#
# Elastic Compliance Matrix: (Units=1/GPa)
#
#
# Indices 1 2 3 4 5 6 
#
# 1 0.010765 -0.002476 -0.000864 0.000000 0.000000 0.000000
# 2 -0.002476 0.011304 -0.004110 0.000000 0.000000 0.000000
# 3 -0.000864 -0.004110 0.009486 0.000000 0.000000 0.000000
# 4 0.000000 0.000000 0.000000 0.030123 0.000000 0.000000
# 5 0.000000 0.000000 0.000000 0.000000 0.052714 0.000000
# 6 0.000000 0.000000 0.000000 0.000000 0.000000 0.023110
#
#
# Mechanical properties :
#
#
# Convention : Reuss Voigt Hill
#
# Bulk Modulus (GPa) = 60.04134 61.78947 60.91540
# Shear Modulus (GPa) = 31.65475 35.14076 33.39775
#
# Velocity S-wave (km/s) = 3.96015 4.17251 4.06771
# Velocity P-wave (km/s) = 7.11735 7.33659 7.22780
#
# Compressibility (1/GPa) = 0.01665519
#
# Stress axis : x y z
#
# Youngs Moduli (GPa) = 92.89454 88.46127 105.42141
#
# Poissons Ratio (x) = 0.21899 0.09111
# Poissons Ratio (y) = 0.22996 0.43330
# Poissons Ratio (z) = 0.08028 0.36359
#
# Static dielectric constant tensor:
#      x y z
#    x 3.759540 0.000000 0.000000 
#    y 0.000000 4.202750 0.000000 
#    z 0.000000 0.000000 3.798690 
# 
# 
# High freq. dielectric constant tensor:
#      x y z
#    x 1.800390 0.000000 0.000000 
#    y 0.000000 1.806990 0.000000 
#    z 0.000000 0.000000 1.789950 
# 
# From -- ./inp_files/10666.got.cif
#   From: 2010.03.12/outbox.cif.g09.slc.cpg/sg56_6_cif.got.tgz:10666.got - 2010.04.16 15:33:40.
