data_PCOD8229436
_publ_section_title
;
Structure prediction by ZEFSAII (Michael W. Deem and Ramdas Pophale) SiO2 
 PCOD8229436
Probable space group: P C C N
;
_chemical_formula_sum "Si O2"
_cell_formula_units_Z 32
_cell_length_a 7.382668
_cell_length_b 10.821504
_cell_length_c 16.744100
_cell_angle_alpha 90.000000
_cell_angle_beta 90.000000
_cell_angle_gamma 90.000000
_cell_volume 1337.712459
_symmetry_space_group_name_H-M "P C C N"
_symmetry_group_IT_number 56
_symmetry_cell_setting 'orthorhombic'
loop_
_space_group_symop_operation_xyz
x,y,z
1/2-x,1/2-y,z
1/2+x,-y,1/2-z
-x,1/2+y,1/2-z
-x,-y,-z
1/2+x,1/2+y,-z
1/2-x,y,1/2+z
x,1/2-y,1/2+z
loop_
_atom_site_type_symbol
_atom_site_label
_atom_site_fract_x
_atom_site_fract_y
_atom_site_fract_z
Si Si1 0.111644 0.121538 0.503463
Si Si2 0.585845 0.166529 0.765790
Si Si3 0.693946 0.543202 0.850410
Si Si4 0.959888 0.831555 0.089095
O O1 0.200300 0.135164 0.590437
O O2 0.254481 0.123194 0.428715
O O3 0.984861 0.241357 0.485630
O O4 0.000000 0.000000 0.500000
O O5 0.750000 0.250000 0.729500
O O6 0.438644 0.129181 0.700394
O O7 0.483244 0.251754 0.830080
O O8 0.665052 0.036528 0.798236
O O9 0.586275 0.450456 0.908775
#
# Coordination Sequence:
#
# PCOD8229436 Si02
#       4
#     8   8   8   8
#     4  11  23  44  74 103 143 197 240 298 365 433
#     4  10  24  48  75 107 145 191 247 309 375 445
#     4  11  24  47  75 104 146 193 244 309 372 441
#     4  10  24  48  69 106 148 188 244 306 358 446
#
# _framework density 23.921434000000001
#
# number of rings (size 3 to 8) (size 9 to 14) (size 15 to 20)
#    0.000    1.500    2.500    0.750    7.000    0.000 
#   27.000    0.000    0.000    0.000    0.000    0.000 
#    0.000    0.000    0.000    0.000    0.000    0.000 
#
# Total GULP energy -396445.488555 kJ/mol
# GULP energy per Si atom -12388.921517 kJ/mol
# Density = 2.386699 g / cm^3
# Si number density = 23.921434 Si / 1000 Ang^3
#
#
#
# Elastic Constant Matrix: (Units=GPa)
#
#
# Indices 1 2 3 4 5 6 
#
# 1 91.8976 40.3859 62.2514 0.0000 0.0000 0.0000
# 2 40.3859 127.7049 62.8067 0.0000 0.0000 0.0000
# 3 62.2514 62.8067 131.4821 0.0000 0.0000 0.0000
# 4 0.0000 0.0000 0.0000 48.2759 0.0000 0.0000
# 5 0.0000 0.0000 0.0000 0.0000 52.1874 0.0000
# 6 0.0000 0.0000 0.0000 0.0000 0.0000 60.6237
#
#
#
# Elastic Compliance Matrix: (Units=1/GPa)
#
#
# Indices 1 2 3 4 5 6 
#
# 1 0.016323 -0.001779 -0.006878 0.000000 0.000000 0.000000
# 2 -0.001779 0.010429 -0.004139 0.000000 0.000000 0.000000
# 3 -0.006878 -0.004139 0.012840 0.000000 0.000000 0.000000
# 4 0.000000 0.000000 0.000000 0.020714 0.000000 0.000000
# 5 0.000000 0.000000 0.000000 0.000000 0.019162 0.000000
# 6 0.000000 0.000000 0.000000 0.000000 0.000000 0.016495
#
#
# Mechanical properties :
#
#
# Convention : Reuss Voigt Hill
#
# Bulk Modulus (GPa) = 71.44063 75.77473 73.60768
# Shear Modulus (GPa) = 39.61260 44.59344 42.10302
#
# Velocity S-wave (km/s) = 4.07375 4.32228 4.19985
# Velocity P-wave (km/s) = 7.21504 7.52693 7.37263
#
# Compressibility (1/GPa) = 0.01399764
#
# Stress axis : x y z
#
# Youngs Moduli (GPa) = 61.26338 95.88644 77.88439
#
# Poissons Ratio (x) = 0.17060 0.53572
# Poissons Ratio (y) = 0.10900 0.32239
# Poissons Ratio (z) = 0.42139 0.39691
#
# Static dielectric constant tensor:
#      x y z
#    x 4.925390 0.000000 0.000000 
#    y 0.000000 4.658240 0.000000 
#    z 0.000000 0.000000 4.305720 
# 
# 
# High freq. dielectric constant tensor:
#      x y z
#    x 1.946680 0.000000 0.000000 
#    y 0.000000 1.974300 0.000000 
#    z 0.000000 0.000000 1.932060 
# 
# From -- ./inp_files/10074.got.cif
#   From: 2010.03.12/outbox.cif.g09.slc.cpg/sg56_6_cif.got.tgz:10074.got - 2010.04.16 15:33:40.
