data_PCOD8229963
_publ_section_title
;
Structure prediction by ZEFSAII (Michael W. Deem and Ramdas Pophale) SiO2 
 PCOD8229963
Probable space group: P B C M
;
_chemical_formula_sum "Si O2"
_cell_formula_units_Z 32
_cell_length_a 9.694202
_cell_length_b 21.060624
_cell_length_c 8.744253
_cell_angle_alpha 90.000000
_cell_angle_beta 90.000000
_cell_angle_gamma 90.000000
_cell_volume 1785.278662
_symmetry_space_group_name_H-M "P B C M"
_symmetry_group_IT_number 57
_symmetry_cell_setting 'orthorhombic'
loop_
_space_group_symop_operation_xyz
x,y,z
-x,-y,1/2+z
x,1/2-y,-z
-x,1/2+y,1/2-z
-x,-y,-z
x,y,1/2-z
-x,1/2+y,z
x,1/2-y,1/2+z
loop_
_atom_site_type_symbol
_atom_site_label
_atom_site_fract_x
_atom_site_fract_y
_atom_site_fract_z
Si Si1 0.588055 0.443586 0.068128
Si Si2 0.109685 0.810106 0.428504
Si Si3 0.901872 0.050793 0.574372
Si Si4 0.591113 0.313623 0.930470
O O1 0.578491 0.442258 0.250000
O O2 0.745833 0.452589 0.010506
O O3 0.500000 0.500000 0.000000
O O4 0.526124 0.377390 0.003658
O O5 0.023521 0.750000 0.500000
O O6 0.143234 0.799339 0.250000
O O7 0.034916 0.878109 0.451718
O O8 0.248930 0.812247 0.525645
O O9 0.897047 0.033243 0.750000
O O10 0.000000 0.000000 0.500000
O O11 0.569477 0.314808 0.750000
O O12 0.519172 0.250000 0.000000
#
# Coordination Sequence:
#
# PCOD8229963 Si02
#       4
#     8   8   8   8
#     4  10  20  34  50  73 100 128 162 202 243 290
#     4   9  16  27  43  67  94 121 156 199 238 280
#     4   9  19  32  48  71  99 126 159 197 237 285
#     4  10  17  27  45  69  95 125 158 198 241 283
#
# _framework density 17.924374
#
# number of rings (size 3 to 8) (size 9 to 14) (size 15 to 20)
#    0.000    2.500    0.000    6.750    0.000    6.000 
#    0.000    0.000    0.000    1.500    0.000    3.500 
#    0.000    0.000    0.000    0.000    0.000    0.000 
#
# Total GULP energy -396459.544849 kJ/mol
# GULP energy per Si atom -12389.360777 kJ/mol
# Density = 1.788358 g / cm^3
# Si number density = 17.924374 Si / 1000 Ang^3
#
#
#
# Elastic Constant Matrix: (Units=GPa)
#
#
# Indices 1 2 3 4 5 6 
#
# 1 38.5561 52.2981 26.6720 0.0000 0.0000 0.0000
# 2 52.2981 207.9175 75.4567 0.0000 0.0000 0.0000
# 3 26.6720 75.4567 110.2333 0.0000 0.0000 0.0000
# 4 0.0000 0.0000 0.0000 41.4238 0.0000 0.0000
# 5 0.0000 0.0000 0.0000 0.0000 20.2759 0.0000
# 6 0.0000 0.0000 0.0000 0.0000 0.0000 24.9171
#
#
#
# Elastic Compliance Matrix: (Units=1/GPa)
#
#
# Indices 1 2 3 4 5 6 
#
# 1 0.040507 -0.008824 -0.003761 0.000000 0.000000 0.000000
# 2 -0.008824 0.008322 -0.003561 0.000000 0.000000 0.000000
# 3 -0.003761 -0.003561 0.012419 0.000000 0.000000 0.000000
# 4 0.000000 0.000000 0.000000 0.024141 0.000000 0.000000
# 5 0.000000 0.000000 0.000000 0.000000 0.049320 0.000000
# 6 0.000000 0.000000 0.000000 0.000000 0.000000 0.040133
#
#
# Mechanical properties :
#
#
# Convention : Reuss Voigt Hill
#
# Bulk Modulus (GPa) = 34.53556 73.95118 54.24337
# Shear Modulus (GPa) = 23.06433 30.80870 26.93651
#
# Velocity S-wave (km/s) = 3.59103 4.15036 3.88078
# Velocity P-wave (km/s) = 6.04179 8.01961 7.09991
#
# Compressibility (1/GPa) = 0.02895566
#
# Stress axis : x y z
#
# Youngs Moduli (GPa) = 24.68724 120.17039 80.51942
#
# Poissons Ratio (x) = 1.06037 0.30283
# Poissons Ratio (y) = 0.21784 0.28675
# Poissons Ratio (z) = 0.09285 0.42795
#
# Static dielectric constant tensor:
#      x y z
#    x 2.389620 0.000000 0.000000 
#    y 0.000000 4.385300 0.000000 
#    z 0.000000 0.000000 3.615100 
# 
# 
# High freq. dielectric constant tensor:
#      x y z
#    x 1.613080 0.000000 0.000000 
#    y 0.000000 1.729620 0.000000 
#    z 0.000000 0.000000 1.706830 
# 
# From -- ./inp_files/1221.got.cif
#   From: 2010.03.12/outbox.cif.g09.slc.cpg/sg57_1_cif.got.tgz:1221.got - 2010.04.16 15:48:40.
