data_PCOD8229605
_publ_section_title
;
Structure prediction by ZEFSAII (Michael W. Deem and Ramdas Pophale) SiO2 
 PCOD8229605
Probable space group: P C C N
;
_chemical_formula_sum "Si O2"
_cell_formula_units_Z 64
_cell_length_a 11.278023
_cell_length_b 31.461214
_cell_length_c 8.566907
_cell_angle_alpha 90.000000
_cell_angle_beta 90.000000
_cell_angle_gamma 90.000000
_cell_volume 3039.712470
_symmetry_space_group_name_H-M "P C C N"
_symmetry_group_IT_number 56
_symmetry_cell_setting 'orthorhombic'
loop_
_space_group_symop_operation_xyz
x,y,z
1/2-x,1/2-y,z
1/2+x,-y,1/2-z
-x,1/2+y,1/2-z
-x,-y,-z
1/2+x,1/2+y,-z
1/2-x,y,1/2+z
x,1/2-y,1/2+z
loop_
_atom_site_type_symbol
_atom_site_label
_atom_site_fract_x
_atom_site_fract_y
_atom_site_fract_z
Si Si1 0.517393 0.379062 0.257554
Si Si2 0.393550 0.712240 0.275349
Si Si3 0.040705 0.357105 0.099515
Si Si4 0.408743 0.574661 0.221099
Si Si5 0.357154 0.697966 0.907767
Si Si6 0.722163 0.593644 0.884561
Si Si7 0.318469 0.557524 0.894890
Si Si8 0.142500 0.461465 0.337858
O O1 0.525871 0.365972 0.437222
O O2 0.570527 0.343084 0.145786
O O3 0.379402 0.386286 0.221782
O O4 0.591434 0.422672 0.232264
O O5 0.514585 0.691141 0.344622
O O6 0.282028 0.691895 0.368955
O O7 0.405291 0.762123 0.308852
O O8 0.376081 0.705254 0.091256
O O9 0.179481 0.369437 0.088385
O O10 0.980010 0.383026 0.239471
O O11 0.317667 0.565402 0.357746
O O12 0.503799 0.536523 0.207816
O O13 0.340385 0.580425 0.058967
O O14 0.778299 0.550551 0.811761
O O15 0.663630 0.577723 0.044066
O O16 0.329847 0.507012 0.908254
#
# Coordination Sequence:
#
# PCOD8229605 Si02
#       8
#     8   8   8   8   8   8   8   8
#     4  12  24  41  65  96 129 174 217 277 332 398
#     4  11  22  42  67 102 136 178 214 270 325 403
#     4  11  24  42  66  92 132 172 229 266 334 402
#     4  11  24  40  60  93 124 168 213 279 327 393
#     4  11  23  40  70  99 144 174 217 270 337 384
#     4  11  24  43  66  89 128 175 222 277 338 396
#     4  12  24  39  65  90 131 165 226 275 340 395
#     4  11  24  43  64  89 126 174 221 278 336 399
#
# _framework density 21.054621999999998
#
# number of rings (size 3 to 8) (size 9 to 14) (size 15 to 20)
#    0.000    0.750    2.500    6.375    3.500    0.000 
#    0.000    3.750    0.000    3.000    0.000    0.000 
#    0.000    0.000    0.000    0.000    0.000    0.000 
#
# Total GULP energy -793651.231393 kJ/mol
# GULP energy per Si atom -12400.800491 kJ/mol
# Density = 2.100670 g / cm^3
# Si number density = 21.054622 Si / 1000 Ang^3
#
#
#
# Elastic Constant Matrix: (Units=GPa)
#
#
# Indices 1 2 3 4 5 6 
#
# 1 122.5464 41.4913 29.1606 0.0000 0.0000 0.0000
# 2 41.4913 82.7789 23.2792 0.0000 0.0000 0.0000
# 3 29.1606 23.2792 102.5303 0.0000 0.0000 0.0000
# 4 0.0000 0.0000 0.0000 28.4062 0.0000 0.0000
# 5 0.0000 0.0000 0.0000 0.0000 37.5927 0.0000
# 6 0.0000 0.0000 0.0000 0.0000 0.0000 21.8648
#
#
#
# Elastic Compliance Matrix: (Units=1/GPa)
#
#
# Indices 1 2 3 4 5 6 
#
# 1 0.010146 -0.004565 -0.001849 0.000000 0.000000 0.000000
# 2 -0.004565 0.014959 -0.002098 0.000000 0.000000 0.000000
# 3 -0.001849 -0.002098 0.010755 0.000000 0.000000 0.000000
# 4 0.000000 0.000000 0.000000 0.035204 0.000000 0.000000
# 5 0.000000 0.000000 0.000000 0.000000 0.026601 0.000000
# 6 0.000000 0.000000 0.000000 0.000000 0.000000 0.045736
#
#
# Mechanical properties :
#
#
# Convention : Reuss Voigt Hill
#
# Bulk Modulus (GPa) = 53.09173 55.07974 54.08573
# Shear Modulus (GPa) = 29.99341 31.83436 30.91389
#
# Velocity S-wave (km/s) = 3.77842 3.89265 3.83596
# Velocity P-wave (km/s) = 6.65629 6.81328 6.73524
#
# Compressibility (1/GPa) = 0.01883532
#
# Stress axis : x y z
#
# Youngs Moduli (GPa) = 98.56181 66.85084 92.97651
#
# Poissons Ratio (x) = 0.30520 0.17192
# Poissons Ratio (y) = 0.44998 0.19505
# Poissons Ratio (z) = 0.18224 0.14024
#
# Static dielectric constant tensor:
#      x y z
#    x 4.016700 0.000000 0.000000 
#    y 0.000000 3.754280 0.000000 
#    z 0.000000 0.000000 3.944130 
# 
# 
# High freq. dielectric constant tensor:
#      x y z
#    x 1.825410 0.000000 0.000000 
#    y 0.000000 1.814580 0.000000 
#    z 0.000000 0.000000 1.842100 
# 
# From -- ./inp_files/2987.got.cif
#   From: 2010.03.12/outbox.cif.g09.slc.cpg/sg56_2_cif.got.tgz:2987.got - 2010.04.16 15:33:40.
