data_PCOD8229353
_publ_section_title
;
Structure prediction by ZEFSAII (Michael W. Deem and Ramdas Pophale) SiO2 
 PCOD8229353
Probable space group: P C C N
;
_chemical_formula_sum "Si O2"
_cell_formula_units_Z 36
_cell_length_a 17.137168
_cell_length_b 4.807259
_cell_length_c 19.646905
_cell_angle_alpha 90.000000
_cell_angle_beta 90.000000
_cell_angle_gamma 90.000000
_cell_volume 1618.567145
_symmetry_space_group_name_H-M "P C C N"
_symmetry_group_IT_number 56
_symmetry_cell_setting 'orthorhombic'
loop_
_space_group_symop_operation_xyz
x,y,z
1/2-x,1/2-y,z
1/2+x,-y,1/2-z
-x,1/2+y,1/2-z
-x,-y,-z
1/2+x,1/2+y,-z
1/2-x,y,1/2+z
x,1/2-y,1/2+z
loop_
_atom_site_type_symbol
_atom_site_label
_atom_site_fract_x
_atom_site_fract_y
_atom_site_fract_z
Si Si1 0.086629 0.914395 0.920656
Si Si2 0.173411 0.893822 0.628367
Si Si3 0.824471 0.603308 0.125971
Si Si4 0.250000 0.750000 0.758445
Si Si5 0.588500 0.907364 0.426846
O O1 0.142055 0.644973 0.920050
O O2 0.998758 0.809627 0.907038
O O3 0.112670 0.145787 0.864468
O O4 0.095525 0.069894 0.992307
O O5 0.250000 0.750000 0.593328
O O6 0.187208 0.909304 0.710066
O O7 0.099514 0.704227 0.609202
O O8 0.155180 0.200612 0.600878
O O9 0.750000 0.750000 0.089188
O O10 0.796577 0.478405 0.197903
#
# Coordination Sequence:
#
# PCOD8229353 Si02
#       5
#     8   8   8   4   8
#     4  11  25  41  72 100 141 170 217 282 345 407
#     4  10  24  41  73  90 136 178 225 273 333 386
#     4  12  23  44  70  96 135 182 225 276 336 387
#     4  10  26  44  68  92 138 176 232 294 306 396
#     4  11  23  46  65 105 137 171 215 279 345 407
#
# _framework density 22.241893999999998
#
# number of rings (size 3 to 8) (size 9 to 14) (size 15 to 20)
#    0.667    0.444    2.222    3.333    3.111    7.111 
#    2.000    4.444    0.000    0.000    0.000    0.000 
#    0.000    0.000    0.000    0.000    0.000    0.000 
#
# Total GULP energy -446222.158718 kJ/mol
# GULP energy per Si atom -12395.059964 kJ/mol
# Density = 2.219127 g / cm^3
# Si number density = 22.241894 Si / 1000 Ang^3
#
#
#
# Elastic Constant Matrix: (Units=GPa)
#
#
# Indices 1 2 3 4 5 6 
#
# 1 105.6394 35.8565 49.8942 0.0000 0.0000 0.0000
# 2 35.8565 117.7274 21.6184 0.0000 0.0000 0.0000
# 3 49.8942 21.6184 63.2073 0.0000 0.0000 0.0000
# 4 0.0000 0.0000 0.0000 24.1811 0.0000 0.0000
# 5 0.0000 0.0000 0.0000 0.0000 11.4769 0.0000
# 6 0.0000 0.0000 0.0000 0.0000 0.0000 49.2364
#
#
#
# Elastic Compliance Matrix: (Units=1/GPa)
#
#
# Indices 1 2 3 4 5 6 
#
# 1 0.015859 -0.002701 -0.011595 0.000000 0.000000 0.000000
# 2 -0.002701 0.009523 -0.001125 0.000000 0.000000 0.000000
# 3 -0.011595 -0.001125 0.025359 0.000000 0.000000 0.000000
# 4 0.000000 0.000000 0.000000 0.041355 0.000000 0.000000
# 5 0.000000 0.000000 0.000000 0.000000 0.087132 0.000000
# 6 0.000000 0.000000 0.000000 0.000000 0.000000 0.020310
#
#
# Mechanical properties :
#
#
# Convention : Reuss Voigt Hill
#
# Bulk Modulus (GPa) = 50.25409 55.70137 52.97773
# Shear Modulus (GPa) = 21.09579 28.92588 25.01083
#
# Velocity S-wave (km/s) = 3.08307 3.61018 3.35698
# Velocity P-wave (km/s) = 5.94282 6.51733 6.23670
#
# Compressibility (1/GPa) = 0.01989888
#
# Stress axis : x y z
#
# Youngs Moduli (GPa) = 63.05373 105.00358 39.43415
#
# Poissons Ratio (x) = 0.28363 0.45725
# Poissons Ratio (y) = 0.17032 0.04437
# Poissons Ratio (z) = 0.73112 0.11814
#
# Static dielectric constant tensor:
#      x y z
#    x 4.149340 0.000000 0.000000 
#    y 0.000000 4.094470 0.000000 
#    z 0.000000 0.000000 3.650790 
# 
# 
# High freq. dielectric constant tensor:
#      x y z
#    x 1.878030 0.000000 0.000000 
#    y 0.000000 1.895840 0.000000 
#    z 0.000000 0.000000 1.845040 
# 
# From -- ./inp_files/19226.got.cif
#   From: 2010.03.12/outbox.cif.g09.slc.cpg/sg56_10_cif.got.tgz:19226.got - 2010.04.16 15:33:40.
