data_PCOD8229855
_publ_section_title
;
Structure prediction by ZEFSAII (Michael W. Deem and Ramdas Pophale) SiO2 
 PCOD8229855
Probable space group: P C C N
;
_chemical_formula_sum "Si O2"
_cell_formula_units_Z 28
_cell_length_a 12.144265
_cell_length_b 6.431364
_cell_length_c 14.704684
_cell_angle_alpha 90.000000
_cell_angle_beta 90.000000
_cell_angle_gamma 90.000000
_cell_volume 1148.497414
_symmetry_space_group_name_H-M "P C C N"
_symmetry_group_IT_number 56
_symmetry_cell_setting 'orthorhombic'
loop_
_space_group_symop_operation_xyz
x,y,z
1/2-x,1/2-y,z
1/2+x,-y,1/2-z
-x,1/2+y,1/2-z
-x,-y,-z
1/2+x,1/2+y,-z
1/2-x,y,1/2+z
x,1/2-y,1/2+z
loop_
_atom_site_type_symbol
_atom_site_label
_atom_site_fract_x
_atom_site_fract_y
_atom_site_fract_z
Si Si1 0.629412 0.731113 0.849497
Si Si2 0.392146 0.105104 0.960772
Si Si3 0.436000 0.456707 0.814229
Si Si4 0.750000 0.250000 0.118116
O O1 0.750000 0.750000 0.801973
O O2 0.649407 0.757781 0.955837
O O3 0.561402 0.516975 0.839809
O O4 0.559062 0.902150 0.793305
O O5 0.405806 0.252499 0.873101
O O6 0.500000 0.000000 0.000000
O O7 0.302112 0.928906 0.943606
O O8 0.348799 0.645238 0.824528
#
# Coordination Sequence:
#
# PCOD8229855 Si02
#       4
#     8   8   8   4
#     4  12  27  46  78 107 150 198 256 310 371 461
#     4  12  26  49  75 112 148 197 250 311 381 446
#     4  12  28  50  71 113 152 196 252 312 380 441
#     4  12  26  48  78 102 160 198 242 322 370 444
#
# _framework density 24.379681000000001
#
# number of rings (size 3 to 8) (size 9 to 14) (size 15 to 20)
#    0.000    0.000    2.857    6.857    8.000    1.143 
#    0.000    0.000    0.000    0.000    0.000    0.000 
#    0.000    0.000    0.000    0.000    0.000    0.000 
#
# Total GULP energy -346963.799951 kJ/mol
# GULP energy per Si atom -12391.564284 kJ/mol
# Density = 2.432419 g / cm^3
# Si number density = 24.379681 Si / 1000 Ang^3
#
#
#
# Elastic Constant Matrix: (Units=GPa)
#
#
# Indices 1 2 3 4 5 6 
#
# 1 145.5914 50.2966 -6.0354 0.0000 0.0000 0.0000
# 2 50.2966 110.7383 22.7321 0.0000 0.0000 0.0000
# 3 -6.0354 22.7321 74.5566 0.0000 0.0000 0.0000
# 4 0.0000 0.0000 0.0000 45.2930 0.0000 0.0000
# 5 0.0000 0.0000 0.0000 0.0000 9.0131 0.0000
# 6 0.0000 0.0000 0.0000 0.0000 0.0000 61.2010
#
#
#
# Elastic Compliance Matrix: (Units=1/GPa)
#
#
# Indices 1 2 3 4 5 6 
#
# 1 0.008409 -0.004223 0.001968 0.000000 0.000000 0.000000
# 2 -0.004223 0.011754 -0.003926 0.000000 0.000000 0.000000
# 3 0.001968 -0.003926 0.014769 0.000000 0.000000 0.000000
# 4 0.000000 0.000000 0.000000 0.022078 0.000000 0.000000
# 5 0.000000 0.000000 0.000000 0.000000 0.110950 0.000000
# 6 0.000000 0.000000 0.000000 0.000000 0.000000 0.016340
#
#
# Mechanical properties :
#
#
# Convention : Reuss Voigt Hill
#
# Bulk Modulus (GPa) = 44.30471 51.65253 47.97862
# Shear Modulus (GPa) = 24.48749 40.69429 32.59089
#
# Velocity S-wave (km/s) = 3.17270 4.09000 3.66020
# Velocity P-wave (km/s) = 5.62438 6.59825 6.13068
#
# Compressibility (1/GPa) = 0.02257097
#
# Stress axis : x y z
#
# Youngs Moduli (GPa) = 118.91740 85.07418 67.70969
#
# Poissons Ratio (x) = 0.35931 -0.13328
# Poissons Ratio (y) = 0.50225 0.26581
# Poissons Ratio (z) = -0.23408 0.33398
#
# Static dielectric constant tensor:
#      x y z
#    x 4.885700 0.000000 0.000000 
#    y 0.000000 4.460480 0.000000 
#    z 0.000000 0.000000 5.388610 
# 
# 
# High freq. dielectric constant tensor:
#      x y z
#    x 1.998790 0.000000 0.000000 
#    y 0.000000 1.966540 0.000000 
#    z 0.000000 0.000000 1.973420 
# 
# From -- ./inp_files/15305.got.cif
#   From: 2010.03.12/outbox.cif.g09.slc.cpg/sg56_8_cif.got.tgz:15305.got - 2010.04.16 15:33:40.
