data_PCOD8229265
_publ_section_title
;
Structure prediction by ZEFSAII (Michael W. Deem and Ramdas Pophale) SiO2 
 PCOD8229265
Probable space group: P C C N
;
_chemical_formula_sum "Si O2"
_cell_formula_units_Z 48
_cell_length_a 14.229574
_cell_length_b 16.170819
_cell_length_c 9.354522
_cell_angle_alpha 90.000000
_cell_angle_beta 90.000000
_cell_angle_gamma 90.000000
_cell_volume 2152.511673
_symmetry_space_group_name_H-M "P C C N"
_symmetry_group_IT_number 56
_symmetry_cell_setting 'orthorhombic'
loop_
_space_group_symop_operation_xyz
x,y,z
1/2-x,1/2-y,z
1/2+x,-y,1/2-z
-x,1/2+y,1/2-z
-x,-y,-z
1/2+x,1/2+y,-z
1/2-x,y,1/2+z
x,1/2-y,1/2+z
loop_
_atom_site_type_symbol
_atom_site_label
_atom_site_fract_x
_atom_site_fract_y
_atom_site_fract_z
Si Si1 0.843081 0.033814 0.074226
Si Si2 0.647240 0.283984 0.121709
Si Si3 0.666599 0.477105 0.752454
Si Si4 0.968508 0.231059 0.383463
Si Si5 0.033962 0.396532 0.270768
Si Si6 0.567158 0.576597 0.535116
O O1 0.881674 0.126586 0.053017
O O2 0.761758 0.060496 0.187900
O O3 0.919243 0.970049 0.136569
O O4 0.812956 0.998294 0.917960
O O5 0.750000 0.250000 0.085234
O O6 0.625922 0.272863 0.288104
O O7 0.568473 0.227945 0.045381
O O8 0.575999 0.417821 0.744117
O O9 0.653560 0.551641 0.637648
O O10 0.037865 0.308293 0.349982
O O11 0.022022 0.145425 0.362856
O O12 0.093571 0.388338 0.122324
O O13 0.500000 0.500000 0.500000
#
# Coordination Sequence:
#
# PCOD8229265 Si02
#       6
#     8   8   8   8   8   8
#     4  12  26  42  72 101 142 184 233 288 350 421
#     4  12  26  40  64 101 144 177 226 288 353 426
#     4  11  24  43  67 101 134 183 231 281 347 418
#     4  12  24  42  67 100 135 183 235 286 351 418
#     4  11  23  45  67 102 138 188 234 283 352 415
#     4  10  23  42  69  91 138 182 232 279 348 413
#
# _framework density 22.299530000000001
#
# number of rings (size 3 to 8) (size 9 to 14) (size 15 to 20)
#    0.000    0.667    3.333    5.000    7.000    0.000 
#    0.000    0.833    0.000    4.000    0.000    0.000 
#    0.000    0.000    0.000    0.000    0.000    0.000 
#
# Total GULP energy -594640.673803 kJ/mol
# GULP energy per Si atom -12388.347371 kJ/mol
# Density = 2.224878 g / cm^3
# Si number density = 22.299530 Si / 1000 Ang^3
#
#
#
# Elastic Constant Matrix: (Units=GPa)
#
#
# Indices 1 2 3 4 5 6 
#
# 1 33.5830 18.2619 20.2382 0.0000 0.0000 0.0000
# 2 18.2619 122.8696 20.8978 0.0000 0.0000 0.0000
# 3 20.2382 20.8978 129.1234 0.0000 0.0000 0.0000
# 4 0.0000 0.0000 0.0000 34.2493 0.0000 0.0000
# 5 0.0000 0.0000 0.0000 0.0000 34.0064 0.0000
# 6 0.0000 0.0000 0.0000 0.0000 0.0000 22.1191
#
#
#
# Elastic Compliance Matrix: (Units=1/GPa)
#
#
# Indices 1 2 3 4 5 6 
#
# 1 0.035049 -0.004396 -0.004782 0.000000 0.000000 0.000000
# 2 -0.004396 0.008920 -0.000755 0.000000 0.000000 0.000000
# 3 -0.004782 -0.000755 0.008616 0.000000 0.000000 0.000000
# 4 0.000000 0.000000 0.000000 0.029198 0.000000 0.000000
# 5 0.000000 0.000000 0.000000 0.000000 0.029406 0.000000
# 6 0.000000 0.000000 0.000000 0.000000 0.000000 0.045210
#
#
# Mechanical properties :
#
#
# Convention : Reuss Voigt Hill
#
# Bulk Modulus (GPa) = 30.56189 44.93021 37.74605
# Shear Modulus (GPa) = 26.71342 33.15350 29.93346
#
# Velocity S-wave (km/s) = 3.46488 3.86000 3.66776
# Velocity P-wave (km/s) = 5.45363 6.32917 5.90764
#
# Compressibility (1/GPa) = 0.03272049
#
# Stress axis : x y z
#
# Youngs Moduli (GPa) = 28.53129 112.10210 116.06068
#
# Poissons Ratio (x) = 0.49280 0.55500
# Poissons Ratio (y) = 0.12542 0.08759
# Poissons Ratio (z) = 0.13644 0.08460
#
# Static dielectric constant tensor:
#      x y z
#    x 3.851750 0.000000 0.000000 
#    y 0.000000 4.091490 0.000000 
#    z 0.000000 0.000000 4.560530 
# 
# 
# High freq. dielectric constant tensor:
#      x y z
#    x 1.841800 0.000000 0.000000 
#    y 0.000000 1.876910 0.000000 
#    z 0.000000 0.000000 1.907220 
# 
# From -- ./inp_files/3368.got.cif
#   From: 2010.03.12/outbox.cif.g09.slc.cpg/sg56_2_cif.got.tgz:3368.got - 2010.04.16 15:33:40.
