data_PCOD8229583
_publ_section_title
;
Structure prediction by ZEFSAII (Michael W. Deem and Ramdas Pophale) SiO2 
 PCOD8229583
Probable space group: P C C N
;
_chemical_formula_sum "Si O2"
_cell_formula_units_Z 48
_cell_length_a 7.352081
_cell_length_b 15.397007
_cell_length_c 19.369474
_cell_angle_alpha 90.000000
_cell_angle_beta 90.000000
_cell_angle_gamma 90.000000
_cell_volume 2192.625282
_symmetry_space_group_name_H-M "P C C N"
_symmetry_group_IT_number 56
_symmetry_cell_setting 'orthorhombic'
loop_
_space_group_symop_operation_xyz
x,y,z
1/2-x,1/2-y,z
1/2+x,-y,1/2-z
-x,1/2+y,1/2-z
-x,-y,-z
1/2+x,1/2+y,-z
1/2-x,y,1/2+z
x,1/2-y,1/2+z
loop_
_atom_site_type_symbol
_atom_site_label
_atom_site_fract_x
_atom_site_fract_y
_atom_site_fract_z
Si Si1 0.033185 0.456614 0.142380
Si Si2 0.750000 0.250000 0.569212
Si Si3 0.446109 0.354339 0.371847
Si Si4 0.750000 0.250000 0.805372
Si Si5 0.287194 0.150380 0.733741
Si Si6 0.187407 0.872452 0.811924
Si Si7 0.107754 0.177233 0.523954
O O1 0.069590 0.558115 0.131020
O O2 0.140679 0.417749 0.207079
O O3 0.106406 0.404748 0.075295
O O4 0.817158 0.449609 0.160211
O O5 0.650756 0.183538 0.619894
O O6 0.597022 0.287759 0.519569
O O7 0.579368 0.273679 0.353755
O O8 0.281422 0.351995 0.316905
O O9 0.346229 0.349188 0.445650
O O10 0.798870 0.172420 0.751390
O O11 0.250000 0.250000 0.707322
O O12 0.483947 0.108461 0.713934
O O13 0.250000 0.250000 0.550291
#
# Coordination Sequence:
#
# PCOD8229583 Si02
#       7
#     8   4   8   4   8   8   8
#     4  11  23  40  64  91 129 163 212 262 317 374
#     4   9  17  34  62  84 113 163 208 246 303 363
#     4  11  24  38  62  95 127 166 206 268 321 370
#     4   9  19  38  60  86 125 165 208 256 321 369
#     4  11  22  40  64  93 121 165 214 255 317 382
#     4   9  19  37  62  91 118 162 215 262 301 372
#     4  11  22  40  63  89 126 168 211 255 313 382
#
# _framework density 21.891565
#
# number of rings (size 3 to 8) (size 9 to 14) (size 15 to 20)
#    0.000    1.667    0.000    7.000    4.667    0.000 
#    0.000    3.333    0.000    9.000    0.000    0.000 
#    0.000    0.000    0.000    0.000    0.000    0.000 
#
# Total GULP energy -594714.385982 kJ/mol
# GULP energy per Si atom -12389.883041 kJ/mol
# Density = 2.184174 g / cm^3
# Si number density = 21.891565 Si / 1000 Ang^3
#
#
#
# Elastic Constant Matrix: (Units=GPa)
#
#
# Indices 1 2 3 4 5 6 
#
# 1 73.4295 23.8982 28.8351 0.0000 0.0000 0.0000
# 2 23.8982 73.0222 5.3208 0.0000 0.0000 0.0000
# 3 28.8351 5.3208 116.6444 0.0000 0.0000 0.0000
# 4 0.0000 0.0000 0.0000 -7.3377 0.0000 0.0000
# 5 0.0000 0.0000 0.0000 0.0000 28.0601 0.0000
# 6 0.0000 0.0000 0.0000 0.0000 0.0000 24.2342
#
#
#
# Elastic Compliance Matrix: (Units=1/GPa)
#
#
# Indices 1 2 3 4 5 6 
#
# 1 0.016865 -0.005233 -0.003930 0.000000 0.000000 0.000000
# 2 -0.005233 0.015364 0.000593 0.000000 0.000000 0.000000
# 3 -0.003930 0.000593 0.009518 0.000000 0.000000 0.000000
# 4 0.000000 0.000000 0.000000 -0.136283 0.000000 0.000000
# 5 0.000000 0.000000 0.000000 0.000000 0.035638 0.000000
# 6 0.000000 0.000000 0.000000 0.000000 0.000000 0.041264
#
#
# Mechanical properties :
#
#
# Convention : Reuss Voigt Hill
#
# Bulk Modulus (GPa) = 40.64177 42.13383 41.38780
# Shear Modulus (GPa) = 648.64878 22.66081 335.65479
#
# Velocity S-wave (km/s) = 17.23206 3.22085 12.39592
# Velocity P-wave (km/s) = 20.36003 5.75502 14.96080
#
# Compressibility (1/GPa) = 0.02460523
#
# Stress axis : x y z
#
# Youngs Moduli (GPa) = 59.29407 65.08752 105.06808
#
# Poissons Ratio (x) = 0.34061 0.41296
# Poissons Ratio (y) = 0.31029 -0.06229
# Poissons Ratio (z) = 0.23305 -0.03858
#
# Static dielectric constant tensor:
#      x y z
#    x 3.822700 0.000000 0.000000 
#    y 0.000000 3.891890 0.000000 
#    z 0.000000 0.000000 4.016420 
# 
# 
# High freq. dielectric constant tensor:
#      x y z
#    x 1.846160 0.000000 0.000000 
#    y 0.000000 1.841410 0.000000 
#    z 0.000000 0.000000 1.869720 
# 
# From -- ./inp_files/14893.got.cif
#   From: 2010.03.12/outbox.cif.g09.slc.cpg/sg56_8_cif.got.tgz:14893.got - 2010.04.16 15:33:40.
