data_PCOD8229043
_publ_section_title
;
Structure prediction by ZEFSAII (Michael W. Deem and Ramdas Pophale) SiO2 
 PCOD8229043
Probable space group: P C C N
;
_chemical_formula_sum "Si O2"
_cell_formula_units_Z 60
_cell_length_a 18.134485
_cell_length_b 10.977466
_cell_length_c 13.879612
_cell_angle_alpha 90.000000
_cell_angle_beta 90.000000
_cell_angle_gamma 90.000000
_cell_volume 2763.023973
_symmetry_space_group_name_H-M "P C C N"
_symmetry_group_IT_number 56
_symmetry_cell_setting 'orthorhombic'
loop_
_space_group_symop_operation_xyz
x,y,z
1/2-x,1/2-y,z
1/2+x,-y,1/2-z
-x,1/2+y,1/2-z
-x,-y,-z
1/2+x,1/2+y,-z
1/2-x,y,1/2+z
x,1/2-y,1/2+z
loop_
_atom_site_type_symbol
_atom_site_label
_atom_site_fract_x
_atom_site_fract_y
_atom_site_fract_z
Si Si1 0.853804 0.023818 0.184659
Si Si2 0.262779 0.496732 0.474762
Si Si3 0.977728 0.504161 0.889683
Si Si4 0.610159 0.216687 0.817030
Si Si5 0.754458 0.608296 0.321086
Si Si6 0.250000 0.750000 0.567134
Si Si7 0.876464 0.596460 0.179430
Si Si8 0.459286 0.164255 0.272244
O O1 0.810746 0.002117 0.087509
O O2 0.864162 0.167075 0.211223
O O3 0.814413 0.961254 0.276213
O O4 0.934502 0.961522 0.175371
O O5 0.244226 0.412904 0.565400
O O6 0.277944 0.636478 0.503922
O O7 0.330408 0.432389 0.418578
O O8 0.914302 0.403082 0.877539
O O9 0.953993 0.636435 0.844931
O O10 0.048263 0.477510 0.822449
O O11 0.000000 0.500000 0.000000
O O12 0.679128 0.285631 0.866953
O O13 0.541898 0.307470 0.806422
O O14 0.750000 0.750000 0.296177
O O15 0.828458 0.554681 0.271107
O O16 0.899166 0.737473 0.192549
#
# Coordination Sequence:
#
# PCOD8229043 Si02
#       8
#     8   8   8   8   8   4   8   8
#     4  10  22  44  62  99 132 175 230 275 345 407
#     4  11  26  40  71 102 131 179 232 284 342 420
#     4  10  22  40  66  96 132 178 238 276 343 424
#     4  10  23  41  65  91 135 178 216 289 341 406
#     4  11  22  39  68  97 136 174 226 289 341 407
#     4  12  24  44  66 100 134 172 238 278 348 414
#     4  10  23  41  64  99 134 177 225 282 354 399
#     4  10  22  42  66  92 137 179 220 282 344 404
#
# _framework density 21.715339
#
# number of rings (size 3 to 8) (size 9 to 14) (size 15 to 20)
#    0.000    1.600    2.667    0.800    5.600    2.667 
#    2.400    0.667    0.000    0.000    0.000    0.000 
#    0.000    0.000    0.000    0.000    0.000    0.000 
#
# Total GULP energy -743489.419709 kJ/mol
# GULP energy per Si atom -12391.490328 kJ/mol
# Density = 2.166591 g / cm^3
# Si number density = 21.715339 Si / 1000 Ang^3
#
#
#
# Elastic Constant Matrix: (Units=GPa)
#
#
# Indices 1 2 3 4 5 6 
#
# 1 132.6730 30.7156 50.1353 0.0000 0.0000 0.0000
# 2 30.7156 71.6110 36.6097 0.0000 0.0000 0.0000
# 3 50.1353 36.6097 112.1818 0.0000 0.0000 0.0000
# 4 0.0000 0.0000 0.0000 35.3214 0.0000 0.0000
# 5 0.0000 0.0000 0.0000 0.0000 26.8521 0.0000
# 6 0.0000 0.0000 0.0000 0.0000 0.0000 23.7455
#
#
#
# Elastic Compliance Matrix: (Units=1/GPa)
#
#
# Indices 1 2 3 4 5 6 
#
# 1 0.009362 -0.002252 -0.003449 0.000000 0.000000 0.000000
# 2 -0.002252 0.017303 -0.004640 0.000000 0.000000 0.000000
# 3 -0.003449 -0.004640 0.011970 0.000000 0.000000 0.000000
# 4 0.000000 0.000000 0.000000 0.028311 0.000000 0.000000
# 5 0.000000 0.000000 0.000000 0.000000 0.037241 0.000000
# 6 0.000000 0.000000 0.000000 0.000000 0.000000 0.042113
#
#
# Mechanical properties :
#
#
# Convention : Reuss Voigt Hill
#
# Bulk Modulus (GPa) = 55.70498 61.26523 58.48510
# Shear Modulus (GPa) = 28.90732 30.45081 29.67907
#
# Velocity S-wave (km/s) = 3.65251 3.74875 3.70095
# Velocity P-wave (km/s) = 6.59514 6.85651 6.72709
#
# Compressibility (1/GPa) = 0.01795172
#
# Stress axis : x y z
#
# Youngs Moduli (GPa) = 106.81351 57.79507 83.54437
#
# Poissons Ratio (x) = 0.13018 0.28814
# Poissons Ratio (y) = 0.24059 0.38764
# Poissons Ratio (z) = 0.36840 0.26816
#
# Static dielectric constant tensor:
#      x y z
#    x 4.180760 0.000000 0.000000 
#    y 0.000000 3.923060 0.000000 
#    z 0.000000 0.000000 3.839840 
# 
# 
# High freq. dielectric constant tensor:
#      x y z
#    x 1.875560 0.000000 0.000000 
#    y 0.000000 1.845590 0.000000 
#    z 0.000000 0.000000 1.837420 
# 
# From -- ./inp_files/12825.got.cif
#   From: 2010.03.12/outbox.cif.g09.slc.cpg/sg56_7_cif.got.tgz:12825.got - 2010.04.16 15:33:40.
