data_PCOD8229549
_publ_section_title
;
Structure prediction by ZEFSAII (Michael W. Deem and Ramdas Pophale) SiO2 
 PCOD8229549
Probable space group: P C C N
;
_chemical_formula_sum "Si O2"
_cell_formula_units_Z 32
_cell_length_a 16.720683
_cell_length_b 6.971187
_cell_length_c 12.582368
_cell_angle_alpha 90.000000
_cell_angle_beta 90.000000
_cell_angle_gamma 90.000000
_cell_volume 1466.638661
_symmetry_space_group_name_H-M "P C C N"
_symmetry_group_IT_number 56
_symmetry_cell_setting 'orthorhombic'
loop_
_space_group_symop_operation_xyz
x,y,z
1/2-x,1/2-y,z
1/2+x,-y,1/2-z
-x,1/2+y,1/2-z
-x,-y,-z
1/2+x,1/2+y,-z
1/2-x,y,1/2+z
x,1/2-y,1/2+z
loop_
_atom_site_type_symbol
_atom_site_label
_atom_site_fract_x
_atom_site_fract_y
_atom_site_fract_z
Si Si1 0.178831 0.028732 0.409049
Si Si2 0.903909 0.520566 0.886455
Si Si3 0.855188 0.946369 0.151504
Si Si4 0.451101 0.749363 0.943142
O O1 0.171438 0.068354 0.536685
O O2 0.148485 0.217510 0.347525
O O3 0.269361 0.971023 0.383919
O O4 0.119233 0.857914 0.375383
O O5 0.874199 0.477996 0.769152
O O6 0.964160 0.702745 0.889356
O O7 0.949320 0.330111 0.935006
O O8 0.925693 0.024922 0.071133
#
# Coordination Sequence:
#
# PCOD8229549 Si02
#       4
#     8   8   8   8
#     4   9  22  41  57  95 123 152 219 254 302 398
#     4   9  22  41  60  93 128 157 215 265 303 383
#     4  11  21  39  67  85 125 169 201 257 324 358
#     4   9  21  43  57  90 128 155 216 258 304 387
#
# _framework density 21.818598000000001
#
# number of rings (size 3 to 8) (size 9 to 14) (size 15 to 20)
#    1.500    1.000    0.000    0.750    3.500    5.000 
#   13.500    0.000    0.000    0.000    0.000    0.000 
#    0.000    0.000    0.000    0.000    0.000    0.000 
#
# Total GULP energy -396438.997846 kJ/mol
# GULP energy per Si atom -12388.718683 kJ/mol
# Density = 2.176894 g / cm^3
# Si number density = 21.818598 Si / 1000 Ang^3
#
#
#
# Elastic Constant Matrix: (Units=GPa)
#
#
# Indices 1 2 3 4 5 6 
#
# 1 73.0514 -11.1202 14.0195 0.0000 0.0000 0.0000
# 2 -11.1202 34.2476 -5.7284 0.0000 0.0000 0.0000
# 3 14.0195 -5.7284 92.2691 0.0000 0.0000 0.0000
# 4 0.0000 0.0000 0.0000 20.1365 0.0000 0.0000
# 5 0.0000 0.0000 0.0000 0.0000 31.3491 0.0000
# 6 0.0000 0.0000 0.0000 0.0000 0.0000 39.8012
#
#
#
# Elastic Compliance Matrix: (Units=1/GPa)
#
#
# Indices 1 2 3 4 5 6 
#
# 1 0.014745 0.004459 -0.001963 0.000000 0.000000 0.000000
# 2 0.004459 0.030854 0.001238 0.000000 0.000000 0.000000
# 3 -0.001963 0.001238 0.011213 0.000000 0.000000 0.000000
# 4 0.000000 0.000000 0.000000 0.049661 0.000000 0.000000
# 5 0.000000 0.000000 0.000000 0.000000 0.031899 0.000000
# 6 0.000000 0.000000 0.000000 0.000000 0.000000 0.025125
#
#
# Mechanical properties :
#
#
# Convention : Reuss Voigt Hill
#
# Bulk Modulus (GPa) = 15.55714 21.54552 18.55133
# Shear Modulus (GPa) = 28.17608 31.75051 29.96329
#
# Velocity S-wave (km/s) = 3.59747 3.81885 3.70982
# Velocity P-wave (km/s) = 4.93978 5.41674 5.18375
#
# Compressibility (1/GPa) = 0.06427916
#
# Stress axis : x y z
#
# Youngs Moduli (GPa) = 67.82142 32.41064 89.18170
#
# Poissons Ratio (x) = -0.14452 0.17511
# Poissons Ratio (y) = -0.30243 -0.11041
# Poissons Ratio (z) = 0.13317 -0.04012
#
# Static dielectric constant tensor:
#      x y z
#    x 3.930040 0.000000 0.000000 
#    y 0.000000 3.706990 0.000000 
#    z 0.000000 0.000000 3.467940 
# 
# 
# High freq. dielectric constant tensor:
#      x y z
#    x 1.862550 0.000000 0.000000 
#    y 0.000000 1.849590 0.000000 
#    z 0.000000 0.000000 1.824610 
# 
# From -- ./inp_files/12536.got.cif
#   From: 2010.03.12/outbox.cif.g09.slc.cpg/sg56_7_cif.got.tgz:12536.got - 2010.04.16 15:33:40.
