data_PCOD8229503
_publ_section_title
;
Structure prediction by ZEFSAII (Michael W. Deem and Ramdas Pophale) SiO2 
 PCOD8229503
Probable space group: P C C N
;
_chemical_formula_sum "Si O2"
_cell_formula_units_Z 64
_cell_length_a 24.716474
_cell_length_b 7.998866
_cell_length_c 14.489938
_cell_angle_alpha 90.000000
_cell_angle_beta 90.000000
_cell_angle_gamma 90.000000
_cell_volume 2864.715276
_symmetry_space_group_name_H-M "P C C N"
_symmetry_group_IT_number 56
_symmetry_cell_setting 'orthorhombic'
loop_
_space_group_symop_operation_xyz
x,y,z
1/2-x,1/2-y,z
1/2+x,-y,1/2-z
-x,1/2+y,1/2-z
-x,-y,-z
1/2+x,1/2+y,-z
1/2-x,y,1/2+z
x,1/2-y,1/2+z
loop_
_atom_site_type_symbol
_atom_site_label
_atom_site_fract_x
_atom_site_fract_y
_atom_site_fract_z
Si Si1 0.936283 0.323851 0.758765
Si Si2 0.761913 0.446587 0.319948
Si Si3 0.997789 0.409288 0.130309
Si Si4 0.381378 0.491586 0.908860
Si Si5 0.634902 0.346149 0.909196
Si Si6 0.821279 0.995504 0.461007
Si Si7 0.243304 0.551330 0.382928
Si Si8 0.573587 0.657534 0.528811
O O1 0.959761 0.460629 0.827788
O O2 0.898998 0.401735 0.679456
O O3 0.901907 0.198161 0.821639
O O4 0.984151 0.222798 0.709621
O O5 0.750000 0.250000 0.319629
O O6 0.818989 0.473928 0.371922
O O7 0.713697 0.548205 0.370191
O O8 0.762728 0.513665 0.216396
O O9 0.943503 0.504294 0.095749
O O10 0.024552 0.311829 0.043477
O O11 0.316584 0.485063 0.905416
O O12 0.412455 0.314306 0.905705
O O13 0.399236 0.568337 0.008259
O O14 0.662386 0.188414 0.957353
O O15 0.874049 0.881710 0.466867
O O16 0.784034 0.959879 0.548711
O O17 0.250000 0.750000 0.393629
#
# Coordination Sequence:
#
# PCOD8229503 Si02
#       8
#     8   8   8   8   8   8   8   8
#     4  12  26  46  77 102 139 180 240 302 355 422
#     4   9  19  34  61  98 131 170 225 274 328 408
#     4  11  27  49  70 104 134 187 241 307 358 420
#     4  12  25  44  71 105 139 190 233 286 361 433
#     4  11  22  41  70 106 130 184 236 287 343 418
#     4  11  19  42  66  94 143 180 222 285 348 413
#     4  11  20  36  68 102 137 182 233 276 340 429
#     4  11  27  46  70  97 147 189 236 295 367 414
#
# _framework density 22.340788
#
# number of rings (size 3 to 8) (size 9 to 14) (size 15 to 20)
#    0.000    1.000    3.750    4.125    5.250    1.000 
#    0.000    0.000    2.750    0.000    0.000    0.000 
#    0.000    0.000    0.000    0.000    0.000    0.000 
#
# Total GULP energy -793621.051484 kJ/mol
# GULP energy per Si atom -12400.328929 kJ/mol
# Density = 2.228994 g / cm^3
# Si number density = 22.340788 Si / 1000 Ang^3
#
#
#
# Elastic Constant Matrix: (Units=GPa)
#
#
# Indices 1 2 3 4 5 6 
#
# 1 89.6619 16.1262 23.6382 0.0000 0.0000 0.0000
# 2 16.1262 34.0980 8.9969 0.0000 0.0000 0.0000
# 3 23.6382 8.9969 123.0701 0.0000 0.0000 0.0000
# 4 0.0000 0.0000 0.0000 26.8279 0.0000 0.0000
# 5 0.0000 0.0000 0.0000 0.0000 33.1324 0.0000
# 6 0.0000 0.0000 0.0000 0.0000 0.0000 32.6649
#
#
#
# Elastic Compliance Matrix: (Units=1/GPa)
#
#
# Indices 1 2 3 4 5 6 
#
# 1 0.012671 -0.005456 -0.002035 0.000000 0.000000 0.000000
# 2 -0.005456 0.032253 -0.001310 0.000000 0.000000 0.000000
# 3 -0.002035 -0.001310 0.008612 0.000000 0.000000 0.000000
# 4 0.000000 0.000000 0.000000 0.037275 0.000000 0.000000
# 5 0.000000 0.000000 0.000000 0.000000 0.030182 0.000000
# 6 0.000000 0.000000 0.000000 0.000000 0.000000 0.030614
#
#
# Mechanical properties :
#
#
# Convention : Reuss Voigt Hill
#
# Bulk Modulus (GPa) = 27.82798 38.26139 33.04468
# Shear Modulus (GPa) = 27.59605 31.72961 29.66283
#
# Velocity S-wave (km/s) = 3.51840 3.77272 3.64777
# Velocity P-wave (km/s) = 5.38411 6.01176 5.70657
#
# Compressibility (1/GPa) = 0.03593506
#
# Stress axis : x y z
#
# Youngs Moduli (GPa) = 78.92234 31.00482 116.11635
#
# Poissons Ratio (x) = 0.16915 0.23628
# Poissons Ratio (y) = 0.43056 0.15211
# Poissons Ratio (z) = 0.16060 0.04062
#
# Static dielectric constant tensor:
#      x y z
#    x 4.069090 0.000000 0.000000 
#    y 0.000000 3.665780 0.000000 
#    z 0.000000 0.000000 4.311130 
# 
# 
# High freq. dielectric constant tensor:
#      x y z
#    x 1.884920 0.000000 0.000000 
#    y 0.000000 1.842250 0.000000 
#    z 0.000000 0.000000 1.901150 
# 
# From -- ./inp_files/13302.got.cif
#   From: 2010.03.12/outbox.cif.g09.slc.cpg/sg56_7_cif.got.tgz:13302.got - 2010.04.16 15:33:40.
