data_PCOD8229107
_publ_section_title
;
Structure prediction by ZEFSAII (Michael W. Deem and Ramdas Pophale) SiO2 
 PCOD8229107
Probable space group: P C C N
;
_chemical_formula_sum "Si O2"
_cell_formula_units_Z 40
_cell_length_a 15.548819
_cell_length_b 7.517684
_cell_length_c 16.865539
_cell_angle_alpha 90.000000
_cell_angle_beta 90.000000
_cell_angle_gamma 90.000000
_cell_volume 1971.431538
_symmetry_space_group_name_H-M "P C C N"
_symmetry_group_IT_number 56
_symmetry_cell_setting 'orthorhombic'
loop_
_space_group_symop_operation_xyz
x,y,z
1/2-x,1/2-y,z
1/2+x,-y,1/2-z
-x,1/2+y,1/2-z
-x,-y,-z
1/2+x,1/2+y,-z
1/2-x,y,1/2+z
x,1/2-y,1/2+z
loop_
_atom_site_type_symbol
_atom_site_label
_atom_site_fract_x
_atom_site_fract_y
_atom_site_fract_z
Si Si1 0.750000 0.750000 0.830291
Si Si2 0.407124 0.141768 0.761646
Si Si3 0.312313 0.082933 0.917005
Si Si4 0.309273 0.581407 0.578405
Si Si5 0.404314 0.745652 0.215618
Si Si6 0.750000 0.250000 0.670478
O O1 0.834495 0.729912 0.774848
O O2 0.749385 0.568881 0.880966
O O3 0.390116 0.121814 0.856102
O O4 0.502115 0.214894 0.748900
O O5 0.398348 0.965746 0.708559
O O6 0.250000 0.250000 0.930920
O O7 0.256675 0.923475 0.882385
O O8 0.350424 0.011752 0.000566
O O9 0.250000 0.750000 0.556760
O O10 0.387642 0.651797 0.633031
O O11 0.331347 0.803587 0.276758
#
# Coordination Sequence:
#
# PCOD8229107 Si02
#       6
#     4   8   8   8   8   4
#     4  12  22  42  70  92 122 174 214 264 322 372
#     4  11  24  41  67  97 129 166 216 265 313 382
#     4  11  23  39  66  92 127 172 206 260 323 376
#     4  12  22  41  65  93 131 167 213 259 321 376
#     4  11  23  40  65  98 126 167 215 265 312 375
#     4  10  22  42  66  90 124 168 214 262 316 368
#
# _framework density 20.289826000000001
#
# number of rings (size 3 to 8) (size 9 to 14) (size 15 to 20)
#    0.000    0.800    6.000    2.400    2.800    0.800 
#    0.000    0.000    0.000    6.000    0.000    0.000 
#    0.000    0.000    0.000    0.000    0.000    0.000 
#
# Total GULP energy -495820.447229 kJ/mol
# GULP energy per Si atom -12395.511181 kJ/mol
# Density = 2.024365 g / cm^3
# Si number density = 20.289826 Si / 1000 Ang^3
#
#
#
# Elastic Constant Matrix: (Units=GPa)
#
#
# Indices 1 2 3 4 5 6 
#
# 1 123.9882 20.4208 47.2430 0.0000 0.0000 0.0000
# 2 20.4208 99.9440 47.5561 0.0000 0.0000 0.0000
# 3 47.2430 47.5561 126.0016 0.0000 0.0000 0.0000
# 4 0.0000 0.0000 0.0000 32.8396 0.0000 0.0000
# 5 0.0000 0.0000 0.0000 0.0000 11.5691 0.0000
# 6 0.0000 0.0000 0.0000 0.0000 0.0000 28.9388
#
#
#
# Elastic Compliance Matrix: (Units=1/GPa)
#
#
# Indices 1 2 3 4 5 6 
#
# 1 0.009417 -0.000297 -0.003418 0.000000 0.000000 0.000000
# 2 -0.000297 0.012205 -0.004495 0.000000 0.000000 0.000000
# 3 -0.003418 -0.004495 0.010915 0.000000 0.000000 0.000000
# 4 0.000000 0.000000 0.000000 0.030451 0.000000 0.000000
# 5 0.000000 0.000000 0.000000 0.000000 0.086437 0.000000
# 6 0.000000 0.000000 0.000000 0.000000 0.000000 0.034556
#
#
# Mechanical properties :
#
#
# Convention : Reuss Voigt Hill
#
# Bulk Modulus (GPa) = 62.05476 64.48594 63.27035
# Shear Modulus (GPa) = 24.29847 30.31709 27.30778
#
# Velocity S-wave (km/s) = 3.46435 3.86968 3.67261
# Velocity P-wave (km/s) = 6.83029 7.19843 7.01677
#
# Compressibility (1/GPa) = 0.01611480
#
# Stress axis : x y z
#
# Youngs Moduli (GPa) = 106.19318 81.93205 91.61994
#
# Poissons Ratio (x) = 0.02437 0.31320
# Poissons Ratio (y) = 0.03159 0.41183
# Poissons Ratio (z) = 0.36302 0.36829
#
# Static dielectric constant tensor:
#      x y z
#    x -2.112230 0.000000 0.000000 
#    y 0.000000 3.969070 0.000000 
#    z 0.000000 0.000000 3.802620 
# 
# 
# High freq. dielectric constant tensor:
#      x y z
#    x 1.770510 0.000000 0.000000 
#    y 0.000000 1.816310 0.000000 
#    z 0.000000 0.000000 1.790180 
# 
# From -- ./inp_files/10423.got.cif
#   From: 2010.03.12/outbox.cif.g09.slc.cpg/sg56_6_cif.got.tgz:10423.got - 2010.04.16 15:33:40.
