data_PCOD8229287
_publ_section_title
;
Structure prediction by ZEFSAII (Michael W. Deem and Ramdas Pophale) SiO2 
 PCOD8229287
Probable space group: P C C N
;
_chemical_formula_sum "Si O2"
_cell_formula_units_Z 40
_cell_length_a 9.569410
_cell_length_b 10.634581
_cell_length_c 17.681164
_cell_angle_alpha 90.000000
_cell_angle_beta 90.000000
_cell_angle_gamma 90.000000
_cell_volume 1799.353107
_symmetry_space_group_name_H-M "P C C N"
_symmetry_group_IT_number 56
_symmetry_cell_setting 'orthorhombic'
loop_
_space_group_symop_operation_xyz
x,y,z
1/2-x,1/2-y,z
1/2+x,-y,1/2-z
-x,1/2+y,1/2-z
-x,-y,-z
1/2+x,1/2+y,-z
1/2-x,y,1/2+z
x,1/2-y,1/2+z
loop_
_atom_site_type_symbol
_atom_site_label
_atom_site_fract_x
_atom_site_fract_y
_atom_site_fract_z
Si Si1 0.102637 0.605650 0.129896
Si Si2 0.191817 0.012565 0.327523
Si Si3 0.250000 0.750000 0.004750
Si Si4 0.195772 0.385801 0.664187
Si Si5 0.927961 0.050359 0.074930
Si Si6 0.250000 0.750000 0.256667
O O1 0.128039 0.689122 0.055743
O O2 0.212399 0.492217 0.124327
O O3 0.126949 0.692180 0.204057
O O4 0.947827 0.549211 0.127583
O O5 0.326704 0.047002 0.379927
O O6 0.186355 0.863685 0.306329
O O7 0.203091 0.098996 0.253948
O O8 0.177237 0.842156 0.947514
O O9 0.250000 0.250000 0.639681
O O10 0.037930 0.399730 0.635726
O O11 0.000000 0.000000 0.000000
#
# Coordination Sequence:
#
# PCOD8229287 Si02
#       6
#     8   8   4   8   8   4
#     4  10  23  43  73 103 144 190 241 291 366 423
#     4  11  25  43  75 105 140 192 237 297 360 423
#     4  11  25  48  74  96 146 196 236 300 368 430
#     4  11  25  44  71 107 141 183 241 298 352 428
#     4  12  27  48  69 104 150 184 235 301 359 425
#     4   9  21  44  68 106 146 184 240 308 344 422
#
# _framework density 22.230211000000001
#
# number of rings (size 3 to 8) (size 9 to 14) (size 15 to 20)
#    0.000    1.200    2.000    3.000    8.400    4.000 
#    0.000    0.000    0.000    0.000    0.000    0.000 
#    0.000    0.000    0.000    0.000    0.000    0.000 
#
# Total GULP energy -496029.739962 kJ/mol
# GULP energy per Si atom -12400.743499 kJ/mol
# Density = 2.217961 g / cm^3
# Si number density = 22.230211 Si / 1000 Ang^3
#
#
#
# Elastic Constant Matrix: (Units=GPa)
#
#
# Indices 1 2 3 4 5 6 
#
# 1 155.8516 15.3153 60.0157 0.0000 0.0000 0.0000
# 2 15.3153 56.3332 15.2521 0.0000 0.0000 0.0000
# 3 60.0157 15.2521 119.2547 0.0000 0.0000 0.0000
# 4 0.0000 0.0000 0.0000 11.0129 0.0000 0.0000
# 5 0.0000 0.0000 0.0000 0.0000 36.6512 0.0000
# 6 0.0000 0.0000 0.0000 0.0000 0.0000 41.0624
#
#
#
# Elastic Compliance Matrix: (Units=1/GPa)
#
#
# Indices 1 2 3 4 5 6 
#
# 1 0.008027 -0.001128 -0.003896 0.000000 0.000000 0.000000
# 2 -0.001128 0.018547 -0.001805 0.000000 0.000000 0.000000
# 3 -0.003896 -0.001805 0.010577 0.000000 0.000000 0.000000
# 4 0.000000 0.000000 0.000000 0.090803 0.000000 0.000000
# 5 0.000000 0.000000 0.000000 0.000000 0.027284 0.000000
# 6 0.000000 0.000000 0.000000 0.000000 0.000000 0.024353
#
#
# Mechanical properties :
#
#
# Convention : Reuss Voigt Hill
#
# Bulk Modulus (GPa) = 42.56199 56.95619 49.75909
# Shear Modulus (GPa) = 24.86595 33.80237 29.33416
#
# Velocity S-wave (km/s) = 3.34812 3.90367 3.63652
# Velocity P-wave (km/s) = 5.84245 6.78195 6.32965
#
# Compressibility (1/GPa) = 0.02349514
#
# Stress axis : x y z
#
# Youngs Moduli (GPa) = 124.57511 53.91799 94.54766
#
# Poissons Ratio (x) = 0.06080 0.36832
# Poissons Ratio (y) = 0.14048 0.17061
# Poissons Ratio (z) = 0.48529 0.09730
#
# Static dielectric constant tensor:
#      x y z
#    x 4.092630 0.000000 0.000000 
#    y 0.000000 4.012920 0.000000 
#    z 0.000000 0.000000 4.096870 
# 
# 
# High freq. dielectric constant tensor:
#      x y z
#    x 1.879660 0.000000 0.000000 
#    y 0.000000 1.871330 0.000000 
#    z 0.000000 0.000000 1.886120 
# 
# From -- ./inp_files/14498.got.cif
#   From: 2010.03.12/outbox.cif.g09.slc.cpg/sg56_8_cif.got.tgz:14498.got - 2010.04.16 15:33:40.
