data_PCOD8229271
_publ_section_title
;
Structure prediction by ZEFSAII (Michael W. Deem and Ramdas Pophale) SiO2 
 PCOD8229271
Probable space group: P C C N
;
_chemical_formula_sum "Si O2"
_cell_formula_units_Z 48
_cell_length_a 8.756556
_cell_length_b 18.903123
_cell_length_c 14.935519
_cell_angle_alpha 90.000000
_cell_angle_beta 90.000000
_cell_angle_gamma 90.000000
_cell_volume 2472.220528
_symmetry_space_group_name_H-M "P C C N"
_symmetry_group_IT_number 56
_symmetry_cell_setting 'orthorhombic'
loop_
_space_group_symop_operation_xyz
x,y,z
1/2-x,1/2-y,z
1/2+x,-y,1/2-z
-x,1/2+y,1/2-z
-x,-y,-z
1/2+x,1/2+y,-z
1/2-x,y,1/2+z
x,1/2-y,1/2+z
loop_
_atom_site_type_symbol
_atom_site_label
_atom_site_fract_x
_atom_site_fract_y
_atom_site_fract_z
Si Si1 0.072105 0.572326 0.533411
Si Si2 0.425797 0.831852 0.366079
Si Si3 0.070726 0.073769 0.779869
Si Si4 0.927895 0.072326 0.466589
Si Si5 0.429274 0.426231 0.279869
Si Si6 0.074203 0.668148 0.866079
O O1 0.040492 0.633358 0.461722
O O2 0.250000 0.559420 0.549883
O O3 0.000000 0.500000 0.500000
O O4 0.995416 0.597820 0.624992
O O5 0.533132 0.865746 0.291318
O O6 0.467672 0.750000 0.374275
O O7 0.250000 0.843753 0.338135
O O8 0.250000 0.063436 0.788262
O O9 0.033132 0.134254 0.708682
O O10 0.000000 1.000000 0.750000
O O11 0.959508 0.133358 0.538278
O O12 0.004584 0.097820 0.375008
O O13 0.000000 0.000000 0.500000
#
# Coordination Sequence:
#
# PCOD8229271 Si02
#       6
#     8   8   8   8   8   8
#     4  11  22  38  64  94 125 164 208 257 309 370
#     4  10  23  43  65  91 125 164 207 257 315 376
#     4  12  24  39  63  93 126 165 210 261 311 369
#     4  11  22  38  64  94 125 164 208 257 309 370
#     4  12  24  39  63  93 126 165 210 261 311 369
#     4  10  23  43  65  91 125 164 207 257 315 376
#
# _framework density 19.415744
#
# number of rings (size 3 to 8) (size 9 to 14) (size 15 to 20)
#    0.000    1.000    3.333    4.000    0.000    3.333 
#    0.000    3.333    0.000    0.000    0.000    0.000 
#    0.000    0.000    0.000    0.000    0.000    0.000 
#
# Total GULP energy -595539.122952 kJ/mol
# GULP energy per Si atom -12407.065062 kJ/mol
# Density = 1.937155 g / cm^3
# Si number density = 19.415744 Si / 1000 Ang^3
#
#
#
# Elastic Constant Matrix: (Units=GPa)
#
#
# Indices 1 2 3 4 5 6 
#
# 1 149.1946 60.4375 83.6677 0.0000 0.0000 0.0000
# 2 60.4375 141.5825 63.3174 0.0000 0.0000 0.0000
# 3 83.6677 63.3174 156.6302 0.0000 0.0000 0.0000
# 4 0.0000 0.0000 0.0000 33.7630 0.0000 0.0000
# 5 0.0000 0.0000 0.0000 0.0000 38.7443 0.0000
# 6 0.0000 0.0000 0.0000 0.0000 0.0000 28.6641
#
#
#
# Elastic Compliance Matrix: (Units=1/GPa)
#
#
# Indices 1 2 3 4 5 6 
#
# 1 0.010163 -0.002332 -0.004486 0.000000 0.000000 0.000000
# 2 -0.002332 0.009157 -0.002456 0.000000 0.000000 0.000000
# 3 -0.004486 -0.002456 0.009774 0.000000 0.000000 0.000000
# 4 0.000000 0.000000 0.000000 0.029618 0.000000 0.000000
# 5 0.000000 0.000000 0.000000 0.000000 0.025810 0.000000
# 6 0.000000 0.000000 0.000000 0.000000 0.000000 0.034887
#
#
# Mechanical properties :
#
#
# Convention : Reuss Voigt Hill
#
# Bulk Modulus (GPa) = 94.82838 95.80584 95.31711
# Shear Modulus (GPa) = 35.34260 36.23327 35.78794
#
# Velocity S-wave (km/s) = 4.27113 4.32462 4.29796
# Velocity P-wave (km/s) = 8.55982 8.62484 8.59239
#
# Compressibility (1/GPa) = 0.01054537
#
# Stress axis : x y z
#
# Youngs Moduli (GPa) = 98.39428 109.20809 102.31608
#
# Poissons Ratio (x) = 0.25469 0.45901
# Poissons Ratio (y) = 0.22947 0.25128
# Poissons Ratio (z) = 0.44141 0.26820
#
# Static dielectric constant tensor:
#      x y z
#    x 3.673000 0.000000 0.000000 
#    y 0.000000 3.490700 0.000000 
#    z 0.000000 0.000000 3.534750 
# 
# 
# High freq. dielectric constant tensor:
#      x y z
#    x 1.765480 0.000000 0.000000 
#    y 0.000000 1.753250 0.000000 
#    z 0.000000 0.000000 1.773760 
# 
# From -- ./inp_files/10632.got.cif
#   From: 2010.03.12/outbox.cif.g09.slc.cpg/sg56_6_cif.got.tgz:10632.got - 2010.04.16 15:33:40.
