data_PCOD8229178
_publ_section_title
;
Structure prediction by ZEFSAII (Michael W. Deem and Ramdas Pophale) SiO2 
 PCOD8229178
Probable space group: P C C N
;
_chemical_formula_sum "Si O2"
_cell_formula_units_Z 60
_cell_length_a 11.311976
_cell_length_b 12.244393
_cell_length_c 19.293858
_cell_angle_alpha 90.000000
_cell_angle_beta 90.000000
_cell_angle_gamma 90.000000
_cell_volume 2672.359081
_symmetry_space_group_name_H-M "P C C N"
_symmetry_group_IT_number 56
_symmetry_cell_setting 'orthorhombic'
loop_
_space_group_symop_operation_xyz
x,y,z
1/2-x,1/2-y,z
1/2+x,-y,1/2-z
-x,1/2+y,1/2-z
-x,-y,-z
1/2+x,1/2+y,-z
1/2-x,y,1/2+z
x,1/2-y,1/2+z
loop_
_atom_site_type_symbol
_atom_site_label
_atom_site_fract_x
_atom_site_fract_y
_atom_site_fract_z
Si Si1 0.250000 0.750000 0.462492
Si Si2 0.186633 0.956360 0.556591
Si Si3 0.632636 0.814926 0.995425
Si Si4 0.627497 0.529362 0.838321
Si Si5 0.024797 0.140412 0.368352
Si Si6 0.254007 0.123701 0.786546
Si Si7 0.997354 0.339684 0.271051
Si Si8 0.980151 0.225977 0.126007
O O1 0.209021 0.849365 0.510951
O O2 0.354991 0.782566 0.411285
O O3 0.084908 0.940219 0.615520
O O4 0.148432 0.054183 0.506139
O O5 0.308871 0.992527 0.591642
O O6 0.750000 0.750000 0.011510
O O7 0.579512 0.771404 0.924828
O O8 0.548601 0.793023 0.060931
O O9 0.712206 0.605964 0.793052
O O10 0.605636 0.421316 0.792891
O O11 0.511718 0.600977 0.854842
O O12 0.144256 0.076370 0.339653
O O13 0.982967 0.225582 0.310753
O O14 0.250000 0.250000 0.803491
O O15 0.116079 0.090875 0.792498
O O16 0.981912 0.309249 0.190623
#
# Coordination Sequence:
#
# PCOD8229178 Si02
#       8
#     4   8   8   8   8   8   8   8
#     4  12  30  50  70 108 160 192 252 306 384 448
#     4  12  27  47  73 105 148 198 242 307 375 445
#     4  12  25  45  78 105 140 199 248 299 370 451
#     4  12  26  44  77 106 146 196 240 310 379 448
#     4  11  24  46  73 107 142 188 247 304 365 448
#     4  10  22  44  71 100 140 182 241 301 358 442
#     4  11  26  45  73 107 146 189 249 306 380 443
#     4  12  27  48  73 107 151 194 248 314 374 451
#
# _framework density 22.452071
#
# number of rings (size 3 to 8) (size 9 to 14) (size 15 to 20)
#    0.000    0.533    5.333    3.200    3.733    4.800 
#    0.000    0.000    0.000    0.000    0.000    0.000 
#    0.000    0.000    0.000    0.000    0.000    0.000 
#
# Total GULP energy -743744.029635 kJ/mol
# GULP energy per Si atom -12395.733827 kJ/mol
# Density = 2.240097 g / cm^3
# Si number density = 22.452071 Si / 1000 Ang^3
#
#
#
# Elastic Constant Matrix: (Units=GPa)
#
#
# Indices 1 2 3 4 5 6 
#
# 1 93.5730 26.1558 14.7524 0.0000 0.0000 0.0000
# 2 26.1558 52.5346 19.2580 0.0000 0.0000 0.0000
# 3 14.7524 19.2580 102.3366 0.0000 0.0000 0.0000
# 4 0.0000 0.0000 0.0000 20.6744 0.0000 0.0000
# 5 0.0000 0.0000 0.0000 0.0000 128.5251 0.0000
# 6 0.0000 0.0000 0.0000 0.0000 0.0000 27.4417
#
#
#
# Elastic Compliance Matrix: (Units=1/GPa)
#
#
# Indices 1 2 3 4 5 6 
#
# 1 0.012458 -0.005955 -0.000675 0.000000 0.000000 0.000000
# 2 -0.005955 0.023292 -0.003525 0.000000 0.000000 0.000000
# 3 -0.000675 -0.003525 0.010532 0.000000 0.000000 0.000000
# 4 0.000000 0.000000 0.000000 0.048369 0.000000 0.000000
# 5 0.000000 0.000000 0.000000 0.000000 0.007781 0.000000
# 6 0.000000 0.000000 0.000000 0.000000 0.000000 0.036441
#
#
# Mechanical properties :
#
#
# Convention : Reuss Voigt Hill
#
# Bulk Modulus (GPa) = 38.50253 40.97516 39.73884
# Shear Modulus (GPa) = 29.79031 47.88013 38.83522
#
# Velocity S-wave (km/s) = 3.64653 4.62296 4.16347
# Velocity P-wave (km/s) = 5.90894 6.83998 6.39144
#
# Compressibility (1/GPa) = 0.02597232
#
# Stress axis : x y z
#
# Youngs Moduli (GPa) = 80.27074 42.93322 94.94598
#
# Poissons Ratio (x) = 0.25567 0.06411
# Poissons Ratio (y) = 0.47801 0.33466
# Poissons Ratio (z) = 0.05420 0.15133
#
# Static dielectric constant tensor:
#      x y z
#    x 4.829790 0.000000 0.000000 
#    y 0.000000 1.507250 0.000000 
#    z 0.000000 0.000000 4.085770 
# 
# 
# High freq. dielectric constant tensor:
#      x y z
#    x 1.892300 0.000000 0.000000 
#    y 0.000000 1.875220 0.000000 
#    z 0.000000 0.000000 1.897740 
# 
# From -- ./inp_files/18806.got.cif
#   From: 2010.03.12/outbox.cif.g09.slc.cpg/sg56_10_cif.got.tgz:18806.got - 2010.04.16 15:33:40.
