data_PCOD8229484
_publ_section_title
;
Structure prediction by ZEFSAII (Michael W. Deem and Ramdas Pophale) SiO2 
 PCOD8229484
Probable space group: P C C N
;
_chemical_formula_sum "Si O2"
_cell_formula_units_Z 60
_cell_length_a 16.803359
_cell_length_b 17.403517
_cell_length_c 9.348357
_cell_angle_alpha 90.000000
_cell_angle_beta 90.000000
_cell_angle_gamma 90.000000
_cell_volume 2733.810562
_symmetry_space_group_name_H-M "P C C N"
_symmetry_group_IT_number 56
_symmetry_cell_setting 'orthorhombic'
loop_
_space_group_symop_operation_xyz
x,y,z
1/2-x,1/2-y,z
1/2+x,-y,1/2-z
-x,1/2+y,1/2-z
-x,-y,-z
1/2+x,1/2+y,-z
1/2-x,y,1/2+z
x,1/2-y,1/2+z
loop_
_atom_site_type_symbol
_atom_site_label
_atom_site_fract_x
_atom_site_fract_y
_atom_site_fract_z
Si Si1 0.257134 0.571267 0.396017
Si Si2 0.311035 0.024413 0.154276
Si Si3 0.104651 0.829502 0.286164
Si Si4 0.533706 0.564271 0.896350
Si Si5 0.694350 0.650060 0.934497
Si Si6 0.604519 0.326105 0.044073
Si Si7 0.250000 0.250000 0.810342
Si Si8 0.492907 0.037270 0.150895
O O1 0.232660 0.497696 0.301593
O O2 0.303239 0.544278 0.538641
O O3 0.314949 0.622282 0.300023
O O4 0.179942 0.619464 0.437585
O O5 0.274331 0.101210 0.087683
O O6 0.401488 0.041155 0.197666
O O7 0.117303 0.753429 0.376867
O O8 0.029128 0.877358 0.343901
O O9 0.089836 0.808385 0.121818
O O10 0.619192 0.594188 0.945667
O O11 0.472682 0.634621 0.886320
O O12 0.544512 0.521072 0.746861
O O13 0.500000 0.500000 0.000000
O O14 0.687952 0.706430 0.796178
O O15 0.699619 0.693990 0.086133
O O16 0.500000 0.000000 0.000000
#
# Coordination Sequence:
#
# PCOD8229484 Si02
#       8
#     8   8   8   8   8   8   4   8
#     4  12  24  46  70 106 142 188 240 291 357 416
#     4  12  25  43  78 105 138 186 242 303 350 420
#     4  12  28  46  70 106 148 190 234 292 356 438
#     4  12  26  49  73 102 143 189 242 300 359 421
#     4  11  26  46  74 104 144 188 243 294 364 430
#     4  12  28  45  71 103 149 191 234 290 364 427
#     4  10  26  48  70 106 142 194 236 298 362 436
#     4  12  27  46  72 110 141 185 246 296 355 423
#
# _framework density 21.947386999999999
#
# number of rings (size 3 to 8) (size 9 to 14) (size 15 to 20)
#    0.000    0.267    5.333    2.800    7.467    4.267 
#    0.000    0.000    0.000    0.000    0.000    0.000 
#    0.000    0.000    0.000    0.000    0.000    0.000 
#
# Total GULP energy -744343.076560 kJ/mol
# GULP energy per Si atom -12405.717943 kJ/mol
# Density = 2.189743 g / cm^3
# Si number density = 21.947387 Si / 1000 Ang^3
#
#
#
# Elastic Constant Matrix: (Units=GPa)
#
#
# Indices 1 2 3 4 5 6 
#
# 1 76.4503 16.1631 -2.0241 0.0000 0.0000 0.0000
# 2 16.1631 91.3905 34.1775 0.0000 0.0000 0.0000
# 3 -2.0241 34.1775 120.9525 0.0000 0.0000 0.0000
# 4 0.0000 0.0000 0.0000 13.1774 0.0000 0.0000
# 5 0.0000 0.0000 0.0000 0.0000 28.2069 0.0000
# 6 0.0000 0.0000 0.0000 0.0000 0.0000 17.1400
#
#
#
# Elastic Compliance Matrix: (Units=1/GPa)
#
#
# Indices 1 2 3 4 5 6 
#
# 1 0.013701 -0.002805 0.001022 0.000000 0.000000 0.000000
# 2 -0.002805 0.012809 -0.003666 0.000000 0.000000 0.000000
# 3 0.001022 -0.003666 0.009321 0.000000 0.000000 0.000000
# 4 0.000000 0.000000 0.000000 0.075888 0.000000 0.000000
# 5 0.000000 0.000000 0.000000 0.000000 0.035452 0.000000
# 6 0.000000 0.000000 0.000000 0.000000 0.000000 0.058343
#
#
# Mechanical properties :
#
#
# Convention : Reuss Voigt Hill
#
# Bulk Modulus (GPa) = 40.11035 42.82514 41.46775
# Shear Modulus (GPa) = 22.24953 27.73663 24.99308
#
# Velocity S-wave (km/s) = 3.18742 3.55882 3.37823
# Velocity P-wave (km/s) = 5.64461 6.03672 5.84395
#
# Compressibility (1/GPa) = 0.02493122
#
# Stress axis : x y z
#
# Youngs Moduli (GPa) = 72.98985 78.06802 107.28641
#
# Poissons Ratio (x) = 0.21900 -0.10964
# Poissons Ratio (y) = 0.20475 0.39336
# Poissons Ratio (z) = -0.07459 0.28623
#
# Static dielectric constant tensor:
#      x y z
#    x 8.088770 0.000000 0.000000 
#    y 0.000000 4.045430 0.000000 
#    z 0.000000 0.000000 3.713550 
# 
# 
# High freq. dielectric constant tensor:
#      x y z
#    x 1.864450 0.000000 0.000000 
#    y 0.000000 1.870690 0.000000 
#    z 0.000000 0.000000 1.882990 
# 
# From -- ./inp_files/4126.got.cif
#   From: 2010.03.12/outbox.cif.g09.slc.cpg/sg56_3_cif.got.tgz:4126.got - 2010.04.16 15:33:40.
