data_PCOD8229301
_publ_section_title
;
Structure prediction by ZEFSAII (Michael W. Deem and Ramdas Pophale) SiO2 
 PCOD8229301
Probable space group: P C C N
;
_chemical_formula_sum "Si O2"
_cell_formula_units_Z 24
_cell_length_a 9.177885
_cell_length_b 10.739726
_cell_length_c 8.881803
_cell_angle_alpha 90.000000
_cell_angle_beta 90.000000
_cell_angle_gamma 90.000000
_cell_volume 875.461293
_symmetry_space_group_name_H-M "P C C N"
_symmetry_group_IT_number 56
_symmetry_cell_setting 'orthorhombic'
loop_
_space_group_symop_operation_xyz
x,y,z
1/2-x,1/2-y,z
1/2+x,-y,1/2-z
-x,1/2+y,1/2-z
-x,-y,-z
1/2+x,1/2+y,-z
1/2-x,y,1/2+z
x,1/2-y,1/2+z
loop_
_atom_site_type_symbol
_atom_site_label
_atom_site_fract_x
_atom_site_fract_y
_atom_site_fract_z
Si Si1 0.438664 0.256004 0.251403
Si Si2 0.650775 0.925493 0.504970
Si Si3 0.866988 0.146350 0.500923
O O1 0.340500 0.158649 0.345393
O O2 0.517481 0.352201 0.365126
O O3 0.338150 0.336511 0.139726
O O4 0.558821 0.177072 0.159801
O O5 0.500000 0.000000 0.500000
O O6 0.792676 0.011625 0.507762
O O7 0.750000 0.250000 0.461027
#
# Coordination Sequence:
#
# PCOD8229301 Si02
#       3
#     8   8   8
#     4  10  23  44  72 113 140 187 240 294 363 420
#     4  11  23  40  75 107 146 188 243 292 358 433
#     4  11  21  42  77 107 137 191 238 296 362 422
#
# _framework density 27.414118999999999
#
# number of rings (size 3 to 8) (size 9 to 14) (size 15 to 20)
#    0.000    1.333    6.667    1.000    0.000    0.000 
#    0.000   20.000    0.000   36.000    0.000    0.000 
#    0.000    0.000    0.000    0.000    0.000    0.000 
#
# Total GULP energy -297777.069777 kJ/mol
# GULP energy per Si atom -12407.377907 kJ/mol
# Density = 2.735172 g / cm^3
# Si number density = 27.414119 Si / 1000 Ang^3
#
#
#
# Elastic Constant Matrix: (Units=GPa)
#
#
# Indices 1 2 3 4 5 6 
#
# 1 98.6620 82.1811 57.6612 0.0000 0.0000 0.0000
# 2 82.1811 201.0741 91.8260 0.0000 0.0000 0.0000
# 3 57.6612 91.8260 200.3286 0.0000 0.0000 0.0000
# 4 0.0000 0.0000 0.0000 29.6899 0.0000 0.0000
# 5 0.0000 0.0000 0.0000 0.0000 46.6663 0.0000
# 6 0.0000 0.0000 0.0000 0.0000 0.0000 93.3518
#
#
#
# Elastic Compliance Matrix: (Units=1/GPa)
#
#
# Indices 1 2 3 4 5 6 
#
# 1 0.015996 -0.005609 -0.002033 0.000000 0.000000 0.000000
# 2 -0.005609 0.008257 -0.002170 0.000000 0.000000 0.000000
# 3 -0.002033 -0.002170 0.006572 0.000000 0.000000 0.000000
# 4 0.000000 0.000000 0.000000 0.033682 0.000000 0.000000
# 5 0.000000 0.000000 0.000000 0.000000 0.021429 0.000000
# 6 0.000000 0.000000 0.000000 0.000000 0.000000 0.010712
#
#
# Mechanical properties :
#
#
# Convention : Reuss Voigt Hill
#
# Bulk Modulus (GPa) = 89.28865 107.04458 98.16661
# Shear Modulus (GPa) = 41.66465 51.83468 46.74967
#
# Velocity S-wave (km/s) = 3.90272 4.35305 4.13402
# Velocity P-wave (km/s) = 7.27663 8.02480 7.65986
#
# Compressibility (1/GPa) = 0.01119963
#
# Stress axis : x y z
#
# Youngs Moduli (GPa) = 62.51514 121.10938 152.16609
#
# Poissons Ratio (x) = 0.67934 0.30936
# Poissons Ratio (y) = 0.35067 0.33024
# Poissons Ratio (z) = 0.12709 0.26284
#
# Static dielectric constant tensor:
#      x y z
#    x 5.144660 0.000000 0.000000 
#    y 0.000000 3.332390 0.000000 
#    z 0.000000 0.000000 5.245650 
# 
# 
# High freq. dielectric constant tensor:
#      x y z
#    x 2.130130 0.000000 0.000000 
#    y 0.000000 2.114890 0.000000 
#    z 0.000000 0.000000 2.126060 
# 
# From -- ./inp_files/2360.got.cif
#   From: 2010.03.12/outbox.cif.g09.slc.cpg/sg56_2_cif.got.tgz:2360.got - 2010.04.16 15:33:40.
