data_PCOD8229834
_publ_section_title
;
Structure prediction by ZEFSAII (Michael W. Deem and Ramdas Pophale) SiO2 
 PCOD8229834
Probable space group: P C C N
;
_chemical_formula_sum "Si O2"
_cell_formula_units_Z 44
_cell_length_a 27.686432
_cell_length_b 4.920455
_cell_length_c 14.072655
_cell_angle_alpha 90.000000
_cell_angle_beta 90.000000
_cell_angle_gamma 90.000000
_cell_volume 1917.115578
_symmetry_space_group_name_H-M "P C C N"
_symmetry_group_IT_number 56
_symmetry_cell_setting 'orthorhombic'
loop_
_space_group_symop_operation_xyz
x,y,z
1/2-x,1/2-y,z
1/2+x,-y,1/2-z
-x,1/2+y,1/2-z
-x,-y,-z
1/2+x,1/2+y,-z
1/2-x,y,1/2+z
x,1/2-y,1/2+z
loop_
_atom_site_type_symbol
_atom_site_label
_atom_site_fract_x
_atom_site_fract_y
_atom_site_fract_z
Si Si1 0.388342 0.788878 0.608011
Si Si2 0.114771 0.897512 0.399243
Si Si3 0.250000 0.250000 0.005911
Si Si4 0.323270 0.406327 0.862078
Si Si5 0.467406 0.958309 0.749144
Si Si6 0.172747 0.301607 0.152718
O O1 0.399326 0.741048 0.497940
O O2 0.437747 0.889605 0.654502
O O3 0.372662 0.503375 0.653665
O O4 0.345046 0.002684 0.623349
O O5 0.150582 0.692982 0.344381
O O6 0.066132 0.939177 0.341023
O O7 0.141089 0.186806 0.411756
O O8 0.278555 0.453653 0.934757
O O9 0.212840 0.405797 0.076620
O O10 0.305695 0.294576 0.759570
O O11 0.513372 0.763590 0.760304
#
# Coordination Sequence:
#
# PCOD8229834 Si02
#       6
#     8   8   4   8   8   8
#     4  12  24  46  72  98 140 182 221 283 355 398
#     4  12  24  46  72  98 140 182 221 283 355 398
#     4  12  26  42  72 108 136 178 254 266 324 408
#     4  12  24  44  69 101 139 186 226 280 339 400
#     4  12  26  44  74 103 134 173 236 284 338 422
#     4  12  24  44  69 101 139 186 226 280 339 400
#
# _framework density 22.951146000000001
#
# number of rings (size 3 to 8) (size 9 to 14) (size 15 to 20)
#    0.000    0.000    7.273    2.727    0.000    4.364 
#    0.000    3.636    0.000    0.000    0.000    0.000 
#    0.000    0.000    0.000    0.000    0.000    0.000 
#
# Total GULP energy -545760.208979 kJ/mol
# GULP energy per Si atom -12403.641113 kJ/mol
# Density = 2.289891 g / cm^3
# Si number density = 22.951146 Si / 1000 Ang^3
#
#
#
# Elastic Constant Matrix: (Units=GPa)
#
#
# Indices 1 2 3 4 5 6 
#
# 1 97.6711 9.6916 34.8617 0.0000 0.0000 0.0000
# 2 9.6916 75.4214 -5.4164 0.0000 0.0000 0.0000
# 3 34.8617 -5.4164 140.6109 0.0000 0.0000 0.0000
# 4 0.0000 0.0000 0.0000 29.0769 0.0000 0.0000
# 5 0.0000 0.0000 0.0000 0.0000 59.4172 0.0000
# 6 0.0000 0.0000 0.0000 0.0000 0.0000 19.4511
#
#
#
# Elastic Compliance Matrix: (Units=1/GPa)
#
#
# Indices 1 2 3 4 5 6 
#
# 1 0.011440 -0.001678 -0.002901 0.000000 0.000000 0.000000
# 2 -0.001678 0.013542 0.000938 0.000000 0.000000 0.000000
# 3 -0.002901 0.000938 0.007867 0.000000 0.000000 0.000000
# 4 0.000000 0.000000 0.000000 0.034392 0.000000 0.000000
# 5 0.000000 0.000000 0.000000 0.000000 0.016830 0.000000
# 6 0.000000 0.000000 0.000000 0.000000 0.000000 0.051411
#
#
# Mechanical properties :
#
#
# Convention : Reuss Voigt Hill
#
# Bulk Modulus (GPa) = 39.11438 43.55301 41.33369
# Shear Modulus (GPa) = 33.04962 39.89349 36.47156
#
# Velocity S-wave (km/s) = 3.79885 4.17369 3.99067
# Velocity P-wave (km/s) = 6.02670 6.49952 6.26757
#
# Compressibility (1/GPa) = 0.02556605
#
# Stress axis : x y z
#
# Youngs Moduli (GPa) = 87.40895 73.84511 127.10977
#
# Poissons Ratio (x) = 0.12394 0.36876
# Poissons Ratio (y) = 0.14671 -0.11920
# Poissons Ratio (z) = 0.25358 -0.06925
#
# Static dielectric constant tensor:
#      x y z
#    x 4.016550 0.000000 0.000000 
#    y 0.000000 4.040430 0.000000 
#    z 0.000000 0.000000 4.315040 
# 
# 
# High freq. dielectric constant tensor:
#      x y z
#    x 1.894310 0.000000 0.000000 
#    y 0.000000 1.903210 0.000000 
#    z 0.000000 0.000000 1.930250 
# 
# From -- ./inp_files/13349.got.cif
#   From: 2010.03.12/outbox.cif.g09.slc.cpg/sg56_7_cif.got.tgz:13349.got - 2010.04.16 15:33:40.
