data_PCOD8229333
_publ_section_title
;
Structure prediction by ZEFSAII (Michael W. Deem and Ramdas Pophale) SiO2 
 PCOD8229333
Probable space group: P C C N
;
_chemical_formula_sum "Si O2"
_cell_formula_units_Z 44
_cell_length_a 18.652400
_cell_length_b 13.728095
_cell_length_c 8.473270
_cell_angle_alpha 90.000000
_cell_angle_beta 90.000000
_cell_angle_gamma 90.000000
_cell_volume 2169.681778
_symmetry_space_group_name_H-M "P C C N"
_symmetry_group_IT_number 56
_symmetry_cell_setting 'orthorhombic'
loop_
_space_group_symop_operation_xyz
x,y,z
1/2-x,1/2-y,z
1/2+x,-y,1/2-z
-x,1/2+y,1/2-z
-x,-y,-z
1/2+x,1/2+y,-z
1/2-x,y,1/2+z
x,1/2-y,1/2+z
loop_
_atom_site_type_symbol
_atom_site_label
_atom_site_fract_x
_atom_site_fract_y
_atom_site_fract_z
Si Si1 0.528153 0.877497 0.175404
Si Si2 0.613483 0.045235 0.308730
Si Si3 0.095883 0.001342 0.825743
Si Si4 0.514760 0.667662 0.307657
Si Si5 0.722079 0.391986 0.276925
Si Si6 0.750000 0.250000 0.027066
O O1 0.458442 0.936360 0.226105
O O2 0.528899 0.780676 0.279786
O O3 0.597321 0.945400 0.213152
O O4 0.526218 0.855135 0.990935
O O5 0.595683 0.025620 0.491156
O O6 0.564531 0.134212 0.246863
O O7 0.695363 0.076112 0.282233
O O8 0.173402 0.986838 0.742868
O O9 0.073950 0.112955 0.800086
O O10 0.700984 0.323873 0.425108
O O11 0.701138 0.320935 0.131613
#
# Coordination Sequence:
#
# PCOD8229333 Si02
#       6
#     8   8   8   8   8   4
#     4  11  24  40  63  87 121 159 202 245 297 354
#     4  11  23  40  62  90 123 157 198 249 296 354
#     4  11  23  40  62  90 123 157 198 249 296 354
#     4  11  24  40  63  87 121 159 202 245 297 354
#     4  11  24  38  61  90 124 154 201 242 299 354
#     4  10  24  38  56  94 122 162 188 240 308 354
#
# _framework density 20.279471000000001
#
# number of rings (size 3 to 8) (size 9 to 14) (size 15 to 20)
#    0.000    1.091    1.818    6.545   10.182    0.000 
#    0.000    0.909    0.000    4.364    0.000    0.000 
#    0.000    0.000    0.000    0.000    0.000    0.000 
#
# Total GULP energy -545376.547917 kJ/mol
# GULP energy per Si atom -12394.921544 kJ/mol
# Density = 2.023331 g / cm^3
# Si number density = 20.279471 Si / 1000 Ang^3
#
#
#
# Elastic Constant Matrix: (Units=GPa)
#
#
# Indices 1 2 3 4 5 6 
#
# 1 107.1024 34.5282 15.6259 0.0000 0.0000 0.0000
# 2 34.5282 105.7053 10.9662 0.0000 0.0000 0.0000
# 3 15.6259 10.9662 121.0904 0.0000 0.0000 0.0000
# 4 0.0000 0.0000 0.0000 69.4720 0.0000 0.0000
# 5 0.0000 0.0000 0.0000 0.0000 19.1708 0.0000
# 6 0.0000 0.0000 0.0000 0.0000 0.0000 13.0197
#
#
#
# Elastic Compliance Matrix: (Units=1/GPa)
#
#
# Indices 1 2 3 4 5 6 
#
# 1 0.010569 -0.003342 -0.001061 0.000000 0.000000 0.000000
# 2 -0.003342 0.010607 -0.000529 0.000000 0.000000 0.000000
# 3 -0.001061 -0.000529 0.008443 0.000000 0.000000 0.000000
# 4 0.000000 0.000000 0.000000 0.014394 0.000000 0.000000
# 5 0.000000 0.000000 0.000000 0.000000 0.052163 0.000000
# 6 0.000000 0.000000 0.000000 0.000000 0.000000 0.076807
#
#
# Mechanical properties :
#
#
# Convention : Reuss Voigt Hill
#
# Bulk Modulus (GPa) = 50.62337 50.68209 50.65273
# Shear Modulus (GPa) = 26.39453 38.51769 32.45611
#
# Velocity S-wave (km/s) = 3.61160 4.36287 4.00489
# Velocity P-wave (km/s) = 6.51219 7.10110 6.81301
#
# Compressibility (1/GPa) = 0.01975372
#
# Stress axis : x y z
#
# Youngs Moduli (GPa) = 94.61463 94.27813 118.43897
#
# Poissons Ratio (x) = 0.31510 0.12569
# Poissons Ratio (y) = 0.31623 0.06269
# Poissons Ratio (z) = 0.10041 0.04990
#
# Static dielectric constant tensor:
#      x y z
#    x 3.559540 0.000000 0.000000 
#    y 0.000000 3.758370 0.000000 
#    z 0.000000 0.000000 4.086490 
# 
# 
# High freq. dielectric constant tensor:
#      x y z
#    x 1.768770 0.000000 0.000000 
#    y 0.000000 1.793640 0.000000 
#    z 0.000000 0.000000 1.822140 
# 
# From -- ./inp_files/3335.got.cif
#   From: 2010.03.12/outbox.cif.g09.slc.cpg/sg56_2_cif.got.tgz:3335.got - 2010.04.16 15:33:40.
