data_PCOD8229942
_publ_section_title
;
Structure prediction by ZEFSAII (Michael W. Deem and Ramdas Pophale) SiO2 
 PCOD8229942
Probable space group: P B C M
;
_chemical_formula_sum "Si O2"
_cell_formula_units_Z 48
_cell_length_a 9.949261
_cell_length_b 30.563810
_cell_length_c 8.934979
_cell_angle_alpha 90.000000
_cell_angle_beta 90.000000
_cell_angle_gamma 90.000000
_cell_volume 2717.013844
_symmetry_space_group_name_H-M "P B C M"
_symmetry_group_IT_number 57
_symmetry_cell_setting 'orthorhombic'
loop_
_space_group_symop_operation_xyz
x,y,z
-x,-y,1/2+z
x,1/2-y,-z
-x,1/2+y,1/2-z
-x,-y,-z
x,y,1/2-z
-x,1/2+y,z
x,1/2-y,1/2+z
loop_
_atom_site_type_symbol
_atom_site_label
_atom_site_fract_x
_atom_site_fract_y
_atom_site_fract_z
Si Si1 0.144915 0.790687 0.575993
Si Si2 0.636320 0.449686 0.074474
Si Si3 0.849888 0.620034 0.074604
Si Si4 0.636297 0.548858 0.425405
Si Si5 0.159420 0.887400 0.921019
Si Si6 0.855718 0.707134 0.572576
O O1 0.228192 0.750000 0.500000
O O2 0.114297 0.780972 0.750000
O O3 0.217202 0.837746 0.559504
O O4 0.008531 0.793372 0.482468
O O5 0.619907 0.446686 0.250000
O O6 0.666580 0.499344 0.021930
O O7 0.498212 0.432743 0.002048
O O8 0.759446 0.419613 0.026364
O O9 0.839853 0.630361 0.250000
O O10 0.762379 0.578286 0.026041
O O11 0.003734 0.610201 0.030146
O O12 0.790129 0.662065 0.986963
O O13 0.611446 0.551273 0.250000
O O14 0.176199 0.902711 0.750000
O O15 0.783461 0.750000 0.500000
O O16 0.844669 0.709546 0.750000
#
# Coordination Sequence:
#
# PCOD8229942 Si02
#       6
#     8   8   8   8   8   8
#     4   9  16  27  44  67  96 129 163 197 237 284
#     4  10  20  33  51  74  97 126 165 201 237 290
#     4   9  18  33  51  72  98 128 163 202 244 286
#     4   9  19  36  54  70  94 129 164 200 244 290
#     4   9  18  31  48  72 101 130 159 197 245 289
#     4  10  17  26  43  68  98 129 160 195 237 284
#
# _framework density 17.666454000000002
#
# number of rings (size 3 to 8) (size 9 to 14) (size 15 to 20)
#    0.000    2.667    0.000    4.500    0.000    5.333 
#    0.000    0.000    0.000    1.000    0.000    4.667 
#    0.000    0.000    0.000    0.000    0.000    0.000 
#
# Total GULP energy -594938.022487 kJ/mol
# GULP energy per Si atom -12394.542135 kJ/mol
# Density = 1.762624 g / cm^3
# Si number density = 17.666454 Si / 1000 Ang^3
#
#
#
# Elastic Constant Matrix: (Units=GPa)
#
#
# Indices 1 2 3 4 5 6 
#
# 1 68.0727 58.7811 30.5221 0.0000 0.0000 0.0000
# 2 58.7811 125.4796 52.0495 0.0000 0.0000 0.0000
# 3 30.5221 52.0495 75.8286 0.0000 0.0000 0.0000
# 4 0.0000 0.0000 0.0000 34.1235 0.0000 0.0000
# 5 0.0000 0.0000 0.0000 0.0000 22.7060 0.0000
# 6 0.0000 0.0000 0.0000 0.0000 0.0000 3.3673
#
#
#
# Elastic Compliance Matrix: (Units=1/GPa)
#
#
# Indices 1 2 3 4 5 6 
#
# 1 0.025099 -0.010579 -0.002841 0.000000 0.000000 0.000000
# 2 -0.010579 0.015601 -0.006450 0.000000 0.000000 0.000000
# 3 -0.002841 -0.006450 0.018759 0.000000 0.000000 0.000000
# 4 0.000000 0.000000 0.000000 0.029305 0.000000 0.000000
# 5 0.000000 0.000000 0.000000 0.000000 0.044041 0.000000
# 6 0.000000 0.000000 0.000000 0.000000 0.000000 0.296976
#
#
# Mechanical properties :
#
#
# Convention : Reuss Voigt Hill
#
# Bulk Modulus (GPa) = 50.71612 61.34292 56.02952
# Shear Modulus (GPa) = 10.50210 20.57457 15.53833
#
# Velocity S-wave (km/s) = 2.44081 3.41634 2.96892
# Velocity P-wave (km/s) = 6.05915 7.09648 6.59823
#
# Compressibility (1/GPa) = 0.01971760
#
# Stress axis : x y z
#
# Youngs Moduli (GPa) = 39.84167 64.09877 53.30842
#
# Poissons Ratio (x) = 0.67812 0.15146
# Poissons Ratio (y) = 0.42150 0.34385
# Poissons Ratio (z) = 0.11319 0.41346
#
# Static dielectric constant tensor:
#      x y z
#    x 2.904690 0.000000 0.000000 
#    y 0.000000 4.029250 0.000000 
#    z 0.000000 0.000000 3.297740 
# 
# 
# High freq. dielectric constant tensor:
#      x y z
#    x 1.631530 0.000000 0.000000 
#    y 0.000000 1.701670 0.000000 
#    z 0.000000 0.000000 1.688190 
# 
# From -- ./inp_files/3324.got.cif
#   From: 2010.03.12/outbox.cif.g09.slc.cpg/sg57_2_cif.got.tgz:3324.got - 2010.04.16 15:48:40.
