data_PCOD8229714
_publ_section_title
;
Structure prediction by ZEFSAII (Michael W. Deem and Ramdas Pophale) SiO2 
 PCOD8229714
Probable space group: P C C N
;
_chemical_formula_sum "Si O2"
_cell_formula_units_Z 36
_cell_length_a 6.137118
_cell_length_b 11.767851
_cell_length_c 21.209456
_cell_angle_alpha 90.000000
_cell_angle_beta 90.000000
_cell_angle_gamma 90.000000
_cell_volume 1531.761551
_symmetry_space_group_name_H-M "P C C N"
_symmetry_group_IT_number 56
_symmetry_cell_setting 'orthorhombic'
loop_
_space_group_symop_operation_xyz
x,y,z
1/2-x,1/2-y,z
1/2+x,-y,1/2-z
-x,1/2+y,1/2-z
-x,-y,-z
1/2+x,1/2+y,-z
1/2-x,y,1/2+z
x,1/2-y,1/2+z
loop_
_atom_site_type_symbol
_atom_site_label
_atom_site_fract_x
_atom_site_fract_y
_atom_site_fract_z
Si Si1 0.896994 0.145524 0.912511
Si Si2 0.325990 0.125769 0.714925
Si Si3 0.093736 0.444816 0.091994
Si Si4 0.198135 0.500062 0.334835
Si Si5 0.250000 0.250000 0.004442
O O1 0.750000 0.250000 0.889095
O O2 0.021843 0.097392 0.851718
O O3 0.733710 0.047488 0.938680
O O4 0.069718 0.183175 0.964898
O O5 0.250000 0.250000 0.735843
O O6 0.155977 0.083031 0.663457
O O7 0.335903 0.045172 0.775955
O O8 0.568228 0.116007 0.683954
O O9 0.114116 0.336241 0.047650
O O10 0.840853 0.479924 0.101681
#
# Coordination Sequence:
#
# PCOD8229714 Si02
#       5
#     8   8   8   8   4
#     4  11  27  45  73 106 146 197 243 306 356 436
#     4  11  24  43  72 108 145 188 236 299 367 441
#     4  11  25  48  71 110 143 193 244 299 369 432
#     4  11  25  46  73 111 147 186 241 301 370 441
#     4  12  26  50  72 104 146 200 250 302 360 424
#
# _framework density 23.502352999999999
#
# number of rings (size 3 to 8) (size 9 to 14) (size 15 to 20)
#    0.000    0.889    3.333    2.000    4.667    8.000 
#    0.000    0.000    0.000    0.000    0.000    0.000 
#    0.000    0.000    0.000    0.000    0.000    0.000 
#
# Total GULP energy -446352.524767 kJ/mol
# GULP energy per Si atom -12398.681244 kJ/mol
# Density = 2.344886 g / cm^3
# Si number density = 23.502353 Si / 1000 Ang^3
#
#
#
# Elastic Constant Matrix: (Units=GPa)
#
#
# Indices 1 2 3 4 5 6 
#
# 1 132.9028 48.4883 38.0745 0.0000 0.0000 0.0000
# 2 48.4883 113.2769 32.2890 0.0000 0.0000 0.0000
# 3 38.0745 32.2890 85.7818 0.0000 0.0000 0.0000
# 4 0.0000 0.0000 0.0000 23.3287 0.0000 0.0000
# 5 0.0000 0.0000 0.0000 0.0000 25.7041 0.0000
# 6 0.0000 0.0000 0.0000 0.0000 0.0000 42.3920
#
#
#
# Elastic Compliance Matrix: (Units=1/GPa)
#
#
# Indices 1 2 3 4 5 6 
#
# 1 0.009572 -0.003233 -0.003032 0.000000 0.000000 0.000000
# 2 -0.003233 0.010981 -0.002698 0.000000 0.000000 0.000000
# 3 -0.003032 -0.002698 0.014019 0.000000 0.000000 0.000000
# 4 0.000000 0.000000 0.000000 0.042866 0.000000 0.000000
# 5 0.000000 0.000000 0.000000 0.000000 0.038904 0.000000
# 6 0.000000 0.000000 0.000000 0.000000 0.000000 0.023589
#
#
# Mechanical properties :
#
#
# Convention : Reuss Voigt Hill
#
# Bulk Modulus (GPa) = 60.07548 63.29611 61.68579
# Shear Modulus (GPa) = 30.59848 32.49226 31.54537
#
# Velocity S-wave (km/s) = 3.61214 3.72225 3.66761
# Velocity P-wave (km/s) = 6.55849 6.74268 6.65122
#
# Compressibility (1/GPa) = 0.01664573
#
# Stress axis : x y z
#
# Youngs Moduli (GPa) = 104.46604 91.06568 71.33294
#
# Poissons Ratio (x) = 0.29445 0.21626
# Poissons Ratio (y) = 0.33777 0.19247
# Poissons Ratio (z) = 0.31671 0.24572
#
# Static dielectric constant tensor:
#      x y z
#    x 4.479100 0.000000 0.000000 
#    y 0.000000 4.340030 0.000000 
#    z 0.000000 0.000000 3.970680 
# 
# 
# High freq. dielectric constant tensor:
#      x y z
#    x 1.943470 0.000000 0.000000 
#    y 0.000000 1.930060 0.000000 
#    z 0.000000 0.000000 1.926430 
# 
# From -- ./inp_files/19890.got.cif
#   From: 2010.03.12/outbox.cif.g09.slc.cpg/sg56_10_cif.got.tgz:19890.got - 2010.04.16 15:33:40.
