data_PCOD8229883
_publ_section_title
;
Structure prediction by ZEFSAII (Michael W. Deem and Ramdas Pophale) SiO2 
 PCOD8229883
Probable space group: P B C M
;
_chemical_formula_sum "Si O2"
_cell_formula_units_Z 64
_cell_length_a 20.436447
_cell_length_b 22.426850
_cell_length_c 8.846939
_cell_angle_alpha 90.000000
_cell_angle_beta 90.000000
_cell_angle_gamma 90.000000
_cell_volume 4054.774480
_symmetry_space_group_name_H-M "P B C M"
_symmetry_group_IT_number 57
_symmetry_cell_setting 'orthorhombic'
loop_
_space_group_symop_operation_xyz
x,y,z
-x,-y,1/2+z
x,1/2-y,-z
-x,1/2+y,1/2-z
-x,-y,-z
x,y,1/2-z
-x,1/2+y,z
x,1/2-y,1/2+z
loop_
_atom_site_type_symbol
_atom_site_label
_atom_site_fract_x
_atom_site_fract_y
_atom_site_fract_z
Si Si1 0.616074 0.086353 0.429089
Si Si2 0.133106 0.686137 0.927684
Si Si3 0.040898 0.583084 0.927421
Si Si4 0.222424 0.026226 0.077052
Si Si5 0.364996 0.041611 0.073187
Si Si6 0.255141 0.608015 0.571825
Si Si7 0.488749 0.434495 0.430522
Si Si8 0.094032 0.466298 0.073337
O O1 0.608934 0.090604 0.250000
O O2 0.677418 0.125944 0.486304
O O3 0.547592 0.107585 0.507564
O O4 0.629966 0.019685 0.482754
O O5 0.133587 0.694102 0.750000
O O6 0.071071 0.646096 0.979745
O O7 0.200377 0.655011 0.980539
O O8 0.125213 0.750000 0.000000
O O9 0.050973 0.574277 0.750000
O O10 0.964200 0.579389 0.973439
O O11 0.081738 0.530849 0.003899
O O12 0.200763 0.027192 0.250000
O O13 0.289949 0.063737 0.053246
O O14 0.231918 0.957969 0.023296
O O15 0.164134 0.057800 0.983994
O O16 0.380926 0.030832 0.250000
O O17 0.417974 0.087012 0.997829
O O18 0.268578 0.609848 0.750000
O O19 0.500000 0.500000 0.500000
O O20 0.487469 0.435127 0.250000
O O21 0.096682 0.473859 0.250000
#
# Coordination Sequence:
#
# PCOD8229883 Si02
#       8
#     8   8   8   8   8   8   8   8
#     4  10  17  24  36  53  73  98 132 174 204 235
#     4  10  20  34  49  62  83 111 141 177 219 262
#     4   9  18  33  45  59  84 112 135 168 220 262
#     4   9  16  27  41  56  81 112 137 166 215 256
#     4   9  16  25  35  49  73 106 137 164 201 245
#     4   9  17  30  43  55  76 108 137 168 211 256
#     4  10  16  23  34  49  71 100 134 169 201 236
#     4  10  18  26  44  66  83 105 140 178 208 252
#
# _framework density 15.783861
#
# number of rings (size 3 to 8) (size 9 to 14) (size 15 to 20)
#    0.000    2.500    1.250    5.250    0.000    4.000 
#    0.000    0.000    0.000    0.000    0.000    0.000 
#    0.000    0.000    0.000    1.125    0.000   16.875 
#
# Total GULP energy -793022.087890 kJ/mol
# GULP energy per Si atom -12390.970123 kJ/mol
# Density = 1.574794 g / cm^3
# Si number density = 15.783861 Si / 1000 Ang^3
#
#
#
# Elastic Constant Matrix: (Units=GPa)
#
#
# Indices 1 2 3 4 5 6 
#
# 1 163.0947 46.6431 54.7679 0.0000 0.0000 0.0000
# 2 46.6431 44.3963 21.9592 0.0000 0.0000 0.0000
# 3 54.7679 21.9592 71.4360 0.0000 0.0000 0.0000
# 4 0.0000 0.0000 0.0000 13.9568 0.0000 0.0000
# 5 0.0000 0.0000 0.0000 0.0000 31.4504 0.0000
# 6 0.0000 0.0000 0.0000 0.0000 0.0000 12.4166
#
#
#
# Elastic Compliance Matrix: (Units=1/GPa)
#
#
# Indices 1 2 3 4 5 6 
#
# 1 0.010256 -0.008121 -0.005367 0.000000 0.000000 0.000000
# 2 -0.008121 0.032993 -0.003916 0.000000 0.000000 0.000000
# 3 -0.005367 -0.003916 0.019317 0.000000 0.000000 0.000000
# 4 0.000000 0.000000 0.000000 0.071650 0.000000 0.000000
# 5 0.000000 0.000000 0.000000 0.000000 0.031796 0.000000
# 6 0.000000 0.000000 0.000000 0.000000 0.000000 0.080537
#
#
# Mechanical properties :
#
#
# Convention : Reuss Voigt Hill
#
# Bulk Modulus (GPa) = 36.02445 58.40749 47.21597
# Shear Modulus (GPa) = 17.20527 21.93521 19.57024
#
# Velocity S-wave (km/s) = 3.30518 3.73194 3.52503
# Velocity P-wave (km/s) = 6.11872 7.46021 6.82252
#
# Compressibility (1/GPa) = 0.02775893
#
# Stress axis : x y z
#
# Youngs Moduli (GPa) = 97.50446 30.30956 51.76830
#
# Poissons Ratio (x) = 0.24613 0.27783
# Poissons Ratio (y) = 0.79179 0.20273
# Poissons Ratio (z) = 0.52328 0.11870
#
# Static dielectric constant tensor:
#      x y z
#    x 4.884570 0.000000 0.000000 
#    y 0.000000 2.416400 0.000000 
#    z 0.000000 0.000000 3.028960 
# 
# 
# High freq. dielectric constant tensor:
#      x y z
#    x 1.635580 0.000000 0.000000 
#    y 0.000000 1.513380 0.000000 
#    z 0.000000 0.000000 1.614190 
# 
# From -- ./inp_files/8794.got.cif
#   From: 2010.03.12/outbox.cif.g09.slc.cpg/sg57_5_cif.got.tgz:8794.got - 2010.04.16 15:48:40.
