data_PCOD8229989
_publ_section_title
;
Structure prediction by ZEFSAII (Michael W. Deem and Ramdas Pophale) SiO2 
 PCOD8229989
Probable space group: P B C M
;
_chemical_formula_sum "Si O2"
_cell_formula_units_Z 56
_cell_length_a 12.551152
_cell_length_b 29.017134
_cell_length_c 9.440336
_cell_angle_alpha 90.000000
_cell_angle_beta 90.000000
_cell_angle_gamma 90.000000
_cell_volume 3438.155828
_symmetry_space_group_name_H-M "P B C M"
_symmetry_group_IT_number 57
_symmetry_cell_setting 'orthorhombic'
loop_
_space_group_symop_operation_xyz
x,y,z
-x,-y,1/2+z
x,1/2-y,-z
-x,1/2+y,1/2-z
-x,-y,-z
x,y,1/2-z
-x,1/2+y,z
x,1/2-y,1/2+z
loop_
_atom_site_type_symbol
_atom_site_label
_atom_site_fract_x
_atom_site_fract_y
_atom_site_fract_z
Si Si1 0.455904 0.543008 0.915042
Si Si2 0.212360 0.957452 0.085232
Si Si3 0.709045 0.793782 0.412805
Si Si4 0.166233 0.452425 0.418782
Si Si5 0.971880 0.108745 0.584524
Si Si6 0.639254 0.891054 0.416271
Si Si7 0.960042 0.706144 0.912830
O O1 0.469730 0.531378 0.750000
O O2 0.334187 0.553265 0.955684
O O3 0.523708 0.588461 0.955731
O O4 0.500000 0.500000 0.000000
O O5 0.200986 0.970978 0.250000
O O6 0.144754 0.911463 0.050709
O O7 0.164816 0.998015 0.991367
O O8 0.667413 0.750000 0.500000
O O9 0.678525 0.785212 0.250000
O O10 0.651198 0.839296 0.476934
O O11 0.834477 0.801239 0.431611
O O12 0.166800 0.459474 0.250000
O O13 0.269934 0.425171 0.475379
O O14 0.062625 0.425321 0.475278
O O15 0.994655 0.113241 0.750000
O O16 0.982573 0.160520 0.522926
O O17 0.658320 0.887196 0.250000
O O18 0.990517 0.714808 0.750000
O O19 0.001482 0.750000 0.000000
#
# Coordination Sequence:
#
# PCOD8229989 Si02
#       7
#     8   8   8   8   8   8   8
#     4  10  19  31  47  66  89 119 154 189 221 260
#     4  10  20  31  44  67  95 120 152 192 224 255
#     4   9  16  28  46  67  88 112 145 184 224 269
#     4  10  17  29  48  66  89 125 156 177 215 273
#     4   9  17  30  47  66  92 124 152 179 222 276
#     4   9  16  28  47  66  87 119 153 178 215 272
#     4   9  16  28  46  66  87 113 144 181 223 267
#
# _framework density 16.287801999999999
#
# number of rings (size 3 to 8) (size 9 to 14) (size 15 to 20)
#    0.000    2.571    2.857    0.429    0.000    0.000 
#    0.000    2.857    0.000    0.857    0.000    0.000 
#    0.000    0.000    0.000    0.000    0.000    0.000 
#
# Total GULP energy -694271.895320 kJ/mol
# GULP energy per Si atom -12397.712416 kJ/mol
# Density = 1.625073 g / cm^3
# Si number density = 16.287802 Si / 1000 Ang^3
#
#
#
# Elastic Constant Matrix: (Units=GPa)
#
#
# Indices 1 2 3 4 5 6 
#
# 1 103.9919 62.4582 26.5883 0.0000 0.0000 0.0000
# 2 62.4582 156.2181 45.7326 0.0000 0.0000 0.0000
# 3 26.5883 45.7326 36.8168 0.0000 0.0000 0.0000
# 4 0.0000 0.0000 0.0000 27.0517 0.0000 0.0000
# 5 0.0000 0.0000 0.0000 0.0000 12.6287 0.0000
# 6 0.0000 0.0000 0.0000 0.0000 0.0000 24.3167
#
#
#
# Elastic Compliance Matrix: (Units=1/GPa)
#
#
# Indices 1 2 3 4 5 6 
#
# 1 0.013145 -0.003892 -0.004659 0.000000 0.000000 0.000000
# 2 -0.003892 0.011211 -0.011116 0.000000 0.000000 0.000000
# 3 -0.004659 -0.011116 0.044334 0.000000 0.000000 0.000000
# 4 0.000000 0.000000 0.000000 0.036966 0.000000 0.000000
# 5 0.000000 0.000000 0.000000 0.000000 0.079185 0.000000
# 6 0.000000 0.000000 0.000000 0.000000 0.000000 0.041124
#
#
# Mechanical properties :
#
#
# Convention : Reuss Voigt Hill
#
# Bulk Modulus (GPa) = 34.06324 62.95388 48.50856
# Shear Modulus (GPa) = 18.17632 23.61594 20.89613
#
# Velocity S-wave (km/s) = 3.34420 3.81191 3.58569
# Velocity P-wave (km/s) = 5.98919 7.62293 6.85490
#
# Compressibility (1/GPa) = 0.02935716
#
# Stress axis : x y z
#
# Youngs Moduli (GPa) = 76.07711 89.19500 22.55611
#
# Poissons Ratio (x) = 0.34711 0.10508
# Poissons Ratio (y) = 0.29606 0.25073
# Poissons Ratio (z) = 0.35443 0.99149
#
# Static dielectric constant tensor:
#      x y z
#    x 3.059700 0.000000 0.000000 
#    y 0.000000 3.253980 0.000000 
#    z 0.000000 0.000000 2.810320 
# 
# 
# High freq. dielectric constant tensor:
#      x y z
#    x 1.612220 0.000000 0.000000 
#    y 0.000000 1.631090 0.000000 
#    z 0.000000 0.000000 1.596540 
# 
# From -- ./inp_files/13194.got.cif
#   From: 2010.03.12/outbox.cif.g09.slc.cpg/sg57_7_cif.got.tgz:13194.got - 2010.04.16 15:48:40.
