data_PCOD8229510
_publ_section_title
;
Structure prediction by ZEFSAII (Michael W. Deem and Ramdas Pophale) SiO2 
 PCOD8229510
Probable space group: P C C N
;
_chemical_formula_sum "Si O2"
_cell_formula_units_Z 44
_cell_length_a 9.288954
_cell_length_b 16.633450
_cell_length_c 13.460525
_cell_angle_alpha 90.000000
_cell_angle_beta 90.000000
_cell_angle_gamma 90.000000
_cell_volume 2079.750073
_symmetry_space_group_name_H-M "P C C N"
_symmetry_group_IT_number 56
_symmetry_cell_setting 'orthorhombic'
loop_
_space_group_symop_operation_xyz
x,y,z
1/2-x,1/2-y,z
1/2+x,-y,1/2-z
-x,1/2+y,1/2-z
-x,-y,-z
1/2+x,1/2+y,-z
1/2-x,y,1/2+z
x,1/2-y,1/2+z
loop_
_atom_site_type_symbol
_atom_site_label
_atom_site_fract_x
_atom_site_fract_y
_atom_site_fract_z
Si Si1 0.750000 0.250000 0.717785
Si Si2 0.887434 0.369431 0.357951
Si Si3 0.239170 0.518124 0.868835
Si Si4 0.688938 0.951052 0.429606
Si Si5 0.067487 0.447960 0.209950
Si Si6 0.083831 0.841536 0.927655
O O1 0.732347 0.326913 0.789747
O O2 0.609202 0.233912 0.646610
O O3 0.844252 0.459314 0.390901
O O4 0.922713 0.316043 0.455813
O O5 0.025500 0.375985 0.285013
O O6 0.338098 0.511551 0.771584
O O7 0.269900 0.606092 0.913887
O O8 0.072574 0.509118 0.837870
O O9 0.283293 0.451965 0.951929
O O10 0.831780 0.915016 0.378537
O O11 0.557074 0.893246 0.401217
#
# Coordination Sequence:
#
# PCOD8229510 Si02
#       6
#     4   8   8   8   8   8
#     4  12  24  40  66  98 132 172 218 266 334 408
#     4  11  22  38  64  92 127 171 216 264 327 392
#     4  11  20  36  60  97 127 164 217 272 319 382
#     4  11  22  38  66  95 132 166 222 278 320 381
#     4  12  19  36  62  97 127 164 214 270 329 378
#     4  11  21  41  63  91 130 173 213 271 326 388
#
# _framework density 21.156389000000001
#
# number of rings (size 3 to 8) (size 9 to 14) (size 15 to 20)
#    0.000    0.727    7.273    2.182    0.000    0.000 
#    0.000    0.909    0.000    2.182    0.000    0.000 
#    0.000    0.000    0.000    0.000    0.000    0.000 
#
# Total GULP energy -545179.489658 kJ/mol
# GULP energy per Si atom -12390.442947 kJ/mol
# Density = 2.110824 g / cm^3
# Si number density = 21.156389 Si / 1000 Ang^3
#
#
#
# Elastic Constant Matrix: (Units=GPa)
#
#
# Indices 1 2 3 4 5 6 
#
# 1 143.0330 32.6863 64.4673 0.0000 0.0000 0.0000
# 2 32.6863 47.6929 35.2006 0.0000 0.0000 0.0000
# 3 64.4673 35.2006 125.9875 0.0000 0.0000 0.0000
# 4 0.0000 0.0000 0.0000 25.8582 0.0000 0.0000
# 5 0.0000 0.0000 0.0000 0.0000 42.5165 0.0000
# 6 0.0000 0.0000 0.0000 0.0000 0.0000 21.7353
#
#
#
# Elastic Compliance Matrix: (Units=1/GPa)
#
#
# Indices 1 2 3 4 5 6 
#
# 1 0.009582 -0.003714 -0.003866 0.000000 0.000000 0.000000
# 2 -0.003714 0.027854 -0.005882 0.000000 0.000000 0.000000
# 3 -0.003866 -0.005882 0.011559 0.000000 0.000000 0.000000
# 4 0.000000 0.000000 0.000000 0.038672 0.000000 0.000000
# 5 0.000000 0.000000 0.000000 0.000000 0.023520 0.000000
# 6 0.000000 0.000000 0.000000 0.000000 0.000000 0.046008
#
#
# Mechanical properties :
#
#
# Convention : Reuss Voigt Hill
#
# Bulk Modulus (GPa) = 45.30621 64.60242 54.95431
# Shear Modulus (GPa) = 26.11283 30.31261 28.21272
#
# Velocity S-wave (km/s) = 3.51704 3.78932 3.65572
# Velocity P-wave (km/s) = 6.16069 7.05317 6.62199
#
# Compressibility (1/GPa) = 0.02207203
#
# Stress axis : x y z
#
# Youngs Moduli (GPa) = 104.35730 35.90122 86.51538
#
# Poissons Ratio (x) = 0.13335 0.33443
# Poissons Ratio (y) = 0.38761 0.50887
# Poissons Ratio (z) = 0.40340 0.21116
#
# Static dielectric constant tensor:
#      x y z
#    x 3.819530 0.000000 0.000000 
#    y 0.000000 3.413630 0.000000 
#    z 0.000000 0.000000 4.632750 
# 
# 
# High freq. dielectric constant tensor:
#      x y z
#    x 1.817490 0.000000 0.000000 
#    y 0.000000 1.773340 0.000000 
#    z 0.000000 0.000000 1.867680 
# 
# From -- ./inp_files/10583.got.cif
#   From: 2010.03.12/outbox.cif.g09.slc.cpg/sg56_6_cif.got.tgz:10583.got - 2010.04.16 15:33:40.
