data_PCOD8229722
_publ_section_title
;
Structure prediction by ZEFSAII (Michael W. Deem and Ramdas Pophale) SiO2 
 PCOD8229722
Probable space group: P C C N
;
_chemical_formula_sum "Si O2"
_cell_formula_units_Z 64
_cell_length_a 15.150215
_cell_length_b 11.556612
_cell_length_c 17.236843
_cell_angle_alpha 90.000000
_cell_angle_beta 90.000000
_cell_angle_gamma 90.000000
_cell_volume 3017.915354
_symmetry_space_group_name_H-M "P C C N"
_symmetry_group_IT_number 56
_symmetry_cell_setting 'orthorhombic'
loop_
_space_group_symop_operation_xyz
x,y,z
1/2-x,1/2-y,z
1/2+x,-y,1/2-z
-x,1/2+y,1/2-z
-x,-y,-z
1/2+x,1/2+y,-z
1/2-x,y,1/2+z
x,1/2-y,1/2+z
loop_
_atom_site_type_symbol
_atom_site_label
_atom_site_fract_x
_atom_site_fract_y
_atom_site_fract_z
Si Si1 0.647550 0.774538 0.300753
Si Si2 0.913082 0.512440 0.216538
Si Si3 0.033684 0.328784 0.556531
Si Si4 0.562463 0.083126 0.045760
Si Si5 0.109525 0.023173 0.928639
Si Si6 0.892498 0.966705 0.245402
Si Si7 0.766983 0.120863 0.804809
Si Si8 0.246989 0.879212 0.515867
O O1 0.750000 0.750000 0.310979
O O2 0.610885 0.829565 0.379800
O O3 0.596418 0.655097 0.288499
O O4 0.632241 0.862021 0.228612
O O5 0.911211 0.471539 0.128030
O O6 0.857923 0.420085 0.266445
O O7 0.012726 0.527447 0.247632
O O8 0.078332 0.361703 0.474259
O O9 0.981418 0.208828 0.552742
O O10 0.967370 0.429890 0.578916
O O11 0.646308 0.083275 0.989699
O O12 0.500000 0.000000 0.000000
O O13 0.136031 0.060324 0.842390
O O14 0.194664 0.966863 0.967075
O O15 0.816918 0.043079 0.284409
O O16 0.750000 0.250000 0.774135
O O17 0.782243 0.119058 0.896644
O O18 0.250000 0.750000 0.480477
#
# Coordination Sequence:
#
# PCOD8229722 Si02
#       8
#     8   8   8   8   8   8   8   8
#     4  12  26  48  70 103 150 191 244 297 368 437
#     4  12  26  46  73 100 142 191 237 298 361 436
#     4  11  25  46  71 103 139 189 233 298 358 438
#     4  12  27  45  69 105 143 185 235 294 366 429
#     4  11  25  43  72 104 139 183 242 292 369 425
#     4  12  26  44  72 105 141 188 243 305 363 434
#     4  11  27  45  70 106 139 188 242 297 363 432
#     4  11  24  45  70  99 144 184 238 298 355 435
#
# _framework density 21.206692
#
# number of rings (size 3 to 8) (size 9 to 14) (size 15 to 20)
#    0.000    0.500    5.000    2.250    7.000    1.000 
#    0.000    0.625    0.000    0.000    0.000    0.000 
#    0.000    0.000    0.000    0.000    0.000    0.000 
#
# Total GULP energy -793854.702608 kJ/mol
# GULP energy per Si atom -12403.979728 kJ/mol
# Density = 2.115842 g / cm^3
# Si number density = 21.206692 Si / 1000 Ang^3
#
#
#
# Elastic Constant Matrix: (Units=GPa)
#
#
# Indices 1 2 3 4 5 6 
#
# 1 114.8959 28.6811 21.5331 0.0000 0.0000 0.0000
# 2 28.6811 113.9359 36.3003 0.0000 0.0000 0.0000
# 3 21.5331 36.3003 87.4645 0.0000 0.0000 0.0000
# 4 0.0000 0.0000 0.0000 19.7197 0.0000 0.0000
# 5 0.0000 0.0000 0.0000 0.0000 36.7426 0.0000
# 6 0.0000 0.0000 0.0000 0.0000 0.0000 39.5145
#
#
#
# Elastic Compliance Matrix: (Units=1/GPa)
#
#
# Indices 1 2 3 4 5 6 
#
# 1 0.009465 -0.001890 -0.001546 0.000000 0.000000 0.000000
# 2 -0.001890 0.010492 -0.003889 0.000000 0.000000 0.000000
# 3 -0.001546 -0.003889 0.013428 0.000000 0.000000 0.000000
# 4 0.000000 0.000000 0.000000 0.050711 0.000000 0.000000
# 5 0.000000 0.000000 0.000000 0.000000 0.027216 0.000000
# 6 0.000000 0.000000 0.000000 0.000000 0.000000 0.025307
#
#
# Mechanical properties :
#
#
# Convention : Reuss Voigt Hill
#
# Bulk Modulus (GPa) = 53.37682 54.36948 53.87315
# Shear Modulus (GPa) = 31.74328 34.51414 33.12871
#
# Velocity S-wave (km/s) = 3.87311 4.03862 3.95673
# Velocity P-wave (km/s) = 6.72501 6.88773 6.80686
#
# Compressibility (1/GPa) = 0.01873473
#
# Stress axis : x y z
#
# Youngs Moduli (GPa) = 105.65166 95.31311 74.47226
#
# Poissons Ratio (x) = 0.18016 0.11512
# Poissons Ratio (y) = 0.19970 0.28962
# Poissons Ratio (z) = 0.16331 0.37068
#
# Static dielectric constant tensor:
#      x y z
#    x 3.806240 0.000000 0.000000 
#    y 0.000000 3.998120 0.000000 
#    z 0.000000 0.000000 3.973470 
# 
# 
# High freq. dielectric constant tensor:
#      x y z
#    x 1.847490 0.000000 0.000000 
#    y 0.000000 1.840290 0.000000 
#    z 0.000000 0.000000 1.837740 
# 
# From -- ./inp_files/16365.got.cif
#   From: 2010.03.12/outbox.cif.g09.slc.cpg/sg56_9_cif.got.tgz:16365.got - 2010.04.16 15:33:40.
