data_PCOD8229816
_publ_section_title
;
Structure prediction by ZEFSAII (Michael W. Deem and Ramdas Pophale) SiO2 
 PCOD8229816
Probable space group: P C C N
;
_chemical_formula_sum "Si O2"
_cell_formula_units_Z 48
_cell_length_a 5.059438
_cell_length_b 21.739235
_cell_length_c 22.359270
_cell_angle_alpha 90.000000
_cell_angle_beta 90.000000
_cell_angle_gamma 90.000000
_cell_volume 2459.258357
_symmetry_space_group_name_H-M "P C C N"
_symmetry_group_IT_number 56
_symmetry_cell_setting 'orthorhombic'
loop_
_space_group_symop_operation_xyz
x,y,z
1/2-x,1/2-y,z
1/2+x,-y,1/2-z
-x,1/2+y,1/2-z
-x,-y,-z
1/2+x,1/2+y,-z
1/2-x,y,1/2+z
x,1/2-y,1/2+z
loop_
_atom_site_type_symbol
_atom_site_label
_atom_site_fract_x
_atom_site_fract_y
_atom_site_fract_z
Si Si1 0.750000 0.250000 0.260098
Si Si2 0.711069 0.378081 0.700906
Si Si3 0.695528 0.882337 0.111483
Si Si4 0.210417 0.075272 0.139019
Si Si5 0.195706 0.935331 0.172635
Si Si6 0.250000 0.250000 0.344135
Si Si7 0.251130 0.456642 0.505890
O O1 0.721341 0.308514 0.217623
O O2 0.499277 0.241494 0.301823
O O3 0.419349 0.381552 0.673014
O O4 0.742187 0.421982 0.758024
O O5 0.916909 0.400883 0.651387
O O6 0.398543 0.896899 0.132087
O O7 0.729647 0.809020 0.113139
O O8 0.897983 0.916526 0.155845
O O9 0.748000 0.904347 0.044396
O O10 0.255751 0.079062 0.068345
O O11 0.249218 0.006443 0.162125
O O12 0.500000 0.500000 0.500000
O O13 0.000000 0.500000 0.500000
#
# Coordination Sequence:
#
# PCOD8229816 Si02
#       7
#     4   8   8   8   8   4   8
#     4  12  24  44  66  88 132 174 214 258 318 394
#     4  12  24  41  62  97 129 170 212 262 322 386
#     4  12  22  40  67  97 124 165 219 265 318 367
#     4  12  24  40  64  96 136 167 207 258 331 389
#     4  12  22  40  65  98 132 159 206 278 318 379
#     4  12  22  42  66  94 126 164 220 270 312 370
#     4  12  23  43  66  92 130 170 213 261 316 387
#
# _framework density 19.518077999999999
#
# number of rings (size 3 to 8) (size 9 to 14) (size 15 to 20)
#    0.000    0.000    6.667    5.000    0.000    0.000 
#    0.000    1.667    0.000    0.000    0.000    0.000 
#    0.000    0.000    0.000    0.000    0.000    0.000 
#
# Total GULP energy -595613.184941 kJ/mol
# GULP energy per Si atom -12408.608020 kJ/mol
# Density = 1.947365 g / cm^3
# Si number density = 19.518078 Si / 1000 Ang^3
#
#
#
# Elastic Constant Matrix: (Units=GPa)
#
#
# Indices 1 2 3 4 5 6 
#
# 1 93.1358 17.4637 18.3287 0.0000 0.0000 0.0000
# 2 17.4637 109.3674 37.8079 0.0000 0.0000 0.0000
# 3 18.3287 37.8079 120.5595 0.0000 0.0000 0.0000
# 4 0.0000 0.0000 0.0000 29.0595 0.0000 0.0000
# 5 0.0000 0.0000 0.0000 0.0000 29.7245 0.0000
# 6 0.0000 0.0000 0.0000 0.0000 0.0000 29.6968
#
#
#
# Elastic Compliance Matrix: (Units=1/GPa)
#
#
# Indices 1 2 3 4 5 6 
#
# 1 0.011243 -0.001351 -0.001286 0.000000 0.000000 0.000000
# 2 -0.001351 0.010418 -0.003062 0.000000 0.000000 0.000000
# 3 -0.001286 -0.003062 0.009450 0.000000 0.000000 0.000000
# 4 0.000000 0.000000 0.000000 0.034412 0.000000 0.000000
# 5 0.000000 0.000000 0.000000 0.000000 0.033642 0.000000
# 6 0.000000 0.000000 0.000000 0.000000 0.000000 0.033674
#
#
# Mechanical properties :
#
#
# Convention : Reuss Voigt Hill
#
# Bulk Modulus (GPa) = 50.72327 52.25148 51.48737
# Shear Modulus (GPa) = 33.15490 34.32698 33.74094
#
# Velocity S-wave (km/s) = 4.12597 4.19827 4.16228
# Velocity P-wave (km/s) = 6.98158 7.09433 7.03818
#
# Compressibility (1/GPa) = 0.01971482
#
# Stress axis : x y z
#
# Youngs Moduli (GPa) = 88.94166 95.99146 105.81717
#
# Poissons Ratio (x) = 0.12967 0.13605
# Poissons Ratio (y) = 0.12015 0.32397
# Poissons Ratio (z) = 0.11435 0.29389
#
# Static dielectric constant tensor:
#      x y z
#    x 3.830220 0.000000 0.000000 
#    y 0.000000 3.686650 0.000000 
#    z 0.000000 0.000000 3.653640 
# 
# 
# High freq. dielectric constant tensor:
#      x y z
#    x 1.784880 0.000000 0.000000 
#    y 0.000000 1.758180 0.000000 
#    z 0.000000 0.000000 1.758530 
# 
# From -- ./inp_files/17541.got.cif
#   From: 2010.03.12/outbox.cif.g09.slc.cpg/sg56_9_cif.got.tgz:17541.got - 2010.04.16 15:33:40.
