data_PCOD8229487
_publ_section_title
;
Structure prediction by ZEFSAII (Michael W. Deem and Ramdas Pophale) SiO2 
 PCOD8229487
Probable space group: P C C N
;
_chemical_formula_sum "Si O2"
_cell_formula_units_Z 20
_cell_length_a 5.183666
_cell_length_b 7.505952
_cell_length_c 19.466991
_cell_angle_alpha 90.000000
_cell_angle_beta 90.000000
_cell_angle_gamma 90.000000
_cell_volume 757.428464
_symmetry_space_group_name_H-M "P C C N"
_symmetry_group_IT_number 56
_symmetry_cell_setting 'orthorhombic'
loop_
_space_group_symop_operation_xyz
x,y,z
1/2-x,1/2-y,z
1/2+x,-y,1/2-z
-x,1/2+y,1/2-z
-x,-y,-z
1/2+x,1/2+y,-z
1/2-x,y,1/2+z
x,1/2-y,1/2+z
loop_
_atom_site_type_symbol
_atom_site_label
_atom_site_fract_x
_atom_site_fract_y
_atom_site_fract_z
Si Si1 0.090884 0.597807 0.588603
Si Si2 0.250000 0.250000 0.526298
Si Si3 0.808404 0.048859 0.209282
O O1 0.250000 0.750000 0.629983
O O2 0.279446 0.427413 0.573513
O O3 0.999161 0.700901 0.519525
O O4 0.848986 0.545212 0.635621
O O5 0.750000 0.250000 0.191659
O O6 0.573965 0.954716 0.247839
#
# Coordination Sequence:
#
# PCOD8229487 Si02
#       3
#     8   4   8
#     4  11  26  49  81 115 163 206 267 329 397 479
#     4  10  26  48  78 122 156 210 262 324 404 472
#     4  12  30  52  80 116 159 216 273 331 402 474
#
# _framework density 26.405131999999998
#
# number of rings (size 3 to 8) (size 9 to 14) (size 15 to 20)
#    0.000    0.800    0.000    3.600   16.800    6.400 
#    0.000    0.000    0.000    0.000    0.000    0.000 
#    0.000    0.000    0.000    0.000    0.000    0.000 
#
# Total GULP energy -247983.217232 kJ/mol
# GULP energy per Si atom -12399.160862 kJ/mol
# Density = 2.634503 g / cm^3
# Si number density = 26.405132 Si / 1000 Ang^3
#
#
#
# Elastic Constant Matrix: (Units=GPa)
#
#
# Indices 1 2 3 4 5 6 
#
# 1 138.9848 78.1584 38.6410 0.0000 0.0000 0.0000
# 2 78.1584 222.6030 51.1630 0.0000 0.0000 0.0000
# 3 38.6410 51.1630 90.8298 0.0000 0.0000 0.0000
# 4 0.0000 0.0000 0.0000 26.8499 0.0000 0.0000
# 5 0.0000 0.0000 0.0000 0.0000 26.9604 0.0000
# 6 0.0000 0.0000 0.0000 0.0000 0.0000 58.0361
#
#
#
# Elastic Compliance Matrix: (Units=1/GPa)
#
#
# Indices 1 2 3 4 5 6 
#
# 1 0.009422 -0.002742 -0.002464 0.000000 0.000000 0.000000
# 2 -0.002742 0.005958 -0.002190 0.000000 0.000000 0.000000
# 3 -0.002464 -0.002190 0.013291 0.000000 0.000000 0.000000
# 4 0.000000 0.000000 0.000000 0.037244 0.000000 0.000000
# 5 0.000000 0.000000 0.000000 0.000000 0.037091 0.000000
# 6 0.000000 0.000000 0.000000 0.000000 0.000000 0.017231
#
#
# Mechanical properties :
#
#
# Convention : Reuss Voigt Hill
#
# Bulk Modulus (GPa) = 72.04342 87.59358 79.81850
# Shear Modulus (GPa) = 35.80239 41.33295 38.56767
#
# Velocity S-wave (km/s) = 3.68623 3.96073 3.82594
# Velocity P-wave (km/s) = 6.74247 7.35945 7.05770
#
# Compressibility (1/GPa) = 0.01388052
#
# Stress axis : x y z
#
# Youngs Moduli (GPa) = 106.13540 167.83331 75.23752
#
# Poissons Ratio (x) = 0.46017 0.18537
# Poissons Ratio (y) = 0.29101 0.16475
# Poissons Ratio (z) = 0.26150 0.36752
#
# Static dielectric constant tensor:
#      x y z
#    x 4.626730 0.000000 0.000000 
#    y 0.000000 5.226340 0.000000 
#    z 0.000000 0.000000 4.771140 
# 
# 
# High freq. dielectric constant tensor:
#      x y z
#    x 2.050230 0.000000 0.000000 
#    y 0.000000 2.087510 0.000000 
#    z 0.000000 0.000000 2.056300 
# 
# From -- ./inp_files/17151.got.cif
#   From: 2010.03.12/outbox.cif.g09.slc.cpg/sg56_9_cif.got.tgz:17151.got - 2010.04.16 15:33:40.
