data_PCOD8229349
_publ_section_title
;
Structure prediction by ZEFSAII (Michael W. Deem and Ramdas Pophale) SiO2 
 PCOD8229349
Probable space group: P C C N
;
_chemical_formula_sum "Si O2"
_cell_formula_units_Z 60
_cell_length_a 18.161483
_cell_length_b 16.169126
_cell_length_c 8.880355
_cell_angle_alpha 90.000000
_cell_angle_beta 90.000000
_cell_angle_gamma 90.000000
_cell_volume 2607.763374
_symmetry_space_group_name_H-M "P C C N"
_symmetry_group_IT_number 56
_symmetry_cell_setting 'orthorhombic'
loop_
_space_group_symop_operation_xyz
x,y,z
1/2-x,1/2-y,z
1/2+x,-y,1/2-z
-x,1/2+y,1/2-z
-x,-y,-z
1/2+x,1/2+y,-z
1/2-x,y,1/2+z
x,1/2-y,1/2+z
loop_
_atom_site_type_symbol
_atom_site_label
_atom_site_fract_x
_atom_site_fract_y
_atom_site_fract_z
Si Si1 0.227667 0.081613 0.004363
Si Si2 0.308830 0.980254 0.241342
Si Si3 0.250000 0.750000 0.067717
Si Si4 0.814375 0.149964 0.693645
Si Si5 0.481356 0.647963 0.301859
Si Si6 0.031047 0.197022 0.368915
Si Si7 0.029068 0.525340 0.164676
Si Si8 0.688381 0.683833 0.739429
O O1 0.172103 0.140212 0.098372
O O2 0.286720 0.050128 0.124321
O O3 0.280693 0.122765 0.884090
O O4 0.180327 0.013680 0.912816
O O5 0.241431 0.916866 0.239854
O O6 0.386118 0.945466 0.179923
O O7 0.184174 0.778973 0.178561
O O8 0.283360 0.822441 0.967101
O O9 0.897155 0.119889 0.667846
O O10 0.483699 0.722820 0.181726
O O11 0.519055 0.682862 0.453669
O O12 0.517915 0.561192 0.241923
O O13 0.114208 0.223083 0.327179
O O14 0.013572 0.109195 0.283773
O O15 0.000000 0.500000 0.000000
O O16 0.750000 0.750000 0.777569
#
# Coordination Sequence:
#
# PCOD8229349 Si02
#       8
#     8   8   4   8   8   8   8   8
#     4  10  24  41  70 103 141 176 257 289 362 414
#     4  11  24  43  73 104 139 192 243 299 356 445
#     4  10  24  40  68 102 140 178 248 290 354 414
#     4  11  24  42  71 101 141 187 242 293 358 432
#     4  11  26  46  72 101 145 189 232 296 367 427
#     4  11  27  46  73 102 146 187 240 293 370 426
#     4  10  25  46  73  99 147 191 236 290 375 429
#     4  11  25  43  72 102 142 191 239 299 358 440
#
# _framework density 23.008220999999999
#
# number of rings (size 3 to 8) (size 9 to 14) (size 15 to 20)
#    0.000    1.333    0.000    3.600   22.400    0.000 
#    2.400    1.333    0.000    0.000    0.000    0.000 
#    0.000    0.000    0.000    0.000    0.000    0.000 
#
# Total GULP energy -743415.166609 kJ/mol
# GULP energy per Si atom -12390.252777 kJ/mol
# Density = 2.295585 g / cm^3
# Si number density = 23.008221 Si / 1000 Ang^3
#
#
#
# Elastic Constant Matrix: (Units=GPa)
#
#
# Indices 1 2 3 4 5 6 
#
# 1 120.2946 4.2768 18.1214 0.0000 0.0000 0.0000
# 2 4.2768 109.9595 17.5760 0.0000 0.0000 0.0000
# 3 18.1214 17.5760 100.4900 0.0000 0.0000 0.0000
# 4 0.0000 0.0000 0.0000 29.4459 0.0000 0.0000
# 5 0.0000 0.0000 0.0000 0.0000 25.4070 0.0000
# 6 0.0000 0.0000 0.0000 0.0000 0.0000 32.0320
#
#
#
# Elastic Compliance Matrix: (Units=1/GPa)
#
#
# Indices 1 2 3 4 5 6 
#
# 1 0.008546 -0.000089 -0.001526 0.000000 0.000000 0.000000
# 2 -0.000089 0.009357 -0.001621 0.000000 0.000000 0.000000
# 3 -0.001526 -0.001621 0.010510 0.000000 0.000000 0.000000
# 4 0.000000 0.000000 0.000000 0.033961 0.000000 0.000000
# 5 0.000000 0.000000 0.000000 0.000000 0.039359 0.000000
# 6 0.000000 0.000000 0.000000 0.000000 0.000000 0.031219
#
#
# Mechanical properties :
#
#
# Convention : Reuss Voigt Hill
#
# Bulk Modulus (GPa) = 45.57255 45.63251 45.60253
# Shear Modulus (GPa) = 34.07508 36.76163 35.41835
#
# Velocity S-wave (km/s) = 3.85255 4.00154 3.92775
# Velocity P-wave (km/s) = 6.29599 6.42074 6.35867
#
# Compressibility (1/GPa) = 0.02194304
#
# Stress axis : x y z
#
# Youngs Moduli (GPa) = 117.01529 106.87489 95.14941
#
# Poissons Ratio (x) = 0.00946 0.14516
# Poissons Ratio (y) = 0.01036 0.15419
# Poissons Ratio (z) = 0.17852 0.17320
#
# Static dielectric constant tensor:
#      x y z
#    x 4.033590 0.000000 0.000000 
#    y 0.000000 5.847840 0.000000 
#    z 0.000000 0.000000 4.280060 
# 
# 
# High freq. dielectric constant tensor:
#      x y z
#    x 1.900170 0.000000 0.000000 
#    y 0.000000 1.918190 0.000000 
#    z 0.000000 0.000000 1.907880 
# 
# From -- ./inp_files/4147.got.cif
#   From: 2010.03.12/outbox.cif.g09.slc.cpg/sg56_3_cif.got.tgz:4147.got - 2010.04.16 15:33:40.
