data_PCOD8229209
_publ_section_title
;
Structure prediction by ZEFSAII (Michael W. Deem and Ramdas Pophale) SiO2 
 PCOD8229209
Probable space group: P C C N
;
_chemical_formula_sum "Si O2"
_cell_formula_units_Z 52
_cell_length_a 8.688360
_cell_length_b 16.318193
_cell_length_c 18.278909
_cell_angle_alpha 90.000000
_cell_angle_beta 90.000000
_cell_angle_gamma 90.000000
_cell_volume 2591.553290
_symmetry_space_group_name_H-M "P C C N"
_symmetry_group_IT_number 56
_symmetry_cell_setting 'orthorhombic'
loop_
_space_group_symop_operation_xyz
x,y,z
1/2-x,1/2-y,z
1/2+x,-y,1/2-z
-x,1/2+y,1/2-z
-x,-y,-z
1/2+x,1/2+y,-z
1/2-x,y,1/2+z
x,1/2-y,1/2+z
loop_
_atom_site_type_symbol
_atom_site_label
_atom_site_fract_x
_atom_site_fract_y
_atom_site_fract_z
Si Si1 0.191370 0.466425 0.663711
Si Si2 0.250000 0.750000 0.271238
Si Si3 0.042601 0.960187 0.576298
Si Si4 0.386803 0.894347 0.368372
Si Si5 0.721977 0.161080 0.481712
Si Si6 0.251075 0.437618 0.323498
Si Si7 0.944816 0.144043 0.839323
O O1 0.353028 0.473235 0.620171
O O2 0.204080 0.420686 0.740439
O O3 0.130583 0.557183 0.678237
O O4 0.070217 0.408286 0.620936
O O5 0.340768 0.813919 0.322740
O O6 0.119724 0.791807 0.220385
O O7 0.132859 0.876420 0.560730
O O8 0.896179 0.932305 0.622900
O O9 0.000000 0.000000 0.500000
O O10 0.321870 0.896372 0.450653
O O11 0.320410 0.972032 0.326126
O O12 0.750000 0.250000 0.515917
O O13 0.588786 0.172086 0.421912
O O14 0.129332 0.365538 0.340014
#
# Coordination Sequence:
#
# PCOD8229209 Si02
#       7
#     8   4   8   8   8   8   8
#     4  10  23  39  65  96 126 169 222 267 318 390
#     4  12  22  42  66 100 126 172 214 280 338 396
#     4  11  23  39  66  93 128 165 221 271 318 389
#     4  11  23  39  68  92 128 168 218 264 329 385
#     4  11  23  41  61  92 128 172 207 265 330 388
#     4  11  22  41  67  97 125 170 218 270 320 387
#     4  10  23  38  69  91 130 166 215 258 325 393
#
# _framework density 20.065187000000002
#
# number of rings (size 3 to 8) (size 9 to 14) (size 15 to 20)
#    0.000    1.231    4.615    1.846    4.308    1.846 
#    0.000    3.077    0.000    0.000    0.000    0.000 
#    0.000    0.000    0.000    0.000    0.000    0.000 
#
# Total GULP energy -644651.470826 kJ/mol
# GULP energy per Si atom -12397.143670 kJ/mol
# Density = 2.001952 g / cm^3
# Si number density = 20.065187 Si / 1000 Ang^3
#
#
#
# Elastic Constant Matrix: (Units=GPa)
#
#
# Indices 1 2 3 4 5 6 
#
# 1 151.5420 40.5137 62.5208 0.0000 0.0000 0.0000
# 2 40.5137 77.6000 24.4149 0.0000 0.0000 0.0000
# 3 62.5208 24.4149 127.3154 0.0000 0.0000 0.0000
# 4 0.0000 0.0000 0.0000 25.6388 0.0000 0.0000
# 5 0.0000 0.0000 0.0000 0.0000 33.8176 0.0000
# 6 0.0000 0.0000 0.0000 0.0000 0.0000 27.6457
#
#
#
# Elastic Compliance Matrix: (Units=1/GPa)
#
#
# Indices 1 2 3 4 5 6 
#
# 1 0.009117 -0.003567 -0.003793 0.000000 0.000000 0.000000
# 2 -0.003567 0.015109 -0.001146 0.000000 0.000000 0.000000
# 3 -0.003793 -0.001146 0.009937 0.000000 0.000000 0.000000
# 4 0.000000 0.000000 0.000000 0.039003 0.000000 0.000000
# 5 0.000000 0.000000 0.000000 0.000000 0.029570 0.000000
# 6 0.000000 0.000000 0.000000 0.000000 0.000000 0.036172
#
#
# Mechanical properties :
#
#
# Convention : Reuss Voigt Hill
#
# Bulk Modulus (GPa) = 58.30275 67.92847 63.11561
# Shear Modulus (GPa) = 30.93325 32.68761 31.81043
#
# Velocity S-wave (km/s) = 3.93063 4.04055 3.98597
# Velocity P-wave (km/s) = 7.05121 7.46294 7.25999
#
# Compressibility (1/GPa) = 0.01715185
#
# Stress axis : x y z
#
# Youngs Moduli (GPa) = 109.68163 66.18481 100.63346
#
# Poissons Ratio (x) = 0.23605 0.38173
# Poissons Ratio (y) = 0.39118 0.11533
# Poissons Ratio (z) = 0.41605 0.07585
#
# Static dielectric constant tensor:
#      x y z
#    x 3.974370 0.000000 0.000000 
#    y 0.000000 3.588540 0.000000 
#    z 0.000000 0.000000 3.707890 
# 
# 
# High freq. dielectric constant tensor:
#      x y z
#    x 1.785100 0.000000 0.000000 
#    y 0.000000 1.766330 0.000000 
#    z 0.000000 0.000000 1.799510 
# 
# From -- ./inp_files/15038.got.cif
#   From: 2010.03.12/outbox.cif.g09.slc.cpg/sg56_8_cif.got.tgz:15038.got - 2010.04.16 15:33:40.
