data_PCOD8229166
_publ_section_title
;
Structure prediction by ZEFSAII (Michael W. Deem and Ramdas Pophale) SiO2 
 PCOD8229166
Probable space group: P C C N
;
_chemical_formula_sum "Si O2"
_cell_formula_units_Z 40
_cell_length_a 10.942090
_cell_length_b 9.798439
_cell_length_c 18.049475
_cell_angle_alpha 90.000000
_cell_angle_beta 90.000000
_cell_angle_gamma 90.000000
_cell_volume 1935.181707
_symmetry_space_group_name_H-M "P C C N"
_symmetry_group_IT_number 56
_symmetry_cell_setting 'orthorhombic'
loop_
_space_group_symop_operation_xyz
x,y,z
1/2-x,1/2-y,z
1/2+x,-y,1/2-z
-x,1/2+y,1/2-z
-x,-y,-z
1/2+x,1/2+y,-z
1/2-x,y,1/2+z
x,1/2-y,1/2+z
loop_
_atom_site_type_symbol
_atom_site_label
_atom_site_fract_x
_atom_site_fract_y
_atom_site_fract_z
Si Si1 0.025905 0.135722 0.180695
Si Si2 0.614868 0.376122 0.755012
Si Si3 0.280283 0.896169 0.382506
Si Si4 0.750000 0.250000 0.889145
Si Si5 0.250000 0.250000 0.597268
Si Si6 0.143462 0.501988 0.014381
O O1 0.156923 0.162014 0.145499
O O2 0.979274 0.271902 0.219126
O O3 0.926785 0.083463 0.119812
O O4 0.042270 0.017749 0.241215
O O5 0.732561 0.398938 0.702575
O O6 0.652573 0.326667 0.836782
O O7 0.250000 0.750000 0.418633
O O8 0.215552 0.004500 0.435922
O O9 0.817392 0.365431 0.938035
O O10 0.327158 0.357911 0.550948
O O11 0.000000 0.500000 0.000000
#
# Coordination Sequence:
#
# PCOD8229166 Si02
#       6
#     8   8   8   4   4   8
#     4  11  25  43  70  98 144 174 238 296 349 420
#     4  11  24  44  70 101 134 185 234 288 356 417
#     4  10  22  44  67  95 136 183 225 285 356 412
#     4  12  24  46  72 102 136 200 230 282 370 426
#     4  12  28  44  68 110 142 184 244 296 346 438
#     4  12  27  46  72 101 147 191 239 290 360 430
#
# _framework density 20.669892999999998
#
# number of rings (size 3 to 8) (size 9 to 14) (size 15 to 20)
#    0.000    0.800    6.000    2.400    8.400    2.400 
#    0.000    0.000    0.000    0.000    0.000    0.000 
#    0.000    0.000    0.000    0.000    0.000    0.000 
#
# Total GULP energy -495991.699760 kJ/mol
# GULP energy per Si atom -12399.792494 kJ/mol
# Density = 2.062285 g / cm^3
# Si number density = 20.669893 Si / 1000 Ang^3
#
#
#
# Elastic Constant Matrix: (Units=GPa)
#
#
# Indices 1 2 3 4 5 6 
#
# 1 144.3589 37.5367 45.2634 0.0000 0.0000 0.0000
# 2 37.5367 101.1652 37.9919 0.0000 0.0000 0.0000
# 3 45.2634 37.9919 98.6336 0.0000 0.0000 0.0000
# 4 0.0000 0.0000 0.0000 24.0823 0.0000 0.0000
# 5 0.0000 0.0000 0.0000 0.0000 14.7026 0.0000
# 6 0.0000 0.0000 0.0000 0.0000 0.0000 34.0853
#
#
#
# Elastic Compliance Matrix: (Units=1/GPa)
#
#
# Indices 1 2 3 4 5 6 
#
# 1 0.008409 -0.001954 -0.003107 0.000000 0.000000 0.000000
# 2 -0.001954 0.012010 -0.003730 0.000000 0.000000 0.000000
# 3 -0.003107 -0.003730 0.013001 0.000000 0.000000 0.000000
# 4 0.000000 0.000000 0.000000 0.041524 0.000000 0.000000
# 5 0.000000 0.000000 0.000000 0.000000 0.068015 0.000000
# 6 0.000000 0.000000 0.000000 0.000000 0.000000 0.029338
#
#
# Mechanical properties :
#
#
# Convention : Reuss Voigt Hill
#
# Bulk Modulus (GPa) = 63.12835 65.08241 64.10538
# Shear Modulus (GPa) = 25.62031 29.46508 27.54269
#
# Velocity S-wave (km/s) = 3.52447 3.77969 3.65431
# Velocity P-wave (km/s) = 6.86804 7.11358 6.99189
#
# Compressibility (1/GPa) = 0.01584074
#
# Stress axis : x y z
#
# Youngs Moduli (GPa) = 118.91744 83.26169 76.91872
#
# Poissons Ratio (x) = 0.16265 0.23895
# Poissons Ratio (y) = 0.23231 0.28688
# Poissons Ratio (z) = 0.36942 0.31054
#
# Static dielectric constant tensor:
#      x y z
#    x 3.612860 0.000000 0.000000 
#    y 0.000000 3.916120 0.000000 
#    z 0.000000 0.000000 3.742150 
# 
# 
# High freq. dielectric constant tensor:
#      x y z
#    x 1.818500 0.000000 0.000000 
#    y 0.000000 1.816110 0.000000 
#    z 0.000000 0.000000 1.806340 
# 
# From -- ./inp_files/14501.got.cif
#   From: 2010.03.12/outbox.cif.g09.slc.cpg/sg56_8_cif.got.tgz:14501.got - 2010.04.16 15:33:40.
