data_PCOD8229345
_publ_section_title
;
Structure prediction by ZEFSAII (Michael W. Deem and Ramdas Pophale) SiO2 
 PCOD8229345
Probable space group: P C C N
;
_chemical_formula_sum "Si O2"
_cell_formula_units_Z 40
_cell_length_a 8.974171
_cell_length_b 8.333101
_cell_length_c 26.778421
_cell_angle_alpha 90.000000
_cell_angle_beta 90.000000
_cell_angle_gamma 90.000000
_cell_volume 2002.561910
_symmetry_space_group_name_H-M "P C C N"
_symmetry_group_IT_number 56
_symmetry_cell_setting 'orthorhombic'
loop_
_space_group_symop_operation_xyz
x,y,z
1/2-x,1/2-y,z
1/2+x,-y,1/2-z
-x,1/2+y,1/2-z
-x,-y,-z
1/2+x,1/2+y,-z
1/2-x,y,1/2+z
x,1/2-y,1/2+z
loop_
_atom_site_type_symbol
_atom_site_label
_atom_site_fract_x
_atom_site_fract_y
_atom_site_fract_z
Si Si1 0.750000 0.250000 0.091714
Si Si2 0.261905 0.011533 0.665082
Si Si3 0.173908 0.083850 0.959444
Si Si4 0.331030 0.908221 0.556163
Si Si5 0.250000 0.750000 0.244940
Si Si6 0.505512 0.245986 0.673362
O O1 0.743282 0.418502 0.062090
O O2 0.601718 0.238655 0.123940
O O3 0.430554 0.070293 0.676736
O O4 0.134851 0.141949 0.667254
O O5 0.258621 0.935617 0.610142
O O6 0.213237 0.895833 0.709187
O O7 0.250000 0.250000 0.942526
O O8 0.007491 0.114861 0.940565
O O9 0.191908 0.060777 0.019287
O O10 0.250000 0.750000 0.533725
O O11 0.395132 0.715781 0.278425
#
# Coordination Sequence:
#
# PCOD8229345 Si02
#       6
#     4   8   8   8   4   8
#     4  11  22  45  62  96 142 169 218 273 328 396
#     4  11  22  40  65  92 124 171 220 262 334 391
#     4  11  26  42  67  99 136 177 220 269 334 390
#     4  11  24  43  63  98 131 172 224 273 319 406
#     4  11  22  41  64  92 124 165 226 275 322 400
#     4  10  24  40  64  90 132 170 209 276 336 386
#
# _framework density 19.974413999999999
#
# number of rings (size 3 to 8) (size 9 to 14) (size 15 to 20)
#    0.000    1.200    4.000    1.200    5.600    0.800 
#    0.000    0.000    0.000    0.000    0.000    0.000 
#    0.000    0.000    0.000    0.000    0.000    0.000 
#
# Total GULP energy -495697.758334 kJ/mol
# GULP energy per Si atom -12392.443958 kJ/mol
# Density = 1.992895 g / cm^3
# Si number density = 19.974414 Si / 1000 Ang^3
#
#
#
# Elastic Constant Matrix: (Units=GPa)
#
#
# Indices 1 2 3 4 5 6 
#
# 1 116.0470 45.1821 41.7144 0.0000 0.0000 0.0000
# 2 45.1821 118.6349 39.8838 0.0000 0.0000 0.0000
# 3 41.7144 39.8838 115.0064 0.0000 0.0000 0.0000
# 4 0.0000 0.0000 0.0000 25.8974 0.0000 0.0000
# 5 0.0000 0.0000 0.0000 0.0000 14.5549 0.0000
# 6 0.0000 0.0000 0.0000 0.0000 0.0000 25.4111
#
#
#
# Elastic Compliance Matrix: (Units=1/GPa)
#
#
# Indices 1 2 3 4 5 6 
#
# 1 0.010880 -0.003189 -0.002840 0.000000 0.000000 0.000000
# 2 -0.003189 0.010476 -0.002477 0.000000 0.000000 0.000000
# 3 -0.002840 -0.002477 0.010584 0.000000 0.000000 0.000000
# 4 0.000000 0.000000 0.000000 0.038614 0.000000 0.000000
# 5 0.000000 0.000000 0.000000 0.000000 0.068705 0.000000
# 6 0.000000 0.000000 0.000000 0.000000 0.000000 0.039353
#
#
# Mechanical properties :
#
#
# Convention : Reuss Voigt Hill
#
# Bulk Modulus (GPa) = 66.98369 67.02767 67.00568
# Shear Modulus (GPa) = 24.92526 28.03321 26.47923
#
# Velocity S-wave (km/s) = 3.53634 3.75034 3.64491
# Velocity P-wave (km/s) = 7.09097 7.23761 7.16466
#
# Compressibility (1/GPa) = 0.01492901
#
# Stress axis : x y z
#
# Youngs Moduli (GPa) = 91.91447 95.45446 94.47970
#
# Poissons Ratio (x) = 0.30437 0.26836
# Poissons Ratio (y) = 0.29308 0.23398
# Poissons Ratio (z) = 0.26107 0.23640
#
# Static dielectric constant tensor:
#      x y z
#    x 3.698350 0.000000 0.000000 
#    y 0.000000 3.763390 0.000000 
#    z 0.000000 0.000000 3.620490 
# 
# 
# High freq. dielectric constant tensor:
#      x y z
#    x 1.789330 0.000000 0.000000 
#    y 0.000000 1.782590 0.000000 
#    z 0.000000 0.000000 1.786100 
# 
# From -- ./inp_files/20376.got.cif
#   From: 2010.03.12/outbox.cif.g09.slc.cpg/sg56_11_cif.got.tgz:20376.got - 2010.04.16 15:33:40.
