data_PCOD8229219
_publ_section_title
;
Structure prediction by ZEFSAII (Michael W. Deem and Ramdas Pophale) SiO2 
 PCOD8229219
Probable space group: P C C N
;
_chemical_formula_sum "Si O2"
_cell_formula_units_Z 64
_cell_length_a 8.385062
_cell_length_b 16.160673
_cell_length_c 22.947499
_cell_angle_alpha 90.000000
_cell_angle_beta 90.000000
_cell_angle_gamma 90.000000
_cell_volume 3109.575318
_symmetry_space_group_name_H-M "P C C N"
_symmetry_group_IT_number 56
_symmetry_cell_setting 'orthorhombic'
loop_
_space_group_symop_operation_xyz
x,y,z
1/2-x,1/2-y,z
1/2+x,-y,1/2-z
-x,1/2+y,1/2-z
-x,-y,-z
1/2+x,1/2+y,-z
1/2-x,y,1/2+z
x,1/2-y,1/2+z
loop_
_atom_site_type_symbol
_atom_site_label
_atom_site_fract_x
_atom_site_fract_y
_atom_site_fract_z
Si Si1 0.709831 0.987255 0.549817
Si Si2 0.408556 0.917607 0.859052
Si Si3 0.836176 0.334456 0.721898
Si Si4 0.129844 0.562860 0.565222
Si Si5 0.063778 0.241969 0.128832
Si Si6 0.401624 0.919150 0.157631
Si Si7 0.129303 0.178671 0.423982
Si Si8 0.073998 0.777439 0.990965
O O1 0.530543 0.990572 0.576565
O O2 0.763016 0.893688 0.551849
O O3 0.817980 0.051542 0.583972
O O4 0.730483 0.013003 0.482577
O O5 0.282465 0.897929 0.809095
O O6 0.499825 0.834870 0.875973
O O7 0.528963 0.988535 0.837457
O O8 0.750000 0.250000 0.740924
O O9 0.888457 0.384202 0.778123
O O10 0.986126 0.311047 0.680998
O O11 0.232061 0.576512 0.623841
O O12 0.078093 0.649658 0.537651
O O13 0.250000 0.250000 0.140367
O O14 0.020881 0.196721 0.067744
O O15 0.520342 0.853837 0.128134
O O16 0.250000 0.250000 0.401642
O O17 0.017865 0.203381 0.477678
O O18 0.250000 0.750000 0.971767
#
# Coordination Sequence:
#
# PCOD8229219 Si02
#       8
#     8   8   8   8   8   8   8   8
#     4  10  23  40  61  92 139 166 216 269 327 391
#     4  10  24  45  64  95 127 174 217 278 324 390
#     4  10  24  47  67  92 128 172 230 275 328 389
#     4  11  23  38  61  98 128 181 214 267 333 399
#     4  11  25  43  72  98 127 174 225 278 328 396
#     4  11  26  41  69  98 134 180 220 278 340 400
#     4  11  23  39  61  98 137 175 216 266 333 402
#     4  12  22  39  66  95 134 170 216 270 329 398
#
# _framework density 20.581589999999998
#
# number of rings (size 3 to 8) (size 9 to 14) (size 15 to 20)
#    0.000    1.250    2.500    3.000    3.500    5.500 
#    0.000    5.000    0.000    0.000    0.000    0.000 
#    0.000    0.000    0.000    0.000    0.000    0.000 
#
# Total GULP energy -793654.803425 kJ/mol
# GULP energy per Si atom -12400.856304 kJ/mol
# Density = 2.053475 g / cm^3
# Si number density = 20.581590 Si / 1000 Ang^3
#
#
#
# Elastic Constant Matrix: (Units=GPa)
#
#
# Indices 1 2 3 4 5 6 
#
# 1 114.2419 46.7547 53.1395 0.0000 0.0000 0.0000
# 2 46.7547 103.8868 59.2709 0.0000 0.0000 0.0000
# 3 53.1395 59.2709 107.6666 0.0000 0.0000 0.0000
# 4 0.0000 0.0000 0.0000 34.7031 0.0000 0.0000
# 5 0.0000 0.0000 0.0000 0.0000 23.3568 0.0000
# 6 0.0000 0.0000 0.0000 0.0000 0.0000 10.8665
#
#
#
# Elastic Compliance Matrix: (Units=1/GPa)
#
#
# Indices 1 2 3 4 5 6 
#
# 1 0.011945 -0.002934 -0.004281 0.000000 0.000000 0.000000
# 2 -0.002934 0.014754 -0.006674 0.000000 0.000000 0.000000
# 3 -0.004281 -0.006674 0.015075 0.000000 0.000000 0.000000
# 4 0.000000 0.000000 0.000000 0.028816 0.000000 0.000000
# 5 0.000000 0.000000 0.000000 0.000000 0.042814 0.000000
# 6 0.000000 0.000000 0.000000 0.000000 0.000000 0.092026
#
#
# Mechanical properties :
#
#
# Convention : Reuss Voigt Hill
#
# Bulk Modulus (GPa) = 71.44399 71.56951 71.50675
# Shear Modulus (GPa) = 21.01967 24.89397 22.95682
#
# Velocity S-wave (km/s) = 3.19922 3.48160 3.34339
# Velocity P-wave (km/s) = 6.95950 7.14220 7.05144
#
# Compressibility (1/GPa) = 0.01399698
#
# Stress axis : x y z
#
# Youngs Moduli (GPa) = 83.71625 67.77791 66.33595
#
# Poissons Ratio (x) = 0.19884 0.28395
# Poissons Ratio (y) = 0.24560 0.44274
# Poissons Ratio (z) = 0.35835 0.45236
#
# Static dielectric constant tensor:
#      x y z
#    x 4.229460 0.000000 0.000000 
#    y 0.000000 9.749150 0.000000 
#    z 0.000000 0.000000 3.543570 
# 
# 
# High freq. dielectric constant tensor:
#      x y z
#    x 1.818490 0.000000 0.000000 
#    y 0.000000 1.822650 0.000000 
#    z 0.000000 0.000000 1.790720 
# 
# From -- ./inp_files/20681.got.cif
#   From: 2010.03.12/outbox.cif.g09.slc.cpg/sg56_11_cif.got.tgz:20681.got - 2010.04.16 15:33:40.
