data_PCOD8229506
_publ_section_title
;
Structure prediction by ZEFSAII (Michael W. Deem and Ramdas Pophale) SiO2 
 PCOD8229506
Probable space group: P C C N
;
_chemical_formula_sum "Si O2"
_cell_formula_units_Z 32
_cell_length_a 6.429622
_cell_length_b 11.665977
_cell_length_c 18.228651
_cell_angle_alpha 90.000000
_cell_angle_beta 90.000000
_cell_angle_gamma 90.000000
_cell_volume 1367.291416
_symmetry_space_group_name_H-M "P C C N"
_symmetry_group_IT_number 56
_symmetry_cell_setting 'orthorhombic'
loop_
_space_group_symop_operation_xyz
x,y,z
1/2-x,1/2-y,z
1/2+x,-y,1/2-z
-x,1/2+y,1/2-z
-x,-y,-z
1/2+x,1/2+y,-z
1/2-x,y,1/2+z
x,1/2-y,1/2+z
loop_
_atom_site_type_symbol
_atom_site_label
_atom_site_fract_x
_atom_site_fract_y
_atom_site_fract_z
Si Si1 0.339622 0.468899 0.361405
Si Si2 0.250000 0.250000 0.672674
Si Si3 0.385275 0.863519 0.248193
Si Si4 0.750000 0.750000 0.567859
Si Si5 0.555531 0.169820 0.054193
O O1 0.226842 0.549800 0.302907
O O2 0.562331 0.425111 0.329281
O O3 0.193031 0.359304 0.381431
O O4 0.372009 0.537079 0.439121
O O5 0.385192 0.165139 0.721963
O O6 0.399293 0.325005 0.622217
O O7 0.250000 0.750000 0.234618
O O8 0.550233 0.709741 0.521054
O O9 0.750000 0.250000 0.071022
#
# Coordination Sequence:
#
# PCOD8229506 Si02
#       5
#     8   4   8   4   8
#     4  12  25  48  71 109 146 193 243 307 370 433
#     4  11  19  46  72 104 141 183 248 296 372 443
#     4  12  26  46  77 108 149 192 243 313 374 442
#     4  11  29  44  72 106 147 193 254 292 364 447
#     4  11  23  49  72 101 141 194 245 302 366 436
#
# _framework density 23.403932999999999
#
# number of rings (size 3 to 8) (size 9 to 14) (size 15 to 20)
#    0.000    0.500    5.000    3.000    3.500    2.000 
#    4.500    0.000    0.000    0.000    0.000    0.000 
#    0.000    0.000    0.000    0.000    0.000    0.000 
#
# Total GULP energy -396685.002549 kJ/mol
# GULP energy per Si atom -12396.406330 kJ/mol
# Density = 2.335066 g / cm^3
# Si number density = 23.403933 Si / 1000 Ang^3
#
#
#
# Elastic Constant Matrix: (Units=GPa)
#
#
# Indices 1 2 3 4 5 6 
#
# 1 113.5760 66.6525 34.9463 0.0000 0.0000 0.0000
# 2 66.6525 212.3453 70.5939 0.0000 0.0000 0.0000
# 3 34.9463 70.5939 91.4720 0.0000 0.0000 0.0000
# 4 0.0000 0.0000 0.0000 11.4524 0.0000 0.0000
# 5 0.0000 0.0000 0.0000 0.0000 13.2243 0.0000
# 6 0.0000 0.0000 0.0000 0.0000 0.0000 40.6072
#
#
#
# Elastic Compliance Matrix: (Units=1/GPa)
#
#
# Indices 1 2 3 4 5 6 
#
# 1 0.011080 -0.002785 -0.002084 0.000000 0.000000 0.000000
# 2 -0.002785 0.007035 -0.004365 0.000000 0.000000 0.000000
# 3 -0.002084 -0.004365 0.015097 0.000000 0.000000 0.000000
# 4 0.000000 0.000000 0.000000 0.087318 0.000000 0.000000
# 5 0.000000 0.000000 0.000000 0.000000 0.075619 0.000000
# 6 0.000000 0.000000 0.000000 0.000000 0.000000 0.024626
#
#
# Mechanical properties :
#
#
# Convention : Reuss Voigt Hill
#
# Bulk Modulus (GPa) = 67.82265 84.64206 76.23236
# Shear Modulus (GPa) = 20.47862 29.40349 24.94106
#
# Velocity S-wave (km/s) = 2.96126 3.54835 3.26801
# Velocity P-wave (km/s) = 6.38233 7.28230 6.84712
#
# Compressibility (1/GPa) = 0.01474434
#
# Stress axis : x y z
#
# Youngs Moduli (GPa) = 90.24999 142.15241 66.23822
#
# Poissons Ratio (x) = 0.39593 0.13801
# Poissons Ratio (y) = 0.25137 0.28913
# Poissons Ratio (z) = 0.18805 0.62049
#
# Static dielectric constant tensor:
#      x y z
#    x 4.360880 0.000000 0.000000 
#    y 0.000000 4.537630 0.000000 
#    z 0.000000 0.000000 4.246370 
# 
# 
# High freq. dielectric constant tensor:
#      x y z
#    x 1.913400 0.000000 0.000000 
#    y 0.000000 1.951130 0.000000 
#    z 0.000000 0.000000 1.926750 
# 
# From -- ./inp_files/17279.got.cif
#   From: 2010.03.12/outbox.cif.g09.slc.cpg/sg56_9_cif.got.tgz:17279.got - 2010.04.16 15:33:40.
