data_PCOD8229456
_publ_section_title
;
Structure prediction by ZEFSAII (Michael W. Deem and Ramdas Pophale) SiO2 
 PCOD8229456
Probable space group: P C C N
;
_chemical_formula_sum "Si O2"
_cell_formula_units_Z 48
_cell_length_a 11.711955
_cell_length_b 16.117553
_cell_length_c 11.492180
_cell_angle_alpha 90.000000
_cell_angle_beta 90.000000
_cell_angle_gamma 90.000000
_cell_volume 2169.356471
_symmetry_space_group_name_H-M "P C C N"
_symmetry_group_IT_number 56
_symmetry_cell_setting 'orthorhombic'
loop_
_space_group_symop_operation_xyz
x,y,z
1/2-x,1/2-y,z
1/2+x,-y,1/2-z
-x,1/2+y,1/2-z
-x,-y,-z
1/2+x,1/2+y,-z
1/2-x,y,1/2+z
x,1/2-y,1/2+z
loop_
_atom_site_type_symbol
_atom_site_label
_atom_site_fract_x
_atom_site_fract_y
_atom_site_fract_z
Si Si1 0.980787 0.613492 0.703795
Si Si2 0.900996 0.664682 0.463321
Si Si3 0.422387 0.570174 0.812940
Si Si4 0.340137 0.153907 0.075991
Si Si5 0.534405 0.410441 0.452804
Si Si6 0.304745 0.657024 0.353376
O O1 0.943278 0.671891 0.596673
O O2 0.974508 0.519457 0.654257
O O3 0.890095 0.612165 0.808071
O O4 0.106145 0.642589 0.746537
O O5 0.851157 0.748175 0.408117
O O6 0.783434 0.611750 0.450930
O O7 0.002305 0.636191 0.381568
O O8 0.423941 0.587987 0.677249
O O9 0.291903 0.585897 0.849821
O O10 0.415921 0.138397 0.961125
O O11 0.500000 0.500000 0.500000
O O12 0.628955 0.360145 0.526876
O O13 0.250000 0.750000 0.348801
#
# Coordination Sequence:
#
# PCOD8229456 Si02
#       6
#     8   8   8   8   8   8
#     4  11  26  46  69 106 147 179 247 291 364 431
#     4  11  27  43  73 104 139 185 236 297 358 433
#     4  12  26  42  76 104 144 187 238 301 361 433
#     4  10  25  45  70 100 138 187 229 290 355 432
#     4  11  24  46  70 103 146 189 241 294 365 432
#     4  11  27  48  71 107 146 198 242 299 362 437
#
# _framework density 22.126377000000002
#
# number of rings (size 3 to 8) (size 9 to 14) (size 15 to 20)
#    0.000    1.000    3.333    2.500   14.000    2.000 
#    0.000    0.000    0.000    0.000    0.000    0.000 
#    0.000    0.000    0.000    0.000    0.000    0.000 
#
# Total GULP energy -594806.484005 kJ/mol
# GULP energy per Si atom -12391.801750 kJ/mol
# Density = 2.207602 g / cm^3
# Si number density = 22.126377 Si / 1000 Ang^3
#
#
#
# Elastic Constant Matrix: (Units=GPa)
#
#
# Indices 1 2 3 4 5 6 
#
# 1 171.4688 24.1749 44.0675 0.0000 0.0000 0.0000
# 2 24.1749 70.8472 13.5486 0.0000 0.0000 0.0000
# 3 44.0675 13.5486 80.6022 0.0000 0.0000 0.0000
# 4 0.0000 0.0000 0.0000 24.5831 0.0000 0.0000
# 5 0.0000 0.0000 0.0000 0.0000 19.4071 0.0000
# 6 0.0000 0.0000 0.0000 0.0000 0.0000 37.8679
#
#
#
# Elastic Compliance Matrix: (Units=1/GPa)
#
#
# Indices 1 2 3 4 5 6 
#
# 1 0.006980 -0.001707 -0.003529 0.000000 0.000000 0.000000
# 2 -0.001707 0.015001 -0.001588 0.000000 0.000000 0.000000
# 3 -0.003529 -0.001588 0.014603 0.000000 0.000000 0.000000
# 4 0.000000 0.000000 0.000000 0.040678 0.000000 0.000000
# 5 0.000000 0.000000 0.000000 0.000000 0.051528 0.000000
# 6 0.000000 0.000000 0.000000 0.000000 0.000000 0.026408
#
#
# Mechanical properties :
#
#
# Convention : Reuss Voigt Hill
#
# Bulk Modulus (GPa) = 43.60106 54.05557 48.82832
# Shear Modulus (GPa) = 28.33013 32.44677 30.38845
#
# Velocity S-wave (km/s) = 3.58212 3.83355 3.70997
# Velocity P-wave (km/s) = 6.07100 6.63915 6.36142
#
# Compressibility (1/GPa) = 0.02293522
#
# Stress axis : x y z
#
# Youngs Moduli (GPa) = 143.27566 66.66209 68.47893
#
# Poissons Ratio (x) = 0.11377 0.24166
# Poissons Ratio (y) = 0.24453 0.10878
# Poissons Ratio (z) = 0.50562 0.10589
#
# Static dielectric constant tensor:
#      x y z
#    x 2.907900 0.000000 0.000000 
#    y 0.000000 3.879390 0.000000 
#    z 0.000000 0.000000 3.573020 
# 
# 
# High freq. dielectric constant tensor:
#      x y z
#    x 1.891590 0.000000 0.000000 
#    y 0.000000 1.873270 0.000000 
#    z 0.000000 0.000000 1.868070 
# 
# From -- ./inp_files/7169.got.cif
#   From: 2010.03.12/outbox.cif.g09.slc.cpg/sg56_4_cif.got.tgz:7169.got - 2010.04.16 15:33:40.
