data_PCOD8229512
_publ_section_title
;
Structure prediction by ZEFSAII (Michael W. Deem and Ramdas Pophale) SiO2 
 PCOD8229512
Probable space group: P C C N
;
_chemical_formula_sum "Si O2"
_cell_formula_units_Z 64
_cell_length_a 19.619787
_cell_length_b 18.556620
_cell_length_c 9.843203
_cell_angle_alpha 90.000000
_cell_angle_beta 90.000000
_cell_angle_gamma 90.000000
_cell_volume 3583.683148
_symmetry_space_group_name_H-M "P C C N"
_symmetry_group_IT_number 56
_symmetry_cell_setting 'orthorhombic'
loop_
_space_group_symop_operation_xyz
x,y,z
1/2-x,1/2-y,z
1/2+x,-y,1/2-z
-x,1/2+y,1/2-z
-x,-y,-z
1/2+x,1/2+y,-z
1/2-x,y,1/2+z
x,1/2-y,1/2+z
loop_
_atom_site_type_symbol
_atom_site_label
_atom_site_fract_x
_atom_site_fract_y
_atom_site_fract_z
Si Si1 0.498459 0.751358 0.770918
Si Si2 0.335962 0.095095 0.488832
Si Si3 0.035337 0.895565 0.666483
Si Si4 0.392742 0.463165 0.251724
Si Si5 0.822236 0.609534 0.017919
Si Si6 0.104178 0.034961 0.719431
Si Si7 0.093264 0.245482 0.978946
Si Si8 0.460645 0.600416 0.341116
O O1 0.451415 0.683290 0.730425
O O2 0.563749 0.755574 0.672682
O O3 0.449278 0.821619 0.770814
O O4 0.528661 0.749495 0.922145
O O5 0.370912 0.040235 0.594820
O O6 0.256917 0.108414 0.515589
O O7 0.349058 0.060999 0.342290
O O8 0.367723 0.172839 0.508205
O O9 0.034201 0.894847 0.503547
O O10 0.962125 0.920819 0.719120
O O11 0.094181 0.948360 0.721973
O O12 0.332916 0.422190 0.331982
O O13 0.400015 0.546860 0.296060
O O14 0.853971 0.689022 0.001131
O O15 0.859297 0.554148 0.919364
O O16 0.030612 0.071766 0.723389
#
# Coordination Sequence:
#
# PCOD8229512 Si02
#       8
#     8   8   8   8   8   8   8   8
#     4  12  20  34  59  84 113 150 184 230 294 346
#     4  12  25  34  53  88 118 148 196 243 269 320
#     4  11  20  37  61  79 113 151 187 233 295 348
#     4  11  21  37  57  81 108 154 195 235 277 335
#     4  12  21  40  57  74 118 168 194 209 283 352
#     4  11  21  37  57  81 108 154 195 235 277 335
#     4  12  21  36  50  84 120 154 191 222 270 348
#     4  11  20  37  61  79 113 151 187 233 295 348
#
# _framework density 17.858722
#
# number of rings (size 3 to 8) (size 9 to 14) (size 15 to 20)
#    0.000    0.500    8.750    1.875    0.000    3.000 
#    0.000    3.750    0.000    0.000    0.000    5.250 
#    0.000    0.000    0.000    0.000    0.000    0.000 
#
# Total GULP energy -793624.530901 kJ/mol
# GULP energy per Si atom -12400.383295 kJ/mol
# Density = 1.781807 g / cm^3
# Si number density = 17.858722 Si / 1000 Ang^3
#
#
#
# Elastic Constant Matrix: (Units=GPa)
#
#
# Indices 1 2 3 4 5 6 
#
# 1 38.8564 32.5424 13.6581 0.0000 0.0000 0.0000
# 2 32.5424 137.5006 24.5248 0.0000 0.0000 0.0000
# 3 13.6581 24.5248 54.1044 0.0000 0.0000 0.0000
# 4 0.0000 0.0000 0.0000 34.4437 0.0000 0.0000
# 5 0.0000 0.0000 0.0000 0.0000 13.4661 0.0000
# 6 0.0000 0.0000 0.0000 0.0000 0.0000 2.6744
#
#
#
# Elastic Compliance Matrix: (Units=1/GPa)
#
#
# Indices 1 2 3 4 5 6 
#
# 1 0.033429 -0.006970 -0.005279 0.000000 0.000000 0.000000
# 2 -0.006970 0.009366 -0.002486 0.000000 0.000000 0.000000
# 3 -0.005279 -0.002486 0.020942 0.000000 0.000000 0.000000
# 4 0.000000 0.000000 0.000000 0.029033 0.000000 0.000000
# 5 0.000000 0.000000 0.000000 0.000000 0.074261 0.000000
# 6 0.000000 0.000000 0.000000 0.000000 0.000000 0.373913
#
#
# Mechanical properties :
#
#
# Convention : Reuss Voigt Hill
#
# Bulk Modulus (GPa) = 29.18303 41.32354 35.25328
# Shear Modulus (GPa) = 8.59348 20.76591 14.67969
#
# Velocity S-wave (km/s) = 2.19599 3.41367 2.87015
# Velocity P-wave (km/s) = 4.77560 6.22309 5.54677
#
# Compressibility (1/GPa) = 0.03426649
#
# Stress axis : x y z
#
# Youngs Moduli (GPa) = 29.91421 106.77288 47.75029
#
# Poissons Ratio (x) = 0.74421 0.25209
# Poissons Ratio (y) = 0.20850 0.11870
# Poissons Ratio (z) = 0.15793 0.26542
#
# Static dielectric constant tensor:
#      x y z
#    x 3.087660 0.000000 0.000000 
#    y 0.000000 3.760290 0.000000 
#    z 0.000000 0.000000 3.395110 
# 
# 
# High freq. dielectric constant tensor:
#      x y z
#    x 1.648830 0.000000 0.000000 
#    y 0.000000 1.701360 0.000000 
#    z 0.000000 0.000000 1.704380 
# 
# From -- ./inp_files/4220.got.cif
#   From: 2010.03.12/outbox.cif.g09.slc.cpg/sg56_3_cif.got.tgz:4220.got - 2010.04.16 15:33:40.
