data_PCOD8229918
_publ_section_title
;
Structure prediction by ZEFSAII (Michael W. Deem and Ramdas Pophale) SiO2 
 PCOD8229918
Probable space group: P B C M
;
_chemical_formula_sum "Si O2"
_cell_formula_units_Z 56
_cell_length_a 21.178513
_cell_length_b 5.322294
_cell_length_c 26.737765
_cell_angle_alpha 90.000000
_cell_angle_beta 90.000000
_cell_angle_gamma 90.000000
_cell_volume 3013.834686
_symmetry_space_group_name_H-M "P B C M"
_symmetry_group_IT_number 57
_symmetry_cell_setting 'orthorhombic'
loop_
_space_group_symop_operation_xyz
x,y,z
-x,-y,1/2+z
x,1/2-y,-z
-x,1/2+y,1/2-z
-x,-y,-z
x,y,1/2-z
-x,1/2+y,z
x,1/2-y,1/2+z
loop_
_atom_site_type_symbol
_atom_site_label
_atom_site_fract_x
_atom_site_fract_y
_atom_site_fract_z
Si Si1 0.347293 0.750097 0.192648
Si Si2 0.022072 0.250017 0.599139
Si Si3 0.932310 0.249980 0.195283
Si Si4 0.731242 0.749902 0.807727
Si Si5 0.868589 0.749981 0.164213
Si Si6 0.564497 0.749966 0.057949
Si Si7 0.573876 0.250033 0.599130
O O1 0.370378 0.750050 0.250000
O O2 0.307870 0.500513 0.180113
O O3 0.409267 0.750004 0.157784
O O4 0.307924 0.999816 0.180114
O O5 0.987196 0.250020 0.653700
O O6 0.000000 0.500018 0.569233
O O7 0.097110 0.250015 0.609286
O O8 0.965082 0.249994 0.250000
O O9 0.888180 0.495142 0.192210
O O10 0.888185 0.004804 0.192214
O O11 0.752890 0.749940 0.750000
O O12 0.793275 0.750003 0.842519
O O13 0.501294 0.749936 0.091579
O O14 0.603345 0.498650 0.072349
O O15 0.603348 0.001259 0.072360
O O16 0.545609 0.750000 0.000000
#
# Coordination Sequence:
#
# PCOD8229918 Si02
#       7
#     8   8   8   8   8   8   8
#     4  10  21  34  45  61  88 123 163 196 218 246
#     4   8  16  24  31  45  64  83 108 155 226 293
#     4  10  17  23  32  47  65  83 110 160 231 296
#     4  10  19  30  42  54  73 108 155 201 230 249
#     4  10  18  26  36  48  63  89 128 174 228 276
#     4  10  19  33  55  83 103 115 137 171 222 279
#     4  10  18  32  51  72  99 127 145 175 224 261
#
# _framework density 18.580978999999999
#
# number of rings (size 3 to 8) (size 9 to 14) (size 15 to 20)
#    0.000    2.286    0.000    5.143    0.000    6.857 
#    0.000    2.857    0.000    0.000    0.000    0.000 
#    0.000    0.000    0.000    0.000    0.000    0.000 
#
# Total GULP energy -693825.344223 kJ/mol
# GULP energy per Si atom -12389.738290 kJ/mol
# Density = 1.853869 g / cm^3
# Si number density = 18.580979 Si / 1000 Ang^3
#
#
#
# Elastic Constant Matrix: (Units=GPa)
#
#
# Indices 1 2 3 4 5 6 
#
# 1 68.0025 29.3086 44.6801 0.0000 0.0000 0.0000
# 2 29.3086 204.6560 31.8065 0.0000 0.0000 0.0000
# 3 44.6801 31.8065 59.4184 0.0000 0.0000 0.0000
# 4 0.0000 0.0000 0.0000 12.9780 0.0000 0.0000
# 5 0.0000 0.0000 0.0000 0.0000 0.4593 0.0000
# 6 0.0000 0.0000 0.0000 0.0000 0.0000 15.2023
#
#
#
# Elastic Compliance Matrix: (Units=1/GPa)
#
#
# Indices 1 2 3 4 5 6 
#
# 1 0.029197 -0.000839 -0.021506 0.000000 0.000000 0.000000
# 2 -0.000839 0.005354 -0.002235 0.000000 0.000000 0.000000
# 3 -0.021506 -0.002235 0.034198 0.000000 0.000000 0.000000
# 4 0.000000 0.000000 0.000000 0.077053 0.000000 0.000000
# 5 0.000000 0.000000 0.000000 0.000000 2.177385 0.000000
# 6 0.000000 0.000000 0.000000 0.000000 0.000000 0.065780
#
#
# Mechanical properties :
#
#
# Convention : Reuss Voigt Hill
#
# Bulk Modulus (GPa) = 51.04934 60.40745 55.72839
# Shear Modulus (GPa) = 2.04528 20.81336 11.42932
#
# Velocity S-wave (km/s) = 1.05030 3.35049 2.48283
# Velocity P-wave (km/s) = 5.38558 6.89555 6.18680
#
# Compressibility (1/GPa) = 0.01958889
#
# Stress axis : x y z
#
# Youngs Moduli (GPa) = 34.25002 186.78522 29.24176
#
# Poissons Ratio (x) = 0.15671 0.62887
# Poissons Ratio (y) = 0.02873 0.06535
# Poissons Ratio (z) = 0.73658 0.41746
#
# Static dielectric constant tensor:
#      x y z
#    x 3.021820 0.000000 0.000000 
#    y 0.000000 5.319630 0.000000 
#    z 0.000000 0.000000 2.856680 
# 
# 
# High freq. dielectric constant tensor:
#      x y z
#    x 1.678310 0.000000 0.000000 
#    y 0.000000 1.773840 0.000000 
#    z 0.000000 0.000000 1.658730 
# 
# From -- ./inp_files/27644.got.cif
#   From: 2010.03.12/outbox.cif.g09.slc.cpg/sg57_14_cif.got.tgz:27644.got - 2010.04.16 15:48:40.
