data_PCOD8229188
_publ_section_title
;
Structure prediction by ZEFSAII (Michael W. Deem and Ramdas Pophale) SiO2 
 PCOD8229188
Probable space group: P C C N
;
_chemical_formula_sum "Si O2"
_cell_formula_units_Z 32
_cell_length_a 9.305397
_cell_length_b 11.612445
_cell_length_c 13.913834
_cell_angle_alpha 90.000000
_cell_angle_beta 90.000000
_cell_angle_gamma 90.000000
_cell_volume 1503.506791
_symmetry_space_group_name_H-M "P C C N"
_symmetry_group_IT_number 56
_symmetry_cell_setting 'orthorhombic'
loop_
_space_group_symop_operation_xyz
x,y,z
1/2-x,1/2-y,z
1/2+x,-y,1/2-z
-x,1/2+y,1/2-z
-x,-y,-z
1/2+x,1/2+y,-z
1/2-x,y,1/2+z
x,1/2-y,1/2+z
loop_
_atom_site_type_symbol
_atom_site_label
_atom_site_fract_x
_atom_site_fract_y
_atom_site_fract_z
Si Si1 0.750000 0.250000 0.474421
Si Si2 0.404598 0.085088 0.731807
Si Si3 0.250000 0.250000 0.879908
Si Si4 0.784691 0.373538 0.790152
Si Si5 0.032804 0.368246 0.525319
O O1 0.701112 0.356502 0.405604
O O2 0.614958 0.205485 0.536683
O O3 0.332704 0.160945 0.813205
O O4 0.572809 0.069465 0.749509
O O5 0.382484 0.140510 0.626269
O O6 0.346073 0.956202 0.735632
O O7 0.367503 0.315637 0.942944
O O8 0.750000 0.250000 0.740759
O O9 0.000000 0.500000 0.500000
#
# Coordination Sequence:
#
# PCOD8229188 Si02
#       5
#     4   8   4   8   8
#     4  10  22  46  66 102 144 178 234 298 346 434
#     4  12  25  44  76 101 144 195 232 303 365 419
#     4  12  26  48  68 108 146 182 252 296 356 442
#     4  10  23  45  67 106 142 182 239 291 361 428
#     4  12  24  48  72 103 144 189 240 298 358 429
#
# _framework density 21.283574999999999
#
# number of rings (size 3 to 8) (size 9 to 14) (size 15 to 20)
#    0.750    0.000    5.000    2.250    5.250    0.000 
#    0.000    2.500    0.000    0.000    0.000    0.000 
#    0.000    0.000    0.000    0.000    0.000    0.000 
#
# Total GULP energy -396762.079261 kJ/mol
# GULP energy per Si atom -12398.814977 kJ/mol
# Density = 2.123513 g / cm^3
# Si number density = 21.283575 Si / 1000 Ang^3
#
#
#
# Elastic Constant Matrix: (Units=GPa)
#
#
# Indices 1 2 3 4 5 6 
#
# 1 151.6218 91.3787 51.4616 0.0000 0.0000 0.0000
# 2 91.3787 157.5178 60.1362 0.0000 0.0000 0.0000
# 3 51.4616 60.1362 122.2864 0.0000 0.0000 0.0000
# 4 0.0000 0.0000 0.0000 25.2139 0.0000 0.0000
# 5 0.0000 0.0000 0.0000 0.0000 11.3322 0.0000
# 6 0.0000 0.0000 0.0000 0.0000 0.0000 49.6915
#
#
#
# Elastic Compliance Matrix: (Units=1/GPa)
#
#
# Indices 1 2 3 4 5 6 
#
# 1 0.010433 -0.005388 -0.001741 0.000000 0.000000 0.000000
# 2 -0.005388 0.010598 -0.002944 0.000000 0.000000 0.000000
# 3 -0.001741 -0.002944 0.010358 0.000000 0.000000 0.000000
# 4 0.000000 0.000000 0.000000 0.039661 0.000000 0.000000
# 5 0.000000 0.000000 0.000000 0.000000 0.088244 0.000000
# 6 0.000000 0.000000 0.000000 0.000000 0.000000 0.020124
#
#
# Mechanical properties :
#
#
# Convention : Reuss Voigt Hill
#
# Bulk Modulus (GPa) = 88.94462 93.04211 90.99336
# Shear Modulus (GPa) = 24.59257 32.47748 28.53503
#
# Velocity S-wave (km/s) = 3.40291 3.91057 3.66554
# Velocity P-wave (km/s) = 7.57105 8.01252 7.79491
#
# Compressibility (1/GPa) = 0.01124295
#
# Stress axis : x y z
#
# Youngs Moduli (GPa) = 95.84543 94.35541 96.54175
#
# Poissons Ratio (x) = 0.50838 0.16809
# Poissons Ratio (y) = 0.51641 0.28426
# Poissons Ratio (z) = 0.16688 0.27783
#
# Static dielectric constant tensor:
#      x y z
#    x 4.103430 0.000000 0.000000 
#    y 0.000000 3.931830 0.000000 
#    z 0.000000 0.000000 4.014950 
# 
# 
# High freq. dielectric constant tensor:
#      x y z
#    x 1.842180 0.000000 0.000000 
#    y 0.000000 1.834410 0.000000 
#    z 0.000000 0.000000 1.839220 
# 
# From -- ./inp_files/10114.got.cif
#   From: 2010.03.12/outbox.cif.g09.slc.cpg/sg56_6_cif.got.tgz:10114.got - 2010.04.16 15:33:40.
