data_PCOD8229841
_publ_section_title
;
Structure prediction by ZEFSAII (Michael W. Deem and Ramdas Pophale) SiO2 
 PCOD8229841
Probable space group: P C C N
;
_chemical_formula_sum "Si O2"
_cell_formula_units_Z 24
_cell_length_a 4.692952
_cell_length_b 11.192167
_cell_length_c 18.848147
_cell_angle_alpha 90.000000
_cell_angle_beta 90.000000
_cell_angle_gamma 90.000000
_cell_volume 989.985775
_symmetry_space_group_name_H-M "P C C N"
_symmetry_group_IT_number 56
_symmetry_cell_setting 'orthorhombic'
loop_
_space_group_symop_operation_xyz
x,y,z
1/2-x,1/2-y,z
1/2+x,-y,1/2-z
-x,1/2+y,1/2-z
-x,-y,-z
1/2+x,1/2+y,-z
1/2-x,y,1/2+z
x,1/2-y,1/2+z
loop_
_atom_site_type_symbol
_atom_site_label
_atom_site_fract_x
_atom_site_fract_y
_atom_site_fract_z
Si Si1 0.750000 0.250000 0.245776
Si Si2 0.750000 0.750000 0.851508
Si Si3 0.097107 0.129468 0.864908
Si Si4 0.906871 0.507218 0.919800
O O1 0.504150 0.306601 0.196485
O O2 0.578666 0.150914 0.291941
O O3 0.849046 0.643891 0.901645
O O4 0.250000 0.250000 0.892760
O O5 0.357072 0.035150 0.861616
O O6 0.868246 0.078602 0.919737
O O7 0.000000 0.500000 0.000000
#
# Coordination Sequence:
#
# PCOD8229841 Si02
#       4
#     4   4   8   8
#     4  12  24  50  76 114 154 196 260 320 382 468
#     4  12  28  48  74 122 150 202 262 320 386 448
#     4  12  24  51  77 111 147 209 249 313 396 446
#     4  12  28  49  80 111 157 205 253 322 378 469
#
# _framework density 24.242774000000001
#
# number of rings (size 3 to 8) (size 9 to 14) (size 15 to 20)
#    0.000    0.000    5.000    3.000    2.333    5.333 
#   12.000    0.000    0.000    0.000    0.000    0.000 
#    0.000    0.000    0.000    0.000    0.000    0.000 
#
# Total GULP energy -297402.446922 kJ/mol
# GULP energy per Si atom -12391.768622 kJ/mol
# Density = 2.418760 g / cm^3
# Si number density = 24.242774 Si / 1000 Ang^3
#
#
#
# Elastic Constant Matrix: (Units=GPa)
#
#
# Indices 1 2 3 4 5 6 
#
# 1 198.9272 98.2824 62.4216 0.0000 0.0000 0.0000
# 2 98.2824 171.5357 98.9397 0.0000 0.0000 0.0000
# 3 62.4216 98.9397 104.3822 0.0000 0.0000 0.0000
# 4 0.0000 0.0000 0.0000 19.2563 0.0000 0.0000
# 5 0.0000 0.0000 0.0000 0.0000 35.2590 0.0000
# 6 0.0000 0.0000 0.0000 0.0000 0.0000 64.6782
#
#
#
# Elastic Compliance Matrix: (Units=1/GPa)
#
#
# Indices 1 2 3 4 5 6 
#
# 1 0.007046 -0.003545 -0.000854 0.000000 0.000000 0.000000
# 2 -0.003545 0.014644 -0.011761 0.000000 0.000000 0.000000
# 3 -0.000854 -0.011761 0.021238 0.000000 0.000000 0.000000
# 4 0.000000 0.000000 0.000000 0.051931 0.000000 0.000000
# 5 0.000000 0.000000 0.000000 0.000000 0.028362 0.000000
# 6 0.000000 0.000000 0.000000 0.000000 0.000000 0.015461
#
#
# Mechanical properties :
#
#
# Convention : Reuss Voigt Hill
#
# Bulk Modulus (GPa) = 94.25046 110.45917 102.35481
# Shear Modulus (GPa) = 28.64709 38.18547 33.41628
#
# Velocity S-wave (km/s) = 3.44128 3.97309 3.71671
# Velocity P-wave (km/s) = 7.39946 8.16762 7.79301
#
# Compressibility (1/GPa) = 0.01061003
#
# Stress axis : x y z
#
# Youngs Moduli (GPa) = 141.92097 68.28682 47.08458
#
# Poissons Ratio (x) = 0.24205 0.04020
# Poissons Ratio (y) = 0.50306 0.55375
# Poissons Ratio (z) = 0.12118 0.80311
#
# Static dielectric constant tensor:
#      x y z
#    x 5.262740 0.000000 0.000000 
#    y 0.000000 4.619460 0.000000 
#    z 0.000000 0.000000 4.040430 
# 
# 
# High freq. dielectric constant tensor:
#      x y z
#    x 2.004890 0.000000 0.000000 
#    y 0.000000 1.955730 0.000000 
#    z 0.000000 0.000000 1.944390 
# 
# From -- ./inp_files/13604.got.cif
#   From: 2010.03.12/outbox.cif.g09.slc.cpg/sg56_7_cif.got.tgz:13604.got - 2010.04.16 15:33:40.
