data_PCOD8229600
_publ_section_title
;
Structure prediction by ZEFSAII (Michael W. Deem and Ramdas Pophale) SiO2 
 PCOD8229600
Probable space group: P C C N
;
_chemical_formula_sum "Si O2"
_cell_formula_units_Z 48
_cell_length_a 9.757165
_cell_length_b 26.645174
_cell_length_c 8.588725
_cell_angle_alpha 90.000000
_cell_angle_beta 90.000000
_cell_angle_gamma 90.000000
_cell_volume 2232.908399
_symmetry_space_group_name_H-M "P C C N"
_symmetry_group_IT_number 56
_symmetry_cell_setting 'orthorhombic'
loop_
_space_group_symop_operation_xyz
x,y,z
1/2-x,1/2-y,z
1/2+x,-y,1/2-z
-x,1/2+y,1/2-z
-x,-y,-z
1/2+x,1/2+y,-z
1/2-x,y,1/2+z
x,1/2-y,1/2+z
loop_
_atom_site_type_symbol
_atom_site_label
_atom_site_fract_x
_atom_site_fract_y
_atom_site_fract_z
Si Si1 0.930054 0.103968 0.434618
Si Si2 0.913595 0.797252 0.618244
Si Si3 0.617579 0.695398 0.980862
Si Si4 0.425552 0.413551 0.945612
Si Si5 0.826794 0.550366 0.223155
Si Si6 0.323694 0.935973 0.747587
O O1 0.882301 0.096037 0.610246
O O2 0.813225 0.090918 0.310258
O O3 0.969134 0.162422 0.419527
O O4 0.058663 0.068114 0.398863
O O5 0.883036 0.795666 0.798852
O O6 0.959768 0.741521 0.565455
O O7 0.775427 0.811040 0.527794
O O8 0.538774 0.644598 0.024642
O O9 0.311813 0.418791 0.810424
O O10 0.566374 0.439148 0.891949
O O11 0.372366 0.440093 0.101011
O O12 0.792707 0.492154 0.194955
#
# Coordination Sequence:
#
# PCOD8229600 Si02
#       6
#     8   8   8   8   8   8
#     4  12  25  45  66  99 137 182 224 280 339 405
#     4  11  24  41  74  99 136 164 228 280 347 394
#     4  11  22  41  68 104 125 168 220 284 333 392
#     4  12  23  41  71  96 137 172 228 283 337 395
#     4  12  23  44  68 103 131 183 231 276 332 404
#     4  12  27  42  67  96 145 181 224 274 338 406
#
# _framework density 21.496627
#
# number of rings (size 3 to 8) (size 9 to 14) (size 15 to 20)
#    0.000    0.333    3.333    7.000    4.667    0.000 
#    0.000    0.833    0.000    0.000    0.000    0.000 
#    0.000    0.000    0.000    0.000    0.000    0.000 
#
# Total GULP energy -595539.807742 kJ/mol
# GULP energy per Si atom -12407.079328 kJ/mol
# Density = 2.144770 g / cm^3
# Si number density = 21.496627 Si / 1000 Ang^3
#
#
#
# Elastic Constant Matrix: (Units=GPa)
#
#
# Indices 1 2 3 4 5 6 
#
# 1 84.1141 56.1692 10.3299 0.0000 0.0000 0.0000
# 2 56.1692 152.4672 55.5377 0.0000 0.0000 0.0000
# 3 10.3299 55.5377 98.7528 0.0000 0.0000 0.0000
# 4 0.0000 0.0000 0.0000 39.9697 0.0000 0.0000
# 5 0.0000 0.0000 0.0000 0.0000 24.6107 0.0000
# 6 0.0000 0.0000 0.0000 0.0000 0.0000 31.2980
#
#
#
# Elastic Compliance Matrix: (Units=1/GPa)
#
#
# Indices 1 2 3 4 5 6 
#
# 1 0.016099 -0.006688 0.002077 0.000000 0.000000 0.000000
# 2 -0.006688 0.011027 -0.005502 0.000000 0.000000 0.000000
# 3 0.002077 -0.005502 0.013003 0.000000 0.000000 0.000000
# 4 0.000000 0.000000 0.000000 0.025019 0.000000 0.000000
# 5 0.000000 0.000000 0.000000 0.000000 0.040633 0.000000
# 6 0.000000 0.000000 0.000000 0.000000 0.000000 0.031951
#
#
# Mechanical properties :
#
#
# Convention : Reuss Voigt Hill
#
# Bulk Modulus (GPa) = 50.24004 64.37864 57.30934
# Shear Modulus (GPa) = 30.37833 33.39550 31.88691
#
# Velocity S-wave (km/s) = 3.76329 3.94575 3.85560
# Velocity P-wave (km/s) = 6.50423 7.12544 6.82191
#
# Compressibility (1/GPa) = 0.01990444
#
# Stress axis : x y z
#
# Youngs Moduli (GPa) = 62.11439 90.69021 76.90453
#
# Poissons Ratio (x) = 0.60650 -0.15973
# Poissons Ratio (y) = 0.41540 0.42310
# Poissons Ratio (z) = -0.12901 0.49895
#
# Static dielectric constant tensor:
#      x y z
#    x 3.873770 0.000000 0.000000 
#    y 0.000000 4.187210 0.000000 
#    z 0.000000 0.000000 3.986430 
# 
# 
# High freq. dielectric constant tensor:
#      x y z
#    x 1.826700 0.000000 0.000000 
#    y 0.000000 1.856060 0.000000 
#    z 0.000000 0.000000 1.863900 
# 
# From -- ./inp_files/2214.got.cif
#   From: 2010.03.12/outbox.cif.g09.slc.cpg/sg56_2_cif.got.tgz:2214.got - 2010.04.16 15:33:40.
