data_PCOD8229865
_publ_section_title
;
Structure prediction by ZEFSAII (Michael W. Deem and Ramdas Pophale) SiO2 
 PCOD8229865
Probable space group: P C C N
;
_chemical_formula_sum "Si O2"
_cell_formula_units_Z 24
_cell_length_a 24.249756
_cell_length_b 4.686470
_cell_length_c 8.330622
_cell_angle_alpha 90.000000
_cell_angle_beta 90.000000
_cell_angle_gamma 90.000000
_cell_volume 946.739818
_symmetry_space_group_name_H-M "P C C N"
_symmetry_group_IT_number 56
_symmetry_cell_setting 'orthorhombic'
loop_
_space_group_symop_operation_xyz
x,y,z
1/2-x,1/2-y,z
1/2+x,-y,1/2-z
-x,1/2+y,1/2-z
-x,-y,-z
1/2+x,1/2+y,-z
1/2-x,y,1/2+z
x,1/2-y,1/2+z
loop_
_atom_site_type_symbol
_atom_site_label
_atom_site_fract_x
_atom_site_fract_y
_atom_site_fract_z
Si Si1 0.353771 0.845106 0.132408
Si Si2 0.811765 0.849605 0.051153
Si Si3 0.521543 0.150663 0.341571
O O1 0.415382 0.733607 0.140772
O O2 0.336259 0.993765 0.295678
O O3 0.313898 0.574725 0.096827
O O4 0.349070 0.074394 0.988260
O O5 0.750000 0.750000 0.082331
O O6 0.485073 0.431545 0.307270
O O7 0.500000 0.000000 0.500000
#
# Coordination Sequence:
#
# PCOD8229865 Si02
#       3
#     8   8   8
#     4  12  27  50  78 112 153 201 253 313 380 454
#     4  12  27  50  77 112 152 200 253 312 379 453
#     4  12  27  50  77 112 153 201 255 315 380 453
#
# _framework density 25.350152000000001
#
# number of rings (size 3 to 8) (size 9 to 14) (size 15 to 20)
#    0.000    0.000    0.000    9.000    0.000    8.000 
#    0.000    1.667    0.000    0.000    0.000    0.000 
#    0.000    0.000    0.000    0.000    0.000    0.000 
#
# Total GULP energy -297781.583881 kJ/mol
# GULP energy per Si atom -12407.565995 kJ/mol
# Density = 2.529245 g / cm^3
# Si number density = 25.350152 Si / 1000 Ang^3
#
#
#
# Elastic Constant Matrix: (Units=GPa)
#
#
# Indices 1 2 3 4 5 6 
#
# 1 186.3301 94.6885 87.5538 0.0000 0.0000 0.0000
# 2 94.6885 169.4396 26.0168 0.0000 0.0000 0.0000
# 3 87.5538 26.0168 67.4458 0.0000 0.0000 0.0000
# 4 0.0000 0.0000 0.0000 71.9051 0.0000 0.0000
# 5 0.0000 0.0000 0.0000 0.0000 41.9606 0.0000
# 6 0.0000 0.0000 0.0000 0.0000 0.0000 69.1193
#
#
#
# Elastic Compliance Matrix: (Units=1/GPa)
#
#
# Indices 1 2 3 4 5 6 
#
# 1 0.020245 -0.007736 -0.023296 0.000000 0.000000 0.000000
# 2 -0.007736 0.009230 0.006483 0.000000 0.000000 0.000000
# 3 -0.023296 0.006483 0.042568 0.000000 0.000000 0.000000
# 4 0.000000 0.000000 0.000000 0.013907 0.000000 0.000000
# 5 0.000000 0.000000 0.000000 0.000000 0.023832 0.000000
# 6 0.000000 0.000000 0.000000 0.000000 0.000000 0.014468
#
#
# Mechanical properties :
#
#
# Convention : Reuss Voigt Hill
#
# Bulk Modulus (GPa) = 43.58770 93.30374 68.44572
# Shear Modulus (GPa) = 27.62476 50.92743 39.27610
#
# Velocity S-wave (km/s) = 3.30468 4.48700 3.94044
# Velocity P-wave (km/s) = 5.63851 7.98312 6.91097
#
# Compressibility (1/GPa) = 0.02294225
#
# Stress axis : x y z
#
# Youngs Moduli (GPa) = 49.39517 108.34446 23.49193
#
# Poissons Ratio (x) = 0.83820 0.54728
# Poissons Ratio (y) = 0.38214 -0.15229
# Poissons Ratio (z) = 1.15072 -0.70236
#
# Static dielectric constant tensor:
#      x y z
#    x 3.647860 0.000000 0.000000 
#    y 0.000000 3.621990 0.000000 
#    z 0.000000 0.000000 4.339980 
# 
# 
# High freq. dielectric constant tensor:
#      x y z
#    x 2.010100 0.000000 0.000000 
#    y 0.000000 2.052620 0.000000 
#    z 0.000000 0.000000 2.027680 
# 
# From -- ./inp_files/1512.got.cif
#   From: 2010.03.12/outbox.cif.g09.slc.cpg/sg56_1_cif.got.tgz:1512.got - 2010.04.16 15:33:40.
