data_PCOD8229125
_publ_section_title
;
Structure prediction by ZEFSAII (Michael W. Deem and Ramdas Pophale) SiO2 
 PCOD8229125
Probable space group: P C C N
;
_chemical_formula_sum "Si O2"
_cell_formula_units_Z 56
_cell_length_a 10.877127
_cell_length_b 15.081309
_cell_length_c 14.912385
_cell_angle_alpha 90.000000
_cell_angle_beta 90.000000
_cell_angle_gamma 90.000000
_cell_volume 2446.247220
_symmetry_space_group_name_H-M "P C C N"
_symmetry_group_IT_number 56
_symmetry_cell_setting 'orthorhombic'
loop_
_space_group_symop_operation_xyz
x,y,z
1/2-x,1/2-y,z
1/2+x,-y,1/2-z
-x,1/2+y,1/2-z
-x,-y,-z
1/2+x,1/2+y,-z
1/2-x,y,1/2+z
x,1/2-y,1/2+z
loop_
_atom_site_type_symbol
_atom_site_label
_atom_site_fract_x
_atom_site_fract_y
_atom_site_fract_z
Si Si1 0.282341 0.623511 0.656602
Si Si2 0.698220 0.567566 0.151314
Si Si3 0.048348 0.581187 0.557366
Si Si4 0.173540 0.165073 0.499797
Si Si5 0.095515 0.727068 0.005646
Si Si6 0.670704 0.384819 0.656322
Si Si7 0.389008 0.054810 0.161873
O O1 0.328953 0.706987 0.597598
O O2 0.230784 0.656323 0.753108
O O3 0.393870 0.552726 0.664324
O O4 0.175578 0.565460 0.608524
O O5 0.557786 0.591713 0.129921
O O6 0.745900 0.468664 0.125998
O O7 0.701766 0.585346 0.257430
O O8 0.780298 0.636659 0.097505
O O9 0.000000 0.500000 0.500000
O O10 0.067609 0.668673 0.495794
O O11 0.250000 0.250000 0.533671
O O12 0.183603 0.088775 0.574295
O O13 0.030997 0.178001 0.488020
O O14 0.175465 0.689286 0.922225
O O15 0.528613 0.411729 0.671648
#
# Coordination Sequence:
#
# PCOD8229125 Si02
#       7
#     8   8   8   8   8   8   8
#     4  11  23  42  71 102 141 182 234 291 356 427
#     4  11  22  41  68  99 137 178 229 291 349 416
#     4  12  24  42  66  95 139 184 230 285 350 421
#     4  11  22  40  68  98 135 181 232 288 346 419
#     4  11  24  44  71 101 137 186 230 293 359 417
#     4  10  22  44  73 103 137 182 241 291 358 427
#     4  10  22  42  68  99 136 184 231 288 352 427
#
# _framework density 22.892208
#
# number of rings (size 3 to 8) (size 9 to 14) (size 15 to 20)
#    0.000    1.143    2.857    3.857    0.000    2.857 
#    0.000    8.571    0.000    0.000    0.000    0.000 
#    0.000    0.000    0.000    0.000    0.000    0.000 
#
# Total GULP energy -693988.354756 kJ/mol
# GULP energy per Si atom -12392.649192 kJ/mol
# Density = 2.284010 g / cm^3
# Si number density = 22.892208 Si / 1000 Ang^3
#
#
#
# Elastic Constant Matrix: (Units=GPa)
#
#
# Indices 1 2 3 4 5 6 
#
# 1 88.0061 27.1266 33.5835 0.0000 0.0000 0.0000
# 2 27.1266 116.5183 59.4675 0.0000 0.0000 0.0000
# 3 33.5835 59.4675 131.5286 0.0000 0.0000 0.0000
# 4 0.0000 0.0000 0.0000 -18.8037 0.0000 0.0000
# 5 0.0000 0.0000 0.0000 0.0000 37.8793 0.0000
# 6 0.0000 0.0000 0.0000 0.0000 0.0000 42.4984
#
#
#
# Elastic Compliance Matrix: (Units=1/GPa)
#
#
# Indices 1 2 3 4 5 6 
#
# 1 0.012847 -0.001712 -0.002506 0.000000 0.000000 0.000000
# 2 -0.001712 0.011385 -0.004710 0.000000 0.000000 0.000000
# 3 -0.002506 -0.004710 0.010373 0.000000 0.000000 0.000000
# 4 0.000000 0.000000 0.000000 -0.053181 0.000000 0.000000
# 5 0.000000 0.000000 0.000000 0.000000 0.026400 0.000000
# 6 0.000000 0.000000 0.000000 0.000000 0.000000 0.023530
#
#
# Mechanical properties :
#
#
# Convention : Reuss Voigt Hill
#
# Bulk Modulus (GPa) = 59.71034 64.04535 61.87785
# Shear Modulus (GPa) = 91.25369 26.70652 58.98010
#
# Velocity S-wave (km/s) = 6.32051 3.41929 5.08136
# Velocity P-wave (km/s) = 8.91095 6.60503 7.84319
#
# Compressibility (1/GPa) = 0.01674752
#
# Stress axis : x y z
#
# Youngs Moduli (GPa) = 77.83992 87.83588 96.40868
#
# Poissons Ratio (x) = 0.15035 0.24163
# Poissons Ratio (y) = 0.13324 0.45412
# Poissons Ratio (z) = 0.19509 0.41374
#
# Static dielectric constant tensor:
#      x y z
#    x 4.534800 0.000000 0.000000 
#    y 0.000000 3.772170 0.000000 
#    z 0.000000 0.000000 4.375200 
# 
# 
# High freq. dielectric constant tensor:
#      x y z
#    x 1.922170 0.000000 0.000000 
#    y 0.000000 1.899950 0.000000 
#    z 0.000000 0.000000 1.906380 
# 
# From -- ./inp_files/11695.got.cif
#   From: 2010.03.12/outbox.cif.g09.slc.cpg/sg56_6_cif.got.tgz:11695.got - 2010.04.16 15:33:40.
