data_PCOD8229700
_publ_section_title
;
Structure prediction by ZEFSAII (Michael W. Deem and Ramdas Pophale) SiO2 
 PCOD8229700
Probable space group: P C C N
;
_chemical_formula_sum "Si O2"
_cell_formula_units_Z 56
_cell_length_a 19.119636
_cell_length_b 13.987160
_cell_length_c 9.514201
_cell_angle_alpha 90.000000
_cell_angle_beta 90.000000
_cell_angle_gamma 90.000000
_cell_volume 2544.377140
_symmetry_space_group_name_H-M "P C C N"
_symmetry_group_IT_number 56
_symmetry_cell_setting 'orthorhombic'
loop_
_space_group_symop_operation_xyz
x,y,z
1/2-x,1/2-y,z
1/2+x,-y,1/2-z
-x,1/2+y,1/2-z
-x,-y,-z
1/2+x,1/2+y,-z
1/2-x,y,1/2+z
x,1/2-y,1/2+z
loop_
_atom_site_type_symbol
_atom_site_label
_atom_site_fract_x
_atom_site_fract_y
_atom_site_fract_z
Si Si1 0.967275 0.339889 0.166618
Si Si2 0.772802 0.514558 0.071382
Si Si3 0.588139 0.955396 0.239946
Si Si4 0.625865 0.821036 0.777360
Si Si5 0.842888 0.652682 0.470199
Si Si6 0.672845 0.468509 0.298055
Si Si7 0.954103 0.158074 0.343752
O O1 0.944535 0.439654 0.235140
O O2 0.937456 0.257087 0.266189
O O3 0.049981 0.331371 0.155580
O O4 0.937865 0.330884 0.008770
O O5 0.842227 0.553538 0.146692
O O6 0.725971 0.446829 0.171584
O O7 0.731193 0.607194 0.013622
O O8 0.792741 0.440814 0.946922
O O9 0.607411 0.929511 0.401315
O O10 0.532909 0.877706 0.182207
O O11 0.619939 0.804137 0.609041
O O12 0.667176 0.734656 0.852679
O O13 0.667332 0.917213 0.806701
O O14 0.598722 0.418546 0.275122
#
# Coordination Sequence:
#
# PCOD8229700 Si02
#       7
#     8   8   8   8   8   8   8
#     4  12  25  43  74 107 140 186 237 302 359 422
#     4  11  24  46  70 101 137 191 234 285 367 422
#     4  12  24  46  76 100 143 193 236 299 363 431
#     4  11  24  42  67 109 143 186 233 287 368 427
#     4  11  26  43  68 104 148 187 237 294 353 446
#     4  11  24  46  70  99 142 184 235 289 356 430
#     4  12  26  45  73 107 137 184 244 297 359 431
#
# _framework density 22.009315000000001
#
# number of rings (size 3 to 8) (size 9 to 14) (size 15 to 20)
#    0.000    0.571    5.714    2.143    2.000    3.429 
#    2.571    0.714    3.143    0.000    0.000    0.000 
#    0.000    0.000    0.000    0.000    0.000    0.000 
#
# Total GULP energy -694500.714014 kJ/mol
# GULP energy per Si atom -12401.798465 kJ/mol
# Density = 2.195922 g / cm^3
# Si number density = 22.009315 Si / 1000 Ang^3
#
#
#
# Elastic Constant Matrix: (Units=GPa)
#
#
# Indices 1 2 3 4 5 6 
#
# 1 100.1940 29.3769 38.2865 0.0000 0.0000 0.0000
# 2 29.3769 106.9135 43.6821 0.0000 0.0000 0.0000
# 3 38.2865 43.6821 143.1586 0.0000 0.0000 0.0000
# 4 0.0000 0.0000 0.0000 27.4156 0.0000 0.0000
# 5 0.0000 0.0000 0.0000 0.0000 32.2356 0.0000
# 6 0.0000 0.0000 0.0000 0.0000 0.0000 22.8513
#
#
#
# Elastic Compliance Matrix: (Units=1/GPa)
#
#
# Indices 1 2 3 4 5 6 
#
# 1 0.011546 -0.002183 -0.002422 0.000000 0.000000 0.000000
# 2 -0.002183 0.011098 -0.002803 0.000000 0.000000 0.000000
# 3 -0.002422 -0.002803 0.008488 0.000000 0.000000 0.000000
# 4 0.000000 0.000000 0.000000 0.036476 0.000000 0.000000
# 5 0.000000 0.000000 0.000000 0.000000 0.031022 0.000000
# 6 0.000000 0.000000 0.000000 0.000000 0.000000 0.043761
#
#
# Mechanical properties :
#
#
# Convention : Reuss Voigt Hill
#
# Bulk Modulus (GPa) = 61.28347 63.66189 62.47268
# Shear Modulus (GPa) = 30.74183 32.42856 31.58519
#
# Velocity S-wave (km/s) = 3.74139 3.84266 3.79236
# Velocity P-wave (km/s) = 6.82413 6.97680 6.90089
#
# Compressibility (1/GPa) = 0.01631761
#
# Stress axis : x y z
#
# Youngs Moduli (GPa) = 86.60906 90.10418 117.81205
#
# Poissons Ratio (x) = 0.19670 0.28532
# Poissons Ratio (y) = 0.18907 0.33018
# Poissons Ratio (z) = 0.20975 0.25252
#
# Static dielectric constant tensor:
#      x y z
#    x 3.931780 0.000000 0.000000 
#    y 0.000000 3.810530 0.000000 
#    z 0.000000 0.000000 4.416950 
# 
# 
# High freq. dielectric constant tensor:
#      x y z
#    x 1.868290 0.000000 0.000000 
#    y 0.000000 1.845880 0.000000 
#    z 0.000000 0.000000 1.884870 
# 
# From -- ./inp_files/4481.got.cif
#   From: 2010.03.12/outbox.cif.g09.slc.cpg/sg56_3_cif.got.tgz:4481.got - 2010.04.16 15:33:40.
