data_PCOD8229693
_publ_section_title
;
Structure prediction by ZEFSAII (Michael W. Deem and Ramdas Pophale) SiO2 
 PCOD8229693
Probable space group: P C C N
;
_chemical_formula_sum "Si O2"
_cell_formula_units_Z 40
_cell_length_a 12.760725
_cell_length_b 7.211476
_cell_length_c 17.773370
_cell_angle_alpha 90.000000
_cell_angle_beta 90.000000
_cell_angle_gamma 90.000000
_cell_volume 1635.570595
_symmetry_space_group_name_H-M "P C C N"
_symmetry_group_IT_number 56
_symmetry_cell_setting 'orthorhombic'
loop_
_space_group_symop_operation_xyz
x,y,z
1/2-x,1/2-y,z
1/2+x,-y,1/2-z
-x,1/2+y,1/2-z
-x,-y,-z
1/2+x,1/2+y,-z
1/2-x,y,1/2+z
x,1/2-y,1/2+z
loop_
_atom_site_type_symbol
_atom_site_label
_atom_site_fract_x
_atom_site_fract_y
_atom_site_fract_z
Si Si1 0.486161 0.081503 0.918332
Si Si2 0.927079 0.260468 0.645115
Si Si3 0.130089 0.738406 0.690114
Si Si4 0.349528 0.132534 0.606407
Si Si5 0.662897 0.896404 0.564613
O O1 0.594974 0.106734 0.871176
O O2 0.447092 0.293210 0.923312
O O3 0.396750 0.952269 0.876957
O O4 0.500000 0.000000 0.000000
O O5 0.936359 0.279285 0.734672
O O6 0.845845 0.410745 0.610929
O O7 0.042715 0.251432 0.605294
O O8 0.250000 0.750000 0.712267
O O9 0.115583 0.530978 0.661336
O O10 0.250000 0.250000 0.637509
O O11 0.319096 0.057125 0.523355
O O12 0.750000 0.750000 0.593738
#
# Coordination Sequence:
#
# PCOD8229693 Si02
#       5
#     8   8   8   8   8
#     4  12  25  47  78 106 143 193 251 308 367 445
#     4  12  25  49  71 109 151 194 245 309 379 455
#     4  12  28  46  70 110 150 197 242 305 385 457
#     4  11  23  48  76 105 145 195 252 315 375 446
#     4  11  26  47  76 108 145 194 252 311 371 449
#
# _framework density 24.456295999999998
#
# number of rings (size 3 to 8) (size 9 to 14) (size 15 to 20)
#    0.000    0.400    4.000    4.200    5.600    0.000 
#    3.600    0.000    0.000    0.000    0.000    0.000 
#    0.000    0.000    0.000    0.000    0.000    0.000 
#
# Total GULP energy -495735.779645 kJ/mol
# GULP energy per Si atom -12393.394491 kJ/mol
# Density = 2.440063 g / cm^3
# Si number density = 24.456296 Si / 1000 Ang^3
#
#
#
# Elastic Constant Matrix: (Units=GPa)
#
#
# Indices 1 2 3 4 5 6 
#
# 1 83.1740 24.2032 30.9864 0.0000 0.0000 0.0000
# 2 24.2032 127.5199 63.0741 0.0000 0.0000 0.0000
# 3 30.9864 63.0741 160.8454 0.0000 0.0000 0.0000
# 4 0.0000 0.0000 0.0000 41.9781 0.0000 0.0000
# 5 0.0000 0.0000 0.0000 0.0000 29.7527 0.0000
# 6 0.0000 0.0000 0.0000 0.0000 0.0000 40.1713
#
#
#
# Elastic Compliance Matrix: (Units=1/GPa)
#
#
# Indices 1 2 3 4 5 6 
#
# 1 0.013194 -0.001547 -0.001935 0.000000 0.000000 0.000000
# 2 -0.001547 0.009910 -0.003588 0.000000 0.000000 0.000000
# 3 -0.001935 -0.003588 0.007997 0.000000 0.000000 0.000000
# 4 0.000000 0.000000 0.000000 0.023822 0.000000 0.000000
# 5 0.000000 0.000000 0.000000 0.000000 0.033610 0.000000
# 6 0.000000 0.000000 0.000000 0.000000 0.000000 0.024893
#
#
# Mechanical properties :
#
#
# Convention : Reuss Voigt Hill
#
# Bulk Modulus (GPa) = 58.96002 67.56297 63.26149
# Shear Modulus (GPa) = 37.53143 39.26546 38.39844
#
# Velocity S-wave (km/s) = 3.92169 4.01126 3.96673
# Velocity P-wave (km/s) = 6.68333 7.00996 6.84859
#
# Compressibility (1/GPa) = 0.01696065
#
# Stress axis : x y z
#
# Youngs Moduli (GPa) = 75.79137 100.90457 125.04635
#
# Poissons Ratio (x) = 0.15611 0.24198
# Poissons Ratio (y) = 0.11726 0.44869
# Poissons Ratio (z) = 0.14667 0.36207
#
# Static dielectric constant tensor:
#      x y z
#    x 4.532690 0.000000 0.000000 
#    y 0.000000 5.512200 0.000000 
#    z 0.000000 0.000000 4.170420 
# 
# 
# High freq. dielectric constant tensor:
#      x y z
#    x 1.966180 0.000000 0.000000 
#    y 0.000000 1.995060 0.000000 
#    z 0.000000 0.000000 1.964590 
# 
# From -- ./inp_files/12071.got.cif
#   From: 2010.03.12/outbox.cif.g09.slc.cpg/sg56_7_cif.got.tgz:12071.got - 2010.04.16 15:33:40.
