data_PCOD8229661
_publ_section_title
;
Structure prediction by ZEFSAII (Michael W. Deem and Ramdas Pophale) SiO2 
 PCOD8229661
Probable space group: P C C N
;
_chemical_formula_sum "Si O2"
_cell_formula_units_Z 56
_cell_length_a 20.512812
_cell_length_b 13.250467
_cell_length_c 9.341423
_cell_angle_alpha 90.000000
_cell_angle_beta 90.000000
_cell_angle_gamma 90.000000
_cell_volume 2539.039299
_symmetry_space_group_name_H-M "P C C N"
_symmetry_group_IT_number 56
_symmetry_cell_setting 'orthorhombic'
loop_
_space_group_symop_operation_xyz
x,y,z
1/2-x,1/2-y,z
1/2+x,-y,1/2-z
-x,1/2+y,1/2-z
-x,-y,-z
1/2+x,1/2+y,-z
1/2-x,y,1/2+z
x,1/2-y,1/2+z
loop_
_atom_site_type_symbol
_atom_site_label
_atom_site_fract_x
_atom_site_fract_y
_atom_site_fract_z
Si Si1 0.680025 0.293604 0.320929
Si Si2 0.300017 0.449351 0.070487
Si Si3 0.848707 0.973854 0.391822
Si Si4 0.888213 0.895782 0.687350
Si Si5 0.134999 0.848198 0.964847
Si Si6 0.616918 0.832987 0.631298
Si Si7 0.008789 0.104617 0.074273
O O1 0.750000 0.250000 0.372515
O O2 0.660441 0.406906 0.367392
O O3 0.628482 0.216959 0.391082
O O4 0.676852 0.285153 0.150330
O O5 0.223475 0.433209 0.079701
O O6 0.329467 0.451751 0.230072
O O7 0.326949 0.547633 0.988679
O O8 0.325386 0.354475 0.980406
O O9 0.892834 0.946835 0.530662
O O10 0.882638 0.917064 0.258026
O O11 0.871407 0.777659 0.691296
O O12 0.955985 0.910338 0.772719
O O13 0.063087 0.854065 0.897264
O O14 0.549853 0.829651 0.539821
O O15 0.000000 0.000000 0.000000
#
# Coordination Sequence:
#
# PCOD8229661 Si02
#       7
#     8   8   8   8   8   8   8
#     4  12  27  44  73 108 144 177 232 290 351 425
#     4  11  23  43  71  96 144 181 222 289 356 409
#     4  12  24  44  72 111 137 179 241 283 346 423
#     4  11  26  42  72 102 137 186 231 290 341 415
#     4  12  26  46  69 103 138 189 227 283 356 417
#     4  11  24  46  68 103 142 182 233 294 342 412
#     4  11  23  49  71  90 141 190 229 285 359 403
#
# _framework density 22.055588
#
# number of rings (size 3 to 8) (size 9 to 14) (size 15 to 20)
#    0.000    0.571    5.714    3.000    4.000    3.429 
#    0.000    1.429    0.000    0.000    0.000    0.000 
#    0.000    0.000    0.000    0.000    0.000    0.000 
#
# Total GULP energy -694188.612597 kJ/mol
# GULP energy per Si atom -12396.225225 kJ/mol
# Density = 2.200539 g / cm^3
# Si number density = 22.055588 Si / 1000 Ang^3
#
#
#
# Elastic Constant Matrix: (Units=GPa)
#
#
# Indices 1 2 3 4 5 6 
#
# 1 73.5725 14.9395 20.1694 0.0000 0.0000 0.0000
# 2 14.9395 90.2156 19.4008 0.0000 0.0000 0.0000
# 3 20.1694 19.4008 118.9310 0.0000 0.0000 0.0000
# 4 0.0000 0.0000 0.0000 46.2523 0.0000 0.0000
# 5 0.0000 0.0000 0.0000 0.0000 32.0370 0.0000
# 6 0.0000 0.0000 0.0000 0.0000 0.0000 21.3438
#
#
#
# Elastic Compliance Matrix: (Units=1/GPa)
#
#
# Indices 1 2 3 4 5 6 
#
# 1 0.014579 -0.001951 -0.002154 0.000000 0.000000 0.000000
# 2 -0.001951 0.011749 -0.001586 0.000000 0.000000 0.000000
# 3 -0.002154 -0.001586 0.009032 0.000000 0.000000 0.000000
# 4 0.000000 0.000000 0.000000 0.021621 0.000000 0.000000
# 5 0.000000 0.000000 0.000000 0.000000 0.031214 0.000000
# 6 0.000000 0.000000 0.000000 0.000000 0.000000 0.046852
#
#
# Mechanical properties :
#
#
# Convention : Reuss Voigt Hill
#
# Bulk Modulus (GPa) = 41.70475 43.52649 42.61562
# Shear Modulus (GPa) = 32.37918 35.14059 33.75988
#
# Velocity S-wave (km/s) = 3.83570 3.99591 3.91663
# Velocity P-wave (km/s) = 6.21021 6.40839 6.31008
#
# Compressibility (1/GPa) = 0.02397808
#
# Stress axis : x y z
#
# Youngs Moduli (GPa) = 68.59304 85.11636 110.71480
#
# Poissons Ratio (x) = 0.16606 0.23850
# Poissons Ratio (y) = 0.13382 0.17555
# Poissons Ratio (z) = 0.14776 0.13496
#
# Static dielectric constant tensor:
#      x y z
#    x 3.695290 0.000000 0.000000 
#    y 0.000000 3.871250 0.000000 
#    z 0.000000 0.000000 4.468940 
# 
# 
# High freq. dielectric constant tensor:
#      x y z
#    x 1.860410 0.000000 0.000000 
#    y 0.000000 1.868430 0.000000 
#    z 0.000000 0.000000 1.885140 
# 
# From -- ./inp_files/4472.got.cif
#   From: 2010.03.12/outbox.cif.g09.slc.cpg/sg56_3_cif.got.tgz:4472.got - 2010.04.16 15:33:40.
