data_PCOD8229041
_publ_section_title
;
Structure prediction by ZEFSAII (Michael W. Deem and Ramdas Pophale) SiO2 
 PCOD8229041
Probable space group: P C C N
;
_chemical_formula_sum "Si O2"
_cell_formula_units_Z 64
_cell_length_a 8.235629
_cell_length_b 27.578851
_cell_length_c 12.867842
_cell_angle_alpha 90.000000
_cell_angle_beta 90.000000
_cell_angle_gamma 90.000000
_cell_volume 2922.662467
_symmetry_space_group_name_H-M "P C C N"
_symmetry_group_IT_number 56
_symmetry_cell_setting 'orthorhombic'
loop_
_space_group_symop_operation_xyz
x,y,z
1/2-x,1/2-y,z
1/2+x,-y,1/2-z
-x,1/2+y,1/2-z
-x,-y,-z
1/2+x,1/2+y,-z
1/2-x,y,1/2+z
x,1/2-y,1/2+z
loop_
_atom_site_type_symbol
_atom_site_label
_atom_site_fract_x
_atom_site_fract_y
_atom_site_fract_z
Si Si1 0.344327 0.617555 0.191256
Si Si2 0.907594 0.946029 0.714914
Si Si3 0.904730 0.774034 0.307900
Si Si4 0.127938 0.929765 0.529028
Si Si5 0.641852 0.208461 0.818962
Si Si6 0.201159 0.355589 0.343073
Si Si7 0.443962 0.160425 0.002881
Si Si8 0.783834 0.036041 0.167820
O O1 0.258535 0.603660 0.085049
O O2 0.268956 0.669189 0.229689
O O3 0.531341 0.617412 0.160099
O O4 0.320340 0.578413 0.280448
O O5 0.837975 0.891014 0.710540
O O6 0.022104 0.958697 0.614934
O O7 0.023848 0.953054 0.816211
O O8 0.760555 0.984234 0.718952
O O9 0.750000 0.750000 0.363771
O O10 0.823800 0.804456 0.214001
O O11 0.979276 0.809282 0.394186
O O12 0.035745 0.733977 0.271898
O O13 0.227881 0.965333 0.452761
O O14 0.009969 0.892809 0.467828
O O15 0.750000 0.250000 0.873614
O O16 0.527982 0.184480 0.903302
O O17 0.257161 0.345183 0.462557
#
# Coordination Sequence:
#
# PCOD8229041 Si02
#       8
#     8   8   8   8   8   8   8   8
#     4  10  22  40  66  92 125 169 211 263 325 375
#     4  10  23  40  66  95 130 169 209 265 324 376
#     4  12  25  38  66  91 125 172 217 256 324 392
#     4   9  21  41  64  91 128 163 211 264 314 381
#     4  11  23  43  61  90 128 165 210 273 318 378
#     4  11  22  44  61  91 134 165 209 271 319 379
#     4  10  24  42  59  94 125 165 211 264 324 378
#     4  11  21  41  66  95 129 167 215 260 321 385
#
# _framework density 21.897842000000001
#
# number of rings (size 3 to 8) (size 9 to 14) (size 15 to 20)
#    0.000    1.500    2.500    2.625    1.750    1.500 
#    2.250    8.125    0.000    0.000    0.000    0.000 
#    0.000    0.000    0.000    0.000    0.000    0.000 
#
# Total GULP energy -793175.685318 kJ/mol
# GULP energy per Si atom -12393.370083 kJ/mol
# Density = 2.184800 g / cm^3
# Si number density = 21.897842 Si / 1000 Ang^3
#
#
#
# Elastic Constant Matrix: (Units=GPa)
#
#
# Indices 1 2 3 4 5 6 
#
# 1 108.9997 19.3629 15.5066 0.0000 0.0000 0.0000
# 2 19.3629 83.2518 10.3998 0.0000 0.0000 0.0000
# 3 15.5066 10.3998 58.3625 0.0000 0.0000 0.0000
# 4 0.0000 0.0000 0.0000 28.6781 0.0000 0.0000
# 5 0.0000 0.0000 0.0000 0.0000 12.4650 0.0000
# 6 0.0000 0.0000 0.0000 0.0000 0.0000 39.7968
#
#
#
# Elastic Compliance Matrix: (Units=1/GPa)
#
#
# Indices 1 2 3 4 5 6 
#
# 1 0.009853 -0.002009 -0.002260 0.000000 0.000000 0.000000
# 2 -0.002009 0.012695 -0.001728 0.000000 0.000000 0.000000
# 3 -0.002260 -0.001728 0.018043 0.000000 0.000000 0.000000
# 4 0.000000 0.000000 0.000000 0.034870 0.000000 0.000000
# 5 0.000000 0.000000 0.000000 0.000000 0.080225 0.000000
# 6 0.000000 0.000000 0.000000 0.000000 0.000000 0.025128
#
#
# Mechanical properties :
#
#
# Convention : Reuss Voigt Hill
#
# Bulk Modulus (GPa) = 34.97033 37.90585 36.43809
# Shear Modulus (GPa) = 24.71096 29.87761 27.29429
#
# Velocity S-wave (km/s) = 3.36291 3.69780 3.53432
# Velocity P-wave (km/s) = 5.57524 5.96486 5.77334
#
# Compressibility (1/GPa) = 0.02859567
#
# Stress axis : x y z
#
# Youngs Moduli (GPa) = 101.49450 78.77129 55.42414
#
# Poissons Ratio (x) = 0.15827 0.12525
# Poissons Ratio (y) = 0.20393 0.09579
# Poissons Ratio (z) = 0.22936 0.13614
#
# Static dielectric constant tensor:
#      x y z
#    x 4.173640 0.000000 0.000000 
#    y 0.000000 4.029570 0.000000 
#    z 0.000000 0.000000 3.612990 
# 
# 
# High freq. dielectric constant tensor:
#      x y z
#    x 1.872940 0.000000 0.000000 
#    y 0.000000 1.871350 0.000000 
#    z 0.000000 0.000000 1.829970 
# 
# From -- ./inp_files/6609.got.cif
#   From: 2010.03.12/outbox.cif.g09.slc.cpg/sg56_4_cif.got.tgz:6609.got - 2010.04.16 15:33:40.
