data_PCOD8229498
_publ_section_title
;
Structure prediction by ZEFSAII (Michael W. Deem and Ramdas Pophale) SiO2 
 PCOD8229498
Probable space group: P C C N
;
_chemical_formula_sum "Si O2"
_cell_formula_units_Z 40
_cell_length_a 13.494884
_cell_length_b 21.974124
_cell_length_c 7.344881
_cell_angle_alpha 90.000000
_cell_angle_beta 90.000000
_cell_angle_gamma 90.000000
_cell_volume 2178.038190
_symmetry_space_group_name_H-M "P C C N"
_symmetry_group_IT_number 56
_symmetry_cell_setting 'orthorhombic'
loop_
_space_group_symop_operation_xyz
x,y,z
1/2-x,1/2-y,z
1/2+x,-y,1/2-z
-x,1/2+y,1/2-z
-x,-y,-z
1/2+x,1/2+y,-z
1/2-x,y,1/2+z
x,1/2-y,1/2+z
loop_
_atom_site_type_symbol
_atom_site_label
_atom_site_fract_x
_atom_site_fract_y
_atom_site_fract_z
Si Si1 0.981408 0.920461 0.088808
Si Si2 0.652564 0.548078 0.411664
Si Si3 0.618149 0.805665 0.489478
Si Si4 0.338238 0.178074 0.917459
Si Si5 0.128671 0.492548 0.698931
O O1 0.917235 0.958277 0.237443
O O2 0.095901 0.939316 0.130095
O O3 0.964396 0.847200 0.092775
O O4 0.946964 0.944647 0.892085
O O5 0.648102 0.618671 0.463672
O O6 0.615599 0.508694 0.582809
O O7 0.760714 0.524881 0.355982
O O8 0.720959 0.810367 0.599058
O O9 0.597145 0.733045 0.490929
O O10 0.624481 0.831557 0.286620
#
# Coordination Sequence:
#
# PCOD8229498 Si02
#       5
#     8   8   8   8   8
#     4  11  22  35  51  75 111 144 184 219 264 323
#     4  12  19  37  53  76 109 144 184 221 275 319
#     4  11  19  31  46  73 106 137 180 212 257 328
#     4  11  19  29  49  72 101 145 172 212 269 318
#     4  11  22  34  53  76 108 149 178 224 264 322
#
# _framework density 18.365151000000001
#
# number of rings (size 3 to 8) (size 9 to 14) (size 15 to 20)
#    0.000    0.800    6.000    5.400    0.000    0.000 
#    0.000    0.000    0.000    0.000    0.000    0.000 
#    0.000   33.600    0.000    0.000    0.000    0.000 
#
# Total GULP energy -495676.825385 kJ/mol
# GULP energy per Si atom -12391.920635 kJ/mol
# Density = 1.832335 g / cm^3
# Si number density = 18.365151 Si / 1000 Ang^3
#
#
#
# Elastic Constant Matrix: (Units=GPa)
#
#
# Indices 1 2 3 4 5 6 
#
# 1 45.9254 39.4731 20.0988 0.0000 0.0000 0.0000
# 2 39.4731 106.9555 11.6943 0.0000 0.0000 0.0000
# 3 20.0988 11.6943 81.3858 0.0000 0.0000 0.0000
# 4 0.0000 0.0000 0.0000 24.4004 0.0000 0.0000
# 5 0.0000 0.0000 0.0000 0.0000 15.3449 0.0000
# 6 0.0000 0.0000 0.0000 0.0000 0.0000 35.7177
#
#
#
# Elastic Compliance Matrix: (Units=1/GPa)
#
#
# Indices 1 2 3 4 5 6 
#
# 1 0.035401 -0.012303 -0.006975 0.000000 0.000000 0.000000
# 2 -0.012303 0.013774 0.001059 0.000000 0.000000 0.000000
# 3 -0.006975 0.001059 0.013857 0.000000 0.000000 0.000000
# 4 0.000000 0.000000 0.000000 0.040983 0.000000 0.000000
# 5 0.000000 0.000000 0.000000 0.000000 0.065168 0.000000
# 6 0.000000 0.000000 0.000000 0.000000 0.000000 0.027997
#
#
# Mechanical properties :
#
#
# Convention : Reuss Voigt Hill
#
# Bulk Modulus (GPa) = 37.59952 41.86657 39.73304
# Shear Modulus (GPa) = 20.61999 25.95930 23.28965
#
# Velocity S-wave (km/s) = 3.35442 3.76374 3.56496
# Velocity P-wave (km/s) = 5.95992 6.46018 6.21508
#
# Compressibility (1/GPa) = 0.02659608
#
# Stress axis : x y z
#
# Youngs Moduli (GPa) = 28.24778 72.59905 72.16327
#
# Poissons Ratio (x) = 0.89315 0.50332
# Poissons Ratio (y) = 0.34752 -0.07642
# Poissons Ratio (z) = 0.19702 -0.07688
#
# Static dielectric constant tensor:
#      x y z
#    x 3.107140 0.000000 0.000000 
#    y 0.000000 3.626210 0.000000 
#    z 0.000000 0.000000 3.682240 
# 
# 
# High freq. dielectric constant tensor:
#      x y z
#    x 1.650840 0.000000 0.000000 
#    y 0.000000 1.703500 0.000000 
#    z 0.000000 0.000000 1.740580 
# 
# From -- ./inp_files/3448.got.cif
#   From: 2010.03.12/outbox.cif.g09.slc.cpg/sg56_2_cif.got.tgz:3448.got - 2010.04.16 15:33:40.
