data_PCOD8229802
_publ_section_title
;
Structure prediction by ZEFSAII (Michael W. Deem and Ramdas Pophale) SiO2 
 PCOD8229802
Probable space group: P C C N
;
_chemical_formula_sum "Si O2"
_cell_formula_units_Z 32
_cell_length_a 23.910487
_cell_length_b 4.880384
_cell_length_c 9.370254
_cell_angle_alpha 90.000000
_cell_angle_beta 90.000000
_cell_angle_gamma 90.000000
_cell_volume 1093.437036
_symmetry_space_group_name_H-M "P C C N"
_symmetry_group_IT_number 56
_symmetry_cell_setting 'orthorhombic'
loop_
_space_group_symop_operation_xyz
x,y,z
1/2-x,1/2-y,z
1/2+x,-y,1/2-z
-x,1/2+y,1/2-z
-x,-y,-z
1/2+x,1/2+y,-z
1/2-x,y,1/2+z
x,1/2-y,1/2+z
loop_
_atom_site_type_symbol
_atom_site_label
_atom_site_fract_x
_atom_site_fract_y
_atom_site_fract_z
Si Si1 0.250000 0.750000 0.121653
Si Si2 0.587835 0.812855 0.035162
Si Si3 0.988210 0.240242 0.656243
Si Si4 0.158377 0.098931 0.734940
Si Si5 0.750000 0.750000 0.080484
O O1 0.196275 0.675768 0.222184
O O2 0.267232 0.498381 0.021320
O O3 0.604626 0.596975 0.160167
O O4 0.570612 0.114186 0.097232
O O5 0.532109 0.674502 0.968883
O O6 0.639193 0.829279 0.924867
O O7 0.979102 0.494549 0.760695
O O8 0.198786 0.326264 0.810955
#
# Coordination Sequence:
#
# PCOD8229802 Si02
#       5
#     4   8   8   8   4
#     4  12  28  54  86 120 174 224 296 360 436 530
#     4  11  26  52  90 127 174 234 289 361 451 522
#     4  11  26  55  83 132 176 229 296 365 433 547
#     4  12  26  57  82 129 169 234 286 368 439 524
#     4  12  28  54  80 122 170 222 294 362 432 530
#
# _framework density 29.265519000000001
#
# number of rings (size 3 to 8) (size 9 to 14) (size 15 to 20)
#    0.000    0.500    5.000    1.500    0.000    6.000 
#   13.500    0.000    0.000    0.000    0.000    0.000 
#    0.000    0.000    0.000    0.000    0.000    0.000 
#
# Total GULP energy -396545.232175 kJ/mol
# GULP energy per Si atom -12392.038505 kJ/mol
# Density = 2.919891 g / cm^3
# Si number density = 29.265519 Si / 1000 Ang^3
#
#
#
# Elastic Constant Matrix: (Units=GPa)
#
#
# Indices 1 2 3 4 5 6 
#
# 1 162.0818 75.7956 91.8660 0.0000 0.0000 0.0000
# 2 75.7956 85.7414 34.4639 0.0000 0.0000 0.0000
# 3 91.8660 34.4639 183.6023 0.0000 0.0000 0.0000
# 4 0.0000 0.0000 0.0000 32.1539 0.0000 0.0000
# 5 0.0000 0.0000 0.0000 0.0000 62.2735 0.0000
# 6 0.0000 0.0000 0.0000 0.0000 0.0000 61.3813
#
#
#
# Elastic Compliance Matrix: (Units=1/GPa)
#
#
# Indices 1 2 3 4 5 6 
#
# 1 0.013723 -0.010136 -0.004964 0.000000 0.000000 0.000000
# 2 -0.010136 0.020101 0.001298 0.000000 0.000000 0.000000
# 3 -0.004964 0.001298 0.007686 0.000000 0.000000 0.000000
# 4 0.000000 0.000000 0.000000 0.031100 0.000000 0.000000
# 5 0.000000 0.000000 0.000000 0.000000 0.016058 0.000000
# 6 0.000000 0.000000 0.000000 0.000000 0.000000 0.016292
#
#
# Mechanical properties :
#
#
# Convention : Reuss Voigt Hill
#
# Bulk Modulus (GPa) = 71.90059 92.85295 82.37677
# Shear Modulus (GPa) = 36.44306 46.44839 41.44573
#
# Velocity S-wave (km/s) = 3.53265 3.98821 3.76732
# Velocity P-wave (km/s) = 6.42348 7.28041 6.86533
#
# Compressibility (1/GPa) = 0.01390809
#
# Stress axis : x y z
#
# Youngs Moduli (GPa) = 72.86950 49.74772 130.09859
#
# Poissons Ratio (x) = 0.50425 0.64578
# Poissons Ratio (y) = 0.73861 -0.16892
# Poissons Ratio (z) = 0.36171 -0.06459
#
# Static dielectric constant tensor:
#      x y z
#    x 5.568710 0.000000 0.000000 
#    y 0.000000 5.342710 0.000000 
#    z 0.000000 0.000000 5.951270 
# 
# 
# High freq. dielectric constant tensor:
#      x y z
#    x 2.213780 0.000000 0.000000 
#    y 0.000000 2.166910 0.000000 
#    z 0.000000 0.000000 2.221240 
# 
# From -- ./inp_files/5065.got.cif
#   From: 2010.03.12/outbox.cif.g09.slc.cpg/sg56_3_cif.got.tgz:5065.got - 2010.04.16 15:33:40.
