data_PCOD8229532
_publ_section_title
;
Structure prediction by ZEFSAII (Michael W. Deem and Ramdas Pophale) SiO2 
 PCOD8229532
Probable space group: P C C N
;
_chemical_formula_sum "Si O2"
_cell_formula_units_Z 36
_cell_length_a 6.519009
_cell_length_b 13.567743
_cell_length_c 17.905385
_cell_angle_alpha 90.000000
_cell_angle_beta 90.000000
_cell_angle_gamma 90.000000
_cell_volume 1583.699767
_symmetry_space_group_name_H-M "P C C N"
_symmetry_group_IT_number 56
_symmetry_cell_setting 'orthorhombic'
loop_
_space_group_symop_operation_xyz
x,y,z
1/2-x,1/2-y,z
1/2+x,-y,1/2-z
-x,1/2+y,1/2-z
-x,-y,-z
1/2+x,1/2+y,-z
1/2-x,y,1/2+z
x,1/2-y,1/2+z
loop_
_atom_site_type_symbol
_atom_site_label
_atom_site_fract_x
_atom_site_fract_y
_atom_site_fract_z
Si Si1 0.390554 0.843138 0.474313
Si Si2 0.660177 0.904713 0.350530
Si Si3 0.568552 0.483837 0.583682
Si Si4 0.923879 0.597250 0.629921
Si Si5 0.750000 0.750000 0.729618
O O1 0.250000 0.750000 0.490744
O O2 0.594540 0.837337 0.422808
O O3 0.258065 0.910315 0.419852
O O4 0.449952 0.889593 0.553307
O O5 0.643135 0.834047 0.279372
O O6 0.892528 0.941519 0.363535
O O7 0.527366 0.002411 0.331087
O O8 0.500000 0.500000 0.500000
O O9 0.677205 0.582253 0.616368
O O10 0.927874 0.696287 0.680057
#
# Coordination Sequence:
#
# PCOD8229532 Si02
#       5
#     8   8   8   8   4
#     4  11  23  42  73 108 134 178 245 299 353 415
#     4  11  24  50  70 102 145 188 238 295 357 423
#     4  11  20  43  77  99 131 177 236 310 345 398
#     4  11  26  45  69 108 140 182 244 292 355 421
#     4  12  30  44  70 104 150 200 226 274 366 452
#
# _framework density 22.731580999999998
#
# number of rings (size 3 to 8) (size 9 to 14) (size 15 to 20)
#    0.000    0.889    4.444    2.667    6.222    0.889 
#    0.000    4.444    0.000    0.000    0.000    0.000 
#    0.000    0.000    0.000    0.000    0.000    0.000 
#
# Total GULP energy -446070.119710 kJ/mol
# GULP energy per Si atom -12390.836659 kJ/mol
# Density = 2.267984 g / cm^3
# Si number density = 22.731581 Si / 1000 Ang^3
#
#
#
# Elastic Constant Matrix: (Units=GPa)
#
#
# Indices 1 2 3 4 5 6 
#
# 1 118.7661 54.7096 40.3023 0.0000 0.0000 0.0000
# 2 54.7096 127.7451 61.1688 0.0000 0.0000 0.0000
# 3 40.3023 61.1688 98.0782 0.0000 0.0000 0.0000
# 4 0.0000 0.0000 0.0000 51.2466 0.0000 0.0000
# 5 0.0000 0.0000 0.0000 0.0000 12.0023 0.0000
# 6 0.0000 0.0000 0.0000 0.0000 0.0000 38.4028
#
#
#
# Elastic Compliance Matrix: (Units=1/GPa)
#
#
# Indices 1 2 3 4 5 6 
#
# 1 0.010817 -0.003571 -0.002218 0.000000 0.000000 0.000000
# 2 -0.003571 0.012340 -0.006229 0.000000 0.000000 0.000000
# 3 -0.002218 -0.006229 0.014992 0.000000 0.000000 0.000000
# 4 0.000000 0.000000 0.000000 0.019514 0.000000 0.000000
# 5 0.000000 0.000000 0.000000 0.000000 0.083318 0.000000
# 6 0.000000 0.000000 0.000000 0.000000 0.000000 0.026040
#
#
# Mechanical properties :
#
#
# Convention : Reuss Voigt Hill
#
# Bulk Modulus (GPa) = 70.85051 72.99452 71.92251
# Shear Modulus (GPa) = 25.54142 32.89090 29.21616
#
# Velocity S-wave (km/s) = 3.35567 3.80797 3.58895
# Velocity P-wave (km/s) = 6.80073 7.17743 6.99162
#
# Compressibility (1/GPa) = 0.01411422
#
# Stress axis : x y z
#
# Youngs Moduli (GPa) = 92.44318 81.03810 66.70142
#
# Poissons Ratio (x) = 0.28936 0.14796
# Poissons Ratio (y) = 0.33008 0.41547
# Poissons Ratio (z) = 0.20506 0.50477
#
# Static dielectric constant tensor:
#      x y z
#    x 5.974050 0.000000 0.000000 
#    y 0.000000 2.064300 0.000000 
#    z 0.000000 0.000000 4.125060 
# 
# 
# High freq. dielectric constant tensor:
#      x y z
#    x 1.899220 0.000000 0.000000 
#    y 0.000000 1.900760 0.000000 
#    z 0.000000 0.000000 1.893040 
# 
# From -- ./inp_files/17369.got.cif
#   From: 2010.03.12/outbox.cif.g09.slc.cpg/sg56_9_cif.got.tgz:17369.got - 2010.04.16 15:33:40.
