data_PCOD8229671
_publ_section_title
;
Structure prediction by ZEFSAII (Michael W. Deem and Ramdas Pophale) SiO2 
 PCOD8229671
Probable space group: P C C N
;
_chemical_formula_sum "Si O2"
_cell_formula_units_Z 64
_cell_length_a 28.505650
_cell_length_b 9.376298
_cell_length_c 9.912553
_cell_angle_alpha 90.000000
_cell_angle_beta 90.000000
_cell_angle_gamma 90.000000
_cell_volume 2649.402078
_symmetry_space_group_name_H-M "P C C N"
_symmetry_group_IT_number 56
_symmetry_cell_setting 'orthorhombic'
loop_
_space_group_symop_operation_xyz
x,y,z
1/2-x,1/2-y,z
1/2+x,-y,1/2-z
-x,1/2+y,1/2-z
-x,-y,-z
1/2+x,1/2+y,-z
1/2-x,y,1/2+z
x,1/2-y,1/2+z
loop_
_atom_site_type_symbol
_atom_site_label
_atom_site_fract_x
_atom_site_fract_y
_atom_site_fract_z
Si Si1 0.850004 0.689475 0.659772
Si Si2 0.020002 0.316257 0.899696
Si Si3 0.464302 0.763836 0.363629
Si Si4 0.901201 0.548333 0.240793
Si Si5 0.571715 0.961496 0.534348
Si Si6 0.854401 0.282470 0.176964
Si Si7 0.201728 0.671994 0.077422
Si Si8 0.203916 0.342595 0.076203
O O1 0.885215 0.788449 0.746303
O O2 0.878646 0.545190 0.618877
O O3 0.834044 0.771964 0.523883
O O4 0.808816 0.655084 0.764592
O O5 0.052280 0.453613 0.857909
O O6 0.053161 0.198510 0.967812
O O7 0.994444 0.246734 0.770849
O O8 0.982799 0.346261 0.020015
O O9 0.409456 0.744152 0.340429
O O10 0.467251 0.930092 0.408150
O O11 0.917137 0.487800 0.383999
O O12 0.855869 0.454413 0.197259
O O13 0.833589 0.189486 0.297915
O O14 0.822823 0.248220 0.047569
O O15 0.250000 0.750000 0.113220
O O16 0.212175 0.507951 0.039735
O O17 0.250000 0.250000 0.056219
#
# Coordination Sequence:
#
# PCOD8229671 Si02
#       8
#     8   8   8   8   8   8   8   8
#     4  11  24  45  74 103 145 185 246 309 368 450
#     4  11  25  42  67 103 139 195 245 303 363 433
#     4  12  25  44  69 103 146 195 248 303 365 448
#     4  11  23  44  73  99 143 195 243 305 367 446
#     4  11  23  44  71  95 145 196 244 299 378 430
#     4  12  27  48  75 108 148 198 250 307 378 454
#     4  12  29  51  78 111 152 196 250 311 389 463
#     4  12  27  46  75 114 144 189 248 311 390 463
#
# _framework density 24.156395
#
# number of rings (size 3 to 8) (size 9 to 14) (size 15 to 20)
#    0.000    0.500    3.750    4.125    3.500    4.500 
#    2.250    0.000    0.000    0.000    0.000    0.000 
#    0.000    0.000    0.000    0.000    0.000    0.000 
#
# Total GULP energy -793321.032844 kJ/mol
# GULP energy per Si atom -12395.641138 kJ/mol
# Density = 2.410141 g / cm^3
# Si number density = 24.156395 Si / 1000 Ang^3
#
#
#
# Elastic Constant Matrix: (Units=GPa)
#
#
# Indices 1 2 3 4 5 6 
#
# 1 104.4081 11.2279 34.7168 0.0000 0.0000 0.0000
# 2 11.2279 30.1427 8.2555 0.0000 0.0000 0.0000
# 3 34.7168 8.2555 129.8754 0.0000 0.0000 0.0000
# 4 0.0000 0.0000 0.0000 24.8128 0.0000 0.0000
# 5 0.0000 0.0000 0.0000 0.0000 46.6879 0.0000
# 6 0.0000 0.0000 0.0000 0.0000 0.0000 52.1847
#
#
#
# Elastic Compliance Matrix: (Units=1/GPa)
#
#
# Indices 1 2 3 4 5 6 
#
# 1 0.010825 -0.003297 -0.002684 0.000000 0.000000 0.000000
# 2 -0.003297 0.034768 -0.001329 0.000000 0.000000 0.000000
# 3 -0.002684 -0.001329 0.008502 0.000000 0.000000 0.000000
# 4 0.000000 0.000000 0.000000 0.040302 0.000000 0.000000
# 5 0.000000 0.000000 0.000000 0.000000 0.021419 0.000000
# 6 0.000000 0.000000 0.000000 0.000000 0.000000 0.019163
#
#
# Mechanical properties :
#
#
# Convention : Reuss Voigt Hill
#
# Bulk Modulus (GPa) = 25.33276 41.42517 33.37896
# Shear Modulus (GPa) = 30.72104 38.75216 34.73660
#
# Velocity S-wave (km/s) = 3.57004 4.00962 3.79619
# Velocity P-wave (km/s) = 5.24436 6.21466 5.75001
#
# Compressibility (1/GPa) = 0.03947458
#
# Stress axis : x y z
#
# Youngs Moduli (GPa) = 92.38030 28.76240 117.62498
#
# Poissons Ratio (x) = 0.09483 0.31570
# Poissons Ratio (y) = 0.30458 0.15628
# Poissons Ratio (z) = 0.24795 0.03822
#
# Static dielectric constant tensor:
#      x y z
#    x 4.667990 0.000000 0.000000 
#    y 0.000000 5.656860 0.000000 
#    z 0.000000 0.000000 4.369020 
# 
# 
# High freq. dielectric constant tensor:
#      x y z
#    x 1.965600 0.000000 0.000000 
#    y 0.000000 1.961270 0.000000 
#    z 0.000000 0.000000 1.966570 
# 
# From -- ./inp_files/5218.got.cif
#   From: 2010.03.12/outbox.cif.g09.slc.cpg/sg56_3_cif.got.tgz:5218.got - 2010.04.16 15:33:40.
