data_PCOD8229900
_publ_section_title
;
Structure prediction by ZEFSAII (Michael W. Deem and Ramdas Pophale) SiO2 
 PCOD8229900
Probable space group: P B C M
;
_chemical_formula_sum "Si O2"
_cell_formula_units_Z 56
_cell_length_a 22.642384
_cell_length_b 5.184559
_cell_length_c 26.438145
_cell_angle_alpha 90.000000
_cell_angle_beta 90.000000
_cell_angle_gamma 90.000000
_cell_volume 3103.594351
_symmetry_space_group_name_H-M "P B C M"
_symmetry_group_IT_number 57
_symmetry_cell_setting 'orthorhombic'
loop_
_space_group_symop_operation_xyz
x,y,z
-x,-y,1/2+z
x,1/2-y,-z
-x,1/2+y,1/2-z
-x,-y,-z
x,y,1/2-z
-x,1/2+y,z
x,1/2-y,1/2+z
loop_
_atom_site_type_symbol
_atom_site_label
_atom_site_fract_x
_atom_site_fract_y
_atom_site_fract_z
Si Si1 0.730486 0.412478 0.367453
Si Si2 0.270745 0.089779 0.806963
Si Si3 0.658601 0.504864 0.466924
Si Si4 0.869403 0.899715 0.193981
Si Si5 0.129654 0.898777 0.135569
Si Si6 0.525721 0.522379 0.443571
Si Si7 0.034930 0.739660 0.940716
O O1 0.707338 0.647005 0.332843
O O2 0.705322 0.446125 0.423375
O O3 0.800744 0.404069 0.373901
O O4 0.707616 0.150952 0.340871
O O5 0.296751 0.066935 0.750000
O O6 0.200777 0.100585 0.804004
O O7 0.680361 0.750000 0.500000
O O8 0.595437 0.570691 0.442589
O O9 0.652192 0.250000 0.500000
O O10 0.895372 0.855129 0.250000
O O11 0.892468 0.671666 0.157696
O O12 0.890410 0.177483 0.174648
O O13 0.097962 0.833046 0.083010
O O14 0.500000 0.500000 0.500000
O O15 0.493276 0.759849 0.415020
O O16 0.988200 0.520091 0.923591
O O17 0.045839 0.750000 0.000000
#
# Coordination Sequence:
#
# PCOD8229900 Si02
#       7
#     8   8   8   8   8   8   8
#     4  10  21  32  48  80 105 132 169 198 260 321
#     4   9  17  33  52  71 100 133 170 215 247 293
#     4  12  21  32  48  71 111 145 163 205 244 293
#     4   9  17  30  53  78  98 129 162 191 247 313
#     4  10  19  34  53  73 103 128 158 210 251 298
#     4  10  16  30  48  67  89 137 178 205 228 275
#     4  10  21  37  56  74  90 125 177 217 240 277
#
# _framework density 18.043593999999999
#
# number of rings (size 3 to 8) (size 9 to 14) (size 15 to 20)
#    0.000    2.000    2.857    2.571    0.000    4.000 
#    0.000    2.143    0.000    8.571    0.000    0.000 
#    0.000   11.429    0.000    0.000    0.000    0.000 
#
# Total GULP energy -694220.774967 kJ/mol
# GULP energy per Si atom -12396.799553 kJ/mol
# Density = 1.800253 g / cm^3
# Si number density = 18.043594 Si / 1000 Ang^3
#
#
#
# Elastic Constant Matrix: (Units=GPa)
#
#
# Indices 1 2 3 4 5 6 
#
# 1 48.2993 26.1166 38.1880 0.0000 0.0000 0.0000
# 2 26.1166 157.5742 45.3553 0.0000 0.0000 0.0000
# 3 38.1880 45.3553 81.6859 0.0000 0.0000 0.0000
# 4 0.0000 0.0000 0.0000 29.5231 0.0000 0.0000
# 5 0.0000 0.0000 0.0000 0.0000 3.5997 0.0000
# 6 0.0000 0.0000 0.0000 0.0000 0.0000 19.3966
#
#
#
# Elastic Compliance Matrix: (Units=1/GPa)
#
#
# Indices 1 2 3 4 5 6 
#
# 1 0.033042 -0.001226 -0.014766 0.000000 0.000000 0.000000
# 2 -0.001226 0.007599 -0.003646 0.000000 0.000000 0.000000
# 3 -0.014766 -0.003646 0.021170 0.000000 0.000000 0.000000
# 4 0.000000 0.000000 0.000000 0.033872 0.000000 0.000000
# 5 0.000000 0.000000 0.000000 0.000000 0.277802 0.000000
# 6 0.000000 0.000000 0.000000 0.000000 0.000000 0.051556
#
#
# Mechanical properties :
#
#
# Convention : Reuss Voigt Hill
#
# Bulk Modulus (GPa) = 44.37783 56.31991 50.34887
# Shear Modulus (GPa) = 10.59707 22.36383 16.48045
#
# Velocity S-wave (km/s) = 2.42606 3.52438 3.02548
# Velocity P-wave (km/s) = 5.70052 6.91684 6.33792
#
# Compressibility (1/GPa) = 0.02253378
#
# Stress axis : x y z
#
# Youngs Moduli (GPa) = 30.26417 131.59827 47.23742
#
# Poissons Ratio (x) = 0.16137 0.69753
# Poissons Ratio (y) = 0.03711 0.17223
# Poissons Ratio (z) = 0.44689 0.47980
#
# Static dielectric constant tensor:
#      x y z
#    x 3.026710 0.000000 0.000000 
#    y 0.000000 3.083340 0.000000 
#    z 0.000000 0.000000 3.185550 
# 
# 
# High freq. dielectric constant tensor:
#      x y z
#    x 1.659700 0.000000 0.000000 
#    y 0.000000 1.731060 0.000000 
#    z 0.000000 0.000000 1.674580 
# 
# From -- ./inp_files/27636.got.cif
#   From: 2010.03.12/outbox.cif.g09.slc.cpg/sg57_14_cif.got.tgz:27636.got - 2010.04.16 15:48:40.
