data_PCOD8229664
_publ_section_title
;
Structure prediction by ZEFSAII (Michael W. Deem and Ramdas Pophale) SiO2 
 PCOD8229664
Probable space group: P C C N
;
_chemical_formula_sum "Si O2"
_cell_formula_units_Z 40
_cell_length_a 8.622733
_cell_length_b 11.055789
_cell_length_c 19.144615
_cell_angle_alpha 90.000000
_cell_angle_beta 90.000000
_cell_angle_gamma 90.000000
_cell_volume 1825.077526
_symmetry_space_group_name_H-M "P C C N"
_symmetry_group_IT_number 56
_symmetry_cell_setting 'orthorhombic'
loop_
_space_group_symop_operation_xyz
x,y,z
1/2-x,1/2-y,z
1/2+x,-y,1/2-z
-x,1/2+y,1/2-z
-x,-y,-z
1/2+x,1/2+y,-z
1/2-x,y,1/2+z
x,1/2-y,1/2+z
loop_
_atom_site_type_symbol
_atom_site_label
_atom_site_fract_x
_atom_site_fract_y
_atom_site_fract_z
Si Si1 0.665366 0.965775 0.472154
Si Si2 0.911475 0.763934 0.881408
Si Si3 0.100398 0.983574 0.404101
Si Si4 0.682719 0.384061 0.359150
Si Si5 0.825589 0.380001 0.701169
O O1 0.647963 0.824516 0.454204
O O2 0.500000 0.000000 0.500000
O O3 0.807857 0.999664 0.523410
O O4 0.693759 0.033962 0.399016
O O5 0.750000 0.750000 0.837657
O O6 0.997064 0.639343 0.902509
O O7 0.011916 0.859565 0.837528
O O8 0.225030 0.976687 0.341921
O O9 0.988325 0.099286 0.393655
O O10 0.750000 0.250000 0.364230
O O11 0.660535 0.429997 0.279559
O O12 0.750000 0.250000 0.703689
#
# Coordination Sequence:
#
# PCOD8229664 Si02
#       5
#     8   8   8   8   8
#     4  12  26  42  71 102 133 183 226 282 344 401
#     4  11  23  43  72  98 133 179 234 270 347 415
#     4  11  24  44  71  97 141 179 223 284 337 406
#     4  11  26  44  68 101 143 175 229 285 338 394
#     4   9  22  44  68 100 132 181 220 281 337 402
#
# _framework density 21.916875999999998
#
# number of rings (size 3 to 8) (size 9 to 14) (size 15 to 20)
#    0.000    1.200    4.000    0.600    5.600    0.000 
#    0.000    4.000    0.000    0.000    0.000    0.000 
#    0.000    0.000    0.000    0.000    0.000    0.000 
#
# Total GULP energy -495570.641153 kJ/mol
# GULP energy per Si atom -12389.266029 kJ/mol
# Density = 2.186699 g / cm^3
# Si number density = 21.916876 Si / 1000 Ang^3
#
#
#
# Elastic Constant Matrix: (Units=GPa)
#
#
# Indices 1 2 3 4 5 6 
#
# 1 193.0483 63.0382 72.4311 0.0000 0.0000 0.0000
# 2 63.0382 85.9616 55.3432 0.0000 0.0000 0.0000
# 3 72.4311 55.3432 143.1995 0.0000 0.0000 0.0000
# 4 0.0000 0.0000 0.0000 25.5197 0.0000 0.0000
# 5 0.0000 0.0000 0.0000 0.0000 26.1319 0.0000
# 6 0.0000 0.0000 0.0000 0.0000 0.0000 40.4320
#
#
#
# Elastic Compliance Matrix: (Units=1/GPa)
#
#
# Indices 1 2 3 4 5 6 
#
# 1 0.007278 -0.003950 -0.002155 0.000000 0.000000 0.000000
# 2 -0.003950 0.017630 -0.004816 0.000000 0.000000 0.000000
# 3 -0.002155 -0.004816 0.009934 0.000000 0.000000 0.000000
# 4 0.000000 0.000000 0.000000 0.039185 0.000000 0.000000
# 5 0.000000 0.000000 0.000000 0.000000 0.038267 0.000000
# 6 0.000000 0.000000 0.000000 0.000000 0.000000 0.024733
#
#
# Mechanical properties :
#
#
# Convention : Reuss Voigt Hill
#
# Bulk Modulus (GPa) = 76.91299 89.31492 83.11395
# Shear Modulus (GPa) = 30.63650 33.84317 32.23984
#
# Velocity S-wave (km/s) = 3.74284 3.93384 3.83953
# Velocity P-wave (km/s) = 7.33810 7.84051 7.59346
#
# Compressibility (1/GPa) = 0.01300171
#
# Stress axis : x y z
#
# Youngs Moduli (GPa) = 137.39230 56.72063 100.66113
#
# Poissons Ratio (x) = 0.22406 0.21691
# Poissons Ratio (y) = 0.54272 0.48475
# Poissons Ratio (z) = 0.29606 0.27315
#
# Static dielectric constant tensor:
#      x y z
#    x 4.079050 0.000000 0.000000 
#    y 0.000000 3.828690 0.000000 
#    z 0.000000 0.000000 4.282810 
# 
# 
# High freq. dielectric constant tensor:
#      x y z
#    x 1.890590 0.000000 0.000000 
#    y 0.000000 1.849230 0.000000 
#    z 0.000000 0.000000 1.859390 
# 
# From -- ./inp_files/14425.got.cif
#   From: 2010.03.12/outbox.cif.g09.slc.cpg/sg56_8_cif.got.tgz:14425.got - 2010.04.16 15:33:40.
