data_PCOD8229281
_publ_section_title
;
Structure prediction by ZEFSAII (Michael W. Deem and Ramdas Pophale) SiO2 
 PCOD8229281
Probable space group: P C C N
;
_chemical_formula_sum "Si O2"
_cell_formula_units_Z 60
_cell_length_a 6.261618
_cell_length_b 22.066300
_cell_length_c 18.688893
_cell_angle_alpha 90.000000
_cell_angle_beta 90.000000
_cell_angle_gamma 90.000000
_cell_volume 2582.258199
_symmetry_space_group_name_H-M "P C C N"
_symmetry_group_IT_number 56
_symmetry_cell_setting 'orthorhombic'
loop_
_space_group_symop_operation_xyz
x,y,z
1/2-x,1/2-y,z
1/2+x,-y,1/2-z
-x,1/2+y,1/2-z
-x,-y,-z
1/2+x,1/2+y,-z
1/2-x,y,1/2+z
x,1/2-y,1/2+z
loop_
_atom_site_type_symbol
_atom_site_label
_atom_site_fract_x
_atom_site_fract_y
_atom_site_fract_z
Si Si1 0.064004 0.202502 0.074149
Si Si2 0.424680 0.062857 0.412088
Si Si3 0.961021 0.783959 0.770510
Si Si4 0.750000 0.250000 0.345812
Si Si5 0.774947 0.991293 0.341492
Si Si6 0.884085 0.915168 0.709864
Si Si7 0.254950 0.658376 0.533676
Si Si8 0.653040 0.907621 0.961749
O O1 0.250000 0.250000 0.054727
O O2 0.938375 0.211543 0.149731
O O3 0.169662 0.136144 0.072499
O O4 0.879409 0.206060 0.014203
O O5 0.290991 0.097195 0.351093
O O6 0.609777 0.103403 0.443756
O O7 0.257594 0.049514 0.476452
O O8 0.544711 0.004500 0.379037
O O9 0.750000 0.750000 0.791784
O O10 0.954200 0.851067 0.739843
O O11 0.061316 0.738420 0.711747
O O12 0.682114 0.307398 0.393188
O O13 0.731314 0.955236 0.269418
O O14 0.918838 0.951671 0.396831
O O15 0.907330 0.051649 0.322500
O O16 0.459129 0.632617 0.491936
#
# Coordination Sequence:
#
# PCOD8229281 Si02
#       8
#     8   8   8   4   8   8   8   8
#     4  10  23  43  70 100 138 178 233 291 352 421
#     4  11  24  44  66 100 138 185 235 298 353 434
#     4  11  25  45  70 102 138 181 229 294 357 427
#     4  12  24  42  68 102 136 178 228 292 352 416
#     4  12  25  43  69 101 138 192 236 302 361 436
#     4  12  25  45  70 104 143 185 241 294 373 435
#     4  11  25  44  70 102 140 188 237 293 356 431
#     4  11  24  44  69 100 140 186 240 290 353 435
#
# _framework density 23.235475000000001
#
# number of rings (size 3 to 8) (size 9 to 14) (size 15 to 20)
#    0.000    0.800    2.667    4.400    0.000   10.667 
#    2.400    0.000    0.000    0.000    0.000    0.000 
#    0.000    0.000    0.000    0.000    0.000    0.000 
#
# Total GULP energy -743640.026894 kJ/mol
# GULP energy per Si atom -12394.000448 kJ/mol
# Density = 2.318259 g / cm^3
# Si number density = 23.235475 Si / 1000 Ang^3
#
#
#
# Elastic Constant Matrix: (Units=GPa)
#
#
# Indices 1 2 3 4 5 6 
#
# 1 83.3754 11.5910 45.8988 0.0000 0.0000 0.0000
# 2 11.5910 64.1185 23.2044 0.0000 0.0000 0.0000
# 3 45.8988 23.2044 151.1756 0.0000 0.0000 0.0000
# 4 0.0000 0.0000 0.0000 24.7985 0.0000 0.0000
# 5 0.0000 0.0000 0.0000 0.0000 39.4679 0.0000
# 6 0.0000 0.0000 0.0000 0.0000 0.0000 36.1282
#
#
#
# Elastic Compliance Matrix: (Units=1/GPa)
#
#
# Indices 1 2 3 4 5 6 
#
# 1 0.014472 -0.001086 -0.004227 0.000000 0.000000 0.000000
# 2 -0.001086 0.016595 -0.002217 0.000000 0.000000 0.000000
# 3 -0.004227 -0.002217 0.008239 0.000000 0.000000 0.000000
# 4 0.000000 0.000000 0.000000 0.040325 0.000000 0.000000
# 5 0.000000 0.000000 0.000000 0.000000 0.025337 0.000000
# 6 0.000000 0.000000 0.000000 0.000000 0.000000 0.027679
#
#
# Mechanical properties :
#
#
# Convention : Reuss Voigt Hill
#
# Bulk Modulus (GPa) = 41.24765 51.11756 46.18261
# Shear Modulus (GPa) = 32.09450 34.61061 33.35256
#
# Velocity S-wave (km/s) = 3.72058 3.86367 3.79280
# Velocity P-wave (km/s) = 6.02059 6.47699 6.25296
#
# Compressibility (1/GPa) = 0.02424381
#
# Stress axis : x y z
#
# Youngs Moduli (GPa) = 69.09871 60.25915 121.37996
#
# Poissons Ratio (x) = 0.06546 0.51309
# Poissons Ratio (y) = 0.07507 0.26915
# Poissons Ratio (z) = 0.29209 0.13362
#
# Static dielectric constant tensor:
#      x y z
#    x 4.211720 0.000000 0.000000 
#    y 0.000000 3.965220 0.000000 
#    z 0.000000 0.000000 4.636060 
# 
# 
# High freq. dielectric constant tensor:
#      x y z
#    x 1.910580 0.000000 0.000000 
#    y 0.000000 1.913470 0.000000 
#    z 0.000000 0.000000 1.950840 
# 
# From -- ./inp_files/14115.got.cif
#   From: 2010.03.12/outbox.cif.g09.slc.cpg/sg56_8_cif.got.tgz:14115.got - 2010.04.16 15:33:40.
