data_PCOD8229236
_publ_section_title
;
Structure prediction by ZEFSAII (Michael W. Deem and Ramdas Pophale) SiO2 
 PCOD8229236
Probable space group: P C C N
;
_chemical_formula_sum "Si O2"
_cell_formula_units_Z 40
_cell_length_a 8.456648
_cell_length_b 8.595845
_cell_length_c 26.195090
_cell_angle_alpha 90.000000
_cell_angle_beta 90.000000
_cell_angle_gamma 90.000000
_cell_volume 1904.174410
_symmetry_space_group_name_H-M "P C C N"
_symmetry_group_IT_number 56
_symmetry_cell_setting 'orthorhombic'
loop_
_space_group_symop_operation_xyz
x,y,z
1/2-x,1/2-y,z
1/2+x,-y,1/2-z
-x,1/2+y,1/2-z
-x,-y,-z
1/2+x,1/2+y,-z
1/2-x,y,1/2+z
x,1/2-y,1/2+z
loop_
_atom_site_type_symbol
_atom_site_label
_atom_site_fract_x
_atom_site_fract_y
_atom_site_fract_z
Si Si1 0.681228 0.570613 0.500712
Si Si2 0.693868 0.582637 0.802303
Si Si3 0.683165 0.084104 0.403107
Si Si4 0.177873 0.583960 0.293873
Si Si5 0.688400 0.578265 0.103994
O O1 0.750000 0.750000 0.507756
O O2 0.500000 0.500000 0.500000
O O3 0.764251 0.527022 0.448505
O O4 0.743505 0.494168 0.553261
O O5 0.750000 0.750000 0.820003
O O6 0.748281 0.468967 0.848067
O O7 0.775496 0.536502 0.749812
O O8 0.508676 0.588959 0.794456
O O9 0.750000 0.250000 0.417231
O O10 0.497221 0.088234 0.401627
O O11 0.250000 0.750000 0.279942
O O12 0.243303 0.527499 0.348422
O O13 0.750000 0.750000 0.115016
#
# Coordination Sequence:
#
# PCOD8229236 Si02
#       5
#     8   8   8   8   8
#     4  11  24  42  66  95 128 168 212 263 320 382
#     4  11  24  41  63  90 124 162 205 256 312 375
#     4  11  23  40  64  93 126 165 210 259 314 376
#     4  11  24  40  63  91 121 161 206 255 311 371
#     4  10  23  41  61  89 124 164 206 255 310 372
#
# _framework density 21.00648
#
# number of rings (size 3 to 8) (size 9 to 14) (size 15 to 20)
#    0.000    1.200    0.000    6.000    0.000   13.600 
#    0.000    0.000    0.000    0.000    0.000    0.000 
#    0.000    0.000    0.000    0.000    0.000    0.000 
#
# Total GULP energy -495564.625609 kJ/mol
# GULP energy per Si atom -12389.115640 kJ/mol
# Density = 2.095867 g / cm^3
# Si number density = 21.006480 Si / 1000 Ang^3
#
#
#
# Elastic Constant Matrix: (Units=GPa)
#
#
# Indices 1 2 3 4 5 6 
#
# 1 76.8957 37.5210 55.9448 0.0000 0.0000 0.0000
# 2 37.5210 74.5320 24.1457 0.0000 0.0000 0.0000
# 3 55.9448 24.1457 156.1333 0.0000 0.0000 0.0000
# 4 0.0000 0.0000 0.0000 17.6733 0.0000 0.0000
# 5 0.0000 0.0000 0.0000 0.0000 47.4405 0.0000
# 6 0.0000 0.0000 0.0000 0.0000 0.0000 36.3003
#
#
#
# Elastic Compliance Matrix: (Units=1/GPa)
#
#
# Indices 1 2 3 4 5 6 
#
# 1 0.022184 -0.009046 -0.006550 0.000000 0.000000 0.000000
# 2 -0.009046 0.017813 0.000486 0.000000 0.000000 0.000000
# 3 -0.006550 0.000486 0.008676 0.000000 0.000000 0.000000
# 4 0.000000 0.000000 0.000000 0.056582 0.000000 0.000000
# 5 0.000000 0.000000 0.000000 0.000000 0.021079 0.000000
# 6 0.000000 0.000000 0.000000 0.000000 0.000000 0.027548
#
#
# Mechanical properties :
#
#
# Convention : Reuss Voigt Hill
#
# Bulk Modulus (GPa) = 54.18560 60.30934 57.24747
# Shear Modulus (GPa) = 26.28075 32.94614 29.61344
#
# Velocity S-wave (km/s) = 3.54090 3.96457 3.75871
# Velocity P-wave (km/s) = 6.52441 7.05190 6.79328
#
# Compressibility (1/GPa) = 0.01845509
#
# Stress axis : x y z
#
# Youngs Moduli (GPa) = 45.07792 56.13765 115.25452
#
# Poissons Ratio (x) = 0.50782 0.75490
# Poissons Ratio (y) = 0.40777 -0.05607
# Poissons Ratio (z) = 0.29525 -0.02731
#
# Static dielectric constant tensor:
#      x y z
#    x 4.263290 0.000000 0.000000 
#    y 0.000000 3.904390 0.000000 
#    z 0.000000 0.000000 4.343300 
# 
# 
# High freq. dielectric constant tensor:
#      x y z
#    x 1.832710 0.000000 0.000000 
#    y 0.000000 1.822100 0.000000 
#    z 0.000000 0.000000 1.854350 
# 
# From -- ./inp_files/20314.got.cif
#   From: 2010.03.12/outbox.cif.g09.slc.cpg/sg56_11_cif.got.tgz:20314.got - 2010.04.16 15:33:40.
