data_PCOD8229763
_publ_section_title
;
Structure prediction by ZEFSAII (Michael W. Deem and Ramdas Pophale) SiO2 
 PCOD8229763
Probable space group: P C C N
;
_chemical_formula_sum "Si O2"
_cell_formula_units_Z 32
_cell_length_a 5.000406
_cell_length_b 12.221404
_cell_length_c 20.590058
_cell_angle_alpha 90.000000
_cell_angle_beta 90.000000
_cell_angle_gamma 90.000000
_cell_volume 1258.299252
_symmetry_space_group_name_H-M "P C C N"
_symmetry_group_IT_number 56
_symmetry_cell_setting 'orthorhombic'
loop_
_space_group_symop_operation_xyz
x,y,z
1/2-x,1/2-y,z
1/2+x,-y,1/2-z
-x,1/2+y,1/2-z
-x,-y,-z
1/2+x,1/2+y,-z
1/2-x,y,1/2+z
x,1/2-y,1/2+z
loop_
_atom_site_type_symbol
_atom_site_label
_atom_site_fract_x
_atom_site_fract_y
_atom_site_fract_z
Si Si1 0.425313 0.107384 0.960027
Si Si2 0.543836 0.651125 0.842697
Si Si3 0.750000 0.250000 0.772375
Si Si4 0.750000 0.250000 0.548414
Si Si5 0.907254 0.408139 0.373354
O O1 0.617947 0.124755 0.899449
O O2 0.124280 0.103892 0.931503
O O3 0.491773 0.210708 0.006723
O O4 0.500000 0.000000 0.000000
O O5 0.750000 0.750000 0.854292
O O6 0.409215 0.665745 0.772909
O O7 0.339117 0.651919 0.903622
O O8 0.649613 0.528305 0.844407
O O9 0.540981 0.322688 0.814838
#
# Coordination Sequence:
#
# PCOD8229763 Si02
#       5
#     8   8   4   4   8
#     4  12  26  49  79 115 159 204 259 331 401 487
#     4  11  27  49  82 109 160 215 271 337 398 489
#     4  11  31  50  76 118 153 217 270 332 394 477
#     4  11  25  46  78 122 155 209 266 326 420 481
#     4  12  29  51  79 116 160 207 267 331 407 473
#
# _framework density 25.431151
#
# number of rings (size 3 to 8) (size 9 to 14) (size 15 to 20)
#    0.000    0.500    2.500    3.000   14.000    2.000 
#    0.000    0.000    0.000    0.000    0.000    0.000 
#    0.000    0.000    0.000    0.000    0.000    0.000 
#
# Total GULP energy -396582.242385 kJ/mol
# GULP energy per Si atom -12393.195075 kJ/mol
# Density = 2.537327 g / cm^3
# Si number density = 25.431151 Si / 1000 Ang^3
#
#
#
# Elastic Constant Matrix: (Units=GPa)
#
#
# Indices 1 2 3 4 5 6 
#
# 1 83.0500 30.2082 30.5106 0.0000 0.0000 0.0000
# 2 30.2082 137.1923 77.4902 0.0000 0.0000 0.0000
# 3 30.5106 77.4902 153.8558 0.0000 0.0000 0.0000
# 4 0.0000 0.0000 0.0000 29.9249 0.0000 0.0000
# 5 0.0000 0.0000 0.0000 0.0000 34.4432 0.0000
# 6 0.0000 0.0000 0.0000 0.0000 0.0000 38.2415
#
#
#
# Elastic Compliance Matrix: (Units=1/GPa)
#
#
# Indices 1 2 3 4 5 6 
#
# 1 0.013377 -0.002022 -0.001634 0.000000 0.000000 0.000000
# 2 -0.002022 0.010493 -0.004884 0.000000 0.000000 0.000000
# 3 -0.001634 -0.004884 0.009283 0.000000 0.000000 0.000000
# 4 0.000000 0.000000 0.000000 0.033417 0.000000 0.000000
# 5 0.000000 0.000000 0.000000 0.000000 0.029033 0.000000
# 6 0.000000 0.000000 0.000000 0.000000 0.000000 0.026150
#
#
# Mechanical properties :
#
#
# Convention : Reuss Voigt Hill
#
# Bulk Modulus (GPa) = 62.21782 72.27955 67.24869
# Shear Modulus (GPa) = 34.67624 36.24787 35.46205
#
# Velocity S-wave (km/s) = 3.69661 3.77945 3.73826
# Velocity P-wave (km/s) = 6.53745 6.89413 6.71816
#
# Compressibility (1/GPa) = 0.01607256
#
# Stress axis : x y z
#
# Youngs Moduli (GPa) = 74.75564 95.30333 107.71983
#
# Poissons Ratio (x) = 0.19275 0.17603
# Poissons Ratio (y) = 0.15119 0.52607
# Poissons Ratio (z) = 0.12216 0.46543
#
# Static dielectric constant tensor:
#      x y z
#    x 4.680050 0.000000 0.000000 
#    y 0.000000 5.469710 0.000000 
#    z 0.000000 0.000000 4.845470 
# 
# 
# High freq. dielectric constant tensor:
#      x y z
#    x 2.000610 0.000000 0.000000 
#    y 0.000000 2.029930 0.000000 
#    z 0.000000 0.000000 2.035630 
# 
# From -- ./inp_files/17304.got.cif
#   From: 2010.03.12/outbox.cif.g09.slc.cpg/sg56_9_cif.got.tgz:17304.got - 2010.04.16 15:33:40.
