data_PCOD8229784
_publ_section_title
;
Structure prediction by ZEFSAII (Michael W. Deem and Ramdas Pophale) SiO2 
 PCOD8229784
Probable space group: P C C N
;
_chemical_formula_sum "Si O2"
_cell_formula_units_Z 36
_cell_length_a 7.812051
_cell_length_b 8.499159
_cell_length_c 22.423186
_cell_angle_alpha 90.000000
_cell_angle_beta 90.000000
_cell_angle_gamma 90.000000
_cell_volume 1488.806798
_symmetry_space_group_name_H-M "P C C N"
_symmetry_group_IT_number 56
_symmetry_cell_setting 'orthorhombic'
loop_
_space_group_symop_operation_xyz
x,y,z
1/2-x,1/2-y,z
1/2+x,-y,1/2-z
-x,1/2+y,1/2-z
-x,-y,-z
1/2+x,1/2+y,-z
1/2-x,y,1/2+z
x,1/2-y,1/2+z
loop_
_atom_site_type_symbol
_atom_site_label
_atom_site_fract_x
_atom_site_fract_y
_atom_site_fract_z
Si Si1 0.504373 0.214028 0.803307
Si Si2 0.306807 0.499157 0.774778
Si Si3 0.434877 0.683622 0.067061
Si Si4 0.250000 0.750000 0.372692
Si Si5 0.072999 0.318081 0.558980
O O1 0.480357 0.390272 0.776761
O O2 0.353805 0.115100 0.772294
O O3 0.497654 0.221271 0.875008
O O4 0.677130 0.122989 0.780940
O O5 0.290114 0.595783 0.835266
O O6 0.250000 0.750000 0.049072
O O7 0.429580 0.498418 0.079427
O O8 0.564164 0.709218 0.012260
O O9 0.417187 0.719383 0.412803
O O10 0.250000 0.250000 0.583602
#
# Coordination Sequence:
#
# PCOD8229784 Si02
#       5
#     8   8   8   4   8
#     4  11  26  48  71 111 145 207 249 329 374 477
#     4  11  26  46  76 101 157 194 262 310 398 452
#     4  11  26  48  77 110 155 197 260 322 397 473
#     4  12  24  50  70 116 152 206 254 330 374 486
#     4  11  27  49  78 116 154 203 257 327 400 473
#
# _framework density 24.180437999999999
#
# number of rings (size 3 to 8) (size 9 to 14) (size 15 to 20)
#    0.000    0.889    3.333    1.333   10.889    0.889 
#    4.000    0.000    0.000    0.000    0.000    0.000 
#    0.000    0.000    0.000    0.000    0.000    0.000 
#
# Total GULP energy -446305.470766 kJ/mol
# GULP energy per Si atom -12397.374188 kJ/mol
# Density = 2.412540 g / cm^3
# Si number density = 24.180438 Si / 1000 Ang^3
#
#
#
# Elastic Constant Matrix: (Units=GPa)
#
#
# Indices 1 2 3 4 5 6 
#
# 1 114.7762 55.3686 42.0390 0.0000 0.0000 0.0000
# 2 55.3686 135.5762 69.7922 0.0000 0.0000 0.0000
# 3 42.0390 69.7922 136.1074 0.0000 0.0000 0.0000
# 4 0.0000 0.0000 0.0000 20.8492 0.0000 0.0000
# 5 0.0000 0.0000 0.0000 0.0000 27.8975 0.0000
# 6 0.0000 0.0000 0.0000 0.0000 0.0000 46.0396
#
#
#
# Elastic Compliance Matrix: (Units=1/GPa)
#
#
# Indices 1 2 3 4 5 6 
#
# 1 0.011070 -0.003751 -0.001496 0.000000 0.000000 0.000000
# 2 -0.003751 0.011292 -0.004632 0.000000 0.000000 0.000000
# 3 -0.001496 -0.004632 0.010184 0.000000 0.000000 0.000000
# 4 0.000000 0.000000 0.000000 0.047963 0.000000 0.000000
# 5 0.000000 0.000000 0.000000 0.000000 0.035845 0.000000
# 6 0.000000 0.000000 0.000000 0.000000 0.000000 0.021720
#
#
# Mechanical properties :
#
#
# Convention : Reuss Voigt Hill
#
# Bulk Modulus (GPa) = 78.19007 80.09549 79.14278
# Shear Modulus (GPa) = 30.84600 33.57460 32.21030
#
# Velocity S-wave (km/s) = 3.57551 3.73030 3.65373
# Velocity P-wave (km/s) = 7.03221 7.19372 7.11342
#
# Compressibility (1/GPa) = 0.01278935
#
# Stress axis : x y z
#
# Youngs Moduli (GPa) = 90.33490 88.55731 98.19151
#
# Poissons Ratio (x) = 0.33217 0.14687
# Poissons Ratio (y) = 0.33884 0.45480
# Poissons Ratio (z) = 0.13512 0.41018
#
# Static dielectric constant tensor:
#      x y z
#    x 4.550860 0.000000 0.000000 
#    y 0.000000 4.601000 0.000000 
#    z 0.000000 0.000000 4.162210 
# 
# 
# High freq. dielectric constant tensor:
#      x y z
#    x 1.972650 0.000000 0.000000 
#    y 0.000000 1.975140 0.000000 
#    z 0.000000 0.000000 1.951160 
# 
# From -- ./inp_files/17859.got.cif
#   From: 2010.03.12/outbox.cif.g09.slc.cpg/sg56_9_cif.got.tgz:17859.got - 2010.04.16 15:33:40.
