data_PCOD8229522
_publ_section_title
;
Structure prediction by ZEFSAII (Michael W. Deem and Ramdas Pophale) SiO2 
 PCOD8229522
Probable space group: P C C N
;
_chemical_formula_sum "Si O2"
_cell_formula_units_Z 56
_cell_length_a 8.552403
_cell_length_b 13.461652
_cell_length_c 21.584092
_cell_angle_alpha 90.000000
_cell_angle_beta 90.000000
_cell_angle_gamma 90.000000
_cell_volume 2484.965136
_symmetry_space_group_name_H-M "P C C N"
_symmetry_group_IT_number 56
_symmetry_cell_setting 'orthorhombic'
loop_
_space_group_symop_operation_xyz
x,y,z
1/2-x,1/2-y,z
1/2+x,-y,1/2-z
-x,1/2+y,1/2-z
-x,-y,-z
1/2+x,1/2+y,-z
1/2-x,y,1/2+z
x,1/2-y,1/2+z
loop_
_atom_site_type_symbol
_atom_site_label
_atom_site_fract_x
_atom_site_fract_y
_atom_site_fract_z
Si Si1 0.968538 0.167110 0.522408
Si Si2 0.995525 0.984782 0.695467
Si Si3 0.725286 0.365754 0.219473
Si Si4 0.770884 0.586404 0.895110
Si Si5 0.155030 0.345131 0.906933
Si Si6 0.210810 0.992122 0.986417
Si Si7 0.443366 0.646685 0.905254
O O1 0.863815 0.070821 0.533625
O O2 0.126406 0.156292 0.561733
O O3 0.005393 0.185631 0.449402
O O4 0.887586 0.261040 0.553561
O O5 0.897546 0.914248 0.649869
O O6 0.078113 0.913140 0.745039
O O7 0.881290 0.066291 0.728189
O O8 0.134939 0.045925 0.663284
O O9 0.750000 0.250000 0.240787
O O10 0.686897 0.368118 0.146857
O O11 0.616460 0.648800 0.874324
O O12 0.710697 0.496124 0.938952
O O13 0.250000 0.250000 0.880780
O O14 0.272238 0.401813 0.953186
O O15 0.057225 0.941655 0.956934
#
# Coordination Sequence:
#
# PCOD8229522 Si02
#       7
#     8   8   8   8   8   8   8
#     4  11  20  39  67 102 142 185 224 287 360 419
#     4  12  25  51  73  99 144 187 239 307 359 409
#     4  12  28  50  75 102 140 190 243 295 355 433
#     4  11  21  39  65 100 140 177 227 283 347 415
#     4  11  22  41  68  99 140 184 234 288 360 423
#     4  11  20  40  64 100 144 176 218 289 349 409
#     4  12  23  39  68 105 135 183 231 277 346 434
#
# _framework density 22.535527999999999
#
# number of rings (size 3 to 8) (size 9 to 14) (size 15 to 20)
#    0.000    0.571    4.286    6.429    0.000    1.143 
#    5.143    2.857    0.000    0.000    0.000    0.000 
#    0.000    0.000    0.000    0.000    0.000    0.000 
#
# Total GULP energy -694025.814303 kJ/mol
# GULP energy per Si atom -12393.318113 kJ/mol
# Density = 2.248424 g / cm^3
# Si number density = 22.535528 Si / 1000 Ang^3
#
#
#
# Elastic Constant Matrix: (Units=GPa)
#
#
# Indices 1 2 3 4 5 6 
#
# 1 83.1044 30.9774 4.9191 0.0000 0.0000 0.0000
# 2 30.9774 117.5303 28.9873 0.0000 0.0000 0.0000
# 3 4.9191 28.9873 69.1194 0.0000 0.0000 0.0000
# 4 0.0000 0.0000 0.0000 25.4633 0.0000 0.0000
# 5 0.0000 0.0000 0.0000 0.0000 22.7426 0.0000
# 6 0.0000 0.0000 0.0000 0.0000 0.0000 38.9180
#
#
#
# Elastic Compliance Matrix: (Units=1/GPa)
#
#
# Indices 1 2 3 4 5 6 
#
# 1 0.013365 -0.003667 0.000587 0.000000 0.000000 0.000000
# 2 -0.003667 0.010496 -0.004141 0.000000 0.000000 0.000000
# 3 0.000587 -0.004141 0.016163 0.000000 0.000000 0.000000
# 4 0.000000 0.000000 0.000000 0.039272 0.000000 0.000000
# 5 0.000000 0.000000 0.000000 0.000000 0.043970 0.000000
# 6 0.000000 0.000000 0.000000 0.000000 0.000000 0.025695
#
#
# Mechanical properties :
#
#
# Convention : Reuss Voigt Hill
#
# Bulk Modulus (GPa) = 39.09112 44.39128 41.74120
# Shear Modulus (GPa) = 29.08125 31.08281 30.08203
#
# Velocity S-wave (km/s) = 3.59620 3.71790 3.65755
# Velocity P-wave (km/s) = 5.88452 6.17830 6.03320
#
# Compressibility (1/GPa) = 0.02558126
#
# Stress axis : x y z
#
# Youngs Moduli (GPa) = 74.82022 95.27092 61.87130
#
# Poissons Ratio (x) = 0.34940 -0.03631
# Poissons Ratio (y) = 0.27440 0.25621
# Poissons Ratio (z) = -0.04391 0.39451
#
# Static dielectric constant tensor:
#      x y z
#    x 4.146370 0.000000 0.000000 
#    y 0.000000 4.165910 0.000000 
#    z 0.000000 0.000000 3.945490 
# 
# 
# High freq. dielectric constant tensor:
#      x y z
#    x 1.905200 0.000000 0.000000 
#    y 0.000000 1.891160 0.000000 
#    z 0.000000 0.000000 1.866490 
# 
# From -- ./inp_files/18232.got.cif
#   From: 2010.03.12/outbox.cif.g09.slc.cpg/sg56_10_cif.got.tgz:18232.got - 2010.04.16 15:33:40.
