data_PCOD8229441
_publ_section_title
;
Structure prediction by ZEFSAII (Michael W. Deem and Ramdas Pophale) SiO2 
 PCOD8229441
Probable space group: P C C N
;
_chemical_formula_sum "Si O2"
_cell_formula_units_Z 56
_cell_length_a 21.417333
_cell_length_b 7.740034
_cell_length_c 13.910255
_cell_angle_alpha 90.000000
_cell_angle_beta 90.000000
_cell_angle_gamma 90.000000
_cell_volume 2305.915290
_symmetry_space_group_name_H-M "P C C N"
_symmetry_group_IT_number 56
_symmetry_cell_setting 'orthorhombic'
loop_
_space_group_symop_operation_xyz
x,y,z
1/2-x,1/2-y,z
1/2+x,-y,1/2-z
-x,1/2+y,1/2-z
-x,-y,-z
1/2+x,1/2+y,-z
1/2-x,y,1/2+z
x,1/2-y,1/2+z
loop_
_atom_site_type_symbol
_atom_site_label
_atom_site_fract_x
_atom_site_fract_y
_atom_site_fract_z
Si Si1 0.993348 0.740653 0.156504
Si Si2 0.931690 0.948915 0.421894
Si Si3 0.250000 0.750000 0.559681
Si Si4 0.750000 0.750000 0.200339
Si Si5 0.638293 0.696263 0.590739
Si Si6 0.486264 0.863381 0.367871
Si Si7 0.323792 0.966486 0.209268
Si Si8 0.150051 0.592785 0.418716
O O1 0.016765 0.604476 0.073013
O O2 0.024127 0.697635 0.258418
O O3 0.918791 0.714354 0.166377
O O4 0.009954 0.937334 0.126470
O O5 0.881879 0.939355 0.508615
O O6 0.962338 0.758828 0.416816
O O7 0.894059 0.001604 0.326413
O O8 0.221806 0.891620 0.629896
O O9 0.192260 0.687018 0.496363
O O10 0.796550 0.626178 0.136542
O O11 0.703395 0.652444 0.268863
O O12 0.654497 0.889930 0.555702
O O13 0.421529 0.842413 0.426114
O O14 0.326340 0.862583 0.310292
#
# Coordination Sequence:
#
# PCOD8229441 Si02
#       8
#     8   8   4   4   8   8   8   8
#     4  11  22  45  71 108 144 200 253 304 381 452
#     4  12  25  44  74 114 145 193 265 307 383 463
#     4  12  28  46  78 106 150 196 252 314 374 458
#     4  10  24  50  78  98 148 196 250 314 382 448
#     4  10  25  44  74 104 147 196 250 312 374 454
#     4  11  22  46  74 102 154 198 244 318 382 443
#     4  11  26  49  74 109 145 195 257 305 378 460
#     4  10  24  50  69 109 152 192 247 316 380 446
#
# _framework density 24.285368999999999
#
# number of rings (size 3 to 8) (size 9 to 14) (size 15 to 20)
#    0.000    1.143    2.857    2.571    6.000    5.714 
#    5.143    0.000    0.000    0.000    0.000    0.000 
#    0.000    0.000    0.000    0.000    0.000    0.000 
#
# Total GULP energy -694146.017799 kJ/mol
# GULP energy per Si atom -12395.464604 kJ/mol
# Density = 2.423009 g / cm^3
# Si number density = 24.285369 Si / 1000 Ang^3
#
#
#
# Elastic Constant Matrix: (Units=GPa)
#
#
# Indices 1 2 3 4 5 6 
#
# 1 120.3296 47.7439 32.4929 0.0000 0.0000 0.0000
# 2 47.7439 104.2151 31.2776 0.0000 0.0000 0.0000
# 3 32.4929 31.2776 92.6382 0.0000 0.0000 0.0000
# 4 0.0000 0.0000 0.0000 16.5691 0.0000 0.0000
# 5 0.0000 0.0000 0.0000 0.0000 8.9289 0.0000
# 6 0.0000 0.0000 0.0000 0.0000 0.0000 35.5132
#
#
#
# Elastic Compliance Matrix: (Units=1/GPa)
#
#
# Indices 1 2 3 4 5 6 
#
# 1 0.010583 -0.004155 -0.002309 0.000000 0.000000 0.000000
# 2 -0.004155 0.012309 -0.002698 0.000000 0.000000 0.000000
# 3 -0.002309 -0.002698 0.012516 0.000000 0.000000 0.000000
# 4 0.000000 0.000000 0.000000 0.060353 0.000000 0.000000
# 5 0.000000 0.000000 0.000000 0.000000 0.111996 0.000000
# 6 0.000000 0.000000 0.000000 0.000000 0.000000 0.028159
#
#
# Mechanical properties :
#
#
# Convention : Reuss Voigt Hill
#
# Bulk Modulus (GPa) = 58.54095 60.02349 59.28222
# Shear Modulus (GPa) = 19.23562 25.91349 22.57455
#
# Velocity S-wave (km/s) = 2.81742 3.27010 3.05217
# Velocity P-wave (km/s) = 5.89420 6.24721 6.07327
#
# Compressibility (1/GPa) = 0.01708206
#
# Stress axis : x y z
#
# Youngs Moduli (GPa) = 94.49381 81.24093 79.90006
#
# Poissons Ratio (x) = 0.33758 0.18448
# Poissons Ratio (y) = 0.39265 0.21561
# Poissons Ratio (z) = 0.21818 0.21923
#
# Static dielectric constant tensor:
#      x y z
#    x 4.911340 0.000000 0.000000 
#    y 0.000000 4.246970 0.000000 
#    z 0.000000 0.000000 4.425150 
# 
# 
# High freq. dielectric constant tensor:
#      x y z
#    x 1.982770 0.000000 0.000000 
#    y 0.000000 1.951060 0.000000 
#    z 0.000000 0.000000 1.969300 
# 
# From -- ./inp_files/13106.got.cif
#   From: 2010.03.12/outbox.cif.g09.slc.cpg/sg56_7_cif.got.tgz:13106.got - 2010.04.16 15:33:40.
