data_PCOD8229570
_publ_section_title
;
Structure prediction by ZEFSAII (Michael W. Deem and Ramdas Pophale) SiO2 
 PCOD8229570
Probable space group: P C C N
;
_chemical_formula_sum "Si O2"
_cell_formula_units_Z 48
_cell_length_a 13.019899
_cell_length_b 13.242203
_cell_length_c 13.186885
_cell_angle_alpha 90.000000
_cell_angle_beta 90.000000
_cell_angle_gamma 90.000000
_cell_volume 2273.579137
_symmetry_space_group_name_H-M "P C C N"
_symmetry_group_IT_number 56
_symmetry_cell_setting 'orthorhombic'
loop_
_space_group_symop_operation_xyz
x,y,z
1/2-x,1/2-y,z
1/2+x,-y,1/2-z
-x,1/2+y,1/2-z
-x,-y,-z
1/2+x,1/2+y,-z
1/2-x,y,1/2+z
x,1/2-y,1/2+z
loop_
_atom_site_type_symbol
_atom_site_label
_atom_site_fract_x
_atom_site_fract_y
_atom_site_fract_z
Si Si1 0.602322 0.882556 0.496728
Si Si2 0.250000 0.250000 0.236339
Si Si3 0.910964 0.823794 0.403002
Si Si4 0.114085 0.903638 0.092823
Si Si5 0.187115 0.388239 0.897853
Si Si6 0.378567 0.605020 0.328326
Si Si7 0.750000 0.250000 0.037148
O O1 0.571411 0.796763 0.415210
O O2 0.506606 0.892831 0.571891
O O3 0.699037 0.854819 0.566499
O O4 0.638788 0.981555 0.436328
O O5 0.310428 0.167481 0.167806
O O6 0.332347 0.315037 0.301952
O O7 0.895346 0.869735 0.514419
O O8 0.000380 0.888844 0.351421
O O9 0.139083 0.881722 0.209296
O O10 0.186182 0.828184 0.030471
O O11 0.175858 0.503369 0.864784
O O12 0.329903 0.696164 0.389832
#
# Coordination Sequence:
#
# PCOD8229570 Si02
#       7
#     8   4   8   8   8   8   4
#     4  11  21  46  70  94 141 173 224 290 342 392
#     4  12  22  40  76  98 136 184 230 276 344 418
#     4  12  24  43  67 101 138 175 222 288 337 403
#     4  11  25  45  70 100 134 186 226 282 343 417
#     4  12  24  43  67 101 138 175 222 288 337 403
#     4  12  27  43  67 102 130 180 231 269 350 415
#     4  12  24  48  70  88 144 172 224 290 336 402
#
# _framework density 21.112086999999999
#
# number of rings (size 3 to 8) (size 9 to 14) (size 15 to 20)
#    0.000    0.333    6.667    3.000    0.000    0.000 
#    0.000    0.000    0.000    0.000    0.000    0.000 
#    0.000    0.000    0.000    0.000    0.000    0.000 
#
# Total GULP energy -595219.697711 kJ/mol
# GULP energy per Si atom -12400.410369 kJ/mol
# Density = 2.106403 g / cm^3
# Si number density = 21.112087 Si / 1000 Ang^3
#
#
#
# Elastic Constant Matrix: (Units=GPa)
#
#
# Indices 1 2 3 4 5 6 
#
# 1 71.6417 11.1205 30.4139 0.0000 0.0000 0.0000
# 2 11.1205 86.3056 38.5733 0.0000 0.0000 0.0000
# 3 30.4139 38.5733 150.3733 0.0000 0.0000 0.0000
# 4 0.0000 0.0000 0.0000 8.1111 0.0000 0.0000
# 5 0.0000 0.0000 0.0000 0.0000 30.3686 0.0000
# 6 0.0000 0.0000 0.0000 0.0000 0.0000 33.9212
#
#
#
# Elastic Compliance Matrix: (Units=1/GPa)
#
#
# Indices 1 2 3 4 5 6 
#
# 1 0.015303 -0.000665 -0.002925 0.000000 0.000000 0.000000
# 2 -0.000665 0.013116 -0.003230 0.000000 0.000000 0.000000
# 3 -0.002925 -0.003230 0.008070 0.000000 0.000000 0.000000
# 4 0.000000 0.000000 0.000000 0.123289 0.000000 0.000000
# 5 0.000000 0.000000 0.000000 0.000000 0.032929 0.000000
# 6 0.000000 0.000000 0.000000 0.000000 0.000000 0.029480
#
#
# Mechanical properties :
#
#
# Convention : Reuss Voigt Hill
#
# Bulk Modulus (GPa) = 43.76250 52.05954 47.91102
# Shear Modulus (GPa) = 20.53875 29.69436 25.11656
#
# Velocity S-wave (km/s) = 3.12243 3.75442 3.45291
# Velocity P-wave (km/s) = 5.81146 6.59593 6.21608
#
# Compressibility (1/GPa) = 0.02285062
#
# Stress axis : x y z
#
# Youngs Moduli (GPa) = 65.34618 76.24266 123.91259
#
# Poissons Ratio (x) = 0.05068 0.36240
# Poissons Ratio (y) = 0.04343 0.40024
# Poissons Ratio (z) = 0.19111 0.24627
#
# Static dielectric constant tensor:
#      x y z
#    x 3.886680 0.000000 0.000000 
#    y 0.000000 3.880700 0.000000 
#    z 0.000000 0.000000 3.929570 
# 
# 
# High freq. dielectric constant tensor:
#      x y z
#    x 1.822250 0.000000 0.000000 
#    y 0.000000 1.835860 0.000000 
#    z 0.000000 0.000000 1.842410 
# 
# From -- ./inp_files/7831.got.cif
#   From: 2010.03.12/outbox.cif.g09.slc.cpg/sg56_4_cif.got.tgz:7831.got - 2010.04.16 15:33:40.
