data_PCOD8229074
_publ_section_title
;
Structure prediction by ZEFSAII (Michael W. Deem and Ramdas Pophale) SiO2 
 PCOD8229074
Probable space group: P C C N
;
_chemical_formula_sum "Si O2"
_cell_formula_units_Z 56
_cell_length_a 20.054184
_cell_length_b 13.353776
_cell_length_c 9.526019
_cell_angle_alpha 90.000000
_cell_angle_beta 90.000000
_cell_angle_gamma 90.000000
_cell_volume 2551.059134
_symmetry_space_group_name_H-M "P C C N"
_symmetry_group_IT_number 56
_symmetry_cell_setting 'orthorhombic'
loop_
_space_group_symop_operation_xyz
x,y,z
1/2-x,1/2-y,z
1/2+x,-y,1/2-z
-x,1/2+y,1/2-z
-x,-y,-z
1/2+x,1/2+y,-z
1/2-x,y,1/2+z
x,1/2-y,1/2+z
loop_
_atom_site_type_symbol
_atom_site_label
_atom_site_fract_x
_atom_site_fract_y
_atom_site_fract_z
Si Si1 0.941562 0.557154 0.844992
Si Si2 0.835170 0.428535 0.981245
Si Si3 0.657102 0.830559 0.667229
Si Si4 0.851555 0.650574 0.349992
Si Si5 0.244950 0.503934 0.754064
Si Si6 0.956932 0.299724 0.009067
Si Si7 0.501761 0.357412 0.223614
O O1 0.884654 0.523980 0.957765
O O2 0.912826 0.641437 0.741287
O O3 0.961556 0.462134 0.750862
O O4 0.004589 0.604885 0.923529
O O5 0.786853 0.420251 0.844809
O O6 0.792434 0.437584 0.122630
O O7 0.878752 0.327581 0.996360
O O8 0.645541 0.802583 0.505261
O O9 0.682920 0.731090 0.745885
O O10 0.707689 0.921969 0.675644
O O11 0.808183 0.550124 0.347258
O O12 0.924788 0.621130 0.300241
O O13 0.964364 0.195750 0.090097
O O14 0.987990 0.283139 0.855292
#
# Coordination Sequence:
#
# PCOD8229074 Si02
#       7
#     8   8   8   8   8   8   8
#     4  10  22  42  66  93 134 174 221 272 341 392
#     4  10  22  41  66  89 131 170 217 269 331 397
#     4  11  25  37  59  93 135 173 213 266 321 412
#     4  12  23  38  60  95 136 167 217 267 329 399
#     4  11  22  40  61  94 127 175 215 261 331 396
#     4  11  22  44  66  98 131 177 223 279 337 395
#     4  11  23  40  68  96 129 173 222 274 337 392
#
# _framework density 21.951667
#
# number of rings (size 3 to 8) (size 9 to 14) (size 15 to 20)
#    0.000    1.143    2.857    4.714    4.000    1.714 
#    2.571    0.000    0.000   18.000    0.000    0.000 
#    0.000    0.000    0.000    0.000    0.000    0.000 
#
# Total GULP energy -694568.249697 kJ/mol
# GULP energy per Si atom -12403.004459 kJ/mol
# Density = 2.190170 g / cm^3
# Si number density = 21.951667 Si / 1000 Ang^3
#
#
#
# Elastic Constant Matrix: (Units=GPa)
#
#
# Indices 1 2 3 4 5 6 
#
# 1 121.6750 16.2415 41.6699 0.0000 0.0000 0.0000
# 2 16.2415 25.5373 -7.1297 0.0000 0.0000 0.0000
# 3 41.6699 -7.1297 108.8567 0.0000 0.0000 0.0000
# 4 0.0000 0.0000 0.0000 24.9501 0.0000 0.0000
# 5 0.0000 0.0000 0.0000 0.0000 37.5754 0.0000
# 6 0.0000 0.0000 0.0000 0.0000 0.0000 12.7048
#
#
#
# Elastic Compliance Matrix: (Units=1/GPa)
#
#
# Indices 1 2 3 4 5 6 
#
# 1 0.010945 -0.008282 -0.004732 0.000000 0.000000 0.000000
# 2 -0.008282 0.046155 0.006193 0.000000 0.000000 0.000000
# 3 -0.004732 0.006193 0.011403 0.000000 0.000000 0.000000
# 4 0.000000 0.000000 0.000000 0.040080 0.000000 0.000000
# 5 0.000000 0.000000 0.000000 0.000000 0.026613 0.000000
# 6 0.000000 0.000000 0.000000 0.000000 0.000000 0.078710
#
#
# Mechanical properties :
#
#
# Convention : Reuss Voigt Hill
#
# Bulk Modulus (GPa) = 18.22772 39.73692 28.98232
# Shear Modulus (GPa) = 20.33889 28.73189 24.53539
#
# Velocity S-wave (km/s) = 3.04720 3.62176 3.34683
# Velocity P-wave (km/s) = 4.54996 5.96915 5.30721
#
# Compressibility (1/GPa) = 0.05486149
#
# Stress axis : x y z
#
# Youngs Moduli (GPa) = 91.36881 21.66627 87.69310
#
# Poissons Ratio (x) = 0.17944 0.41496
# Poissons Ratio (y) = 0.75670 -0.54310
# Poissons Ratio (z) = 0.43236 -0.13418
#
# Static dielectric constant tensor:
#      x y z
#    x 4.115370 0.000000 0.000000 
#    y 0.000000 3.558330 0.000000 
#    z 0.000000 0.000000 4.044650 
# 
# 
# High freq. dielectric constant tensor:
#      x y z
#    x 1.875180 0.000000 0.000000 
#    y 0.000000 1.831260 0.000000 
#    z 0.000000 0.000000 1.872020 
# 
# From -- ./inp_files/4479.got.cif
#   From: 2010.03.12/outbox.cif.g09.slc.cpg/sg56_3_cif.got.tgz:4479.got - 2010.04.16 15:33:40.
