data_PCOD8229560
_publ_section_title
;
Structure prediction by ZEFSAII (Michael W. Deem and Ramdas Pophale) SiO2 
 PCOD8229560
Probable space group: P C C N
;
_chemical_formula_sum "Si O2"
_cell_formula_units_Z 60
_cell_length_a 5.201044
_cell_length_b 26.440173
_cell_length_c 17.366585
_cell_angle_alpha 90.000000
_cell_angle_beta 90.000000
_cell_angle_gamma 90.000000
_cell_volume 2388.192041
_symmetry_space_group_name_H-M "P C C N"
_symmetry_group_IT_number 56
_symmetry_cell_setting 'orthorhombic'
loop_
_space_group_symop_operation_xyz
x,y,z
1/2-x,1/2-y,z
1/2+x,-y,1/2-z
-x,1/2+y,1/2-z
-x,-y,-z
1/2+x,1/2+y,-z
1/2-x,y,1/2+z
x,1/2-y,1/2+z
loop_
_atom_site_type_symbol
_atom_site_label
_atom_site_fract_x
_atom_site_fract_y
_atom_site_fract_z
Si Si1 0.813924 0.877991 0.903333
Si Si2 0.898484 0.200535 0.024731
Si Si3 0.750000 0.750000 0.597266
Si Si4 0.344941 0.533692 0.941849
Si Si5 0.972162 0.163907 0.315931
Si Si6 0.961019 0.626591 0.756733
Si Si7 0.963558 0.112540 0.467860
Si Si8 0.678495 0.518185 0.211043
O O1 0.555399 0.881333 0.849961
O O2 0.742122 0.881845 0.993947
O O3 0.000480 0.925347 0.889979
O O4 0.958779 0.823485 0.900273
O O5 0.750000 0.250000 0.054274
O O6 0.093380 0.211325 0.955010
O O7 0.701708 0.160618 0.991519
O O8 0.963696 0.781716 0.645834
O O9 0.137853 0.559631 0.998013
O O10 0.232488 0.496775 0.875658
O O11 0.500000 0.500000 0.000000
O O12 0.193374 0.155786 0.253793
O O13 0.697833 0.161253 0.271667
O O14 0.985567 0.116233 0.375500
O O15 0.954406 0.573417 0.712827
O O16 0.443086 0.482274 0.239994
#
# Coordination Sequence:
#
# PCOD8229560 Si02
#       8
#     8   8   4   8   8   8   8   8
#     4  11  25  47  72 110 150 205 247 325 391 466
#     4  11  21  42  79 108 143 192 256 310 394 458
#     4  12  24  46  76 116 140 198 248 334 386 466
#     4  11  26  43  70 110 147 195 265 324 368 453
#     4  12  27  47  79 110 151 201 254 320 388 469
#     4  12  28  48  75 110 159 207 254 309 400 467
#     4  11  24  43  76 102 146 194 255 318 374 453
#     4  12  25  48  74 106 153 209 247 306 385 463
#
# _framework density 25.123608000000001
#
# number of rings (size 3 to 8) (size 9 to 14) (size 15 to 20)
#    0.000    0.533    4.000    3.200    7.467    0.533 
#    0.000    2.000    2.933    0.000    0.000    0.000 
#    0.000    0.000    0.000    0.000    0.000    0.000 
#
# Total GULP energy -743575.419951 kJ/mol
# GULP energy per Si atom -12392.923666 kJ/mol
# Density = 2.506643 g / cm^3
# Si number density = 25.123608 Si / 1000 Ang^3
#
#
#
# Elastic Constant Matrix: (Units=GPa)
#
#
# Indices 1 2 3 4 5 6 
#
# 1 103.7908 15.2462 17.7635 0.0000 0.0000 0.0000
# 2 15.2462 110.8331 13.2095 0.0000 0.0000 0.0000
# 3 17.7635 13.2095 83.4667 0.0000 0.0000 0.0000
# 4 0.0000 0.0000 0.0000 30.8187 0.0000 0.0000
# 5 0.0000 0.0000 0.0000 0.0000 49.5689 0.0000
# 6 0.0000 0.0000 0.0000 0.0000 0.0000 32.2859
#
#
#
# Elastic Compliance Matrix: (Units=1/GPa)
#
#
# Indices 1 2 3 4 5 6 
#
# 1 0.010143 -0.001160 -0.001975 0.000000 0.000000 0.000000
# 2 -0.001160 0.009329 -0.001230 0.000000 0.000000 0.000000
# 3 -0.001975 -0.001230 0.012596 0.000000 0.000000 0.000000
# 4 0.000000 0.000000 0.000000 0.032448 0.000000 0.000000
# 5 0.000000 0.000000 0.000000 0.000000 0.020174 0.000000
# 6 0.000000 0.000000 0.000000 0.000000 0.000000 0.030973
#
#
# Mechanical properties :
#
#
# Convention : Reuss Voigt Hill
#
# Bulk Modulus (GPa) = 42.84757 43.39213 43.11985
# Shear Modulus (GPa) = 37.82971 39.32612 38.57792
#
# Velocity S-wave (km/s) = 3.88460 3.96069 3.92283
# Velocity P-wave (km/s) = 6.10016 6.18264 6.14153
#
# Compressibility (1/GPa) = 0.02333854
#
# Stress axis : x y z
#
# Youngs Moduli (GPa) = 98.58841 107.19647 79.39183
#
# Poissons Ratio (x) = 0.12434 0.15681
# Poissons Ratio (y) = 0.11435 0.09761
# Poissons Ratio (z) = 0.19472 0.13180
#
# Static dielectric constant tensor:
#      x y z
#    x 4.783260 0.000000 0.000000 
#    y 0.000000 4.797010 0.000000 
#    z 0.000000 0.000000 5.122520 
# 
# 
# High freq. dielectric constant tensor:
#      x y z
#    x 2.006920 0.000000 0.000000 
#    y 0.000000 2.005460 0.000000 
#    z 0.000000 0.000000 1.997390 
# 
# From -- ./inp_files/14091.got.cif
#   From: 2010.03.12/outbox.cif.g09.slc.cpg/sg56_8_cif.got.tgz:14091.got - 2010.04.16 15:33:40.
