data_PCOD8229948
_publ_section_title
;
Structure prediction by ZEFSAII (Michael W. Deem and Ramdas Pophale) SiO2 
 PCOD8229948
Probable space group: P B C M
;
_chemical_formula_sum "Si O2"
_cell_formula_units_Z 64
_cell_length_a 20.262136
_cell_length_b 23.031872
_cell_length_c 8.976074
_cell_angle_alpha 90.000000
_cell_angle_beta 90.000000
_cell_angle_gamma 90.000000
_cell_volume 4188.908641
_symmetry_space_group_name_H-M "P B C M"
_symmetry_group_IT_number 57
_symmetry_cell_setting 'orthorhombic'
loop_
_space_group_symop_operation_xyz
x,y,z
-x,-y,1/2+z
x,1/2-y,-z
-x,1/2+y,1/2-z
-x,-y,-z
x,y,1/2-z
-x,1/2+y,z
x,1/2-y,1/2+z
loop_
_atom_site_type_symbol
_atom_site_label
_atom_site_fract_x
_atom_site_fract_y
_atom_site_fract_z
Si Si1 0.916940 0.552308 0.084011
Si Si2 0.961480 0.419540 0.084975
Si Si3 0.180411 0.599141 0.577125
Si Si4 0.521468 0.556953 0.079795
Si Si5 0.386648 0.900418 0.574174
Si Si6 0.658114 0.979423 0.925767
Si Si7 0.293574 0.688474 0.575836
Si Si8 0.210151 0.479932 0.426228
O O1 0.900215 0.573587 0.250000
O O2 0.941147 0.486602 0.082440
O O3 0.851662 0.558021 0.983452
O O4 0.976332 0.592660 0.021842
O O5 0.983704 0.400956 0.250000
O O6 0.895582 0.384380 0.035085
O O7 0.183408 0.578755 0.750000
O O8 0.225380 0.654645 0.547272
O O9 0.205841 0.546882 0.475308
O O10 0.516780 0.540078 0.250000
O O11 0.466497 0.606364 0.044620
O O12 0.599007 0.567764 0.041303
O O13 0.500000 0.500000 0.000000
O O14 0.370548 0.903057 0.750000
O O15 0.358499 0.958017 0.496361
O O16 0.354405 0.844193 0.500900
O O17 0.670335 0.988219 0.750000
O O18 0.723244 0.953308 0.002888
O O19 0.284783 0.750000 0.500000
O O20 0.308729 0.695439 0.750000
O O21 0.212925 0.475886 0.250000
#
# Coordination Sequence:
#
# PCOD8229948 Si02
#       8
#     8   8   8   8   8   8   8   8
#     4   9  16  25  36  53  77 104 132 164 199 237
#     4   8  14  25  39  54  72  97 131 167 200 239
#     4   9  18  31  44  56  75 104 136 171 213 252
#     4   8  16  27  41  59  80 104 133 167 204 247
#     4  10  18  30  45  62  80 103 137 175 211 252
#     4  10  17  27  41  59  83 111 138 168 207 249
#     4  11  22  34  47  62  82 109 141 180 220 255
#     4  11  19  25  38  58  81 109 140 172 202 238
#
# _framework density 15.278442
#
# number of rings (size 3 to 8) (size 9 to 14) (size 15 to 20)
#    0.000    2.500    1.250    3.375    0.000    4.500 
#    0.000    0.000    0.000    0.000    0.000    0.000 
#    0.000    0.000    0.000    1.125    0.000   19.500 
#
# Total GULP energy -792957.346669 kJ/mol
# GULP energy per Si atom -12389.958542 kJ/mol
# Density = 1.524367 g / cm^3
# Si number density = 15.278442 Si / 1000 Ang^3
#
#
#
# Elastic Constant Matrix: (Units=GPa)
#
#
# Indices 1 2 3 4 5 6 
#
# 1 154.4646 38.4641 70.7377 0.0000 0.0000 0.0000
# 2 38.4641 32.1816 23.1025 0.0000 0.0000 0.0000
# 3 70.7377 23.1025 107.2159 0.0000 0.0000 0.0000
# 4 0.0000 0.0000 0.0000 13.3651 0.0000 0.0000
# 5 0.0000 0.0000 0.0000 0.0000 27.1574 0.0000
# 6 0.0000 0.0000 0.0000 0.0000 0.0000 12.2850
#
#
#
# Elastic Compliance Matrix: (Units=1/GPa)
#
#
# Indices 1 2 3 4 5 6 
#
# 1 0.011367 -0.009704 -0.005409 0.000000 0.000000 0.000000
# 2 -0.009704 0.045043 -0.003304 0.000000 0.000000 0.000000
# 3 -0.005409 -0.003304 0.013607 0.000000 0.000000 0.000000
# 4 0.000000 0.000000 0.000000 0.074822 0.000000 0.000000
# 5 0.000000 0.000000 0.000000 0.000000 0.036822 0.000000
# 6 0.000000 0.000000 0.000000 0.000000 0.000000 0.081400
#
#
# Mechanical properties :
#
#
# Convention : Reuss Voigt Hill
#
# Bulk Modulus (GPa) = 30.13344 62.05230 46.09287
# Shear Modulus (GPa) = 16.07944 21.33202 18.70573
#
# Velocity S-wave (km/s) = 3.24763 3.74065 3.50283
# Velocity P-wave (km/s) = 5.81623 7.70449 6.82596
#
# Compressibility (1/GPa) = 0.03318573
#
# Stress axis : x y z
#
# Youngs Moduli (GPa) = 87.97120 22.20096 73.48895
#
# Poissons Ratio (x) = 0.21543 0.39750
# Poissons Ratio (y) = 0.85363 0.24278
# Poissons Ratio (z) = 0.47583 0.07334
#
# Static dielectric constant tensor:
#      x y z
#    x 3.654880 0.000000 0.000000 
#    y 0.000000 2.370810 0.000000 
#    z 0.000000 0.000000 3.080720 
# 
# 
# High freq. dielectric constant tensor:
#      x y z
#    x 1.609310 0.000000 0.000000 
#    y 0.000000 1.497590 0.000000 
#    z 0.000000 0.000000 1.601910 
# 
# From -- ./inp_files/8786.got.cif
#   From: 2010.03.12/outbox.cif.g09.slc.cpg/sg57_5_cif.got.tgz:8786.got - 2010.04.16 15:48:40.
