data_PCOD8229083
_publ_section_title
;
Structure prediction by ZEFSAII (Michael W. Deem and Ramdas Pophale) SiO2 
 PCOD8229083
Probable space group: P C C N
;
_chemical_formula_sum "Si O2"
_cell_formula_units_Z 40
_cell_length_a 8.902893
_cell_length_b 8.310375
_cell_length_c 23.729374
_cell_angle_alpha 90.000000
_cell_angle_beta 90.000000
_cell_angle_gamma 90.000000
_cell_volume 1755.650468
_symmetry_space_group_name_H-M "P C C N"
_symmetry_group_IT_number 56
_symmetry_cell_setting 'orthorhombic'
loop_
_space_group_symop_operation_xyz
x,y,z
1/2-x,1/2-y,z
1/2+x,-y,1/2-z
-x,1/2+y,1/2-z
-x,-y,-z
1/2+x,1/2+y,-z
1/2-x,y,1/2+z
x,1/2-y,1/2+z
loop_
_atom_site_type_symbol
_atom_site_label
_atom_site_fract_x
_atom_site_fract_y
_atom_site_fract_z
Si Si1 0.531568 0.604513 0.709461
Si Si2 0.412344 0.918756 0.421858
Si Si3 0.290263 0.922538 0.539720
Si Si4 0.367111 0.451208 0.805463
Si Si5 0.611553 0.639227 0.381406
O O1 0.453459 0.588119 0.770390
O O2 0.704686 0.567312 0.721668
O O3 0.527217 0.791825 0.691890
O O4 0.446258 0.486094 0.665772
O O5 0.289171 0.914302 0.471540
O O6 0.473220 0.743542 0.404377
O O7 0.544799 0.037206 0.439206
O O8 0.330373 0.993403 0.368386
O O9 0.250000 0.750000 0.565327
O O10 0.169907 0.049317 0.562593
O O11 0.750000 0.750000 0.357271
#
# Coordination Sequence:
#
# PCOD8229083 Si02
#       5
#     8   8   8   8   8
#     4  11  26  45  74 102 140 180 228 287 346 418
#     4  10  23  43  64 100 137 175 229 281 338 409
#     4  10  22  41  67  94 134 180 226 277 340 402
#     4  11  26  46  69 106 138 181 229 284 348 410
#     4  10  23  43  70  97 135 179 226 283 340 407
#
# _framework density 22.783579
#
# number of rings (size 3 to 8) (size 9 to 14) (size 15 to 20)
#    0.000    1.600    0.000    2.400   11.200    3.200 
#   18.000    0.000    0.000    0.000    0.000    0.000 
#    0.000    0.000    0.000    0.000    0.000    0.000 
#
# Total GULP energy -495928.143492 kJ/mol
# GULP energy per Si atom -12398.203587 kJ/mol
# Density = 2.273172 g / cm^3
# Si number density = 22.783579 Si / 1000 Ang^3
#
#
#
# Elastic Constant Matrix: (Units=GPa)
#
#
# Indices 1 2 3 4 5 6 
#
# 1 51.7480 31.6675 29.2572 0.0000 0.0000 0.0000
# 2 31.6675 101.8575 21.7521 0.0000 0.0000 0.0000
# 3 29.2572 21.7521 109.6023 0.0000 0.0000 0.0000
# 4 0.0000 0.0000 0.0000 30.6542 0.0000 0.0000
# 5 0.0000 0.0000 0.0000 0.0000 30.6297 0.0000
# 6 0.0000 0.0000 0.0000 0.0000 0.0000 36.7013
#
#
#
# Elastic Compliance Matrix: (Units=1/GPa)
#
#
# Indices 1 2 3 4 5 6 
#
# 1 0.026968 -0.007150 -0.005780 0.000000 0.000000 0.000000
# 2 -0.007150 0.012148 -0.000502 0.000000 0.000000 0.000000
# 3 -0.005780 -0.000502 0.010766 0.000000 0.000000 0.000000
# 4 0.000000 0.000000 0.000000 0.032622 0.000000 0.000000
# 5 0.000000 0.000000 0.000000 0.000000 0.032648 0.000000
# 6 0.000000 0.000000 0.000000 0.000000 0.000000 0.027247
#
#
# Mechanical properties :
#
#
# Convention : Reuss Voigt Hill
#
# Bulk Modulus (GPa) = 43.44440 47.61792 45.53116
# Shear Modulus (GPa) = 28.25889 31.63243 29.94566
#
# Velocity S-wave (km/s) = 3.52564 3.73015 3.62933
# Velocity P-wave (km/s) = 5.97354 6.28470 6.13110
#
# Compressibility (1/GPa) = 0.02301792
#
# Stress axis : x y z
#
# Youngs Moduli (GPa) = 37.08154 82.31924 92.88139
#
# Poissons Ratio (x) = 0.58858 0.53683
# Poissons Ratio (y) = 0.26513 0.04665
# Poissons Ratio (z) = 0.21432 0.04135
#
# Static dielectric constant tensor:
#      x y z
#    x 3.965750 0.000000 0.000000 
#    y 0.000000 4.288580 0.000000 
#    z 0.000000 0.000000 4.176950 
# 
# 
# High freq. dielectric constant tensor:
#      x y z
#    x 1.898190 0.000000 0.000000 
#    y 0.000000 1.908120 0.000000 
#    z 0.000000 0.000000 1.902530 
# 
# From -- ./inp_files/20332.got.cif
#   From: 2010.03.12/outbox.cif.g09.slc.cpg/sg56_11_cif.got.tgz:20332.got - 2010.04.16 15:33:40.
