data_PCOD8229754
_publ_section_title
;
Structure prediction by ZEFSAII (Michael W. Deem and Ramdas Pophale) SiO2 
 PCOD8229754
Probable space group: P C C N
;
_chemical_formula_sum "Si O2"
_cell_formula_units_Z 40
_cell_length_a 8.735517
_cell_length_b 10.166990
_cell_length_c 17.638746
_cell_angle_alpha 90.000000
_cell_angle_beta 90.000000
_cell_angle_gamma 90.000000
_cell_volume 1566.566070
_symmetry_space_group_name_H-M "P C C N"
_symmetry_group_IT_number 56
_symmetry_cell_setting 'orthorhombic'
loop_
_space_group_symop_operation_xyz
x,y,z
1/2-x,1/2-y,z
1/2+x,-y,1/2-z
-x,1/2+y,1/2-z
-x,-y,-z
1/2+x,1/2+y,-z
1/2-x,y,1/2+z
x,1/2-y,1/2+z
loop_
_atom_site_type_symbol
_atom_site_label
_atom_site_fract_x
_atom_site_fract_y
_atom_site_fract_z
Si Si1 0.918303 0.703748 0.685493
Si Si2 0.135472 0.083693 0.966192
Si Si3 0.173439 0.622462 0.880072
Si Si4 0.354837 0.935529 0.237453
Si Si5 0.813548 0.876806 0.384617
O O1 0.750000 0.750000 0.706441
O O2 0.933216 0.690744 0.593244
O O3 0.946683 0.560749 0.726035
O O4 0.033709 0.814609 0.717109
O O5 0.262476 0.005212 0.919707
O O6 0.227696 0.141286 0.036152
O O7 0.000000 0.000000 0.000000
O O8 0.250000 0.750000 0.918286
O O9 0.220691 0.616434 0.791562
O O10 0.994787 0.633693 0.893564
O O11 0.274928 0.987900 0.159618
O O12 0.750000 0.750000 0.337206
#
# Coordination Sequence:
#
# PCOD8229754 Si02
#       5
#     8   8   8   8   8
#     4  11  25  49  77 114 159 206 261 332 407 483
#     4  11  26  46  72 111 156 205 258 317 394 481
#     4  11  25  45  72 107 147 194 255 321 389 467
#     4  11  25  46  77 113 149 201 266 335 407 482
#     4  12  26  46  72 103 148 202 254 315 387 471
#
# _framework density 25.533555
#
# number of rings (size 3 to 8) (size 9 to 14) (size 15 to 20)
#    0.000    0.800    0.000    6.600    0.000   14.400 
#    0.000    0.000    0.000    0.000    0.000    0.000 
#    0.000    0.000    0.000    0.000    0.000    0.000 
#
# Total GULP energy -495685.391049 kJ/mol
# GULP energy per Si atom -12392.134776 kJ/mol
# Density = 2.547544 g / cm^3
# Si number density = 25.533555 Si / 1000 Ang^3
#
#
#
# Elastic Constant Matrix: (Units=GPa)
#
#
# Indices 1 2 3 4 5 6 
#
# 1 173.9095 53.6323 54.6338 0.0000 0.0000 0.0000
# 2 53.6323 151.4089 53.6109 0.0000 0.0000 0.0000
# 3 54.6338 53.6109 156.9845 0.0000 0.0000 0.0000
# 4 0.0000 0.0000 0.0000 40.4901 0.0000 0.0000
# 5 0.0000 0.0000 0.0000 0.0000 16.6577 0.0000
# 6 0.0000 0.0000 0.0000 0.0000 0.0000 42.7365
#
#
#
# Elastic Compliance Matrix: (Units=1/GPa)
#
#
# Indices 1 2 3 4 5 6 
#
# 1 0.006863 -0.001803 -0.001773 0.000000 0.000000 0.000000
# 2 -0.001803 0.007987 -0.002100 0.000000 0.000000 0.000000
# 3 -0.001773 -0.002100 0.007704 0.000000 0.000000 0.000000
# 4 0.000000 0.000000 0.000000 0.024697 0.000000 0.000000
# 5 0.000000 0.000000 0.000000 0.000000 0.060032 0.000000
# 6 0.000000 0.000000 0.000000 0.000000 0.000000 0.023399
#
#
# Mechanical properties :
#
#
# Convention : Reuss Voigt Hill
#
# Bulk Modulus (GPa) = 89.26808 89.56188 89.41498
# Shear Modulus (GPa) = 34.30080 41.33859 37.81969
#
# Velocity S-wave (km/s) = 3.66917 4.02803 3.85278
# Velocity P-wave (km/s) = 7.27924 7.53563 7.40854
#
# Compressibility (1/GPa) = 0.01120221
#
# Stress axis : x y z
#
# Youngs Moduli (GPa) = 145.70565 125.20342 129.80066
#
# Poissons Ratio (x) = 0.22579 0.23009
# Poissons Ratio (y) = 0.26277 0.27258
# Poissons Ratio (z) = 0.25828 0.26292
#
# Static dielectric constant tensor:
#      x y z
#    x 4.389090 0.000000 0.000000 
#    y 0.000000 5.210800 0.000000 
#    z 0.000000 0.000000 5.192340 
# 
# 
# High freq. dielectric constant tensor:
#      x y z
#    x 2.019470 0.000000 0.000000 
#    y 0.000000 2.041620 0.000000 
#    z 0.000000 0.000000 2.031460 
# 
# From -- ./inp_files/14485.got.cif
#   From: 2010.03.12/outbox.cif.g09.slc.cpg/sg56_8_cif.got.tgz:14485.got - 2010.04.16 15:33:40.
