data_PCOD8229092
_publ_section_title
;
Structure prediction by ZEFSAII (Michael W. Deem and Ramdas Pophale) SiO2 
 PCOD8229092
Probable space group: P C C N
;
_chemical_formula_sum "Si O2"
_cell_formula_units_Z 36
_cell_length_a 5.016752
_cell_length_b 11.987024
_cell_length_c 27.269167
_cell_angle_alpha 90.000000
_cell_angle_beta 90.000000
_cell_angle_gamma 90.000000
_cell_volume 1639.856626
_symmetry_space_group_name_H-M "P C C N"
_symmetry_group_IT_number 56
_symmetry_cell_setting 'orthorhombic'
loop_
_space_group_symop_operation_xyz
x,y,z
1/2-x,1/2-y,z
1/2+x,-y,1/2-z
-x,1/2+y,1/2-z
-x,-y,-z
1/2+x,1/2+y,-z
1/2-x,y,1/2+z
x,1/2-y,1/2+z
loop_
_atom_site_type_symbol
_atom_site_label
_atom_site_fract_x
_atom_site_fract_y
_atom_site_fract_z
Si Si1 0.622685 0.531817 0.577270
Si Si2 0.497214 0.322977 0.516535
Si Si3 0.750000 0.250000 0.789582
Si Si4 0.623297 0.053564 0.358127
Si Si5 0.992028 0.437568 0.732701
O O1 0.581126 0.405175 0.560196
O O2 0.594320 0.613619 0.531832
O O3 0.419459 0.559205 0.620585
O O4 0.919647 0.551716 0.596911
O O5 0.750000 0.250000 0.501912
O O6 0.250000 0.250000 0.535978
O O7 0.911491 0.161928 0.823255
O O8 0.960930 0.312583 0.753841
O O9 0.584525 0.942821 0.324368
O O10 0.705176 0.497987 0.734030
#
# Coordination Sequence:
#
# PCOD8229092 Si02
#       5
#     8   8   4   8   8
#     4  11  25  43  66 104 131 166 220 278 306 390
#     4  11  24  45  69  94 140 173 206 262 345 385
#     4  10  24  42  70  94 128 182 210 276 334 376
#     4  11  23  41  68  99 132 166 228 269 310 396
#     4  10  22  42  61  93 134 168 206 270 327 376
#
# _framework density 21.953139
#
# number of rings (size 3 to 8) (size 9 to 14) (size 15 to 20)
#    0.000    1.333    0.000    5.333    4.667   10.667 
#    6.000    0.000    4.889    0.000    0.000    0.000 
#    0.000    0.000    0.000    0.000    0.000    0.000 
#
# Total GULP energy -446483.831240 kJ/mol
# GULP energy per Si atom -12402.328646 kJ/mol
# Density = 2.190317 g / cm^3
# Si number density = 21.953139 Si / 1000 Ang^3
#
#
#
# Elastic Constant Matrix: (Units=GPa)
#
#
# Indices 1 2 3 4 5 6 
#
# 1 77.9701 15.4106 11.6803 0.0000 0.0000 0.0000
# 2 15.4106 97.0081 36.3130 0.0000 0.0000 0.0000
# 3 11.6803 36.3130 87.5715 0.0000 0.0000 0.0000
# 4 0.0000 0.0000 0.0000 -53.5524 0.0000 0.0000
# 5 0.0000 0.0000 0.0000 0.0000 25.5932 0.0000
# 6 0.0000 0.0000 0.0000 0.0000 0.0000 30.2861
#
#
#
# Elastic Compliance Matrix: (Units=1/GPa)
#
#
# Indices 1 2 3 4 5 6 
#
# 1 0.013325 -0.001718 -0.001065 0.000000 0.000000 0.000000
# 2 -0.001718 0.012424 -0.004923 0.000000 0.000000 0.000000
# 3 -0.001065 -0.004923 0.013603 0.000000 0.000000 0.000000
# 4 0.000000 0.000000 0.000000 -0.018673 0.000000 0.000000
# 5 0.000000 0.000000 0.000000 0.000000 0.039073 0.000000
# 6 0.000000 0.000000 0.000000 0.000000 0.000000 0.033018
#
#
# Mechanical properties :
#
#
# Convention : Reuss Voigt Hill
#
# Bulk Modulus (GPa) = 41.77124 43.26196 42.51660
# Shear Modulus (GPa) = 43.04398 13.74178 28.39288
#
# Velocity S-wave (km/s) = 4.43281 2.50463 3.60021
# Velocity P-wave (km/s) = 6.72818 5.30222 6.05731
#
# Compressibility (1/GPa) = 0.02393992
#
# Stress axis : x y z
#
# Youngs Moduli (GPa) = 75.04963 80.48902 73.51578
#
# Poissons Ratio (x) = 0.13829 0.07828
# Poissons Ratio (y) = 0.12895 0.36189
# Poissons Ratio (z) = 0.07991 0.39622
#
# Static dielectric constant tensor:
#      x y z
#    x 3.974800 0.000000 0.000000 
#    y 0.000000 4.110180 0.000000 
#    z 0.000000 0.000000 3.962000 
# 
# 
# High freq. dielectric constant tensor:
#      x y z
#    x 1.875580 0.000000 0.000000 
#    y 0.000000 1.856660 0.000000 
#    z 0.000000 0.000000 1.868090 
# 
# From -- ./inp_files/19883.got.cif
#   From: 2010.03.12/outbox.cif.g09.slc.cpg/sg56_10_cif.got.tgz:19883.got - 2010.04.16 15:33:40.
