data_PCOD8229288
_publ_section_title
;
Structure prediction by ZEFSAII (Michael W. Deem and Ramdas Pophale) SiO2 
 PCOD8229288
Probable space group: P C C N
;
_chemical_formula_sum "Si O2"
_cell_formula_units_Z 36
_cell_length_a 7.965013
_cell_length_b 14.856671
_cell_length_c 13.806388
_cell_angle_alpha 90.000000
_cell_angle_beta 90.000000
_cell_angle_gamma 90.000000
_cell_volume 1633.759286
_symmetry_space_group_name_H-M "P C C N"
_symmetry_group_IT_number 56
_symmetry_cell_setting 'orthorhombic'
loop_
_space_group_symop_operation_xyz
x,y,z
1/2-x,1/2-y,z
1/2+x,-y,1/2-z
-x,1/2+y,1/2-z
-x,-y,-z
1/2+x,1/2+y,-z
1/2-x,y,1/2+z
x,1/2-y,1/2+z
loop_
_atom_site_type_symbol
_atom_site_label
_atom_site_fract_x
_atom_site_fract_y
_atom_site_fract_z
Si Si1 0.526548 0.894820 0.914027
Si Si2 0.299658 0.851850 0.311662
Si Si3 0.164902 0.582432 0.104480
Si Si4 0.510427 0.107646 0.500560
Si Si5 0.250000 0.250000 0.036703
O O1 0.365973 0.908519 0.844538
O O2 0.663050 0.973567 0.899203
O O3 0.474254 0.885943 0.027407
O O4 0.618588 0.800534 0.892997
O O5 0.250000 0.750000 0.297089
O O6 0.379257 0.888858 0.212921
O O7 0.441012 0.861739 0.392065
O O8 0.343101 0.628000 0.077164
O O9 0.346810 0.169998 0.474111
O O10 0.500000 0.000000 0.500000
#
# Coordination Sequence:
#
# PCOD8229288 Si02
#       5
#     8   8   8   8   4
#     4  10  23  44  65  95 132 175 220 282 344 416
#     4  11  24  42  68  97 134 175 227 283 346 419
#     4  10  24  43  66  93 134 178 219 274 357 408
#     4  11  24  44  66  97 136 179 221 286 347 413
#     4  12  22  42  68  94 132 172 232 282 338 416
#
# _framework density 22.035070999999999
#
# number of rings (size 3 to 8) (size 9 to 14) (size 15 to 20)
#    0.000    1.333    4.444    0.000    6.222    0.000 
#    0.000    4.444    0.000    0.000    0.000    0.000 
#    0.000    0.000    0.000    0.000    0.000    0.000 
#
# Total GULP energy -446103.582624 kJ/mol
# GULP energy per Si atom -12391.766184 kJ/mol
# Density = 2.198492 g / cm^3
# Si number density = 22.035071 Si / 1000 Ang^3
#
#
#
# Elastic Constant Matrix: (Units=GPa)
#
#
# Indices 1 2 3 4 5 6 
#
# 1 94.2675 49.0551 22.9345 0.0000 0.0000 0.0000
# 2 49.0551 142.3080 27.3999 0.0000 0.0000 0.0000
# 3 22.9345 27.3999 106.4115 0.0000 0.0000 0.0000
# 4 0.0000 0.0000 0.0000 22.7267 0.0000 0.0000
# 5 0.0000 0.0000 0.0000 0.0000 15.2208 0.0000
# 6 0.0000 0.0000 0.0000 0.0000 0.0000 54.3204
#
#
#
# Elastic Compliance Matrix: (Units=1/GPa)
#
#
# Indices 1 2 3 4 5 6 
#
# 1 0.013235 -0.004222 -0.001765 0.000000 0.000000 0.000000
# 2 -0.004222 0.008741 -0.001341 0.000000 0.000000 0.000000
# 3 -0.001765 -0.001341 0.010123 0.000000 0.000000 0.000000
# 4 0.000000 0.000000 0.000000 0.044001 0.000000 0.000000
# 5 0.000000 0.000000 0.000000 0.000000 0.065699 0.000000
# 6 0.000000 0.000000 0.000000 0.000000 0.000000 0.018409
#
#
# Mechanical properties :
#
#
# Convention : Reuss Voigt Hill
#
# Bulk Modulus (GPa) = 57.33214 60.19624 58.76419
# Shear Modulus (GPa) = 27.67344 34.69342 31.18343
#
# Velocity S-wave (km/s) = 3.54769 3.97226 3.76596
# Velocity P-wave (km/s) = 6.54649 6.95817 6.75547
#
# Compressibility (1/GPa) = 0.01744222
#
# Stress axis : x y z
#
# Youngs Moduli (GPa) = 75.55845 114.40867 98.78365
#
# Poissons Ratio (x) = 0.48307 0.17438
# Poissons Ratio (y) = 0.31903 0.13243
# Poissons Ratio (z) = 0.13338 0.15338
#
# Static dielectric constant tensor:
#      x y z
#    x 4.140970 0.000000 0.000000 
#    y 0.000000 3.884650 0.000000 
#    z 0.000000 0.000000 3.463060 
# 
# 
# High freq. dielectric constant tensor:
#      x y z
#    x 1.873200 0.000000 0.000000 
#    y 0.000000 1.884680 0.000000 
#    z 0.000000 0.000000 1.828860 
# 
# From -- ./inp_files/10278.got.cif
#   From: 2010.03.12/outbox.cif.g09.slc.cpg/sg56_6_cif.got.tgz:10278.got - 2010.04.16 15:33:40.
