data_PCOD8229426
_publ_section_title
;
Structure prediction by ZEFSAII (Michael W. Deem and Ramdas Pophale) SiO2 
 PCOD8229426
Probable space group: P C C N
;
_chemical_formula_sum "Si O2"
_cell_formula_units_Z 64
_cell_length_a 8.224569
_cell_length_b 28.972622
_cell_length_c 11.132711
_cell_angle_alpha 90.000000
_cell_angle_beta 90.000000
_cell_angle_gamma 90.000000
_cell_volume 2652.783966
_symmetry_space_group_name_H-M "P C C N"
_symmetry_group_IT_number 56
_symmetry_cell_setting 'orthorhombic'
loop_
_space_group_symop_operation_xyz
x,y,z
1/2-x,1/2-y,z
1/2+x,-y,1/2-z
-x,1/2+y,1/2-z
-x,-y,-z
1/2+x,1/2+y,-z
1/2-x,y,1/2+z
x,1/2-y,1/2+z
loop_
_atom_site_type_symbol
_atom_site_label
_atom_site_fract_x
_atom_site_fract_y
_atom_site_fract_z
Si Si1 0.423113 0.855357 0.059318
Si Si2 0.072978 0.273407 0.558806
Si Si3 0.051023 0.857532 0.059196
Si Si4 0.067837 0.229613 0.326381
Si Si5 0.548161 0.549404 0.953703
Si Si6 0.882679 0.524646 0.906029
Si Si7 0.869077 0.435106 0.778487
Si Si8 0.049323 0.610414 0.806386
O O1 0.235434 0.838194 0.060281
O O2 0.545735 0.824045 0.139024
O O3 0.442021 0.907264 0.108354
O O4 0.480120 0.856888 0.921087
O O5 0.250000 0.250000 0.556186
O O6 0.975013 0.254306 0.440011
O O7 0.994375 0.263285 0.690881
O O8 0.066293 0.328529 0.531370
O O9 0.981766 0.858302 0.196007
O O10 0.051858 0.911258 0.022800
O O11 0.250000 0.250000 0.324218
O O12 0.741726 0.553288 0.973913
O O13 0.513730 0.554302 0.812718
O O14 0.500000 0.500000 0.000000
O O15 0.800239 0.484036 0.825760
O O16 0.968963 0.560326 0.817081
O O17 0.000000 0.500000 0.000000
O O18 0.738724 0.401413 0.715197
#
# Coordination Sequence:
#
# PCOD8229426 Si02
#       8
#     8   8   8   8   8   8   8   8
#     4  11  23  45  74 104 144 191 246 310 376 460
#     4  10  24  49  74 108 148 190 245 312 383 463
#     4  11  25  45  73 110 143 197 254 301 386 453
#     4  10  24  46  76 106 145 189 235 307 382 455
#     4  12  24  43  70 102 150 199 251 310 372 452
#     4  12  24  41  65 104 151 200 256 314 378 444
#     4  11  22  44  70  99 146 197 252 311 371 446
#     4  11  24  44  69 106 145 196 253 311 373 450
#
# _framework density 24.125598
#
# number of rings (size 3 to 8) (size 9 to 14) (size 15 to 20)
#    0.000    1.000    2.500    4.500    3.500    3.500 
#    9.000    1.250    0.000    0.000    0.000    0.000 
#    0.000    0.000    0.000    0.000    0.000    0.000 
#
# Total GULP energy -792880.626216 kJ/mol
# GULP energy per Si atom -12388.759785 kJ/mol
# Density = 2.407069 g / cm^3
# Si number density = 24.125598 Si / 1000 Ang^3
#
#
#
# Elastic Constant Matrix: (Units=GPa)
#
#
# Indices 1 2 3 4 5 6 
#
# 1 81.5862 31.0466 16.8413 0.0000 0.0000 0.0000
# 2 31.0466 113.5262 53.4228 0.0000 0.0000 0.0000
# 3 16.8413 53.4228 212.5347 0.0000 0.0000 0.0000
# 4 0.0000 0.0000 0.0000 45.4685 0.0000 0.0000
# 5 0.0000 0.0000 0.0000 0.0000 24.3803 0.0000
# 6 0.0000 0.0000 0.0000 0.0000 0.0000 38.9117
#
#
#
# Elastic Compliance Matrix: (Units=1/GPa)
#
#
# Indices 1 2 3 4 5 6 
#
# 1 0.013686 -0.003666 -0.000163 0.000000 0.000000 0.000000
# 2 -0.003666 0.010972 -0.002467 0.000000 0.000000 0.000000
# 3 -0.000163 -0.002467 0.005338 0.000000 0.000000 0.000000
# 4 0.000000 0.000000 0.000000 0.021993 0.000000 0.000000
# 5 0.000000 0.000000 0.000000 0.000000 0.041017 0.000000
# 6 0.000000 0.000000 0.000000 0.000000 0.000000 0.025699
#
#
# Mechanical properties :
#
#
# Convention : Reuss Voigt Hill
#
# Bulk Modulus (GPa) = 57.46059 67.80764 62.63411
# Shear Modulus (GPa) = 36.46988 42.17452 39.32220
#
# Velocity S-wave (km/s) = 3.89223 4.18559 4.04158
# Velocity P-wave (km/s) = 6.63840 7.17816 6.91355
#
# Compressibility (1/GPa) = 0.01740323
#
# Stress axis : x y z
#
# Youngs Moduli (GPa) = 73.06918 91.13904 187.32697
#
# Poissons Ratio (x) = 0.33412 0.03053
# Poissons Ratio (y) = 0.26787 0.46223
# Poissons Ratio (z) = 0.01191 0.22489
#
# Static dielectric constant tensor:
#      x y z
#    x 3.217910 0.000000 0.000000 
#    y 0.000000 4.287620 0.000000 
#    z 0.000000 0.000000 4.254430 
# 
# 
# High freq. dielectric constant tensor:
#      x y z
#    x 1.920570 0.000000 0.000000 
#    y 0.000000 1.961640 0.000000 
#    z 0.000000 0.000000 1.982620 
# 
# From -- ./inp_files/6630.got.cif
#   From: 2010.03.12/outbox.cif.g09.slc.cpg/sg56_4_cif.got.tgz:6630.got - 2010.04.16 15:33:40.
