data_PCOD8229255
_publ_section_title
;
Structure prediction by ZEFSAII (Michael W. Deem and Ramdas Pophale) SiO2 
 PCOD8229255
Probable space group: P C C N
;
_chemical_formula_sum "Si O2"
_cell_formula_units_Z 56
_cell_length_a 9.313061
_cell_length_b 13.954887
_cell_length_c 19.801365
_cell_angle_alpha 90.000000
_cell_angle_beta 90.000000
_cell_angle_gamma 90.000000
_cell_volume 2573.439134
_symmetry_space_group_name_H-M "P C C N"
_symmetry_group_IT_number 56
_symmetry_cell_setting 'orthorhombic'
loop_
_space_group_symop_operation_xyz
x,y,z
1/2-x,1/2-y,z
1/2+x,-y,1/2-z
-x,1/2+y,1/2-z
-x,-y,-z
1/2+x,1/2+y,-z
1/2-x,y,1/2+z
x,1/2-y,1/2+z
loop_
_atom_site_type_symbol
_atom_site_label
_atom_site_fract_x
_atom_site_fract_y
_atom_site_fract_z
Si Si1 0.636601 0.674035 0.758355
Si Si2 0.001010 0.982810 0.579557
Si Si3 0.720884 0.854491 0.038903
Si Si4 0.955790 0.949524 0.121898
Si Si5 0.111212 0.695659 0.713229
Si Si6 0.280510 0.424108 0.104742
Si Si7 0.195656 0.524777 0.810041
O O1 0.750000 0.750000 0.727141
O O2 0.483184 0.728294 0.756554
O O3 0.694003 0.647367 0.833269
O O4 0.628755 0.575404 0.716892
O O5 0.928625 0.876965 0.578773
O O6 0.888902 0.050622 0.620512
O O7 0.000000 0.000000 0.500000
O O8 0.155621 0.994527 0.615929
O O9 0.750000 0.750000 0.064163
O O10 0.847923 0.924405 0.062046
O O11 0.719466 0.862000 0.957637
O O12 0.022154 0.852623 0.152901
O O13 0.866580 0.009556 0.178623
O O14 0.074930 0.018263 0.089730
O O15 0.250000 0.750000 0.683311
O O16 0.170214 0.610375 0.759455
#
# Coordination Sequence:
#
# PCOD8229255 Si02
#       7
#     8   8   8   8   8   8   8
#     4  12  24  40  68  97 132 178 222 274 344 410
#     4   9  22  41  68  92 126 175 219 266 332 394
#     4  10  23  42  64  94 130 171 224 276 329 404
#     4  11  24  41  65  92 132 177 213 278 341 395
#     4  12  27  40  65 102 133 174 231 279 337 406
#     4  11  22  42  68  95 128 175 225 271 338 404
#     4  11  24  44  64  94 141 170 216 278 343 392
#
# _framework density 21.760762
#
# number of rings (size 3 to 8) (size 9 to 14) (size 15 to 20)
#    0.000    1.143    2.857    2.571    6.000    1.143 
#    0.000    0.000    0.000    0.857    0.000    0.000 
#    0.000    0.000    0.000    0.000    0.000    0.000 
#
# Total GULP energy -693797.056164 kJ/mol
# GULP energy per Si atom -12389.233146 kJ/mol
# Density = 2.171123 g / cm^3
# Si number density = 21.760762 Si / 1000 Ang^3
#
#
#
# Elastic Constant Matrix: (Units=GPa)
#
#
# Indices 1 2 3 4 5 6 
#
# 1 126.0364 38.7066 1.1149 0.0000 0.0000 0.0000
# 2 38.7066 93.1197 -2.5016 0.0000 0.0000 0.0000
# 3 1.1149 -2.5016 59.8933 0.0000 0.0000 0.0000
# 4 0.0000 0.0000 0.0000 18.8362 0.0000 0.0000
# 5 0.0000 0.0000 0.0000 0.0000 29.6360 0.0000
# 6 0.0000 0.0000 0.0000 0.0000 0.0000 39.7548
#
#
#
# Elastic Compliance Matrix: (Units=1/GPa)
#
#
# Indices 1 2 3 4 5 6 
#
# 1 0.009102 -0.003792 -0.000328 0.000000 0.000000 0.000000
# 2 -0.003792 0.012331 0.000586 0.000000 0.000000 0.000000
# 3 -0.000328 0.000586 0.016727 0.000000 0.000000 0.000000
# 4 0.000000 0.000000 0.000000 0.053089 0.000000 0.000000
# 5 0.000000 0.000000 0.000000 0.000000 0.033743 0.000000
# 6 0.000000 0.000000 0.000000 0.000000 0.000000 0.025154
#
#
# Mechanical properties :
#
#
# Convention : Reuss Voigt Hill
#
# Bulk Modulus (GPa) = 32.16371 39.29879 35.73125
# Shear Modulus (GPa) = 29.83687 33.76070 31.79879
#
# Velocity S-wave (km/s) = 3.70690 3.94312 3.82683
# Velocity P-wave (km/s) = 5.75623 6.23134 5.99849
#
# Compressibility (1/GPa) = 0.03109094
#
# Stress axis : x y z
#
# Youngs Moduli (GPa) = 109.86980 81.09761 59.78384
#
# Poissons Ratio (x) = 0.30753 0.01960
# Poissons Ratio (y) = 0.41663 -0.03501
# Poissons Ratio (z) = 0.03602 -0.04749
#
# Static dielectric constant tensor:
#      x y z
#    x 4.405910 0.000000 0.000000 
#    y 0.000000 3.985600 0.000000 
#    z 0.000000 0.000000 3.875680 
# 
# 
# High freq. dielectric constant tensor:
#      x y z
#    x 1.869700 0.000000 0.000000 
#    y 0.000000 1.846930 0.000000 
#    z 0.000000 0.000000 1.854560 
# 
# From -- ./inp_files/18250.got.cif
#   From: 2010.03.12/outbox.cif.g09.slc.cpg/sg56_10_cif.got.tgz:18250.got - 2010.04.16 15:33:40.
