data_PCOD8229388
_publ_section_title
;
Structure prediction by ZEFSAII (Michael W. Deem and Ramdas Pophale) SiO2 
 PCOD8229388
Probable space group: P C C N
;
_chemical_formula_sum "Si O2"
_cell_formula_units_Z 48
_cell_length_a 8.943604
_cell_length_b 8.145982
_cell_length_c 30.579547
_cell_angle_alpha 90.000000
_cell_angle_beta 90.000000
_cell_angle_gamma 90.000000
_cell_volume 2227.855686
_symmetry_space_group_name_H-M "P C C N"
_symmetry_group_IT_number 56
_symmetry_cell_setting 'orthorhombic'
loop_
_space_group_symop_operation_xyz
x,y,z
1/2-x,1/2-y,z
1/2+x,-y,1/2-z
-x,1/2+y,1/2-z
-x,-y,-z
1/2+x,1/2+y,-z
1/2-x,y,1/2+z
x,1/2-y,1/2+z
loop_
_atom_site_type_symbol
_atom_site_label
_atom_site_fract_x
_atom_site_fract_y
_atom_site_fract_z
Si Si1 0.216815 0.059088 0.620381
Si Si2 0.389086 0.339386 0.783547
Si Si3 0.538537 0.503537 0.550296
Si Si4 0.454601 0.995364 0.367547
Si Si5 0.750000 0.250000 0.092422
Si Si6 0.750000 0.750000 0.086477
Si Si7 0.859587 0.098454 0.288836
O O1 0.250000 0.250000 0.630750
O O2 0.110855 0.030807 0.578666
O O3 0.381724 0.982118 0.610694
O O4 0.140285 0.966122 0.661191
O O5 0.250000 0.250000 0.806600
O O6 0.472876 0.467066 0.815975
O O7 0.332673 0.438719 0.741077
O O8 0.486823 0.179199 0.773206
O O9 0.500000 0.500000 0.500000
O O10 0.671457 0.377258 0.560177
O O11 0.611408 0.681094 0.558353
O O12 0.325901 0.113019 0.384424
O O13 0.384360 0.816036 0.376492
O O14 0.750000 0.250000 0.281370
#
# Coordination Sequence:
#
# PCOD8229388 Si02
#       7
#     8   8   8   8   4   4   8
#     4  12  26  46  73 100 140 187 235 288 356 419
#     4  12  26  42  67  99 140 183 236 289 338 407
#     4  11  26  45  73 103 139 177 230 287 358 423
#     4  11  23  44  69  99 139 183 232 279 346 412
#     4  10  24  44  68 104 134 180 226 284 352 418
#     4  10  24  44  68 102 138 178 230 286 348 426
#     4  12  27  45  65 101 138 189 238 289 351 405
#
# _framework density 21.545380999999999
#
# number of rings (size 3 to 8) (size 9 to 14) (size 15 to 20)
#    0.000    0.667    4.167    2.500    7.000    1.333 
#    0.000    3.333    0.000    0.000    0.000    0.000 
#    0.000    0.000    0.000    0.000    0.000    0.000 
#
# Total GULP energy -594807.508599 kJ/mol
# GULP energy per Si atom -12391.823096 kJ/mol
# Density = 2.149634 g / cm^3
# Si number density = 21.545381 Si / 1000 Ang^3
#
#
#
# Elastic Constant Matrix: (Units=GPa)
#
#
# Indices 1 2 3 4 5 6 
#
# 1 129.4884 34.3593 49.2895 0.0000 0.0000 0.0000
# 2 34.3593 92.3750 39.3980 0.0000 0.0000 0.0000
# 3 49.2895 39.3980 118.8187 0.0000 0.0000 0.0000
# 4 0.0000 0.0000 0.0000 26.0876 0.0000 0.0000
# 5 0.0000 0.0000 0.0000 0.0000 31.1896 0.0000
# 6 0.0000 0.0000 0.0000 0.0000 0.0000 47.0651
#
#
#
# Elastic Compliance Matrix: (Units=1/GPa)
#
#
# Indices 1 2 3 4 5 6 
#
# 1 0.009528 -0.002164 -0.003235 0.000000 0.000000 0.000000
# 2 -0.002164 0.013100 -0.003446 0.000000 0.000000 0.000000
# 3 -0.003235 -0.003446 0.010901 0.000000 0.000000 0.000000
# 4 0.000000 0.000000 0.000000 0.038332 0.000000 0.000000
# 5 0.000000 0.000000 0.000000 0.000000 0.032062 0.000000
# 6 0.000000 0.000000 0.000000 0.000000 0.000000 0.021247
#
#
# Mechanical properties :
#
#
# Convention : Reuss Voigt Hill
#
# Bulk Modulus (GPa) = 63.13639 65.19731 64.16685
# Shear Modulus (GPa) = 33.75162 35.37748 34.56455
#
# Velocity S-wave (km/s) = 3.96224 4.05655 4.00968
# Velocity P-wave (km/s) = 7.09225 7.22959 7.16125
#
# Compressibility (1/GPa) = 0.01583873
#
# Stress axis : x y z
#
# Youngs Moduli (GPa) = 104.94929 76.33480 91.73677
#
# Poissons Ratio (x) = 0.16522 0.29677
# Poissons Ratio (y) = 0.22715 0.31612
# Poissons Ratio (z) = 0.33951 0.26304
#
# Static dielectric constant tensor:
#      x y z
#    x 3.606020 0.000000 0.000000 
#    y 0.000000 4.350680 0.000000 
#    z 0.000000 0.000000 3.583020 
# 
# 
# High freq. dielectric constant tensor:
#      x y z
#    x 1.870510 0.000000 0.000000 
#    y 0.000000 1.860310 0.000000 
#    z 0.000000 0.000000 1.821870 
# 
# From -- ./inp_files/23294.got.cif
#   From: 2010.03.12/outbox.cif.g09.slc.cpg/sg56_12_cif.got.tgz:23294.got - 2010.04.16 15:33:40.
