data_PCOD8229225
_publ_section_title
;
Structure prediction by ZEFSAII (Michael W. Deem and Ramdas Pophale) SiO2 
 PCOD8229225
Probable space group: P C C N
;
_chemical_formula_sum "Si O2"
_cell_formula_units_Z 48
_cell_length_a 8.613384
_cell_length_b 8.909848
_cell_length_c 31.570543
_cell_angle_alpha 90.000000
_cell_angle_beta 90.000000
_cell_angle_gamma 90.000000
_cell_volume 2422.847927
_symmetry_space_group_name_H-M "P C C N"
_symmetry_group_IT_number 56
_symmetry_cell_setting 'orthorhombic'
loop_
_space_group_symop_operation_xyz
x,y,z
1/2-x,1/2-y,z
1/2+x,-y,1/2-z
-x,1/2+y,1/2-z
-x,-y,-z
1/2+x,1/2+y,-z
1/2-x,y,1/2+z
x,1/2-y,1/2+z
loop_
_atom_site_type_symbol
_atom_site_label
_atom_site_fract_x
_atom_site_fract_y
_atom_site_fract_z
Si Si1 0.750000 0.750000 0.499003
Si Si2 0.920948 0.715216 0.837583
Si Si3 0.786789 0.995072 0.068105
Si Si4 0.416976 0.069641 0.798555
Si Si5 0.495232 0.779620 0.931128
Si Si6 0.133933 0.620383 0.279563
Si Si7 0.750000 0.750000 0.138064
O O1 0.801532 0.609225 0.527118
O O2 0.607367 0.695457 0.470593
O O3 0.750000 0.750000 0.819316
O O4 0.981250 0.559216 0.819445
O O5 0.909432 0.707030 0.887928
O O6 0.044535 0.842343 0.823366
O O7 0.627317 0.086241 0.067835
O O8 0.925614 0.113114 0.066710
O O9 0.799914 0.892686 0.109954
O O10 0.503441 0.116431 0.756220
O O11 0.397983 0.204333 0.832477
O O12 0.238139 0.026558 0.786863
O O13 0.250000 0.750000 0.265192
#
# Coordination Sequence:
#
# PCOD8229225 Si02
#       7
#     4   8   8   8   8   8   4
#     4  11  22  40  65  96 120 156 205 258 312 367
#     4  11  22  40  63  90 122 166 216 259 313 376
#     4  10  23  40  64  89 126 163 202 253 313 382
#     4  11  23  40  62  89 125 167 211 267 316 371
#     4  11  21  41  63  92 122 164 206 252 310 381
#     4  10  24  39  61  89 121 165 217 256 316 371
#     4  11  22  38  63  90 122 164 209 254 316 363
#
# _framework density 19.811395999999998
#
# number of rings (size 3 to 8) (size 9 to 14) (size 15 to 20)
#    0.000    1.333    2.500    3.000   10.500    0.000 
#    3.000    0.000    0.000    0.000    0.000    0.000 
#    0.000    0.000    0.000    0.000    0.000    0.000 
#
# Total GULP energy -595199.705003 kJ/mol
# GULP energy per Si atom -12399.993854 kJ/mol
# Density = 1.976630 g / cm^3
# Si number density = 19.811396 Si / 1000 Ang^3
#
#
#
# Elastic Constant Matrix: (Units=GPa)
#
#
# Indices 1 2 3 4 5 6 
#
# 1 69.8122 11.4850 6.1449 0.0000 0.0000 0.0000
# 2 11.4850 64.8370 21.1609 0.0000 0.0000 0.0000
# 3 6.1449 21.1609 93.2223 0.0000 0.0000 0.0000
# 4 0.0000 0.0000 0.0000 21.2871 0.0000 0.0000
# 5 0.0000 0.0000 0.0000 0.0000 161.7864 0.0000
# 6 0.0000 0.0000 0.0000 0.0000 0.0000 20.2128
#
#
#
# Elastic Compliance Matrix: (Units=1/GPa)
#
#
# Indices 1 2 3 4 5 6 
#
# 1 0.014769 -0.002482 -0.000410 0.000000 0.000000 0.000000
# 2 -0.002482 0.017075 -0.003712 0.000000 0.000000 0.000000
# 3 -0.000410 -0.003712 0.011597 0.000000 0.000000 0.000000
# 4 0.000000 0.000000 0.000000 0.046977 0.000000 0.000000
# 5 0.000000 0.000000 0.000000 0.000000 0.006181 0.000000
# 6 0.000000 0.000000 0.000000 0.000000 0.000000 0.049474
#
#
# Mechanical properties :
#
#
# Convention : Reuss Voigt Hill
#
# Bulk Modulus (GPa) = 33.07872 33.93923 33.50897
# Shear Modulus (GPa) = 29.52343 53.26266 41.39304
#
# Velocity S-wave (km/s) = 3.86453 5.19069 4.57591
# Velocity P-wave (km/s) = 6.05358 7.28647 6.69845
#
# Compressibility (1/GPa) = 0.03023091
#
# Stress axis : x y z
#
# Youngs Moduli (GPa) = 67.71126 58.56679 86.23125
#
# Poissons Ratio (x) = 0.14538 0.03536
# Poissons Ratio (y) = 0.16807 0.32011
# Poissons Ratio (z) = 0.02777 0.21741
#
# Static dielectric constant tensor:
#      x y z
#    x 3.583910 0.000000 0.000000 
#    y 0.000000 3.698800 0.000000 
#    z 0.000000 0.000000 3.692810 
# 
# 
# High freq. dielectric constant tensor:
#      x y z
#    x 1.769830 0.000000 0.000000 
#    y 0.000000 1.777540 0.000000 
#    z 0.000000 0.000000 1.785980 
# 
# From -- ./inp_files/23258.got.cif
#   From: 2010.03.12/outbox.cif.g09.slc.cpg/sg56_12_cif.got.tgz:23258.got - 2010.04.16 15:33:40.
