data_PCOD8229296
_publ_section_title
;
Structure prediction by ZEFSAII (Michael W. Deem and Ramdas Pophale) SiO2 
 PCOD8229296
Probable space group: P C C N
;
_chemical_formula_sum "Si O2"
_cell_formula_units_Z 60
_cell_length_a 14.699713
_cell_length_b 7.819685
_cell_length_c 23.071244
_cell_angle_alpha 90.000000
_cell_angle_beta 90.000000
_cell_angle_gamma 90.000000
_cell_volume 2651.973174
_symmetry_space_group_name_H-M "P C C N"
_symmetry_group_IT_number 56
_symmetry_cell_setting 'orthorhombic'
loop_
_space_group_symop_operation_xyz
x,y,z
1/2-x,1/2-y,z
1/2+x,-y,1/2-z
-x,1/2+y,1/2-z
-x,-y,-z
1/2+x,1/2+y,-z
1/2-x,y,1/2+z
x,1/2-y,1/2+z
loop_
_atom_site_type_symbol
_atom_site_label
_atom_site_fract_x
_atom_site_fract_y
_atom_site_fract_z
Si Si1 0.327875 0.509140 0.219992
Si Si2 0.250000 0.250000 0.430130
Si Si3 0.546131 0.632261 0.687075
Si Si4 0.078207 0.018951 0.102989
Si Si5 0.605977 0.677704 0.479547
Si Si6 0.359132 0.606950 0.741439
Si Si7 0.041939 0.648971 0.070191
Si Si8 0.388363 0.469508 0.855725
O O1 0.366365 0.449067 0.282238
O O2 0.378307 0.426052 0.164800
O O3 0.218613 0.472836 0.219126
O O4 0.339432 0.710465 0.214955
O O5 0.318151 0.351697 0.471750
O O6 0.194406 0.385816 0.391290
O O7 0.458866 0.555855 0.719860
O O8 0.533883 0.593597 0.618370
O O9 0.561931 0.836532 0.688883
O O10 0.098786 0.818775 0.088577
O O11 0.967854 0.042988 0.102676
O O12 0.121546 0.146381 0.055763
O O13 0.610006 0.511630 0.437590
O O14 0.507569 0.689358 0.509772
O O15 0.353167 0.615532 0.811959
#
# Coordination Sequence:
#
# PCOD8229296 Si02
#       8
#     8   4   8   8   8   8   8   8
#     4  11  24  39  63 104 139 170 234 282 344 439
#     4  12  24  46  66 106 134 178 250 298 336 422
#     4  11  20  42  67  94 139 180 219 286 352 420
#     4  11  22  46  72  97 136 187 225 288 359 421
#     4  11  25  43  72  97 133 180 242 287 350 408
#     4  11  22  39  64 100 134 177 223 275 352 425
#     4  10  23  44  69  97 135 180 231 288 343 423
#     4  11  23  41  70  95 138 181 223 291 351 419
#
# _framework density 22.624663000000002
#
# number of rings (size 3 to 8) (size 9 to 14) (size 15 to 20)
#    0.000    1.067    6.667    1.200    1.867    2.133 
#    0.000    0.000    2.933    0.000    0.000    0.000 
#    0.000    0.000    0.000    0.000    0.000    0.000 
#
# Total GULP energy -743531.115628 kJ/mol
# GULP energy per Si atom -12392.185260 kJ/mol
# Density = 2.257317 g / cm^3
# Si number density = 22.624663 Si / 1000 Ang^3
#
#
#
# Elastic Constant Matrix: (Units=GPa)
#
#
# Indices 1 2 3 4 5 6 
#
# 1 99.8368 22.7214 31.7002 0.0000 0.0000 0.0000
# 2 22.7214 68.6112 46.3678 0.0000 0.0000 0.0000
# 3 31.7002 46.3678 121.7598 0.0000 0.0000 0.0000
# 4 0.0000 0.0000 0.0000 41.2796 0.0000 0.0000
# 5 0.0000 0.0000 0.0000 0.0000 38.5644 0.0000
# 6 0.0000 0.0000 0.0000 0.0000 0.0000 14.8826
#
#
#
# Elastic Compliance Matrix: (Units=1/GPa)
#
#
# Indices 1 2 3 4 5 6 
#
# 1 0.011191 -0.002339 -0.002023 0.000000 0.000000 0.000000
# 2 -0.002339 0.020115 -0.007051 0.000000 0.000000 0.000000
# 3 -0.002023 -0.007051 0.011425 0.000000 0.000000 0.000000
# 4 0.000000 0.000000 0.000000 0.024225 0.000000 0.000000
# 5 0.000000 0.000000 0.000000 0.000000 0.025931 0.000000
# 6 0.000000 0.000000 0.000000 0.000000 0.000000 0.067192
#
#
# Mechanical properties :
#
#
# Convention : Reuss Voigt Hill
#
# Bulk Modulus (GPa) = 50.23965 54.64296 52.44130
# Shear Modulus (GPa) = 26.37984 31.57321 28.97653
#
# Velocity S-wave (km/s) = 3.41835 3.73972 3.58264
# Velocity P-wave (km/s) = 6.15094 6.54612 6.35160
#
# Compressibility (1/GPa) = 0.01990460
#
# Stress axis : x y z
#
# Youngs Moduli (GPa) = 89.35782 49.71534 87.53013
#
# Poissons Ratio (x) = 0.11628 0.17706
# Poissons Ratio (y) = 0.20900 0.61717
# Poissons Ratio (z) = 0.18076 0.35054
#
# Static dielectric constant tensor:
#      x y z
#    x 4.620550 0.000000 0.000000 
#    y 0.000000 3.883190 0.000000 
#    z 0.000000 0.000000 4.164600 
# 
# 
# High freq. dielectric constant tensor:
#      x y z
#    x 1.886900 0.000000 0.000000 
#    y 0.000000 1.867510 0.000000 
#    z 0.000000 0.000000 1.899600 
# 
# From -- ./inp_files/21142.got.cif
#   From: 2010.03.12/outbox.cif.g09.slc.cpg/sg56_11_cif.got.tgz:21142.got - 2010.04.16 15:33:40.
