data_PCOD8229535
_publ_section_title
;
Structure prediction by ZEFSAII (Michael W. Deem and Ramdas Pophale) SiO2 
 PCOD8229535
Probable space group: P C C N
;
_chemical_formula_sum "Si O2"
_cell_formula_units_Z 48
_cell_length_a 8.818701
_cell_length_b 15.590345
_cell_length_c 18.531068
_cell_angle_alpha 90.000000
_cell_angle_beta 90.000000
_cell_angle_gamma 90.000000
_cell_volume 2547.773368
_symmetry_space_group_name_H-M "P C C N"
_symmetry_group_IT_number 56
_symmetry_cell_setting 'orthorhombic'
loop_
_space_group_symop_operation_xyz
x,y,z
1/2-x,1/2-y,z
1/2+x,-y,1/2-z
-x,1/2+y,1/2-z
-x,-y,-z
1/2+x,1/2+y,-z
1/2-x,y,1/2+z
x,1/2-y,1/2+z
loop_
_atom_site_type_symbol
_atom_site_label
_atom_site_fract_x
_atom_site_fract_y
_atom_site_fract_z
Si Si1 0.579513 0.345202 0.331037
Si Si2 0.570200 0.583305 0.035117
Si Si3 0.420487 0.845202 0.668963
Si Si4 0.429994 0.250000 0.213201
Si Si5 0.070200 0.083305 0.464883
Si Si6 0.570132 0.750000 0.450270
O O1 0.582826 0.250000 0.366998
O O2 0.750000 0.380372 0.319314
O O3 0.494711 0.335622 0.253393
O O4 0.488047 0.409316 0.382699
O O5 0.511952 0.590684 0.117301
O O6 0.750000 0.576519 0.035307
O O7 0.500000 0.500000 0.000000
O O8 0.510504 0.664953 0.990003
O O9 0.505289 0.835622 0.746607
O O10 0.250000 0.250000 0.217926
O O11 0.490559 0.250000 0.131619
O O12 0.010504 0.164953 0.509997
O O13 0.000000 0.000000 0.500000
O O14 0.750000 0.750000 0.451092
#
# Coordination Sequence:
#
# PCOD8229535 Si02
#       6
#     8   8   8   8   8   8
#     4   9  18  33  53  78 106 139 177 218 264 318
#     4  11  21  36  57  83 110 144 183 226 272 324
#     4   9  18  33  53  78 106 139 177 218 264 318
#     4   9  16  31  56  80 102 141 180 217 272 326
#     4  11  21  36  57  83 110 144 183 226 272 324
#     4   9  19  35  56  80 110 141 178 223 272 324
#
# _framework density 18.839981000000002
#
# number of rings (size 3 to 8) (size 9 to 14) (size 15 to 20)
#    1.000    1.333    1.667    2.000    0.000    0.000 
#    0.000    8.333    0.000    0.000    0.000    0.000 
#    0.000    0.000    0.000    0.000    0.000    0.000 
#
# Total GULP energy -594876.958769 kJ/mol
# GULP energy per Si atom -12393.269974 kJ/mol
# Density = 1.879710 g / cm^3
# Si number density = 18.839981 Si / 1000 Ang^3
#
#
#
# Elastic Constant Matrix: (Units=GPa)
#
#
# Indices 1 2 3 4 5 6 
#
# 1 103.6197 26.6331 35.0862 0.0000 0.0000 0.0000
# 2 26.6331 86.5331 31.2816 0.0000 0.0000 0.0000
# 3 35.0862 31.2816 109.2538 0.0000 0.0000 0.0000
# 4 0.0000 0.0000 0.0000 12.8479 0.0000 0.0000
# 5 0.0000 0.0000 0.0000 0.0000 18.1521 0.0000
# 6 0.0000 0.0000 0.0000 0.0000 0.0000 28.5054
#
#
#
# Elastic Compliance Matrix: (Units=1/GPa)
#
#
# Indices 1 2 3 4 5 6 
#
# 1 0.011261 -0.002408 -0.002927 0.000000 0.000000 0.000000
# 2 -0.002408 0.013405 -0.003065 0.000000 0.000000 0.000000
# 3 -0.002927 -0.003065 0.010971 0.000000 0.000000 0.000000
# 4 0.000000 0.000000 0.000000 0.077834 0.000000 0.000000
# 5 0.000000 0.000000 0.000000 0.000000 0.055090 0.000000
# 6 0.000000 0.000000 0.000000 0.000000 0.000000 0.035081
#
#
# Mechanical properties :
#
#
# Convention : Reuss Voigt Hill
#
# Bulk Modulus (GPa) = 53.08637 53.93427 53.51032
# Shear Modulus (GPa) = 22.05369 25.66146 23.85758
#
# Velocity S-wave (km/s) = 3.42508 3.69463 3.56241
# Velocity P-wave (km/s) = 6.62422 6.84764 6.73685
#
# Compressibility (1/GPa) = 0.01883723
#
# Stress axis : x y z
#
# Youngs Moduli (GPa) = 88.80540 74.59737 91.15337
#
# Poissons Ratio (x) = 0.17961 0.26680
# Poissons Ratio (y) = 0.21382 0.27938
# Poissons Ratio (z) = 0.25992 0.22864
#
# Static dielectric constant tensor:
#      x y z
#    x 3.341530 0.000000 0.000000 
#    y 0.000000 3.190540 0.000000 
#    z 0.000000 0.000000 3.454720 
# 
# 
# High freq. dielectric constant tensor:
#      x y z
#    x 1.732470 0.000000 0.000000 
#    y 0.000000 1.700120 0.000000 
#    z 0.000000 0.000000 1.730780 
# 
# From -- ./inp_files/18071.got.cif
#   From: 2010.03.12/outbox.cif.g09.slc.cpg/sg56_10_cif.got.tgz:18071.got - 2010.04.16 15:33:40.
