data_PCOD8229115
_publ_section_title
;
Structure prediction by ZEFSAII (Michael W. Deem and Ramdas Pophale) SiO2 
 PCOD8229115
Probable space group: P C C N
;
_chemical_formula_sum "Si O2"
_cell_formula_units_Z 24
_cell_length_a 8.788210
_cell_length_b 5.063840
_cell_length_c 23.249178
_cell_angle_alpha 90.000000
_cell_angle_beta 90.000000
_cell_angle_gamma 90.000000
_cell_volume 1034.636996
_symmetry_space_group_name_H-M "P C C N"
_symmetry_group_IT_number 56
_symmetry_cell_setting 'orthorhombic'
loop_
_space_group_symop_operation_xyz
x,y,z
1/2-x,1/2-y,z
1/2+x,-y,1/2-z
-x,1/2+y,1/2-z
-x,-y,-z
1/2+x,1/2+y,-z
1/2-x,y,1/2+z
x,1/2-y,1/2+z
loop_
_atom_site_type_symbol
_atom_site_label
_atom_site_fract_x
_atom_site_fract_y
_atom_site_fract_z
Si Si1 0.853598 0.998940 0.781803
Si Si2 0.077427 0.671619 0.836196
Si Si3 0.858763 0.500034 0.042863
O O1 0.750000 0.750000 0.771566
O O2 0.967494 0.930578 0.835475
O O3 0.750000 0.250000 0.798541
O O4 0.957298 0.015010 0.723315
O O5 0.250000 0.750000 0.829367
O O6 0.060737 0.503060 0.894308
O O7 0.750000 0.250000 0.033260
O O8 0.750000 0.750000 0.034838
O O9 0.000000 0.500000 0.000000
#
# Coordination Sequence:
#
# PCOD8229115 Si02
#       3
#     8   8   8
#     4  11  23  39  63 100 136 169 214 267 329 402
#     4  10  22  42  67  96 134 177 216 269 336 401
#     4  11  25  47  72  98 133 178 229 282 336 395
#
# _framework density 23.196542999999998
#
# number of rings (size 3 to 8) (size 9 to 14) (size 15 to 20)
#    0.000    1.333    0.000    6.000    0.000    9.333 
#    0.000    8.333    0.000    0.000    0.000    0.000 
#    0.000    0.000    0.000    0.000    0.000    0.000 
#
# Total GULP energy -297365.242336 kJ/mol
# GULP energy per Si atom -12390.218431 kJ/mol
# Density = 2.314375 g / cm^3
# Si number density = 23.196543 Si / 1000 Ang^3
#
#
#
# Elastic Constant Matrix: (Units=GPa)
#
#
# Indices 1 2 3 4 5 6 
#
# 1 150.7365 79.6158 79.8985 0.0000 0.0000 0.0000
# 2 79.6158 168.9986 52.7958 0.0000 0.0000 0.0000
# 3 79.8985 52.7958 130.9126 0.0000 0.0000 0.0000
# 4 0.0000 0.0000 0.0000 20.3573 0.0000 0.0000
# 5 0.0000 0.0000 0.0000 0.0000 -58.0186 0.0000
# 6 0.0000 0.0000 0.0000 0.0000 0.0000 52.9946
#
#
#
# Elastic Compliance Matrix: (Units=1/GPa)
#
#
# Indices 1 2 3 4 5 6 
#
# 1 0.011525 -0.003698 -0.005543 0.000000 0.000000 0.000000
# 2 -0.003698 0.007957 -0.000952 0.000000 0.000000 0.000000
# 3 -0.005543 -0.000952 0.011405 0.000000 0.000000 0.000000
# 4 0.000000 0.000000 0.000000 0.049122 0.000000 0.000000
# 5 0.000000 0.000000 0.000000 0.000000 -0.017236 0.000000
# 6 0.000000 0.000000 0.000000 0.000000 0.000000 0.018870
#
#
# Mechanical properties :
#
#
# Convention : Reuss Voigt Hill
#
# Bulk Modulus (GPa) = 95.21883 97.25199 96.23541
# Shear Modulus (GPa) = 47.37998 18.95582 33.16790
#
# Velocity S-wave (km/s) = 4.52436 2.86174 3.78546
# Velocity P-wave (km/s) = 8.27230 7.27569 7.78995
#
# Compressibility (1/GPa) = 0.01050212
#
# Stress axis : x y z
#
# Youngs Moduli (GPa) = 86.76607 125.67967 87.67781
#
# Poissons Ratio (x) = 0.46477 0.48597
# Poissons Ratio (y) = 0.32086 0.08346
# Poissons Ratio (z) = 0.48092 0.11963
#
# Static dielectric constant tensor:
#      x y z
#    x 4.601290 0.000000 0.000000 
#    y 0.000000 4.316590 0.000000 
#    z 0.000000 0.000000 5.147620 
# 
# 
# High freq. dielectric constant tensor:
#      x y z
#    x 1.945680 0.000000 0.000000 
#    y 0.000000 1.925770 0.000000 
#    z 0.000000 0.000000 1.896030 
# 
# From -- ./inp_files/19707.got.cif
#   From: 2010.03.12/outbox.cif.g09.slc.cpg/sg56_10_cif.got.tgz:19707.got - 2010.04.16 15:33:40.
