data_PCOD8229562
_publ_section_title
;
Structure prediction by ZEFSAII (Michael W. Deem and Ramdas Pophale) SiO2 
 PCOD8229562
Probable space group: P C C N
;
_chemical_formula_sum "Si O2"
_cell_formula_units_Z 48
_cell_length_a 9.508548
_cell_length_b 16.645469
_cell_length_c 14.203563
_cell_angle_alpha 90.000000
_cell_angle_beta 90.000000
_cell_angle_gamma 90.000000
_cell_volume 2248.058153
_symmetry_space_group_name_H-M "P C C N"
_symmetry_group_IT_number 56
_symmetry_cell_setting 'orthorhombic'
loop_
_space_group_symop_operation_xyz
x,y,z
1/2-x,1/2-y,z
1/2+x,-y,1/2-z
-x,1/2+y,1/2-z
-x,-y,-z
1/2+x,1/2+y,-z
1/2-x,y,1/2+z
x,1/2-y,1/2+z
loop_
_atom_site_type_symbol
_atom_site_label
_atom_site_fract_x
_atom_site_fract_y
_atom_site_fract_z
Si Si1 0.668643 0.993020 0.982143
Si Si2 0.443387 0.322666 0.351374
Si Si3 0.364656 0.179168 0.064354
Si Si4 0.518060 0.665185 0.237413
Si Si5 0.266843 0.606218 0.680223
Si Si6 0.270484 0.039580 0.319210
O O1 0.705713 0.909381 0.928309
O O2 0.725381 0.068055 0.923540
O O3 0.761463 0.995243 0.075995
O O4 0.500000 0.000000 0.000000
O O5 0.446009 0.319067 0.464895
O O6 0.394913 0.235379 0.315157
O O7 0.593878 0.341727 0.305496
O O8 0.344143 0.390488 0.307888
O O9 0.250000 0.250000 0.071247
O O10 0.475174 0.183397 0.150560
O O11 0.360815 0.667402 0.196411
O O12 0.580282 0.578621 0.207774
O O13 0.243230 0.535157 0.753429
#
# Coordination Sequence:
#
# PCOD8229562 Si02
#       6
#     8   8   8   8   8   8
#     4  11  21  43  70  96 128 178 222 277 332 403
#     4  11  24  45  66  94 134 180 223 278 335 415
#     4  11  22  43  72  97 127 180 235 278 327 403
#     4  12  25  42  64 103 133 168 221 283 341 400
#     4  12  24  41  66  98 137 171 218 279 351 395
#     4  11  22  41  71  94 125 175 231 269 326 407
#
# _framework density 21.351762000000001
#
# number of rings (size 3 to 8) (size 9 to 14) (size 15 to 20)
#    0.000    0.667    5.000    6.000    0.000    0.667 
#    3.000    1.667    0.000    0.000    0.000    0.000 
#    0.000    0.000    0.000    0.000    0.000    0.000 
#
# Total GULP energy -595081.055897 kJ/mol
# GULP energy per Si atom -12397.521998 kJ/mol
# Density = 2.130316 g / cm^3
# Si number density = 21.351762 Si / 1000 Ang^3
#
#
#
# Elastic Constant Matrix: (Units=GPa)
#
#
# Indices 1 2 3 4 5 6 
#
# 1 90.9109 6.2413 26.3604 0.0000 0.0000 0.0000
# 2 6.2413 83.2867 23.0425 0.0000 0.0000 0.0000
# 3 26.3604 23.0425 103.8048 0.0000 0.0000 0.0000
# 4 0.0000 0.0000 0.0000 25.4518 0.0000 0.0000
# 5 0.0000 0.0000 0.0000 0.0000 32.0394 0.0000
# 6 0.0000 0.0000 0.0000 0.0000 0.0000 35.4292
#
#
#
# Elastic Compliance Matrix: (Units=1/GPa)
#
#
# Indices 1 2 3 4 5 6 
#
# 1 0.011874 -0.000059 -0.003002 0.000000 0.000000 0.000000
# 2 -0.000059 0.012793 -0.002825 0.000000 0.000000 0.000000
# 3 -0.003002 -0.002825 0.011023 0.000000 0.000000 0.000000
# 4 0.000000 0.000000 0.000000 0.039290 0.000000 0.000000
# 5 0.000000 0.000000 0.000000 0.000000 0.031212 0.000000
# 6 0.000000 0.000000 0.000000 0.000000 0.000000 0.028225
#
#
# Mechanical properties :
#
#
# Convention : Reuss Voigt Hill
#
# Bulk Modulus (GPa) = 41.81020 43.25456 42.53238
# Shear Modulus (GPa) = 32.43350 33.40795 32.92073
#
# Velocity S-wave (km/s) = 3.90167 3.95985 3.93087
# Velocity P-wave (km/s) = 6.31835 6.41945 6.36910
#
# Compressibility (1/GPa) = 0.02391761
#
# Stress axis : x y z
#
# Youngs Moduli (GPa) = 84.21496 78.16993 90.72038
#
# Poissons Ratio (x) = 0.00463 0.27237
# Poissons Ratio (y) = 0.00499 0.25625
# Poissons Ratio (z) = 0.25284 0.22080
#
# Static dielectric constant tensor:
#      x y z
#    x 3.754400 0.000000 0.000000 
#    y 0.000000 4.151290 0.000000 
#    z 0.000000 0.000000 4.041850 
# 
# 
# High freq. dielectric constant tensor:
#      x y z
#    x 1.817850 0.000000 0.000000 
#    y 0.000000 1.858020 0.000000 
#    z 0.000000 0.000000 1.844300 
# 
# From -- ./inp_files/10660.got.cif
#   From: 2010.03.12/outbox.cif.g09.slc.cpg/sg56_6_cif.got.tgz:10660.got - 2010.04.16 15:33:40.
