data_PCOD8229780
_publ_section_title
;
Structure prediction by ZEFSAII (Michael W. Deem and Ramdas Pophale) SiO2 
 PCOD8229780
Probable space group: P C C N
;
_chemical_formula_sum "Si O2"
_cell_formula_units_Z 36
_cell_length_a 8.748613
_cell_length_b 7.868937
_cell_length_c 22.829799
_cell_angle_alpha 90.000000
_cell_angle_beta 90.000000
_cell_angle_gamma 90.000000
_cell_volume 1571.655519
_symmetry_space_group_name_H-M "P C C N"
_symmetry_group_IT_number 56
_symmetry_cell_setting 'orthorhombic'
loop_
_space_group_symop_operation_xyz
x,y,z
1/2-x,1/2-y,z
1/2+x,-y,1/2-z
-x,1/2+y,1/2-z
-x,-y,-z
1/2+x,1/2+y,-z
1/2-x,y,1/2+z
x,1/2-y,1/2+z
loop_
_atom_site_type_symbol
_atom_site_label
_atom_site_fract_x
_atom_site_fract_y
_atom_site_fract_z
Si Si1 0.750000 0.250000 0.871809
Si Si2 0.680526 0.925101 0.949699
Si Si3 0.170633 0.570784 0.931078
Si Si4 0.000321 0.316126 0.277080
Si Si5 0.703633 0.509814 0.698977
O O1 0.774368 0.416553 0.910103
O O2 0.598774 0.288068 0.835025
O O3 0.750000 0.750000 0.925333
O O4 0.501608 0.893649 0.948908
O O5 0.743049 0.961509 0.015702
O O6 0.250000 0.750000 0.922575
O O7 0.186939 0.468004 0.870653
O O8 0.116959 0.478769 0.283432
O O9 0.110895 0.157191 0.267281
O O10 0.881527 0.339786 0.222687
#
# Coordination Sequence:
#
# PCOD8229780 Si02
#       5
#     4   8   8   8   8
#     4  12  24  50  70 112 150 194 242 314 352 464
#     4  11  27  47  76 110 146 198 241 301 375 437
#     4  11  26  47  72 106 148 186 247 297 367 448
#     4  11  26  46  72 101 150 183 251 296 373 429
#     4  11  26  45  71 106 140 199 234 311 360 443
#
# _framework density 22.905783
#
# number of rings (size 3 to 8) (size 9 to 14) (size 15 to 20)
#    0.000    0.889    3.333    1.333   10.889    0.889 
#    0.000    0.000    0.000    0.000    0.000    0.000 
#    0.000    0.000    0.000    0.000    0.000    0.000 
#
# Total GULP energy -446328.569190 kJ/mol
# GULP energy per Si atom -12398.015811 kJ/mol
# Density = 2.285365 g / cm^3
# Si number density = 22.905783 Si / 1000 Ang^3
#
#
#
# Elastic Constant Matrix: (Units=GPa)
#
#
# Indices 1 2 3 4 5 6 
#
# 1 120.8449 36.1091 42.2489 0.0000 0.0000 0.0000
# 2 36.1091 107.2722 21.7775 0.0000 0.0000 0.0000
# 3 42.2489 21.7775 133.1515 0.0000 0.0000 0.0000
# 4 0.0000 0.0000 0.0000 7.1856 0.0000 0.0000
# 5 0.0000 0.0000 0.0000 0.0000 180.2800 0.0000
# 6 0.0000 0.0000 0.0000 0.0000 0.0000 45.8958
#
#
#
# Elastic Compliance Matrix: (Units=1/GPa)
#
#
# Indices 1 2 3 4 5 6 
#
# 1 0.010079 -0.002838 -0.002734 0.000000 0.000000 0.000000
# 2 -0.002838 0.010441 -0.000807 0.000000 0.000000 0.000000
# 3 -0.002734 -0.000807 0.008510 0.000000 0.000000 0.000000
# 4 0.000000 0.000000 0.000000 0.139167 0.000000 0.000000
# 5 0.000000 0.000000 0.000000 0.000000 0.005547 0.000000
# 6 0.000000 0.000000 0.000000 0.000000 0.000000 0.021788
#
#
# Mechanical properties :
#
#
# Convention : Reuss Voigt Hill
#
# Bulk Modulus (GPa) = 61.45519 62.39327 61.92423
# Shear Modulus (GPa) = 23.39575 64.08116 43.73845
#
# Velocity S-wave (km/s) = 3.19939 5.29497 4.37452
# Velocity P-wave (km/s) = 6.36678 8.04242 7.25315
#
# Compressibility (1/GPa) = 0.01627202
#
# Stress axis : x y z
#
# Youngs Moduli (GPa) = 99.21849 95.77488 117.51241
#
# Poissons Ratio (x) = 0.27177 0.32126
# Poissons Ratio (y) = 0.28154 0.09487
# Poissons Ratio (z) = 0.27125 0.07732
#
# Static dielectric constant tensor:
#      x y z
#    x 4.491550 0.000000 0.000000 
#    y 0.000000 4.274200 0.000000 
#    z 0.000000 0.000000 4.185580 
# 
# 
# High freq. dielectric constant tensor:
#      x y z
#    x 1.920860 0.000000 0.000000 
#    y 0.000000 1.914090 0.000000 
#    z 0.000000 0.000000 1.901580 
# 
# From -- ./inp_files/17872.got.cif
#   From: 2010.03.12/outbox.cif.g09.slc.cpg/sg56_9_cif.got.tgz:17872.got - 2010.04.16 15:33:40.
