data_PCOD8229806
_publ_section_title
;
Structure prediction by ZEFSAII (Michael W. Deem and Ramdas Pophale) SiO2 
 PCOD8229806
Probable space group: P C C N
;
_chemical_formula_sum "Si O2"
_cell_formula_units_Z 36
_cell_length_a 12.092209
_cell_length_b 5.249011
_cell_length_c 22.656896
_cell_angle_alpha 90.000000
_cell_angle_beta 90.000000
_cell_angle_gamma 90.000000
_cell_volume 1438.081631
_symmetry_space_group_name_H-M "P C C N"
_symmetry_group_IT_number 56
_symmetry_cell_setting 'orthorhombic'
loop_
_space_group_symop_operation_xyz
x,y,z
1/2-x,1/2-y,z
1/2+x,-y,1/2-z
-x,1/2+y,1/2-z
-x,-y,-z
1/2+x,1/2+y,-z
1/2-x,y,1/2+z
x,1/2-y,1/2+z
loop_
_atom_site_type_symbol
_atom_site_label
_atom_site_fract_x
_atom_site_fract_y
_atom_site_fract_z
Si Si1 0.448890 0.807041 0.456250
Si Si2 0.316483 0.510264 0.856448
Si Si3 0.068374 0.690189 0.243063
Si Si4 0.669889 0.957337 0.959924
Si Si5 0.750000 0.250000 0.354095
O O1 0.421171 0.983886 0.399584
O O2 0.345099 0.674492 0.489889
O O3 0.546075 0.612698 0.438674
O O4 0.500000 0.000000 0.500000
O O5 0.250000 0.750000 0.880699
O O6 0.349507 0.559096 0.789214
O O7 0.250000 0.250000 0.860900
O O8 0.138446 0.765969 0.185128
O O9 0.980284 0.459031 0.230976
O O10 0.750000 0.750000 0.991616
O O11 0.738285 0.017464 0.899933
#
# Coordination Sequence:
#
# PCOD8229806 Si02
#       5
#     8   8   8   8   4
#     4  11  28  47  76 116 158 207 260 327 401 475
#     4  12  29  50  78 114 158 205 259 326 396 469
#     4  12  29  52  81 115 156 208 265 330 394 470
#     4  11  27  48  77 115 157 207 265 325 396 477
#     4  12  28  48  80 112 156 212 268 330 394 480
#
# _framework density 25.033349999999999
#
# number of rings (size 3 to 8) (size 9 to 14) (size 15 to 20)
#    0.000    0.444    1.111    4.000   20.222    0.000 
#    0.000    0.000    0.000    0.000    0.000    0.000 
#    0.000    0.000    0.000    0.000    0.000    0.000 
#
# Total GULP energy -446014.452276 kJ/mol
# GULP energy per Si atom -12389.290341 kJ/mol
# Density = 2.497637 g / cm^3
# Si number density = 25.033350 Si / 1000 Ang^3
#
#
#
# Elastic Constant Matrix: (Units=GPa)
#
#
# Indices 1 2 3 4 5 6 
#
# 1 109.8565 62.9362 47.6430 0.0000 0.0000 0.0000
# 2 62.9362 166.5208 46.2088 0.0000 0.0000 0.0000
# 3 47.6430 46.2088 124.5969 0.0000 0.0000 0.0000
# 4 0.0000 0.0000 0.0000 31.0555 0.0000 0.0000
# 5 0.0000 0.0000 0.0000 0.0000 50.7793 0.0000
# 6 0.0000 0.0000 0.0000 0.0000 0.0000 61.3950
#
#
#
# Elastic Compliance Matrix: (Units=1/GPa)
#
#
# Indices 1 2 3 4 5 6 
#
# 1 0.012833 -0.003889 -0.003465 0.000000 0.000000 0.000000
# 2 -0.003889 0.007873 -0.001433 0.000000 0.000000 0.000000
# 3 -0.003465 -0.001433 0.009882 0.000000 0.000000 0.000000
# 4 0.000000 0.000000 0.000000 0.032200 0.000000 0.000000
# 5 0.000000 0.000000 0.000000 0.000000 0.019693 0.000000
# 6 0.000000 0.000000 0.000000 0.000000 0.000000 0.016288
#
#
# Mechanical properties :
#
#
# Convention : Reuss Voigt Hill
#
# Bulk Modulus (GPa) = 76.83340 79.39445 78.11393
# Shear Modulus (GPa) = 41.43157 44.92504 43.17830
#
# Velocity S-wave (km/s) = 4.07265 4.24088 4.15761
# Velocity P-wave (km/s) = 7.27148 7.46755 7.37017
#
# Compressibility (1/GPa) = 0.01301517
#
# Stress axis : x y z
#
# Youngs Moduli (GPa) = 77.92178 127.02288 101.19273
#
# Poissons Ratio (x) = 0.49397 0.35063
# Poissons Ratio (y) = 0.30303 0.14498
# Poissons Ratio (z) = 0.27000 0.18198
#
# Static dielectric constant tensor:
#      x y z
#    x 3.911850 0.000000 0.000000 
#    y 0.000000 4.673380 0.000000 
#    z 0.000000 0.000000 4.437010 
# 
# 
# High freq. dielectric constant tensor:
#      x y z
#    x 2.014040 0.000000 0.000000 
#    y 0.000000 2.005250 0.000000 
#    z 0.000000 0.000000 2.002380 
# 
# From -- ./inp_files/19894.got.cif
#   From: 2010.03.12/outbox.cif.g09.slc.cpg/sg56_10_cif.got.tgz:19894.got - 2010.04.16 15:33:40.
