data_PCOD8229730
_publ_section_title
;
Structure prediction by ZEFSAII (Michael W. Deem and Ramdas Pophale) SiO2 
 PCOD8229730
Probable space group: P C C N
;
_chemical_formula_sum "Si O2"
_cell_formula_units_Z 32
_cell_length_a 22.876512
_cell_length_b 5.929849
_cell_length_c 9.420846
_cell_angle_alpha 90.000000
_cell_angle_beta 90.000000
_cell_angle_gamma 90.000000
_cell_volume 1277.977910
_symmetry_space_group_name_H-M "P C C N"
_symmetry_group_IT_number 56
_symmetry_cell_setting 'orthorhombic'
loop_
_space_group_symop_operation_xyz
x,y,z
1/2-x,1/2-y,z
1/2+x,-y,1/2-z
-x,1/2+y,1/2-z
-x,-y,-z
1/2+x,1/2+y,-z
1/2-x,y,1/2+z
x,1/2-y,1/2+z
loop_
_atom_site_type_symbol
_atom_site_label
_atom_site_fract_x
_atom_site_fract_y
_atom_site_fract_z
Si Si1 0.705981 0.456577 0.246229
Si Si2 0.173376 0.266685 0.519255
Si Si3 0.435715 0.538411 0.444462
Si Si4 0.389426 0.647542 0.164594
O O1 0.750000 0.250000 0.221030
O O2 0.715711 0.585690 0.398294
O O3 0.641274 0.352463 0.251444
O O4 0.707328 0.636730 0.117882
O O5 0.159913 0.461256 0.633475
O O6 0.110841 0.157214 0.479350
O O7 0.500000 0.500000 0.500000
O O8 0.438826 0.559828 0.273608
O O9 0.416619 0.773284 0.516777
#
# Coordination Sequence:
#
# PCOD8229730 Si02
#       4
#     8   8   8   8
#     4  11  26  50  77 106 147 199 251 315 385 451
#     4  11  24  50  73 108 154 192 255 317 374 459
#     4  11  26  43  75 109 151 201 245 309 384 449
#     4  11  24  47  68 111 149 188 256 310 364 466
#
# _framework density 25.039556999999999
#
# number of rings (size 3 to 8) (size 9 to 14) (size 15 to 20)
#    0.000    1.000    5.000    0.000    3.500    3.000 
#    4.500    1.250    0.000    0.000    0.000    0.000 
#    0.000    0.000    0.000    0.000    0.000    0.000 
#
# Total GULP energy -396728.242908 kJ/mol
# GULP energy per Si atom -12397.757591 kJ/mol
# Density = 2.498257 g / cm^3
# Si number density = 25.039557 Si / 1000 Ang^3
#
#
#
# Elastic Constant Matrix: (Units=GPa)
#
#
# Indices 1 2 3 4 5 6 
#
# 1 96.9573 46.4603 34.1107 0.0000 0.0000 0.0000
# 2 46.4603 123.0270 56.9922 0.0000 0.0000 0.0000
# 3 34.1107 56.9922 152.1782 0.0000 0.0000 0.0000
# 4 0.0000 0.0000 0.0000 47.6668 0.0000 0.0000
# 5 0.0000 0.0000 0.0000 0.0000 32.6928 0.0000
# 6 0.0000 0.0000 0.0000 0.0000 0.0000 30.8036
#
#
#
# Elastic Compliance Matrix: (Units=1/GPa)
#
#
# Indices 1 2 3 4 5 6 
#
# 1 0.012796 -0.004239 -0.001281 0.000000 0.000000 0.000000
# 2 -0.004239 0.011239 -0.003259 0.000000 0.000000 0.000000
# 3 -0.001281 -0.003259 0.008079 0.000000 0.000000 0.000000
# 4 0.000000 0.000000 0.000000 0.020979 0.000000 0.000000
# 5 0.000000 0.000000 0.000000 0.000000 0.030588 0.000000
# 6 0.000000 0.000000 0.000000 0.000000 0.000000 0.032464
#
#
# Mechanical properties :
#
#
# Convention : Reuss Voigt Hill
#
# Bulk Modulus (GPa) = 68.69873 71.92099 70.30986
# Shear Modulus (GPa) = 36.08738 37.87257 36.97998
#
# Velocity S-wave (km/s) = 3.80045 3.89332 3.84717
# Velocity P-wave (km/s) = 6.83766 6.99971 6.91916
#
# Compressibility (1/GPa) = 0.01455631
#
# Stress axis : x y z
#
# Youngs Moduli (GPa) = 78.15201 88.97769 123.78119
#
# Poissons Ratio (x) = 0.37717 0.15851
# Poissons Ratio (y) = 0.33128 0.40339
# Poissons Ratio (z) = 0.10008 0.28997
#
# Static dielectric constant tensor:
#      x y z
#    x 4.254390 0.000000 0.000000 
#    y 0.000000 5.279330 0.000000 
#    z 0.000000 0.000000 4.624350 
# 
# 
# High freq. dielectric constant tensor:
#      x y z
#    x 1.990180 0.000000 0.000000 
#    y 0.000000 2.009860 0.000000 
#    z 0.000000 0.000000 2.011540 
# 
# From -- ./inp_files/5054.got.cif
#   From: 2010.03.12/outbox.cif.g09.slc.cpg/sg56_3_cif.got.tgz:5054.got - 2010.04.16 15:33:40.
