data_PCOD8229059
_publ_section_title
;
Structure prediction by ZEFSAII (Michael W. Deem and Ramdas Pophale) SiO2 
 PCOD8229059
Probable space group: P C C N
;
_chemical_formula_sum "Si O2"
_cell_formula_units_Z 48
_cell_length_a 8.147626
_cell_length_b 17.853458
_cell_length_c 14.698675
_cell_angle_alpha 90.000000
_cell_angle_beta 90.000000
_cell_angle_gamma 90.000000
_cell_volume 2138.117750
_symmetry_space_group_name_H-M "P C C N"
_symmetry_group_IT_number 56
_symmetry_cell_setting 'orthorhombic'
loop_
_space_group_symop_operation_xyz
x,y,z
1/2-x,1/2-y,z
1/2+x,-y,1/2-z
-x,1/2+y,1/2-z
-x,-y,-z
1/2+x,1/2+y,-z
1/2-x,y,1/2+z
x,1/2-y,1/2+z
loop_
_atom_site_type_symbol
_atom_site_label
_atom_site_fract_x
_atom_site_fract_y
_atom_site_fract_z
Si Si1 0.373844 0.498823 0.360732
Si Si2 0.061691 0.225272 0.974561
Si Si3 0.246324 0.533992 0.665901
Si Si4 0.888456 0.305578 0.296412
Si Si5 0.806021 0.921816 0.976338
Si Si6 0.500035 0.847584 0.891463
O O1 0.560914 0.470330 0.356477
O O2 0.289689 0.494075 0.262145
O O3 0.273129 0.445651 0.427814
O O4 0.368596 0.584266 0.399568
O O5 0.250000 0.250000 0.972180
O O6 0.988249 0.236139 0.874977
O O7 0.048289 0.137681 0.004855
O O8 0.956069 0.278212 0.042228
O O9 0.192283 0.619263 0.665104
O O10 0.139359 0.492774 0.585514
O O11 0.750000 0.250000 0.259522
O O12 0.009359 0.320890 0.212726
O O13 0.678193 0.878409 0.913010
#
# Coordination Sequence:
#
# PCOD8229059 Si02
#       6
#     8   8   8   8   8   8
#     4  10  22  41  70  92 132 173 217 270 335 383
#     4  10  24  42  66  95 125 173 222 264 330 398
#     4  10  23  42  64  96 129 170 219 269 325 389
#     4  11  26  41  64  97 133 170 215 275 333 384
#     4  10  22  40  72  94 124 177 216 274 324 392
#     4   9  21  44  58  92 128 171 211 258 330 387
#
# _framework density 22.449653000000001
#
# number of rings (size 3 to 8) (size 9 to 14) (size 15 to 20)
#    0.000    2.000    0.000    2.000   14.000    4.667 
#    3.000    0.000    0.000    0.000    0.000    0.000 
#    0.000    0.000    0.000    0.000    0.000    0.000 
#
# Total GULP energy -595162.481535 kJ/mol
# GULP energy per Si atom -12399.218365 kJ/mol
# Density = 2.239856 g / cm^3
# Si number density = 22.449653 Si / 1000 Ang^3
#
#
#
# Elastic Constant Matrix: (Units=GPa)
#
#
# Indices 1 2 3 4 5 6 
#
# 1 16.8272 11.3785 16.6439 0.0000 0.0000 0.0000
# 2 11.3785 94.7951 47.8170 0.0000 0.0000 0.0000
# 3 16.6439 47.8170 129.5568 0.0000 0.0000 0.0000
# 4 0.0000 0.0000 0.0000 44.5139 0.0000 0.0000
# 5 0.0000 0.0000 0.0000 0.0000 32.2974 0.0000
# 6 0.0000 0.0000 0.0000 0.0000 0.0000 20.2194
#
#
#
# Elastic Compliance Matrix: (Units=1/GPa)
#
#
# Indices 1 2 3 4 5 6 
#
# 1 0.069766 -0.004735 -0.007215 0.000000 0.000000 0.000000
# 2 -0.004735 0.013284 -0.004294 0.000000 0.000000 0.000000
# 3 -0.007215 -0.004294 0.010231 0.000000 0.000000 0.000000
# 4 0.000000 0.000000 0.000000 0.022465 0.000000 0.000000
# 5 0.000000 0.000000 0.000000 0.000000 0.030962 0.000000
# 6 0.000000 0.000000 0.000000 0.000000 0.000000 0.049458
#
#
# Mechanical properties :
#
#
# Convention : Reuss Voigt Hill
#
# Bulk Modulus (GPa) = 16.44974 43.65088 30.05031
# Shear Modulus (GPa) = 20.08702 30.42878 25.25790
#
# Velocity S-wave (km/s) = 2.99450 3.68560 3.35788
# Velocity P-wave (km/s) = 4.39310 6.13169 5.33371
#
# Compressibility (1/GPa) = 0.06079125
#
# Stress axis : x y z
#
# Youngs Moduli (GPa) = 14.33369 75.28063 97.74636
#
# Poissons Ratio (x) = 0.35643 0.70526
# Poissons Ratio (y) = 0.06787 0.41977
# Poissons Ratio (z) = 0.10342 0.32329
#
# Static dielectric constant tensor:
#      x y z
#    x 3.733280 0.000000 0.000000 
#    y 0.000000 4.677440 0.000000 
#    z 0.000000 0.000000 4.250180 
# 
# 
# High freq. dielectric constant tensor:
#      x y z
#    x 1.853120 0.000000 0.000000 
#    y 0.000000 1.902690 0.000000 
#    z 0.000000 0.000000 1.898210 
# 
# From -- ./inp_files/10635.got.cif
#   From: 2010.03.12/outbox.cif.g09.slc.cpg/sg56_6_cif.got.tgz:10635.got - 2010.04.16 15:33:40.
