data_PCOD8229727
_publ_section_title
;
Structure prediction by ZEFSAII (Michael W. Deem and Ramdas Pophale) SiO2 
 PCOD8229727
Probable space group: P C C N
;
_chemical_formula_sum "Si O2"
_cell_formula_units_Z 48
_cell_length_a 9.161316
_cell_length_b 8.397984
_cell_length_c 27.224003
_cell_angle_alpha 90.000000
_cell_angle_beta 90.000000
_cell_angle_gamma 90.000000
_cell_volume 2094.521826
_symmetry_space_group_name_H-M "P C C N"
_symmetry_group_IT_number 56
_symmetry_cell_setting 'orthorhombic'
loop_
_space_group_symop_operation_xyz
x,y,z
1/2-x,1/2-y,z
1/2+x,-y,1/2-z
-x,1/2+y,1/2-z
-x,-y,-z
1/2+x,1/2+y,-z
1/2-x,y,1/2+z
x,1/2-y,1/2+z
loop_
_atom_site_type_symbol
_atom_site_label
_atom_site_fract_x
_atom_site_fract_y
_atom_site_fract_z
Si Si1 0.652875 0.114804 0.735820
Si Si2 0.425093 0.926615 0.432847
Si Si3 0.472026 0.408638 0.594100
Si Si4 0.276064 0.566573 0.033134
Si Si5 0.732202 0.566288 0.646623
Si Si6 0.603764 0.674140 0.301746
O O1 0.750000 0.250000 0.763537
O O2 0.524764 0.201357 0.706443
O O3 0.764269 0.029918 0.697689
O O4 0.580227 0.994705 0.774472
O O5 0.435658 0.735546 0.429385
O O6 0.308586 0.966852 0.475788
O O7 0.583472 0.003114 0.438576
O O8 0.370286 0.004871 0.383316
O O9 0.368874 0.474266 0.550752
O O10 0.584366 0.538727 0.615780
O O11 0.375389 0.351990 0.640068
O O12 0.250000 0.750000 0.045300
O O13 0.750000 0.750000 0.659089
O O14 0.750000 0.750000 0.280126
#
# Coordination Sequence:
#
# PCOD8229727 Si02
#       6
#     8   8   8   8   8   8
#     4  12  25  48  71 105 143 189 240 294 368 441
#     4  11  24  46  72 100 146 194 235 308 364 434
#     4  12  25  47  71 102 145 196 237 305 370 434
#     4  11  25  43  70 107 143 184 247 296 362 436
#     4  12  25  44  73 101 141 186 245 297 364 436
#     4  12  26  44  73 103 144 191 237 301 362 443
#
# _framework density 22.916924000000002
#
# number of rings (size 3 to 8) (size 9 to 14) (size 15 to 20)
#    0.000    0.333    3.333    5.500    2.333    6.000 
#    0.000    0.000    0.000    0.000    0.000    0.000 
#    0.000    0.000    0.000    0.000    0.000    0.000 
#
# Total GULP energy -595325.171728 kJ/mol
# GULP energy per Si atom -12402.607744 kJ/mol
# Density = 2.286476 g / cm^3
# Si number density = 22.916924 Si / 1000 Ang^3
#
#
#
# Elastic Constant Matrix: (Units=GPa)
#
#
# Indices 1 2 3 4 5 6 
#
# 1 99.5700 47.1218 26.6792 0.0000 0.0000 0.0000
# 2 47.1218 141.3329 33.8987 0.0000 0.0000 0.0000
# 3 26.6792 33.8987 89.9691 0.0000 0.0000 0.0000
# 4 0.0000 0.0000 0.0000 32.2271 0.0000 0.0000
# 5 0.0000 0.0000 0.0000 0.0000 22.4402 0.0000
# 6 0.0000 0.0000 0.0000 0.0000 0.0000 49.1814
#
#
#
# Elastic Compliance Matrix: (Units=1/GPa)
#
#
# Indices 1 2 3 4 5 6 
#
# 1 0.012350 -0.003561 -0.002321 0.000000 0.000000 0.000000
# 2 -0.003561 0.008805 -0.002262 0.000000 0.000000 0.000000
# 3 -0.002321 -0.002262 0.012655 0.000000 0.000000 0.000000
# 4 0.000000 0.000000 0.000000 0.031030 0.000000 0.000000
# 5 0.000000 0.000000 0.000000 0.000000 0.044563 0.000000
# 6 0.000000 0.000000 0.000000 0.000000 0.000000 0.020333
#
#
# Mechanical properties :
#
#
# Convention : Reuss Voigt Hill
#
# Bulk Modulus (GPa) = 57.06431 60.69682 58.88056
# Shear Modulus (GPa) = 32.92414 35.64790 34.28602
#
# Velocity S-wave (km/s) = 3.79446 3.94830 3.87214
# Velocity P-wave (km/s) = 6.64468 6.87957 6.76315
#
# Compressibility (1/GPa) = 0.01752409
#
# Stress axis : x y z
#
# Youngs Moduli (GPa) = 80.96988 113.56844 79.01882
#
# Poissons Ratio (x) = 0.40443 0.18337
# Poissons Ratio (y) = 0.28834 0.17871
# Poissons Ratio (z) = 0.18790 0.25685
#
# Static dielectric constant tensor:
#      x y z
#    x 4.154490 0.000000 0.000000 
#    y 0.000000 4.270130 0.000000 
#    z 0.000000 0.000000 4.048400 
# 
# 
# High freq. dielectric constant tensor:
#      x y z
#    x 1.919860 0.000000 0.000000 
#    y 0.000000 1.912290 0.000000 
#    z 0.000000 0.000000 1.902180 
# 
# From -- ./inp_files/23198.got.cif
#   From: 2010.03.12/outbox.cif.g09.slc.cpg/sg56_12_cif.got.tgz:23198.got - 2010.04.16 15:33:40.
