data_PCOD8229283
_publ_section_title
;
Structure prediction by ZEFSAII (Michael W. Deem and Ramdas Pophale) SiO2 
 PCOD8229283
Probable space group: P C C N
;
_chemical_formula_sum "Si O2"
_cell_formula_units_Z 40
_cell_length_a 21.803689
_cell_length_b 7.566043
_cell_length_c 10.230849
_cell_angle_alpha 90.000000
_cell_angle_beta 90.000000
_cell_angle_gamma 90.000000
_cell_volume 1687.759102
_symmetry_space_group_name_H-M "P C C N"
_symmetry_group_IT_number 56
_symmetry_cell_setting 'orthorhombic'
loop_
_space_group_symop_operation_xyz
x,y,z
1/2-x,1/2-y,z
1/2+x,-y,1/2-z
-x,1/2+y,1/2-z
-x,-y,-z
1/2+x,1/2+y,-z
1/2-x,y,1/2+z
x,1/2-y,1/2+z
loop_
_atom_site_type_symbol
_atom_site_label
_atom_site_fract_x
_atom_site_fract_y
_atom_site_fract_z
Si Si1 0.991115 0.264524 0.116901
Si Si2 0.815038 0.664397 0.647908
Si Si3 0.061905 0.353141 0.868950
Si Si4 0.632381 0.162724 0.546392
Si Si5 0.186233 0.666330 0.193401
O O1 0.019415 0.229385 0.257209
O O2 0.949354 0.439532 0.124586
O O3 0.939505 0.120007 0.075811
O O4 0.043910 0.269936 0.008574
O O5 0.750000 0.750000 0.614100
O O6 0.866775 0.814744 0.662090
O O7 0.834287 0.528996 0.530206
O O8 0.810896 0.546730 0.782507
O O9 0.638346 0.290121 0.421695
O O10 0.663154 0.259329 0.672868
O O11 0.250000 0.750000 0.148350
#
# Coordination Sequence:
#
# PCOD8229283 Si02
#       5
#     8   8   8   8   8
#     4  11  25  46  76 105 146 187 247 298 364 435
#     4  10  26  48  71 107 147 191 240 296 363 438
#     4  11  26  46  73 108 143 190 241 302 363 434
#     4  10  23  43  77 101 139 187 243 292 362 423
#     4  10  23  43  71 101 139 192 237 289 358 435
#
# _framework density 23.700066
#
# number of rings (size 3 to 8) (size 9 to 14) (size 15 to 20)
#    1.200    0.400    0.000    3.000    8.400    4.800 
#    0.000    0.000    0.000    0.000    0.000    0.000 
#    0.000    0.000    0.000    0.000    0.000    0.000 
#
# Total GULP energy -495772.936757 kJ/mol
# GULP energy per Si atom -12394.323419 kJ/mol
# Density = 2.364612 g / cm^3
# Si number density = 23.700066 Si / 1000 Ang^3
#
#
#
# Elastic Constant Matrix: (Units=GPa)
#
#
# Indices 1 2 3 4 5 6 
#
# 1 165.2946 57.7793 20.0698 0.0000 0.0000 0.0000
# 2 57.7793 81.6353 35.0854 0.0000 0.0000 0.0000
# 3 20.0698 35.0854 108.2269 0.0000 0.0000 0.0000
# 4 0.0000 0.0000 0.0000 18.9497 0.0000 0.0000
# 5 0.0000 0.0000 0.0000 0.0000 23.3309 0.0000
# 6 0.0000 0.0000 0.0000 0.0000 0.0000 44.5040
#
#
#
# Elastic Compliance Matrix: (Units=1/GPa)
#
#
# Indices 1 2 3 4 5 6 
#
# 1 0.008054 -0.005878 0.000412 0.000000 0.000000 0.000000
# 2 -0.005878 0.018522 -0.004914 0.000000 0.000000 0.000000
# 3 0.000412 -0.004914 0.010757 0.000000 0.000000 0.000000
# 4 0.000000 0.000000 0.000000 0.052771 0.000000 0.000000
# 5 0.000000 0.000000 0.000000 0.000000 0.042862 0.000000
# 6 0.000000 0.000000 0.000000 0.000000 0.000000 0.022470
#
#
# Mechanical properties :
#
#
# Convention : Reuss Voigt Hill
#
# Bulk Modulus (GPa) = 60.34208 64.55840 62.45024
# Shear Modulus (GPa) = 27.51481 33.50507 30.50994
#
# Velocity S-wave (km/s) = 3.41098 3.76402 3.59184
# Velocity P-wave (km/s) = 6.40539 6.79627 6.60372
#
# Compressibility (1/GPa) = 0.01657218
#
# Stress axis : x y z
#
# Youngs Moduli (GPa) = 124.15642 53.99043 92.96548
#
# Poissons Ratio (x) = 0.31734 -0.03829
# Poissons Ratio (y) = 0.72975 0.45688
# Poissons Ratio (z) = -0.05113 0.26534
#
# Static dielectric constant tensor:
#      x y z
#    x 4.215920 0.000000 0.000000 
#    y 0.000000 4.109890 0.000000 
#    z 0.000000 0.000000 4.053860 
# 
# 
# High freq. dielectric constant tensor:
#      x y z
#    x 1.949070 0.000000 0.000000 
#    y 0.000000 1.929830 0.000000 
#    z 0.000000 0.000000 1.927230 
# 
# From -- ./inp_files/4690.got.cif
#   From: 2010.03.12/outbox.cif.g09.slc.cpg/sg56_3_cif.got.tgz:4690.got - 2010.04.16 15:33:40.
