data_PCOD8229923
_publ_section_title
;
Structure prediction by ZEFSAII (Michael W. Deem and Ramdas Pophale) SiO2 
 PCOD8229923
Probable space group: P B C M
;
_chemical_formula_sum "Si O2"
_cell_formula_units_Z 32
_cell_length_a 17.163134
_cell_length_b 5.266310
_cell_length_c 16.420299
_cell_angle_alpha 90.000000
_cell_angle_beta 90.000000
_cell_angle_gamma 90.000000
_cell_volume 1484.171454
_symmetry_space_group_name_H-M "P B C M"
_symmetry_group_IT_number 57
_symmetry_cell_setting 'orthorhombic'
loop_
_space_group_symop_operation_xyz
x,y,z
-x,-y,1/2+z
x,1/2-y,-z
-x,1/2+y,1/2-z
-x,-y,-z
x,y,1/2-z
-x,1/2+y,z
x,1/2-y,1/2+z
loop_
_atom_site_type_symbol
_atom_site_label
_atom_site_fract_x
_atom_site_fract_y
_atom_site_fract_z
Si Si1 0.031060 0.556789 0.408913
Si Si2 0.790553 0.286305 0.907909
Si Si3 0.282113 0.284165 0.905733
Si Si4 0.452504 0.321081 0.845204
O O1 0.118580 0.653990 0.405494
O O2 0.000000 0.500000 0.500000
O O3 0.019921 0.281896 0.365514
O O4 0.744533 0.518365 0.863940
O O5 0.767023 0.018286 0.865631
O O6 0.760892 0.250000 0.000000
O O7 0.373190 0.331797 0.895285
O O8 0.259587 0.250000 0.000000
O O9 0.432597 0.321945 0.750000
O O10 0.501736 0.567540 0.870423
#
# Coordination Sequence:
#
# PCOD8229923 Si02
#       4
#     8   8   8   8
#     4  10  17  24  41  63  95 143 167 201 234 297
#     4  10  18  29  43  68 107 139 163 198 256 297
#     4  10  21  32  49  75 106 136 158 209 255 311
#     4  10  21  38  58  76  97 129 173 215 250 300
#
# _framework density 21.560851
#
# number of rings (size 3 to 8) (size 9 to 14) (size 15 to 20)
#    0.000    2.000    2.500    3.000    7.000    1.000 
#    0.000    0.000    0.000    0.000    0.000    0.000 
#    0.000   20.000    0.000    0.000    0.000    0.000 
#
# Total GULP energy -396476.698939 kJ/mol
# GULP energy per Si atom -12389.896842 kJ/mol
# Density = 2.151178 g / cm^3
# Si number density = 21.560851 Si / 1000 Ang^3
#
#
#
# Elastic Constant Matrix: (Units=GPa)
#
#
# Indices 1 2 3 4 5 6 
#
# 1 155.3606 97.3712 4.0675 0.0000 0.0000 0.0000
# 2 97.3712 274.0735 9.8012 0.0000 0.0000 0.0000
# 3 4.0675 9.8012 5.8044 0.0000 0.0000 0.0000
# 4 0.0000 0.0000 0.0000 2.5506 0.0000 0.0000
# 5 0.0000 0.0000 0.0000 0.0000 -2.6654 0.0000
# 6 0.0000 0.0000 0.0000 0.0000 0.0000 49.2137
#
#
#
# Elastic Compliance Matrix: (Units=1/GPa)
#
#
# Indices 1 2 3 4 5 6 
#
# 1 0.008285 -0.002912 -0.000889 0.000000 0.000000 0.000000
# 2 -0.002912 0.004906 -0.006245 0.000000 0.000000 0.000000
# 3 -0.000889 -0.006245 0.183451 0.000000 0.000000 0.000000
# 4 0.000000 0.000000 0.000000 0.392063 0.000000 0.000000
# 5 0.000000 0.000000 0.000000 0.000000 -0.375178 0.000000
# 6 0.000000 0.000000 0.000000 0.000000 0.000000 0.020320
#
#
# Mechanical properties :
#
#
# Convention : Reuss Voigt Hill
#
# Bulk Modulus (GPa) = 5.66408 73.07982 39.37195
# Shear Modulus (GPa) = 15.98536 31.41968 23.70252
#
# Velocity S-wave (km/s) = 2.72583 3.82154 3.31921
# Velocity P-wave (km/s) = 3.54113 7.31030 5.74370
#
# Compressibility (1/GPa) = 0.17655109
#
# Stress axis : x y z
#
# Youngs Moduli (GPa) = 120.70430 203.81689 5.45106
#
# Poissons Ratio (x) = 0.59342 0.00485
# Poissons Ratio (y) = 0.35144 0.03404
# Poissons Ratio (z) = 0.10733 1.27274
#
# Static dielectric constant tensor:
#      x y z
#    x 3.699280 0.000000 0.000000 
#    y 0.000000 14.587350 0.000000 
#    z 0.000000 0.000000 3.079390 
# 
# 
# High freq. dielectric constant tensor:
#      x y z
#    x 1.850710 0.000000 0.000000 
#    y 0.000000 1.895640 0.000000 
#    z 0.000000 0.000000 1.758420 
# 
# From -- ./inp_files/22228.got.cif
#   From: 2010.03.12/outbox.cif.g09.slc.cpg/sg57_12_cif.got.tgz:22228.got - 2010.04.16 15:48:40.
