data_PCOD8229804
_publ_section_title
;
Structure prediction by ZEFSAII (Michael W. Deem and Ramdas Pophale) SiO2 
 PCOD8229804
Probable space group: P C C N
;
_chemical_formula_sum "Si O2"
_cell_formula_units_Z 32
_cell_length_a 8.470582
_cell_length_b 16.892948
_cell_length_c 9.504447
_cell_angle_alpha 90.000000
_cell_angle_beta 90.000000
_cell_angle_gamma 90.000000
_cell_volume 1360.020797
_symmetry_space_group_name_H-M "P C C N"
_symmetry_group_IT_number 56
_symmetry_cell_setting 'orthorhombic'
loop_
_space_group_symop_operation_xyz
x,y,z
1/2-x,1/2-y,z
1/2+x,-y,1/2-z
-x,1/2+y,1/2-z
-x,-y,-z
1/2+x,1/2+y,-z
1/2-x,y,1/2+z
x,1/2-y,1/2+z
loop_
_atom_site_type_symbol
_atom_site_label
_atom_site_fract_x
_atom_site_fract_y
_atom_site_fract_z
Si Si1 0.915029 0.941264 0.186731
Si Si2 0.752433 0.018587 0.933698
Si Si3 0.576150 0.730611 0.274267
Si Si4 0.388703 0.690877 0.550589
O O1 0.920110 0.846684 0.175113
O O2 0.085681 0.976033 0.152217
O O3 0.870870 0.966205 0.345456
O O4 0.783210 0.974559 0.080470
O O5 0.676460 0.103035 0.965920
O O6 0.750000 0.750000 0.331773
O O7 0.461439 0.718760 0.404530
O O8 0.514715 0.803600 0.178295
O O9 0.250000 0.750000 0.593550
#
# Coordination Sequence:
#
# PCOD8229804 Si02
#       4
#     8   8   8   8
#     4  11  27  48  73 111 145 195 246 308 366 445
#     4  11  27  47  77 105 149 194 250 302 375 439
#     4  12  29  46  75 111 151 188 246 308 371 436
#     4  12  27  50  76 107 148 203 244 302 373 456
#
# _framework density 23.529050000000002
#
# number of rings (size 3 to 8) (size 9 to 14) (size 15 to 20)
#    0.000    0.500    2.500    3.000   14.000    2.000 
#    0.000    0.000    0.000    0.000    0.000    0.000 
#    0.000    0.000    0.000    0.000    0.000    0.000 
#
# Total GULP energy -397107.965288 kJ/mol
# GULP energy per Si atom -12409.623915 kJ/mol
# Density = 2.347550 g / cm^3
# Si number density = 23.529050 Si / 1000 Ang^3
#
#
#
# Elastic Constant Matrix: (Units=GPa)
#
#
# Indices 1 2 3 4 5 6 
#
# 1 87.1396 12.9566 34.7828 0.0000 0.0000 0.0000
# 2 12.9566 60.6455 18.9968 0.0000 0.0000 0.0000
# 3 34.7828 18.9968 116.9431 0.0000 0.0000 0.0000
# 4 0.0000 0.0000 0.0000 34.1465 0.0000 0.0000
# 5 0.0000 0.0000 0.0000 0.0000 33.4826 0.0000
# 6 0.0000 0.0000 0.0000 0.0000 0.0000 45.3193
#
#
#
# Elastic Compliance Matrix: (Units=1/GPa)
#
#
# Indices 1 2 3 4 5 6 
#
# 1 0.013181 -0.001673 -0.003649 0.000000 0.000000 0.000000
# 2 -0.001673 0.017586 -0.002359 0.000000 0.000000 0.000000
# 3 -0.003649 -0.002359 0.010020 0.000000 0.000000 0.000000
# 4 0.000000 0.000000 0.000000 0.029286 0.000000 0.000000
# 5 0.000000 0.000000 0.000000 0.000000 0.029866 0.000000
# 6 0.000000 0.000000 0.000000 0.000000 0.000000 0.022066
#
#
# Mechanical properties :
#
#
# Convention : Reuss Voigt Hill
#
# Bulk Modulus (GPa) = 39.33200 44.24449 41.78825
# Shear Modulus (GPa) = 34.28404 35.78915 35.03660
#
# Velocity S-wave (km/s) = 3.82133 3.90431 3.86304
# Velocity P-wave (km/s) = 6.01853 6.25858 6.13973
#
# Compressibility (1/GPa) = 0.02542459
#
# Stress axis : x y z
#
# Youngs Moduli (GPa) = 75.86666 56.86442 99.80416
#
# Poissons Ratio (x) = 0.09514 0.36415
# Poissons Ratio (y) = 0.12693 0.23544
# Poissons Ratio (z) = 0.27681 0.13415
#
# Static dielectric constant tensor:
#      x y z
#    x 4.438710 0.000000 0.000000 
#    y 0.000000 4.263660 0.000000 
#    z 0.000000 0.000000 4.128810 
# 
# 
# High freq. dielectric constant tensor:
#      x y z
#    x 1.951220 0.000000 0.000000 
#    y 0.000000 1.933110 0.000000 
#    z 0.000000 0.000000 1.937830 
# 
# From -- ./inp_files/1939.got.cif
#   From: 2010.03.12/outbox.cif.g09.slc.cpg/sg56_1_cif.got.tgz:1939.got - 2010.04.16 15:33:40.
