data_PCOD8229154
_publ_section_title
;
Structure prediction by ZEFSAII (Michael W. Deem and Ramdas Pophale) SiO2 
 PCOD8229154
Probable space group: P C C N
;
_chemical_formula_sum "Si O2"
_cell_formula_units_Z 32
_cell_length_a 11.424642
_cell_length_b 12.826363
_cell_length_c 9.871422
_cell_angle_alpha 90.000000
_cell_angle_beta 90.000000
_cell_angle_gamma 90.000000
_cell_volume 1446.524671
_symmetry_space_group_name_H-M "P C C N"
_symmetry_group_IT_number 56
_symmetry_cell_setting 'orthorhombic'
loop_
_space_group_symop_operation_xyz
x,y,z
1/2-x,1/2-y,z
1/2+x,-y,1/2-z
-x,1/2+y,1/2-z
-x,-y,-z
1/2+x,1/2+y,-z
1/2-x,y,1/2+z
x,1/2-y,1/2+z
loop_
_atom_site_type_symbol
_atom_site_label
_atom_site_fract_x
_atom_site_fract_y
_atom_site_fract_z
Si Si1 0.239649 0.001184 0.333120
Si Si2 0.270656 0.128852 0.084292
Si Si3 0.038314 0.650187 0.923868
Si Si4 0.630874 0.311071 0.281093
O O1 0.123120 0.939926 0.372288
O O2 0.340408 0.924447 0.279460
O O3 0.208458 0.087070 0.219591
O O4 0.287912 0.063997 0.462301
O O5 0.250000 0.250000 0.062529
O O6 0.408703 0.105602 0.089886
O O7 0.052816 0.752069 0.830131
O O8 0.060940 0.680569 0.079289
O O9 0.750000 0.250000 0.313367
#
# Coordination Sequence:
#
# PCOD8229154 Si02
#       4
#     8   8   8   8
#     4  11  24  46  69  96 137 182 226 280 335 411
#     4  12  28  45  66 100 144 179 231 284 335 405
#     4  11  25  44  73 101 137 179 226 283 349 396
#     4  10  22  43  72 103 131 177 232 284 332 414
#
# _framework density 22.121986
#
# number of rings (size 3 to 8) (size 9 to 14) (size 15 to 20)
#    0.000    1.000    2.500    3.750   10.500    0.000 
#    0.000    2.500    0.000    0.000    0.000    0.000 
#    0.000    0.000    0.000    0.000    0.000    0.000 
#
# Total GULP energy -396980.152803 kJ/mol
# GULP energy per Si atom -12405.629775 kJ/mol
# Density = 2.207164 g / cm^3
# Si number density = 22.121986 Si / 1000 Ang^3
#
#
#
# Elastic Constant Matrix: (Units=GPa)
#
#
# Indices 1 2 3 4 5 6 
#
# 1 31.4228 23.8520 45.5464 0.0000 0.0000 0.0000
# 2 23.8520 125.3864 62.2003 0.0000 0.0000 0.0000
# 3 45.5464 62.2003 178.4050 0.0000 0.0000 0.0000
# 4 0.0000 0.0000 0.0000 54.7059 0.0000 0.0000
# 5 0.0000 0.0000 0.0000 0.0000 16.8607 0.0000
# 6 0.0000 0.0000 0.0000 0.0000 0.0000 23.5819
#
#
#
# Elastic Compliance Matrix: (Units=1/GPa)
#
#
# Indices 1 2 3 4 5 6 
#
# 1 0.052132 -0.004008 -0.011912 0.000000 0.000000 0.000000
# 2 -0.004008 0.009951 -0.002446 0.000000 0.000000 0.000000
# 3 -0.011912 -0.002446 0.009499 0.000000 0.000000 0.000000
# 4 0.000000 0.000000 0.000000 0.018280 0.000000 0.000000
# 5 0.000000 0.000000 0.000000 0.000000 0.059310 0.000000
# 6 0.000000 0.000000 0.000000 0.000000 0.000000 0.042405
#
#
# Mechanical properties :
#
#
# Convention : Reuss Voigt Hill
#
# Bulk Modulus (GPa) = 28.69388 66.49018 47.59203
# Shear Modulus (GPa) = 20.83972 32.60406 26.72189
#
# Velocity S-wave (km/s) = 3.07259 3.84322 3.47930
# Velocity P-wave (km/s) = 5.05833 7.05798 6.14011
#
# Compressibility (1/GPa) = 0.03485063
#
# Stress axis : x y z
#
# Youngs Moduli (GPa) = 19.18194 100.48963 105.27200
#
# Poissons Ratio (x) = 0.40275 1.25399
# Poissons Ratio (y) = 0.07688 0.25752
# Poissons Ratio (z) = 0.22849 0.24582
#
# Static dielectric constant tensor:
#      x y z
#    x 3.749910 0.000000 0.000000 
#    y 0.000000 4.221650 0.000000 
#    z 0.000000 0.000000 4.259890 
# 
# 
# High freq. dielectric constant tensor:
#      x y z
#    x 1.848580 0.000000 0.000000 
#    y 0.000000 1.892730 0.000000 
#    z 0.000000 0.000000 1.890020 
# 
# From -- ./inp_files/2403.got.cif
#   From: 2010.03.12/outbox.cif.g09.slc.cpg/sg56_2_cif.got.tgz:2403.got - 2010.04.16 15:33:40.
