data_PCOD8229205
_publ_section_title
;
Structure prediction by ZEFSAII (Michael W. Deem and Ramdas Pophale) SiO2 
 PCOD8229205
Probable space group: P C C N
;
_chemical_formula_sum "Si O2"
_cell_formula_units_Z 56
_cell_length_a 19.209792
_cell_length_b 11.169768
_cell_length_c 13.012004
_cell_angle_alpha 90.000000
_cell_angle_beta 90.000000
_cell_angle_gamma 90.000000
_cell_volume 2791.971645
_symmetry_space_group_name_H-M "P C C N"
_symmetry_group_IT_number 56
_symmetry_cell_setting 'orthorhombic'
loop_
_space_group_symop_operation_xyz
x,y,z
1/2-x,1/2-y,z
1/2+x,-y,1/2-z
-x,1/2+y,1/2-z
-x,-y,-z
1/2+x,1/2+y,-z
1/2-x,y,1/2+z
x,1/2-y,1/2+z
loop_
_atom_site_type_symbol
_atom_site_label
_atom_site_fract_x
_atom_site_fract_y
_atom_site_fract_z
Si Si1 0.298926 0.485199 0.872669
Si Si2 0.586501 0.085939 0.901930
Si Si3 0.671490 0.285245 0.237329
Si Si4 0.139202 0.552652 0.870837
Si Si5 0.827503 0.716799 0.493206
Si Si6 0.126200 0.344862 0.201670
Si Si7 0.935292 0.673318 0.145831
O O1 0.335755 0.612284 0.850457
O O2 0.217550 0.507750 0.886982
O O3 0.313504 0.395892 0.776556
O O4 0.332150 0.425162 0.976339
O O5 0.642378 0.168602 0.844921
O O6 0.513168 0.151941 0.891057
O O7 0.586367 0.951787 0.856205
O O8 0.605210 0.079987 0.020094
O O9 0.750000 0.250000 0.260071
O O10 0.630482 0.170167 0.197934
O O11 0.095814 0.451131 0.811213
O O12 0.750000 0.750000 0.532091
O O13 0.836525 0.748705 0.373600
O O14 0.887386 0.790856 0.549663
O O15 0.067392 0.274006 0.265992
#
# Coordination Sequence:
#
# PCOD8229205 Si02
#       7
#     8   8   8   8   8   8   8
#     4   9  20  40  59  93 123 153 203 262 305 352
#     4  11  23  42  63  88 124 169 206 245 313 373
#     4   9  22  41  63  90 123 159 205 261 300 366
#     4  11  21  41  64  87 123 161 205 249 308 368
#     4  11  20  36  60  91 122 160 202 253 311 361
#     4  10  23  38  63  90 128 156 206 261 307 358
#     4  11  24  37  61  92 122 163 205 252 300 374
#
# _framework density 20.057511000000002
#
# number of rings (size 3 to 8) (size 9 to 14) (size 15 to 20)
#    0.000    1.714    2.857    0.429    4.000    1.714 
#    5.143    0.000    0.000    5.143    0.000    0.000 
#    0.000    0.000    0.000    0.000    0.000    0.000 
#
# Total GULP energy -694203.638359 kJ/mol
# GULP energy per Si atom -12396.493542 kJ/mol
# Density = 2.001186 g / cm^3
# Si number density = 20.057511 Si / 1000 Ang^3
#
#
#
# Elastic Constant Matrix: (Units=GPa)
#
#
# Indices 1 2 3 4 5 6 
#
# 1 79.0085 27.8401 15.2266 0.0000 0.0000 0.0000
# 2 27.8401 105.5866 31.1077 0.0000 0.0000 0.0000
# 3 15.2266 31.1077 61.8382 0.0000 0.0000 0.0000
# 4 0.0000 0.0000 0.0000 20.0276 0.0000 0.0000
# 5 0.0000 0.0000 0.0000 0.0000 25.0913 0.0000
# 6 0.0000 0.0000 0.0000 0.0000 0.0000 30.7967
#
#
#
# Elastic Compliance Matrix: (Units=1/GPa)
#
#
# Indices 1 2 3 4 5 6 
#
# 1 0.014138 -0.003172 -0.001885 0.000000 0.000000 0.000000
# 2 -0.003172 0.011831 -0.005170 0.000000 0.000000 0.000000
# 3 -0.001885 -0.005170 0.019236 0.000000 0.000000 0.000000
# 4 0.000000 0.000000 0.000000 0.049931 0.000000 0.000000
# 5 0.000000 0.000000 0.000000 0.000000 0.039854 0.000000
# 6 0.000000 0.000000 0.000000 0.000000 0.000000 0.032471
#
#
# Mechanical properties :
#
#
# Convention : Reuss Voigt Hill
#
# Bulk Modulus (GPa) = 40.40559 43.86469 42.13514
# Shear Modulus (GPa) = 25.48845 26.66705 26.07775
#
# Velocity S-wave (km/s) = 3.56865 3.65023 3.60967
# Velocity P-wave (km/s) = 6.09664 6.29940 6.19885
#
# Compressibility (1/GPa) = 0.02474905
#
# Stress axis : x y z
#
# Youngs Moduli (GPa) = 70.73109 84.52656 51.98485
#
# Poissons Ratio (x) = 0.26815 0.09801
# Poissons Ratio (y) = 0.22438 0.26878
# Poissons Ratio (z) = 0.13336 0.43702
#
# Static dielectric constant tensor:
#      x y z
#    x 3.500100 0.000000 0.000000 
#    y 0.000000 4.119150 0.000000 
#    z 0.000000 0.000000 3.538180 
# 
# 
# High freq. dielectric constant tensor:
#      x y z
#    x 1.773230 0.000000 0.000000 
#    y 0.000000 1.798780 0.000000 
#    z 0.000000 0.000000 1.771410 
# 
# From -- ./inp_files/8654.got.cif
#   From: 2010.03.12/outbox.cif.g09.slc.cpg/sg56_5_cif.got.tgz:8654.got - 2010.04.16 15:33:40.
