data_PCOD8229088
_publ_section_title
;
Structure prediction by ZEFSAII (Michael W. Deem and Ramdas Pophale) SiO2 
 PCOD8229088
Probable space group: P C C N
;
_chemical_formula_sum "Si O2"
_cell_formula_units_Z 64
_cell_length_a 14.224184
_cell_length_b 11.768173
_cell_length_c 18.552759
_cell_angle_alpha 90.000000
_cell_angle_beta 90.000000
_cell_angle_gamma 90.000000
_cell_volume 3105.595644
_symmetry_space_group_name_H-M "P C C N"
_symmetry_group_IT_number 56
_symmetry_cell_setting 'orthorhombic'
loop_
_space_group_symop_operation_xyz
x,y,z
1/2-x,1/2-y,z
1/2+x,-y,1/2-z
-x,1/2+y,1/2-z
-x,-y,-z
1/2+x,1/2+y,-z
1/2-x,y,1/2+z
x,1/2-y,1/2+z
loop_
_atom_site_type_symbol
_atom_site_label
_atom_site_fract_x
_atom_site_fract_y
_atom_site_fract_z
Si Si1 0.723778 0.625350 0.744568
Si Si2 0.924026 0.913487 0.026785
Si Si3 0.412865 0.002828 0.084373
Si Si4 0.442872 0.528571 0.289071
Si Si5 0.139134 0.750566 0.854289
Si Si6 0.525456 0.190058 0.005372
Si Si7 0.398160 0.498308 0.816219
Si Si8 0.275291 0.374463 0.092819
O O1 0.750000 0.750000 0.713565
O O2 0.636312 0.568875 0.703106
O O3 0.817044 0.549127 0.736270
O O4 0.684512 0.637567 0.826312
O O5 0.881809 0.948171 0.103968
O O6 0.845973 0.924509 0.965154
O O7 0.968726 0.789089 0.034311
O O8 0.000000 0.000000 0.000000
O O9 0.478576 0.998100 0.153351
O O10 0.448571 0.098672 0.029774
O O11 0.308199 0.036903 0.103877
O O12 0.407331 0.876956 0.049948
O O13 0.392467 0.648855 0.302008
O O14 0.497572 0.534320 0.212614
O O15 0.250000 0.750000 0.868020
O O16 0.087079 0.741080 0.930474
O O17 0.108201 0.865875 0.815925
O O18 0.250000 0.250000 0.063476
#
# Coordination Sequence:
#
# PCOD8229088 Si02
#       8
#     8   8   8   8   8   8   8   8
#     4  11  26  43  69 102 135 178 233 287 345 407
#     4  12  25  41  66 102 139 179 223 284 345 408
#     4  10  22  41  69  97 129 180 231 280 334 404
#     4  11  25  45  68  98 140 180 230 287 343 420
#     4  11  24  45  67  95 141 184 228 283 352 411
#     4  10  23  40  65  96 133 180 226 277 345 399
#     4  12  26  43  69 102 137 182 229 282 352 407
#     4  11  23  45  71  95 136 184 233 278 340 408
#
# _framework density 20.607963999999999
#
# number of rings (size 3 to 8) (size 9 to 14) (size 15 to 20)
#    0.000    1.000    5.000    0.750    5.250    1.500 
#    0.000    0.000    0.000    0.000    0.000    0.000 
#    0.000    0.000    0.000    0.000    0.000    0.000 
#
# Total GULP energy -793657.304699 kJ/mol
# GULP energy per Si atom -12400.895386 kJ/mol
# Density = 2.056106 g / cm^3
# Si number density = 20.607964 Si / 1000 Ang^3
#
#
#
# Elastic Constant Matrix: (Units=GPa)
#
#
# Indices 1 2 3 4 5 6 
#
# 1 116.5753 59.1552 27.5329 0.0000 0.0000 0.0000
# 2 59.1552 143.8716 48.9323 0.0000 0.0000 0.0000
# 3 27.5329 48.9323 80.2338 0.0000 0.0000 0.0000
# 4 0.0000 0.0000 0.0000 21.2575 0.0000 0.0000
# 5 0.0000 0.0000 0.0000 0.0000 27.8673 0.0000
# 6 0.0000 0.0000 0.0000 0.0000 0.0000 37.9484
#
#
#
# Elastic Compliance Matrix: (Units=1/GPa)
#
#
# Indices 1 2 3 4 5 6 
#
# 1 0.010942 -0.004065 -0.001276 0.000000 0.000000 0.000000
# 2 -0.004065 0.010280 -0.004874 0.000000 0.000000 0.000000
# 3 -0.001276 -0.004874 0.015874 0.000000 0.000000 0.000000
# 4 0.000000 0.000000 0.000000 0.047042 0.000000 0.000000
# 5 0.000000 0.000000 0.000000 0.000000 0.035884 0.000000
# 6 0.000000 0.000000 0.000000 0.000000 0.000000 0.026352
#
#
# Mechanical properties :
#
#
# Convention : Reuss Voigt Hill
#
# Bulk Modulus (GPa) = 60.00352 67.99128 63.99740
# Shear Modulus (GPa) = 29.00898 31.08534 30.04716
#
# Velocity S-wave (km/s) = 3.75595 3.88804 3.82257
# Velocity P-wave (km/s) = 6.92744 7.29522 7.11370
#
# Compressibility (1/GPa) = 0.01666569
#
# Stress axis : x y z
#
# Youngs Moduli (GPa) = 91.38833 97.27637 62.99568
#
# Poissons Ratio (x) = 0.39545 0.08036
# Poissons Ratio (y) = 0.37152 0.30707
# Poissons Ratio (z) = 0.11658 0.47417
#
# Static dielectric constant tensor:
#      x y z
#    x 3.766740 0.000000 0.000000 
#    y 0.000000 3.890320 0.000000 
#    z 0.000000 0.000000 4.019090 
# 
# 
# High freq. dielectric constant tensor:
#      x y z
#    x 1.810190 0.000000 0.000000 
#    y 0.000000 1.817700 0.000000 
#    z 0.000000 0.000000 1.803330 
# 
# From -- ./inp_files/16363.got.cif
#   From: 2010.03.12/outbox.cif.g09.slc.cpg/sg56_9_cif.got.tgz:16363.got - 2010.04.16 15:33:40.
