data_PCOD8229696
_publ_section_title
;
Structure prediction by ZEFSAII (Michael W. Deem and Ramdas Pophale) SiO2 
 PCOD8229696
Probable space group: P C C N
;
_chemical_formula_sum "Si O2"
_cell_formula_units_Z 48
_cell_length_a 14.622382
_cell_length_b 8.214620
_cell_length_c 18.003591
_cell_angle_alpha 90.000000
_cell_angle_beta 90.000000
_cell_angle_gamma 90.000000
_cell_volume 2162.542951
_symmetry_space_group_name_H-M "P C C N"
_symmetry_group_IT_number 56
_symmetry_cell_setting 'orthorhombic'
loop_
_space_group_symop_operation_xyz
x,y,z
1/2-x,1/2-y,z
1/2+x,-y,1/2-z
-x,1/2+y,1/2-z
-x,-y,-z
1/2+x,1/2+y,-z
1/2-x,y,1/2+z
x,1/2-y,1/2+z
loop_
_atom_site_type_symbol
_atom_site_label
_atom_site_fract_x
_atom_site_fract_y
_atom_site_fract_z
Si Si1 0.425466 0.365596 0.681694
Si Si2 0.246615 0.568909 0.331620
Si Si3 0.916340 0.610767 0.187242
Si Si4 0.397129 0.389476 0.070978
Si Si5 0.424057 0.094536 0.404159
Si Si6 0.251133 0.571099 0.663557
O O1 0.400625 0.215900 0.737290
O O2 0.520640 0.452936 0.702867
O O3 0.425256 0.289742 0.599032
O O4 0.352521 0.508379 0.678636
O O5 0.250000 0.750000 0.368020
O O6 0.324822 0.444695 0.358377
O O7 0.146623 0.491095 0.345967
O O8 0.286265 0.585028 0.247190
O O9 0.959187 0.733774 0.127333
O O10 0.483315 0.497993 0.089945
O O11 0.306010 0.449979 0.112201
O O12 0.374952 0.387813 0.983629
O O13 0.250000 0.750000 0.625849
#
# Coordination Sequence:
#
# PCOD8229696 Si02
#       6
#     8   8   8   8   8   8
#     4  12  25  41  68 100 135 179 230 282 335 400
#     4  11  24  41  68 101 135 177 229 280 335 398
#     4  12  25  41  68 100 135 179 230 282 335 400
#     4  11  25  46  70 101 140 181 224 277 341 403
#     4  11  25  46  70 101 140 181 224 277 341 403
#     4  11  24  41  68 101 135 177 229 280 335 398
#
# _framework density 22.196093000000001
#
# number of rings (size 3 to 8) (size 9 to 14) (size 15 to 20)
#    0.000    0.667    3.333    4.000    4.667    4.000 
#    0.000    0.000    0.000    0.000    0.000    0.000 
#    0.000    0.000    0.000    0.000    0.000    0.000 
#
# Total GULP energy -594905.579437 kJ/mol
# GULP energy per Si atom -12393.866238 kJ/mol
# Density = 2.214557 g / cm^3
# Si number density = 22.196093 Si / 1000 Ang^3
#
#
#
# Elastic Constant Matrix: (Units=GPa)
#
#
# Indices 1 2 3 4 5 6 
#
# 1 68.1929 10.1837 15.0615 0.0000 0.0000 0.0000
# 2 10.1837 114.4287 21.6174 0.0000 0.0000 0.0000
# 3 15.0615 21.6174 83.8588 0.0000 0.0000 0.0000
# 4 0.0000 0.0000 0.0000 23.0420 0.0000 0.0000
# 5 0.0000 0.0000 0.0000 0.0000 31.2790 0.0000
# 6 0.0000 0.0000 0.0000 0.0000 0.0000 36.8070
#
#
#
# Elastic Compliance Matrix: (Units=1/GPa)
#
#
# Indices 1 2 3 4 5 6 
#
# 1 0.015356 -0.000889 -0.002529 0.000000 0.000000 0.000000
# 2 -0.000889 0.009238 -0.002222 0.000000 0.000000 0.000000
# 3 -0.002529 -0.002222 0.012952 0.000000 0.000000 0.000000
# 4 0.000000 0.000000 0.000000 0.043399 0.000000 0.000000
# 5 0.000000 0.000000 0.000000 0.000000 0.031970 0.000000
# 6 0.000000 0.000000 0.000000 0.000000 0.000000 0.027169
#
#
# Mechanical properties :
#
#
# Convention : Reuss Voigt Hill
#
# Bulk Modulus (GPa) = 38.07148 40.02283 39.04716
# Shear Modulus (GPa) = 31.22706 32.86678 32.04692
#
# Velocity S-wave (km/s) = 3.75490 3.85222 3.80387
# Velocity P-wave (km/s) = 5.99905 6.15279 6.07640
#
# Compressibility (1/GPa) = 0.02626638
#
# Stress axis : x y z
#
# Youngs Moduli (GPa) = 65.12300 108.24979 77.20986
#
# Poissons Ratio (x) = 0.09622 0.19525
# Poissons Ratio (y) = 0.05788 0.17154
# Poissons Ratio (z) = 0.16468 0.24050
#
# Static dielectric constant tensor:
#      x y z
#    x 3.849390 0.000000 0.000000 
#    y 0.000000 4.310660 0.000000 
#    z 0.000000 0.000000 4.150280 
# 
# 
# High freq. dielectric constant tensor:
#      x y z
#    x 1.876850 0.000000 0.000000 
#    y 0.000000 1.890580 0.000000 
#    z 0.000000 0.000000 1.854870 
# 
# From -- ./inp_files/18985.got.cif
#   From: 2010.03.12/outbox.cif.g09.slc.cpg/sg56_10_cif.got.tgz:18985.got - 2010.04.16 15:33:40.
