data_PCOD8229026
_publ_section_title
;
Structure prediction by ZEFSAII (Michael W. Deem and Ramdas Pophale) SiO2 
 PCOD8229026
Probable space group: P C C N
;
_chemical_formula_sum "Si O2"
_cell_formula_units_Z 48
_cell_length_a 8.694166
_cell_length_b 13.940285
_cell_length_c 18.515267
_cell_angle_alpha 90.000000
_cell_angle_beta 90.000000
_cell_angle_gamma 90.000000
_cell_volume 2244.034657
_symmetry_space_group_name_H-M "P C C N"
_symmetry_group_IT_number 56
_symmetry_cell_setting 'orthorhombic'
loop_
_space_group_symop_operation_xyz
x,y,z
1/2-x,1/2-y,z
1/2+x,-y,1/2-z
-x,1/2+y,1/2-z
-x,-y,-z
1/2+x,1/2+y,-z
1/2-x,y,1/2+z
x,1/2-y,1/2+z
loop_
_atom_site_type_symbol
_atom_site_label
_atom_site_fract_x
_atom_site_fract_y
_atom_site_fract_z
Si Si1 0.648744 0.347346 0.212874
Si Si2 0.300611 0.151336 0.978925
Si Si3 0.317054 0.529159 0.389233
Si Si4 0.648109 0.470892 0.348360
Si Si5 0.166973 0.848103 0.519760
Si Si6 0.325315 0.347639 0.140399
O O1 0.750000 0.250000 0.215877
O O2 0.740909 0.440711 0.185548
O O3 0.606227 0.384841 0.292878
O O4 0.503610 0.333774 0.160380
O O5 0.250000 0.250000 0.941347
O O6 0.483325 0.155587 0.987642
O O7 0.250783 0.068798 0.923120
O O8 0.209126 0.140801 0.054855
O O9 0.497344 0.524252 0.376081
O O10 0.272731 0.614925 0.443358
O O11 0.722294 0.421106 0.418354
O O12 0.761247 0.555890 0.320150
O O13 0.250000 0.750000 0.538055
O O14 0.250000 0.250000 0.170624
#
# Coordination Sequence:
#
# PCOD8229026 Si02
#       6
#     8   8   8   8   8   8
#     4  12  27  41  65  99 134 174 219 263 328 400
#     4  10  22  40  63  96 130 165 217 271 329 378
#     4  11  22  43  67  95 132 170 223 271 326 386
#     4  11  22  47  64  95 132 179 212 269 330 389
#     4  11  22  39  69  96 130 169 221 277 324 385
#     4  11  23  41  66  93 130 171 216 273 324 386
#
# _framework density 21.390044
#
# number of rings (size 3 to 8) (size 9 to 14) (size 15 to 20)
#    0.000    1.000    3.333    4.000    7.000    2.000 
#    0.000   10.833    0.000    0.000    0.000    0.000 
#    0.000    0.000    0.000    0.000    0.000    0.000 
#
# Total GULP energy -594911.357061 kJ/mol
# GULP energy per Si atom -12393.986605 kJ/mol
# Density = 2.134136 g / cm^3
# Si number density = 21.390044 Si / 1000 Ang^3
#
#
#
# Elastic Constant Matrix: (Units=GPa)
#
#
# Indices 1 2 3 4 5 6 
#
# 1 69.0095 61.5855 28.8346 0.0000 0.0000 0.0000
# 2 61.5855 148.5856 34.8203 0.0000 0.0000 0.0000
# 3 28.8346 34.8203 71.1595 0.0000 0.0000 0.0000
# 4 0.0000 0.0000 0.0000 28.6986 0.0000 0.0000
# 5 0.0000 0.0000 0.0000 0.0000 18.2455 0.0000
# 6 0.0000 0.0000 0.0000 0.0000 0.0000 43.0538
#
#
#
# Elastic Compliance Matrix: (Units=1/GPa)
#
#
# Indices 1 2 3 4 5 6 
#
# 1 0.024881 -0.008980 -0.005688 0.000000 0.000000 0.000000
# 2 -0.008980 0.010843 -0.001667 0.000000 0.000000 0.000000
# 3 -0.005688 -0.001667 0.017173 0.000000 0.000000 0.000000
# 4 0.000000 0.000000 0.000000 0.034845 0.000000 0.000000
# 5 0.000000 0.000000 0.000000 0.000000 0.054808 0.000000
# 6 0.000000 0.000000 0.000000 0.000000 0.000000 0.023227
#
#
# Mechanical properties :
#
#
# Convention : Reuss Voigt Hill
#
# Bulk Modulus (GPa) = 49.43688 59.91505 54.67597
# Shear Modulus (GPa) = 24.36778 28.90052 26.63415
#
# Velocity S-wave (km/s) = 3.37888 3.67975 3.53252
# Velocity P-wave (km/s) = 6.19554 6.79158 6.50040
#
# Compressibility (1/GPa) = 0.02022781
#
# Stress axis : x y z
#
# Youngs Moduli (GPa) = 40.19115 92.22827 58.22934
#
# Poissons Ratio (x) = 0.82818 0.33121
# Poissons Ratio (y) = 0.36090 0.09707
# Poissons Ratio (z) = 0.22861 0.15374
#
# Static dielectric constant tensor:
#      x y z
#    x 3.661260 0.000000 0.000000 
#    y 0.000000 4.244730 0.000000 
#    z 0.000000 0.000000 3.746300 
# 
# 
# High freq. dielectric constant tensor:
#      x y z
#    x 1.826970 0.000000 0.000000 
#    y 0.000000 1.862410 0.000000 
#    z 0.000000 0.000000 1.832190 
# 
# From -- ./inp_files/14819.got.cif
#   From: 2010.03.12/outbox.cif.g09.slc.cpg/sg56_8_cif.got.tgz:14819.got - 2010.04.16 15:33:40.
