data_PCOD8229898
_publ_section_title
;
Structure prediction by ZEFSAII (Michael W. Deem and Ramdas Pophale) SiO2 
 PCOD8229898
Probable space group: P B C M
;
_chemical_formula_sum "Si O2"
_cell_formula_units_Z 48
_cell_length_a 21.632525
_cell_length_b 5.095487
_cell_length_c 23.961096
_cell_angle_alpha 90.000000
_cell_angle_beta 90.000000
_cell_angle_gamma 90.000000
_cell_volume 2641.189678
_symmetry_space_group_name_H-M "P B C M"
_symmetry_group_IT_number 57
_symmetry_cell_setting 'orthorhombic'
loop_
_space_group_symop_operation_xyz
x,y,z
-x,-y,1/2+z
x,1/2-y,-z
-x,1/2+y,1/2-z
-x,-y,-z
x,y,1/2-z
-x,1/2+y,z
x,1/2-y,1/2+z
loop_
_atom_site_type_symbol
_atom_site_label
_atom_site_fract_x
_atom_site_fract_y
_atom_site_fract_z
Si Si1 0.346987 0.066379 0.869070
Si Si2 0.343868 0.164582 0.750000
Si Si3 0.027450 0.029176 0.437809
Si Si4 0.535285 0.726389 0.933991
Si Si5 0.264005 0.563597 0.630249
Si Si6 0.733346 0.167514 0.750000
Si Si7 0.835058 0.504981 0.036302
O O1 0.379623 0.090854 0.807498
O O2 0.396962 0.138756 0.915320
O O3 0.291394 0.272877 0.872454
O O4 0.318530 0.777810 0.879802
O O5 0.326739 0.473092 0.750000
O O6 0.283524 0.974904 0.750000
O O7 0.008945 0.762433 0.405945
O O8 0.100213 0.090917 0.436427
O O9 0.000000 0.000000 0.500000
O O10 0.486147 0.509966 0.911361
O O11 0.536708 0.750000 0.000000
O O12 0.231688 0.608064 0.691406
O O13 0.212755 0.584800 0.583152
O O14 0.809001 0.750000 0.000000
O O15 0.848330 0.250000 0.000000
#
# Coordination Sequence:
#
# PCOD8229898 Si02
#       7
#     8   4   8   8   8   4   8
#     4  10  19  36  53  73 101 127 166 203 261 297
#     4   8  16  30  54  73  92 127 158 206 246 306
#     4  10  16  30  47  64  93 138 169 191 232 293
#     4  10  21  36  53  71  94 133 173 200 231 300
#     4  10  21  33  52  76 100 136 159 210 257 298
#     4   8  16  34  50  67  96 131 178 188 238 316
#     4  12  21  31  47  76 110 126 167 206 245 301
#
# _framework density 18.173629999999999
#
# number of rings (size 3 to 8) (size 9 to 14) (size 15 to 20)
#    0.000    2.000    3.333    2.000    0.000    2.000 
#    0.000    0.833    0.000    0.000    0.000    1.167 
#    0.000    0.000    0.000    0.000    0.000    0.000 
#
# Total GULP energy -594673.685370 kJ/mol
# GULP energy per Si atom -12389.035112 kJ/mol
# Density = 1.813227 g / cm^3
# Si number density = 18.173630 Si / 1000 Ang^3
#
#
#
# Elastic Constant Matrix: (Units=GPa)
#
#
# Indices 1 2 3 4 5 6 
#
# 1 64.7727 14.4349 35.0057 0.0000 0.0000 0.0000
# 2 14.4349 116.0896 25.3824 0.0000 0.0000 0.0000
# 3 35.0057 25.3824 52.1796 0.0000 0.0000 0.0000
# 4 0.0000 0.0000 0.0000 19.9872 0.0000 0.0000
# 5 0.0000 0.0000 0.0000 0.0000 0.6292 0.0000
# 6 0.0000 0.0000 0.0000 0.0000 0.0000 25.5675
#
#
#
# Elastic Compliance Matrix: (Units=1/GPa)
#
#
# Indices 1 2 3 4 5 6 
#
# 1 0.024258 0.000606 -0.016569 0.000000 0.000000 0.000000
# 2 0.000606 0.009654 -0.005103 0.000000 0.000000 0.000000
# 3 -0.016569 -0.005103 0.032763 0.000000 0.000000 0.000000
# 4 0.000000 0.000000 0.000000 0.050032 0.000000 0.000000
# 5 0.000000 0.000000 0.000000 0.000000 1.589334 0.000000
# 6 0.000000 0.000000 0.000000 0.000000 0.000000 0.039112
#
#
# Mechanical properties :
#
#
# Convention : Reuss Voigt Hill
#
# Bulk Modulus (GPa) = 40.74378 42.52088 41.63233
# Shear Modulus (GPa) = 2.78479 19.78470 11.28475
#
# Velocity S-wave (km/s) = 1.23921 3.30305 2.49457
# Velocity P-wave (km/s) = 4.95130 6.16398 5.59062
#
# Compressibility (1/GPa) = 0.02454363
#
# Stress axis : x y z
#
# Youngs Moduli (GPa) = 41.22365 103.57953 30.52267
#
# Poissons Ratio (x) = -0.06281 0.50573
# Poissons Ratio (y) = -0.02500 0.15576
# Poissons Ratio (z) = 0.68303 0.52858
#
# Static dielectric constant tensor:
#      x y z
#    x 2.949510 0.000000 0.000000 
#    y 0.000000 2.816430 0.000000 
#    z 0.000000 0.000000 3.386300 
# 
# 
# High freq. dielectric constant tensor:
#      x y z
#    x 1.661390 0.000000 0.000000 
#    y 0.000000 1.741200 0.000000 
#    z 0.000000 0.000000 1.677140 
# 
# From -- ./inp_files/25720.got.cif
#   From: 2010.03.12/outbox.cif.g09.slc.cpg/sg57_13_cif.got.tgz:25720.got - 2010.04.16 15:48:40.
