data_PCOD8229054
_publ_section_title
;
Structure prediction by ZEFSAII (Michael W. Deem and Ramdas Pophale) SiO2 
 PCOD8229054
Probable space group: P C C N
;
_chemical_formula_sum "Si O2"
_cell_formula_units_Z 64
_cell_length_a 18.464668
_cell_length_b 8.814638
_cell_length_c 19.396527
_cell_angle_alpha 90.000000
_cell_angle_beta 90.000000
_cell_angle_gamma 90.000000
_cell_volume 3156.966402
_symmetry_space_group_name_H-M "P C C N"
_symmetry_group_IT_number 56
_symmetry_cell_setting 'orthorhombic'
loop_
_space_group_symop_operation_xyz
x,y,z
1/2-x,1/2-y,z
1/2+x,-y,1/2-z
-x,1/2+y,1/2-z
-x,-y,-z
1/2+x,1/2+y,-z
1/2-x,y,1/2+z
x,1/2-y,1/2+z
loop_
_atom_site_type_symbol
_atom_site_label
_atom_site_fract_x
_atom_site_fract_y
_atom_site_fract_z
Si Si1 0.063358 0.896658 0.211584
Si Si2 0.324882 0.832070 0.261415
Si Si3 0.934757 0.754499 0.136123
Si Si4 0.411782 0.309758 0.127584
Si Si5 0.835100 0.216705 0.086835
Si Si6 0.325999 0.177614 0.240842
Si Si7 0.415609 0.461184 0.989120
Si Si8 0.042045 0.587654 0.870819
O O1 0.129403 0.776764 0.210673
O O2 0.035061 0.897677 0.288908
O O3 0.005259 0.844334 0.157075
O O4 0.076996 0.068194 0.188831
O O5 0.250000 0.750000 0.271242
O O6 0.354630 0.857800 0.339003
O O7 0.318541 0.998334 0.232069
O O8 0.878793 0.758038 0.199714
O O9 0.901290 0.837702 0.070061
O O10 0.963637 0.589677 0.112360
O O11 0.349473 0.210862 0.162411
O O12 0.479084 0.202335 0.103755
O O13 0.383279 0.394206 0.059737
O O14 0.750000 0.250000 0.073275
O O15 0.881861 0.371294 0.091702
O O16 0.867518 0.109499 0.027461
O O17 0.250000 0.250000 0.259876
O O18 0.500000 0.500000 0.000000
#
# Coordination Sequence:
#
# PCOD8229054 Si02
#       8
#     8   8   8   8   8   8   8   8
#     4  11  20  37  65  97 126 169 217 279 333 391
#     4  10  22  40  68  98 130 166 225 279 337 396
#     4  12  24  38  67 100 131 172 227 276 334 404
#     4  12  24  42  68  95 143 174 221 279 344 408
#     4  10  22  41  67  96 132 174 225 281 335 405
#     4  12  25  42  65 100 135 173 220 285 338 404
#     4  12  24  45  66  97 134 186 224 276 347 412
#     4  11  21  37  66 101 127 166 224 285 330 393
#
# _framework density 20.272625999999999
#
# number of rings (size 3 to 8) (size 9 to 14) (size 15 to 20)
#    0.000    0.750    6.250    1.500    5.250    0.500 
#    0.000    3.750    0.000    0.000    0.000    0.000 
#    0.000    0.000    0.000    0.000    0.000    0.000 
#
# Total GULP energy -793068.414857 kJ/mol
# GULP energy per Si atom -12391.693982 kJ/mol
# Density = 2.022648 g / cm^3
# Si number density = 20.272626 Si / 1000 Ang^3
#
#
#
# Elastic Constant Matrix: (Units=GPa)
#
#
# Indices 1 2 3 4 5 6 
#
# 1 72.6839 24.4412 19.9034 0.0000 0.0000 0.0000
# 2 24.4412 126.1943 27.7651 0.0000 0.0000 0.0000
# 3 19.9034 27.7651 97.9392 0.0000 0.0000 0.0000
# 4 0.0000 0.0000 0.0000 36.1006 0.0000 0.0000
# 5 0.0000 0.0000 0.0000 0.0000 28.0424 0.0000
# 6 0.0000 0.0000 0.0000 0.0000 0.0000 30.8290
#
#
#
# Elastic Compliance Matrix: (Units=1/GPa)
#
#
# Indices 1 2 3 4 5 6 
#
# 1 0.015232 -0.002420 -0.002409 0.000000 0.000000 0.000000
# 2 -0.002420 0.008836 -0.002013 0.000000 0.000000 0.000000
# 3 -0.002409 -0.002013 0.011271 0.000000 0.000000 0.000000
# 4 0.000000 0.000000 0.000000 0.027700 0.000000 0.000000
# 5 0.000000 0.000000 0.000000 0.000000 0.035660 0.000000
# 6 0.000000 0.000000 0.000000 0.000000 0.000000 0.032437
#
#
# Mechanical properties :
#
#
# Convention : Reuss Voigt Hill
#
# Bulk Modulus (GPa) = 46.18199 49.00408 47.59304
# Shear Modulus (GPa) = 32.88633 33.97490 33.43062
#
# Velocity S-wave (km/s) = 4.03203 4.09822 4.06526
# Velocity P-wave (km/s) = 6.67130 6.82780 6.75000
#
# Compressibility (1/GPa) = 0.02165346
#
# Stress axis : x y z
#
# Youngs Moduli (GPa) = 65.65246 113.17454 88.72515
#
# Poissons Ratio (x) = 0.27388 0.21377
# Poissons Ratio (y) = 0.15888 0.17862
# Poissons Ratio (z) = 0.15818 0.22784
#
# Static dielectric constant tensor:
#      x y z
#    x 3.597130 0.000000 0.000000 
#    y 0.000000 3.623250 0.000000 
#    z 0.000000 0.000000 3.650770 
# 
# 
# High freq. dielectric constant tensor:
#      x y z
#    x 1.780120 0.000000 0.000000 
#    y 0.000000 1.811350 0.000000 
#    z 0.000000 0.000000 1.779550 
# 
# From -- ./inp_files/19350.got.cif
#   From: 2010.03.12/outbox.cif.g09.slc.cpg/sg56_10_cif.got.tgz:19350.got - 2010.04.16 15:33:40.
