data_PCOD8229705
_publ_section_title
;
Structure prediction by ZEFSAII (Michael W. Deem and Ramdas Pophale) SiO2 
 PCOD8229705
Probable space group: P C C N
;
_chemical_formula_sum "Si O2"
_cell_formula_units_Z 32
_cell_length_a 5.393383
_cell_length_b 10.990851
_cell_length_c 22.257770
_cell_angle_alpha 90.000000
_cell_angle_beta 90.000000
_cell_angle_gamma 90.000000
_cell_volume 1319.393173
_symmetry_space_group_name_H-M "P C C N"
_symmetry_group_IT_number 56
_symmetry_cell_setting 'orthorhombic'
loop_
_space_group_symop_operation_xyz
x,y,z
1/2-x,1/2-y,z
1/2+x,-y,1/2-z
-x,1/2+y,1/2-z
-x,-y,-z
1/2+x,1/2+y,-z
1/2-x,y,1/2+z
x,1/2-y,1/2+z
loop_
_atom_site_type_symbol
_atom_site_label
_atom_site_fract_x
_atom_site_fract_y
_atom_site_fract_z
Si Si1 0.542164 0.350764 0.437424
Si Si2 0.927880 0.577690 0.759221
Si Si3 0.311625 0.082862 0.537034
Si Si4 0.250000 0.250000 0.833474
Si Si5 0.750000 0.750000 0.361394
O O1 0.750000 0.250000 0.450928
O O2 0.345214 0.334882 0.490953
O O3 0.634052 0.487185 0.430677
O O4 0.415339 0.337659 0.373435
O O5 0.676374 0.501171 0.746122
O O6 0.945032 0.674585 0.705823
O O7 0.912987 0.657266 0.820893
O O8 0.417748 0.167402 0.591860
O O9 0.500000 0.000000 0.500000
#
# Coordination Sequence:
#
# PCOD8229705 Si02
#       5
#     8   8   8   4   4
#     4  11  24  42  71 106 150 192 243 303 380 453
#     4  11  28  51  73 109 145 199 258 312 380 449
#     4  11  24  45  69 112 149 194 248 304 381 463
#     4  11  25  42  74 100 141 189 246 304 370 449
#     4  11  25  46  74 106 155 195 254 324 380 463
#
# _framework density 24.253574
#
# number of rings (size 3 to 8) (size 9 to 14) (size 15 to 20)
#    0.000    1.000    0.000    5.250   10.500    3.000 
#   13.500    0.000    0.000    0.000    0.000    0.000 
#    0.000    0.000    0.000    0.000    0.000    0.000 
#
# Total GULP energy -396432.594351 kJ/mol
# GULP energy per Si atom -12388.518573 kJ/mol
# Density = 2.419837 g / cm^3
# Si number density = 24.253574 Si / 1000 Ang^3
#
#
#
# Elastic Constant Matrix: (Units=GPa)
#
#
# Indices 1 2 3 4 5 6 
#
# 1 91.4157 28.1235 38.9108 0.0000 0.0000 0.0000
# 2 28.1235 118.2997 78.0576 0.0000 0.0000 0.0000
# 3 38.9108 78.0576 183.2243 0.0000 0.0000 0.0000
# 4 0.0000 0.0000 0.0000 78.1984 0.0000 0.0000
# 5 0.0000 0.0000 0.0000 0.0000 21.1044 0.0000
# 6 0.0000 0.0000 0.0000 0.0000 0.0000 51.5673
#
#
#
# Elastic Compliance Matrix: (Units=1/GPa)
#
#
# Indices 1 2 3 4 5 6 
#
# 1 0.012257 -0.001664 -0.001894 0.000000 0.000000 0.000000
# 2 -0.001664 0.011984 -0.004752 0.000000 0.000000 0.000000
# 3 -0.001894 -0.004752 0.007885 0.000000 0.000000 0.000000
# 4 0.000000 0.000000 0.000000 0.012788 0.000000 0.000000
# 5 0.000000 0.000000 0.000000 0.000000 0.047384 0.000000
# 6 0.000000 0.000000 0.000000 0.000000 0.000000 0.019392
#
#
# Mechanical properties :
#
#
# Convention : Reuss Voigt Hill
#
# Bulk Modulus (GPa) = 64.49400 75.90261 70.19830
# Shear Modulus (GPa) = 37.45906 46.69721 42.07813
#
# Velocity S-wave (km/s) = 3.93425 4.39267 4.16976
# Velocity P-wave (km/s) = 6.87655 7.55584 7.22419
#
# Compressibility (1/GPa) = 0.01550532
#
# Stress axis : x y z
#
# Youngs Moduli (GPa) = 81.58468 83.44206 126.83006
#
# Poissons Ratio (x) = 0.13886 0.24022
# Poissons Ratio (y) = 0.13577 0.60272
# Poissons Ratio (z) = 0.15453 0.39653
#
# Static dielectric constant tensor:
#      x y z
#    x 4.378530 0.000000 0.000000 
#    y 0.000000 4.861000 0.000000 
#    z 0.000000 0.000000 4.708360 
# 
# 
# High freq. dielectric constant tensor:
#      x y z
#    x 1.928160 0.000000 0.000000 
#    y 0.000000 2.003070 0.000000 
#    z 0.000000 0.000000 1.986260 
# 
# From -- ./inp_files/17275.got.cif
#   From: 2010.03.12/outbox.cif.g09.slc.cpg/sg56_9_cif.got.tgz:17275.got - 2010.04.16 15:33:40.
