data_PCOD8229187
_publ_section_title
;
Structure prediction by ZEFSAII (Michael W. Deem and Ramdas Pophale) SiO2 
 PCOD8229187
Probable space group: P C C N
;
_chemical_formula_sum "Si O2"
_cell_formula_units_Z 48
_cell_length_a 22.062116
_cell_length_b 8.809647
_cell_length_c 11.326948
_cell_angle_alpha 90.000000
_cell_angle_beta 90.000000
_cell_angle_gamma 90.000000
_cell_volume 2201.499429
_symmetry_space_group_name_H-M "P C C N"
_symmetry_group_IT_number 56
_symmetry_cell_setting 'orthorhombic'
loop_
_space_group_symop_operation_xyz
x,y,z
1/2-x,1/2-y,z
1/2+x,-y,1/2-z
-x,1/2+y,1/2-z
-x,-y,-z
1/2+x,1/2+y,-z
1/2-x,y,1/2+z
x,1/2-y,1/2+z
loop_
_atom_site_type_symbol
_atom_site_label
_atom_site_fract_x
_atom_site_fract_y
_atom_site_fract_z
Si Si1 0.072751 0.499685 0.273880
Si Si2 0.656445 0.643273 0.419294
Si Si3 0.635587 0.154690 0.523556
Si Si4 0.289036 0.460080 0.133564
Si Si5 0.453418 0.829735 0.685293
Si Si6 0.142615 0.965929 0.354288
O O1 0.103519 0.410029 0.167029
O O2 0.122422 0.532041 0.374510
O O3 0.044435 0.659269 0.233811
O O4 0.020941 0.392484 0.326864
O O5 0.718246 0.559307 0.384765
O O6 0.668326 0.821688 0.409275
O O7 0.634906 0.602993 0.552200
O O8 0.575432 0.174295 0.444519
O O9 0.657502 0.313424 0.575724
O O10 0.691474 0.103823 0.443242
O O11 0.300301 0.491624 0.271830
O O12 0.416948 0.941596 0.773990
#
# Coordination Sequence:
#
# PCOD8229187 Si02
#       6
#     8   8   8   8   8   8
#     4  11  24  41  67  95 134 175 222 279 330 394
#     4  11  25  44  66 100 132 176 223 273 335 395
#     4  10  22  46  65  97 133 173 227 273 335 395
#     4  10  26  43  69  98 134 177 224 270 339 400
#     4  10  23  43  63  99 132 176 225 272 336 394
#     4  10  23  46  65  97 137 169 223 277 327 403
#
# _framework density 21.803321
#
# number of rings (size 3 to 8) (size 9 to 14) (size 15 to 20)
#    0.000    1.667    1.667    0.500    9.333    2.667 
#    3.000    0.000    0.000    0.000    0.000    0.000 
#    0.000    0.000    0.000    0.000    0.000    0.000 
#
# Total GULP energy -595391.559895 kJ/mol
# GULP energy per Si atom -12403.990831 kJ/mol
# Density = 2.175370 g / cm^3
# Si number density = 21.803321 Si / 1000 Ang^3
#
#
#
# Elastic Constant Matrix: (Units=GPa)
#
#
# Indices 1 2 3 4 5 6 
#
# 1 41.9824 24.8735 -2.6738 0.0000 0.0000 0.0000
# 2 24.8735 65.2319 19.2227 0.0000 0.0000 0.0000
# 3 -2.6738 19.2227 106.5285 0.0000 0.0000 0.0000
# 4 0.0000 0.0000 0.0000 35.0625 0.0000 0.0000
# 5 0.0000 0.0000 0.0000 0.0000 17.5467 0.0000
# 6 0.0000 0.0000 0.0000 0.0000 0.0000 33.3570
#
#
#
# Elastic Compliance Matrix: (Units=1/GPa)
#
#
# Indices 1 2 3 4 5 6 
#
# 1 0.031740 -0.013031 0.003148 0.000000 0.000000 0.000000
# 2 -0.013031 0.021540 -0.004214 0.000000 0.000000 0.000000
# 3 0.003148 -0.004214 0.010227 0.000000 0.000000 0.000000
# 4 0.000000 0.000000 0.000000 0.028520 0.000000 0.000000
# 5 0.000000 0.000000 0.000000 0.000000 0.056991 0.000000
# 6 0.000000 0.000000 0.000000 0.000000 0.000000 0.029979
#
#
# Mechanical properties :
#
#
# Convention : Reuss Voigt Hill
#
# Bulk Modulus (GPa) = 28.31721 32.95419 30.63570
# Shear Modulus (GPa) = 22.83505 28.68126 25.75816
#
# Velocity S-wave (km/s) = 3.23974 3.63085 3.44086
# Velocity P-wave (km/s) = 5.19715 5.72054 5.46511
#
# Compressibility (1/GPa) = 0.03531421
#
# Stress axis : x y z
#
# Youngs Moduli (GPa) = 31.50575 46.42449 97.78454
#
# Poissons Ratio (x) = 0.60493 -0.30782
# Poissons Ratio (y) = 0.41054 0.41206
# Poissons Ratio (z) = -0.09918 0.19563
#
# Static dielectric constant tensor:
#      x y z
#    x 3.647190 0.000000 0.000000 
#    y 0.000000 4.000830 0.000000 
#    z 0.000000 0.000000 4.085350 
# 
# 
# High freq. dielectric constant tensor:
#      x y z
#    x 1.844210 0.000000 0.000000 
#    y 0.000000 1.864880 0.000000 
#    z 0.000000 0.000000 1.871290 
# 
# From -- ./inp_files/6402.got.cif
#   From: 2010.03.12/outbox.cif.g09.slc.cpg/sg56_4_cif.got.tgz:6402.got - 2010.04.16 15:33:40.
