data_PCOD8229728
_publ_section_title
;
Structure prediction by ZEFSAII (Michael W. Deem and Ramdas Pophale) SiO2 
 PCOD8229728
Probable space group: P C C N
;
_chemical_formula_sum "Si O2"
_cell_formula_units_Z 40
_cell_length_a 17.754856
_cell_length_b 5.660229
_cell_length_c 17.102747
_cell_angle_alpha 90.000000
_cell_angle_beta 90.000000
_cell_angle_gamma 90.000000
_cell_volume 1718.767083
_symmetry_space_group_name_H-M "P C C N"
_symmetry_group_IT_number 56
_symmetry_cell_setting 'orthorhombic'
loop_
_space_group_symop_operation_xyz
x,y,z
1/2-x,1/2-y,z
1/2+x,-y,1/2-z
-x,1/2+y,1/2-z
-x,-y,-z
1/2+x,1/2+y,-z
1/2-x,y,1/2+z
x,1/2-y,1/2+z
loop_
_atom_site_type_symbol
_atom_site_label
_atom_site_fract_x
_atom_site_fract_y
_atom_site_fract_z
Si Si1 0.321643 0.877567 0.468393
Si Si2 0.553826 0.387547 0.437414
Si Si3 0.072314 0.223756 0.186970
Si Si4 0.786931 0.993160 0.869569
Si Si5 0.060734 0.065338 0.849245
O O1 0.250000 0.750000 0.427529
O O2 0.374089 0.696021 0.514920
O O3 0.289017 0.045420 0.536620
O O4 0.366559 0.014001 0.401574
O O5 0.500000 0.500000 0.500000
O O6 0.587740 0.561382 0.372082
O O7 0.504360 0.183286 0.399871
O O8 0.127392 0.005025 0.164321
O O9 0.090716 0.284493 0.276658
O O10 0.982672 0.167203 0.182356
O O11 0.750000 0.750000 0.834473
O O12 0.750000 0.250000 0.846552
#
# Coordination Sequence:
#
# PCOD8229728 Si02
#       5
#     8   8   8   8   8
#     4  11  24  46  75 109 146 194 256 318 383 455
#     4  12  23  43  76 106 144 192 255 320 372 456
#     4  12  24  44  72 107 150 199 253 311 390 456
#     4  11  25  47  76 110 151 199 255 310 379 458
#     4  12  25  44  70 108 147 195 251 317 386 458
#
# _framework density 23.272494999999999
#
# number of rings (size 3 to 8) (size 9 to 14) (size 15 to 20)
#    0.000    0.400    6.000    4.200    0.000    0.000 
#    0.000    9.000    0.000    1.200    0.000    0.000 
#    0.000    0.000    0.000    0.000    0.000    0.000 
#
# Total GULP energy -495757.833491 kJ/mol
# GULP energy per Si atom -12393.945837 kJ/mol
# Density = 2.321953 g / cm^3
# Si number density = 23.272495 Si / 1000 Ang^3
#
#
#
# Elastic Constant Matrix: (Units=GPa)
#
#
# Indices 1 2 3 4 5 6 
#
# 1 138.6182 54.7395 50.3936 0.0000 0.0000 0.0000
# 2 54.7395 102.5455 31.6339 0.0000 0.0000 0.0000
# 3 50.3936 31.6339 106.7107 0.0000 0.0000 0.0000
# 4 0.0000 0.0000 0.0000 29.3646 0.0000 0.0000
# 5 0.0000 0.0000 0.0000 0.0000 22.4251 0.0000
# 6 0.0000 0.0000 0.0000 0.0000 0.0000 45.1212
#
#
#
# Elastic Compliance Matrix: (Units=1/GPa)
#
#
# Indices 1 2 3 4 5 6 
#
# 1 0.010223 -0.004367 -0.003533 0.000000 0.000000 0.000000
# 2 -0.004367 0.012599 -0.001673 0.000000 0.000000 0.000000
# 3 -0.003533 -0.001673 0.011535 0.000000 0.000000 0.000000
# 4 0.000000 0.000000 0.000000 0.034055 0.000000 0.000000
# 5 0.000000 0.000000 0.000000 0.000000 0.044593 0.000000
# 6 0.000000 0.000000 0.000000 0.000000 0.000000 0.022163
#
#
# Mechanical properties :
#
#
# Convention : Reuss Voigt Hill
#
# Bulk Modulus (GPa) = 65.73871 69.04536 67.39203
# Shear Modulus (GPa) = 31.37078 33.45600 32.41339
#
# Velocity S-wave (km/s) = 3.67546 3.79565 3.73604
# Velocity P-wave (km/s) = 6.80593 6.99585 6.90155
#
# Compressibility (1/GPa) = 0.01521174
#
# Stress axis : x y z
#
# Youngs Moduli (GPa) = 97.81755 79.37154 86.68923
#
# Poissons Ratio (x) = 0.34663 0.30629
# Poissons Ratio (y) = 0.42719 0.14499
# Poissons Ratio (z) = 0.34561 0.13275
#
# Static dielectric constant tensor:
#      x y z
#    x 4.025870 0.000000 0.000000 
#    y 0.000000 3.956350 0.000000 
#    z 0.000000 0.000000 3.241090 
# 
# 
# High freq. dielectric constant tensor:
#      x y z
#    x 1.940140 0.000000 0.000000 
#    y 0.000000 1.914860 0.000000 
#    z 0.000000 0.000000 1.911170 
# 
# From -- ./inp_files/16454.got.cif
#   From: 2010.03.12/outbox.cif.g09.slc.cpg/sg56_9_cif.got.tgz:16454.got - 2010.04.16 15:33:40.
