data_PCOD8229554
_publ_section_title
;
Structure prediction by ZEFSAII (Michael W. Deem and Ramdas Pophale) SiO2 
 PCOD8229554
Probable space group: P C C N
;
_chemical_formula_sum "Si O2"
_cell_formula_units_Z 48
_cell_length_a 10.519996
_cell_length_b 15.958710
_cell_length_c 13.509501
_cell_angle_alpha 90.000000
_cell_angle_beta 90.000000
_cell_angle_gamma 90.000000
_cell_volume 2268.050213
_symmetry_space_group_name_H-M "P C C N"
_symmetry_group_IT_number 56
_symmetry_cell_setting 'orthorhombic'
loop_
_space_group_symop_operation_xyz
x,y,z
1/2-x,1/2-y,z
1/2+x,-y,1/2-z
-x,1/2+y,1/2-z
-x,-y,-z
1/2+x,1/2+y,-z
1/2-x,y,1/2+z
x,1/2-y,1/2+z
loop_
_atom_site_type_symbol
_atom_site_label
_atom_site_fract_x
_atom_site_fract_y
_atom_site_fract_z
Si Si1 0.391887 0.715516 0.170754
Si Si2 0.382002 0.543120 0.054310
Si Si3 0.712587 0.993730 0.118484
Si Si4 0.507987 0.125689 0.913781
Si Si5 0.031562 0.633175 0.862702
Si Si6 0.178887 0.020167 0.680564
O O1 0.250000 0.750000 0.157079
O O2 0.414121 0.634183 0.100739
O O3 0.493481 0.786667 0.143143
O O4 0.423029 0.704352 0.287223
O O5 0.324488 0.483730 0.140977
O O6 0.500000 0.500000 0.000000
O O7 0.271429 0.546123 0.971880
O O8 0.635460 0.911425 0.081129
O O9 0.610263 0.052169 0.172271
O O10 0.820864 0.975106 0.199729
O O11 0.604829 0.061110 0.861544
O O12 0.557609 0.152099 0.022772
O O13 0.883599 0.607761 0.851918
#
# Coordination Sequence:
#
# PCOD8229554 Si02
#       6
#     8   8   8   8   8   8
#     4  12  24  43  67 108 137 171 236 293 338 406
#     4  12  24  42  67 102 133 178 232 272 335 411
#     4  11  21  40  69  93 133 180 219 277 334 416
#     4  11  23  42  68  96 137 174 221 287 354 386
#     4  11  21  41  67  94 129 180 218 279 346 407
#     4  11  21  42  67  97 128 174 234 271 338 418
#
# _framework density 21.163553
#
# number of rings (size 3 to 8) (size 9 to 14) (size 15 to 20)
#    0.000    0.667    6.667    2.000    2.333    3.333 
#    0.000    3.333    0.000    0.000    0.000    0.000 
#    0.000    0.000    0.000    0.000    0.000    0.000 
#
# Total GULP energy -594753.613434 kJ/mol
# GULP energy per Si atom -12390.700280 kJ/mol
# Density = 2.111538 g / cm^3
# Si number density = 21.163553 Si / 1000 Ang^3
#
#
#
# Elastic Constant Matrix: (Units=GPa)
#
#
# Indices 1 2 3 4 5 6 
#
# 1 65.3496 40.3401 30.9442 0.0000 0.0000 0.0000
# 2 40.3401 90.2127 46.9300 0.0000 0.0000 0.0000
# 3 30.9442 46.9300 149.4732 0.0000 0.0000 0.0000
# 4 0.0000 0.0000 0.0000 35.7341 0.0000 0.0000
# 5 0.0000 0.0000 0.0000 0.0000 39.6960 0.0000
# 6 0.0000 0.0000 0.0000 0.0000 0.0000 29.0333
#
#
#
# Elastic Compliance Matrix: (Units=1/GPa)
#
#
# Indices 1 2 3 4 5 6 
#
# 1 0.021497 -0.008722 -0.001712 0.000000 0.000000 0.000000
# 2 -0.008722 0.016788 -0.003465 0.000000 0.000000 0.000000
# 3 -0.001712 -0.003465 0.008133 0.000000 0.000000 0.000000
# 4 0.000000 0.000000 0.000000 0.027984 0.000000 0.000000
# 5 0.000000 0.000000 0.000000 0.000000 0.025191 0.000000
# 6 0.000000 0.000000 0.000000 0.000000 0.000000 0.034443
#
#
# Mechanical properties :
#
#
# Convention : Reuss Voigt Hill
#
# Bulk Modulus (GPa) = 53.70882 60.16268 56.93575
# Shear Modulus (GPa) = 29.75455 33.34742 31.55099
#
# Velocity S-wave (km/s) = 3.75365 3.97382 3.86530
# Velocity P-wave (km/s) = 6.64978 7.03876 6.84703
#
# Compressibility (1/GPa) = 0.01861892
#
# Stress axis : x y z
#
# Youngs Moduli (GPa) = 46.51787 59.56691 122.96317
#
# Poissons Ratio (x) = 0.51956 0.21050
# Poissons Ratio (y) = 0.40574 0.42609
# Poissons Ratio (z) = 0.07963 0.20641
#
# Static dielectric constant tensor:
#      x y z
#    x 3.927670 0.000000 0.000000 
#    y 0.000000 3.629520 0.000000 
#    z 0.000000 0.000000 4.011140 
# 
# 
# High freq. dielectric constant tensor:
#      x y z
#    x 1.826380 0.000000 0.000000 
#    y 0.000000 1.795370 0.000000 
#    z 0.000000 0.000000 1.853510 
# 
# From -- ./inp_files/11758.got.cif
#   From: 2010.03.12/outbox.cif.g09.slc.cpg/sg56_6_cif.got.tgz:11758.got - 2010.04.16 15:33:40.
