data_PCOD8229932
_publ_section_title
;
Structure prediction by ZEFSAII (Michael W. Deem and Ramdas Pophale) SiO2 
 PCOD8229932
Probable space group: P B C M
;
_chemical_formula_sum "Si O2"
_cell_formula_units_Z 64
_cell_length_a 20.075652
_cell_length_b 22.585712
_cell_length_c 9.046763
_cell_angle_alpha 90.000000
_cell_angle_beta 90.000000
_cell_angle_gamma 90.000000
_cell_volume 4102.009463
_symmetry_space_group_name_H-M "P B C M"
_symmetry_group_IT_number 57
_symmetry_cell_setting 'orthorhombic'
loop_
_space_group_symop_operation_xyz
x,y,z
-x,-y,1/2+z
x,1/2-y,-z
-x,1/2+y,1/2-z
-x,-y,-z
x,y,1/2-z
-x,1/2+y,z
x,1/2-y,1/2+z
loop_
_atom_site_type_symbol
_atom_site_label
_atom_site_fract_x
_atom_site_fract_y
_atom_site_fract_z
Si Si1 0.711101 0.527074 0.923569
Si Si2 0.418112 0.445045 0.582840
Si Si3 0.456044 0.918002 0.083604
Si Si4 0.111084 0.601206 0.582235
Si Si5 0.327761 0.605976 0.421592
Si Si6 0.153145 0.032587 0.423393
Si Si7 0.972332 0.557207 0.920899
Si Si8 0.793902 0.187192 0.423709
O O1 0.715802 0.539237 0.750000
O O2 0.702901 0.457813 0.959993
O O3 0.649183 0.563823 0.989378
O O4 0.777147 0.550361 0.003447
O O5 0.407026 0.422780 0.750000
O O6 0.476503 0.406226 0.508180
O O7 0.438936 0.513124 0.580925
O O8 0.466772 0.895252 0.250000
O O9 0.395261 0.881634 0.011731
O O10 0.132398 0.615875 0.750000
O O11 0.136340 0.535623 0.540525
O O12 0.143200 0.648445 0.473106
O O13 0.030605 0.606507 0.565222
O O14 0.346012 0.609667 0.250000
O O15 0.274355 0.654881 0.470201
O O16 0.155738 0.045244 0.250000
O O17 0.096428 0.074805 0.497005
O O18 0.957410 0.542983 0.750000
O O19 0.000000 0.500000 0.000000
O O20 0.796193 0.250000 0.500000
O O21 0.798452 0.195833 0.250000
#
# Coordination Sequence:
#
# PCOD8229932 Si02
#       8
#     8   8   8   8   8   8   8   8
#     4  10  17  26  40  58  82 110 142 175 207 247
#     4   9  16  25  36  54  79 106 135 168 203 241
#     4   9  16  25  39  56  74 101 135 170 205 242
#     4   9  18  31  45  60  80 106 138 176 214 255
#     4   9  18  30  42  57  76 104 138 174 215 254
#     4  10  18  27  41  62  85 111 141 173 210 253
#     4   9  17  28  42  61  82 106 136 171 209 251
#     4  11  22  34  47  63  82 108 142 182 224 261
#
# _framework density 15.602109
#
# number of rings (size 3 to 8) (size 9 to 14) (size 15 to 20)
#    0.000    2.500    1.250    3.000    0.000    7.000 
#    0.000    0.000    0.000    0.000    0.000    0.000 
#    0.000    0.000    0.000    1.125    0.000   17.250 
#
# Total GULP energy -793467.480804 kJ/mol
# GULP energy per Si atom -12397.929388 kJ/mol
# Density = 1.556660 g / cm^3
# Si number density = 15.602109 Si / 1000 Ang^3
#
#
#
# Elastic Constant Matrix: (Units=GPa)
#
#
# Indices 1 2 3 4 5 6 
#
# 1 143.4248 27.8813 74.7950 0.0000 0.0000 0.0000
# 2 27.8813 30.4386 24.1133 0.0000 0.0000 0.0000
# 3 74.7950 24.1133 112.9624 0.0000 0.0000 0.0000
# 4 0.0000 0.0000 0.0000 14.1223 0.0000 0.0000
# 5 0.0000 0.0000 0.0000 0.0000 36.1542 0.0000
# 6 0.0000 0.0000 0.0000 0.0000 0.0000 8.9420
#
#
#
# Elastic Compliance Matrix: (Units=1/GPa)
#
#
# Indices 1 2 3 4 5 6 
#
# 1 0.011327 -0.005336 -0.006361 0.000000 0.000000 0.000000
# 2 -0.005336 0.042053 -0.005444 0.000000 0.000000 0.000000
# 3 -0.006361 -0.005444 0.014226 0.000000 0.000000 0.000000
# 4 0.000000 0.000000 0.000000 0.070810 0.000000 0.000000
# 5 0.000000 0.000000 0.000000 0.000000 0.027659 0.000000
# 6 0.000000 0.000000 0.000000 0.000000 0.000000 0.111832
#
#
# Mechanical properties :
#
#
# Convention : Reuss Voigt Hill
#
# Bulk Modulus (GPa) = 30.00730 60.04501 45.02615
# Shear Modulus (GPa) = 15.46571 22.51278 18.98925
#
# Velocity S-wave (km/s) = 3.15184 3.80272 3.49247
# Velocity P-wave (km/s) = 5.70264 7.60589 6.72197
#
# Compressibility (1/GPa) = 0.03332523
#
# Stress axis : x y z
#
# Youngs Moduli (GPa) = 88.28770 23.77928 70.29409
#
# Poissons Ratio (x) = 0.12689 0.44711
# Poissons Ratio (y) = 0.47113 0.38265
# Poissons Ratio (z) = 0.56155 0.12945
#
# Static dielectric constant tensor:
#      x y z
#    x 3.269970 0.000000 0.000000 
#    y 0.000000 2.387630 0.000000 
#    z 0.000000 0.000000 3.154090 
# 
# 
# High freq. dielectric constant tensor:
#      x y z
#    x 1.615040 0.000000 0.000000 
#    y 0.000000 1.512630 0.000000 
#    z 0.000000 0.000000 1.618130 
# 
# From -- ./inp_files/7355.got.cif
#   From: 2010.03.12/outbox.cif.g09.slc.cpg/sg57_4_cif.got.tgz:7355.got - 2010.04.16 15:48:40.
