data_PCOD8229559
_publ_section_title
;
Structure prediction by ZEFSAII (Michael W. Deem and Ramdas Pophale) SiO2 
 PCOD8229559
Probable space group: P C C N
;
_chemical_formula_sum "Si O2"
_cell_formula_units_Z 48
_cell_length_a 17.471556
_cell_length_b 8.559598
_cell_length_c 14.414959
_cell_angle_alpha 90.000000
_cell_angle_beta 90.000000
_cell_angle_gamma 90.000000
_cell_volume 2155.749850
_symmetry_space_group_name_H-M "P C C N"
_symmetry_group_IT_number 56
_symmetry_cell_setting 'orthorhombic'
loop_
_space_group_symop_operation_xyz
x,y,z
1/2-x,1/2-y,z
1/2+x,-y,1/2-z
-x,1/2+y,1/2-z
-x,-y,-z
1/2+x,1/2+y,-z
1/2-x,y,1/2+z
x,1/2-y,1/2+z
loop_
_atom_site_type_symbol
_atom_site_label
_atom_site_fract_x
_atom_site_fract_y
_atom_site_fract_z
Si Si1 0.097834 0.602946 0.250131
Si Si2 0.734362 0.432687 0.459338
Si Si3 0.355593 0.936634 0.691547
Si Si4 0.516765 0.604982 0.909032
Si Si5 0.436476 0.446028 0.572925
Si Si6 0.246101 0.937605 0.840196
O O1 0.129280 0.751314 0.192720
O O2 0.045057 0.500207 0.179511
O O3 0.172856 0.504904 0.280810
O O4 0.057901 0.649660 0.348258
O O5 0.750000 0.250000 0.465423
O O6 0.790475 0.494529 0.380316
O O7 0.646151 0.478988 0.445937
O O8 0.758998 0.509246 0.557282
O O9 0.324607 0.996154 0.791177
O O10 0.435422 0.010465 0.665873
O O11 0.563288 0.759260 0.936943
O O12 0.500000 0.500000 0.000000
O O13 0.500000 0.500000 0.500000
O O14 0.250000 0.750000 0.841521
#
# Coordination Sequence:
#
# PCOD8229559 Si02
#       6
#     8   8   8   8   8   8
#     4  11  22  46  71 104 135 194 246 290 373 452
#     4  11  21  42  74 101 138 184 245 299 357 444
#     4  11  21  44  70  99 140 185 236 305 369 435
#     4  12  28  44  68 104 156 190 234 316 383 444
#     4  12  27  43  72 107 138 194 254 297 373 457
#     4   9  20  35  69  99 126 176 232 289 352 426
#
# _framework density 22.266034000000001
#
# number of rings (size 3 to 8) (size 9 to 14) (size 15 to 20)
#    0.000    1.000    3.333    3.500    9.333    0.667 
#    0.000    0.000    0.000    0.000    0.000    0.000 
#    0.000    0.000    0.000    0.000    0.000    0.000 
#
# Total GULP energy -594724.983974 kJ/mol
# GULP energy per Si atom -12390.103833 kJ/mol
# Density = 2.221536 g / cm^3
# Si number density = 22.266034 Si / 1000 Ang^3
#
#
#
# Elastic Constant Matrix: (Units=GPa)
#
#
# Indices 1 2 3 4 5 6 
#
# 1 109.8261 36.2035 45.2170 0.0000 0.0000 0.0000
# 2 36.2035 80.0936 43.5118 0.0000 0.0000 0.0000
# 3 45.2170 43.5118 149.1955 0.0000 0.0000 0.0000
# 4 0.0000 0.0000 0.0000 14.4581 0.0000 0.0000
# 5 0.0000 0.0000 0.0000 0.0000 45.8665 0.0000
# 6 0.0000 0.0000 0.0000 0.0000 0.0000 30.1097
#
#
#
# Elastic Compliance Matrix: (Units=1/GPa)
#
#
# Indices 1 2 3 4 5 6 
#
# 1 0.011330 -0.003869 -0.002305 0.000000 0.000000 0.000000
# 2 -0.003869 0.016157 -0.003540 0.000000 0.000000 0.000000
# 3 -0.002305 -0.003540 0.008434 0.000000 0.000000 0.000000
# 4 0.000000 0.000000 0.000000 0.069165 0.000000 0.000000
# 5 0.000000 0.000000 0.000000 0.000000 0.021802 0.000000
# 6 0.000000 0.000000 0.000000 0.000000 0.000000 0.033212
#
#
# Mechanical properties :
#
#
# Convention : Reuss Voigt Hill
#
# Bulk Modulus (GPa) = 60.63220 65.44221 63.03720
# Shear Modulus (GPa) = 27.02331 32.36572 29.69452
#
# Velocity S-wave (km/s) = 3.48754 3.81674 3.65584
# Velocity P-wave (km/s) = 6.59599 6.99129 6.79652
#
# Compressibility (1/GPa) = 0.01649289
#
# Stress axis : x y z
#
# Youngs Moduli (GPa) = 88.26275 61.89243 118.57297
#
# Poissons Ratio (x) = 0.23945 0.27336
# Poissons Ratio (y) = 0.34147 0.41970
# Poissons Ratio (z) = 0.20348 0.21907
#
# Static dielectric constant tensor:
#      x y z
#    x 4.113410 0.000000 0.000000 
#    y 0.000000 4.820800 0.000000 
#    z 0.000000 0.000000 4.606690 
# 
# 
# High freq. dielectric constant tensor:
#      x y z
#    x 1.886030 0.000000 0.000000 
#    y 0.000000 1.830450 0.000000 
#    z 0.000000 0.000000 1.904410 
# 
# From -- ./inp_files/12706.got.cif
#   From: 2010.03.12/outbox.cif.g09.slc.cpg/sg56_7_cif.got.tgz:12706.got - 2010.04.16 15:33:40.
