data_PCOD8229282
_publ_section_title
;
Structure prediction by ZEFSAII (Michael W. Deem and Ramdas Pophale) SiO2 
 PCOD8229282
Probable space group: P C C N
;
_chemical_formula_sum "Si O2"
_cell_formula_units_Z 48
_cell_length_a 20.399862
_cell_length_b 9.223623
_cell_length_c 10.516760
_cell_angle_alpha 90.000000
_cell_angle_beta 90.000000
_cell_angle_gamma 90.000000
_cell_volume 1978.840254
_symmetry_space_group_name_H-M "P C C N"
_symmetry_group_IT_number 56
_symmetry_cell_setting 'orthorhombic'
loop_
_space_group_symop_operation_xyz
x,y,z
1/2-x,1/2-y,z
1/2+x,-y,1/2-z
-x,1/2+y,1/2-z
-x,-y,-z
1/2+x,1/2+y,-z
1/2-x,y,1/2+z
x,1/2-y,1/2+z
loop_
_atom_site_type_symbol
_atom_site_label
_atom_site_fract_x
_atom_site_fract_y
_atom_site_fract_z
Si Si1 0.634537 0.956950 0.048377
Si Si2 0.029620 0.870255 0.874099
Si Si3 0.088762 0.801176 0.612577
Si Si4 0.234090 0.096158 0.080514
Si Si5 0.092585 0.141606 0.975470
Si Si6 0.696221 0.145087 0.246378
O O1 0.638008 0.077528 0.160039
O O2 0.597508 0.031283 0.929912
O O3 0.710982 0.927693 0.025325
O O4 0.596309 0.807000 0.079832
O O5 0.043871 0.795985 0.739091
O O6 0.951184 0.869754 0.895362
O O7 0.057306 0.788160 0.998059
O O8 0.060695 0.032902 0.871661
O O9 0.160116 0.736156 0.643482
O O10 0.250000 0.250000 0.146620
O O11 0.164244 0.087428 0.012282
O O12 0.239487 0.980837 0.192013
O O13 0.750000 0.250000 0.176236
#
# Coordination Sequence:
#
# PCOD8229282 Si02
#       6
#     8   8   8   8   8   8
#     4  11  26  44  71 106 142 192 240 310 369 448
#     4  11  26  48  75 104 147 197 243 307 359 455
#     4  12  25  46  72 106 141 195 248 295 371 437
#     4  10  23  43  70 102 140 187 239 304 372 438
#     4  10  25  48  71 105 147 189 247 301 377 438
#     4  12  25  41  71 101 148 187 244 304 371 439
#
# _framework density 24.256632
#
# number of rings (size 3 to 8) (size 9 to 14) (size 15 to 20)
#    0.000    1.000    5.000    0.000    4.667    9.333 
#    0.000    0.000    0.000    0.000    0.000    0.000 
#    0.000    0.000    0.000    0.000    0.000    0.000 
#
# Total GULP energy -594985.065582 kJ/mol
# GULP energy per Si atom -12395.522200 kJ/mol
# Density = 2.420142 g / cm^3
# Si number density = 24.256632 Si / 1000 Ang^3
#
#
#
# Elastic Constant Matrix: (Units=GPa)
#
#
# Indices 1 2 3 4 5 6 
#
# 1 78.6778 12.3037 6.6470 0.0000 0.0000 0.0000
# 2 12.3037 128.6863 33.2408 0.0000 0.0000 0.0000
# 3 6.6470 33.2408 92.0284 0.0000 0.0000 0.0000
# 4 0.0000 0.0000 0.0000 21.7303 0.0000 0.0000
# 5 0.0000 0.0000 0.0000 0.0000 28.2729 0.0000
# 6 0.0000 0.0000 0.0000 0.0000 0.0000 41.3185
#
#
#
# Elastic Compliance Matrix: (Units=1/GPa)
#
#
# Indices 1 2 3 4 5 6 
#
# 1 0.012927 -0.001097 -0.000537 0.000000 0.000000 0.000000
# 2 -0.001097 0.008664 -0.003050 0.000000 0.000000 0.000000
# 3 -0.000537 -0.003050 0.012007 0.000000 0.000000 0.000000
# 4 0.000000 0.000000 0.000000 0.046019 0.000000 0.000000
# 5 0.000000 0.000000 0.000000 0.000000 0.035370 0.000000
# 6 0.000000 0.000000 0.000000 0.000000 0.000000 0.024202
#
#
# Mechanical properties :
#
#
# Convention : Reuss Voigt Hill
#
# Bulk Modulus (GPa) = 41.27431 44.86394 43.06913
# Shear Modulus (GPa) = 31.92173 34.74440 33.33307
#
# Velocity S-wave (km/s) = 3.63161 3.78877 3.71102
# Velocity P-wave (km/s) = 5.88535 6.13803 6.01302
#
# Compressibility (1/GPa) = 0.02422815
#
# Stress axis : x y z
#
# Youngs Moduli (GPa) = 77.35719 115.42562 83.28678
#
# Poissons Ratio (x) = 0.12664 0.04476
# Poissons Ratio (y) = 0.08487 0.25403
# Poissons Ratio (z) = 0.04157 0.35205
#
# Static dielectric constant tensor:
#      x y z
#    x 4.478650 0.000000 0.000000 
#    y 0.000000 4.817870 0.000000 
#    z 0.000000 0.000000 3.954830 
# 
# 
# High freq. dielectric constant tensor:
#      x y z
#    x 1.970470 0.000000 0.000000 
#    y 0.000000 1.985240 0.000000 
#    z 0.000000 0.000000 1.931790 
# 
# From -- ./inp_files/8870.got.cif
#   From: 2010.03.12/outbox.cif.g09.slc.cpg/sg56_5_cif.got.tgz:8870.got - 2010.04.16 15:33:40.
