data_PCOD8229120
_publ_section_title
;
Structure prediction by ZEFSAII (Michael W. Deem and Ramdas Pophale) SiO2 
 PCOD8229120
Probable space group: P C C N
;
_chemical_formula_sum "Si O2"
_cell_formula_units_Z 60
_cell_length_a 8.254287
_cell_length_b 10.900148
_cell_length_c 31.154651
_cell_angle_alpha 90.000000
_cell_angle_beta 90.000000
_cell_angle_gamma 90.000000
_cell_volume 2803.075855
_symmetry_space_group_name_H-M "P C C N"
_symmetry_group_IT_number 56
_symmetry_cell_setting 'orthorhombic'
loop_
_space_group_symop_operation_xyz
x,y,z
1/2-x,1/2-y,z
1/2+x,-y,1/2-z
-x,1/2+y,1/2-z
-x,-y,-z
1/2+x,1/2+y,-z
1/2-x,y,1/2+z
x,1/2-y,1/2+z
loop_
_atom_site_type_symbol
_atom_site_label
_atom_site_fract_x
_atom_site_fract_y
_atom_site_fract_z
Si Si1 0.079875 0.685539 0.025738
Si Si2 0.289461 0.890209 0.852562
Si Si3 0.308390 0.886296 0.705668
Si Si4 0.750000 0.750000 0.336551
Si Si5 0.938210 0.973611 0.871926
Si Si6 0.966707 0.923826 0.283084
Si Si7 0.441243 0.066138 0.457808
Si Si8 0.091785 0.539087 0.941433
O O1 0.250000 0.750000 0.036228
O O2 0.944794 0.787107 0.036324
O O3 0.050939 0.563082 0.054580
O O4 0.067695 0.648048 0.975674
O O5 0.250000 0.750000 0.841156
O O6 0.383233 0.958205 0.814060
O O7 0.123862 0.961837 0.858159
O O8 0.405321 0.898079 0.894702
O O9 0.250000 0.750000 0.703517
O O10 0.464288 0.895053 0.736227
O O11 0.356338 0.925027 0.657944
O O12 0.159950 0.967057 0.723027
O O13 0.662285 0.847457 0.367523
O O14 0.883113 0.805981 0.304637
O O15 0.936082 0.020947 0.920579
O O16 0.257826 0.031471 0.449347
O O17 0.500000 0.000000 0.500000
#
# Coordination Sequence:
#
# PCOD8229120 Si02
#       8
#     8   8   8   4   8   8   8   8
#     4  11  22  41  62  89 132 168 218 280 333 397
#     4  11  21  41  70  94 129 172 220 276 323 389
#     4  11  26  45  66 103 137 175 216 268 334 399
#     4  10  22  42  68 106 128 174 222 282 324 404
#     4  10  24  44  65  96 135 171 227 273 336 396
#     4  11  24  41  72  99 134 170 220 265 330 391
#     4  11  23  42  64  94 130 177 221 279 335 398
#     4  10  24  41  63  96 124 177 224 267 342 403
#
# _framework density 21.405058
#
# number of rings (size 3 to 8) (size 9 to 14) (size 15 to 20)
#    0.000    1.333    2.667    2.000    5.600    3.733 
#    2.400    1.333    0.000    0.000    0.000    0.000 
#    0.000    0.000    0.000    0.000    0.000    0.000 
#
# Total GULP energy -744133.486482 kJ/mol
# GULP energy per Si atom -12402.224775 kJ/mol
# Density = 2.135634 g / cm^3
# Si number density = 21.405058 Si / 1000 Ang^3
#
#
#
# Elastic Constant Matrix: (Units=GPa)
#
#
# Indices 1 2 3 4 5 6 
#
# 1 87.3535 41.4408 42.6091 0.0000 0.0000 0.0000
# 2 41.4408 127.1362 48.3986 0.0000 0.0000 0.0000
# 3 42.6091 48.3986 121.4342 0.0000 0.0000 0.0000
# 4 0.0000 0.0000 0.0000 21.0251 0.0000 0.0000
# 5 0.0000 0.0000 0.0000 0.0000 36.1327 0.0000
# 6 0.0000 0.0000 0.0000 0.0000 0.0000 30.1110
#
#
#
# Elastic Compliance Matrix: (Units=1/GPa)
#
#
# Indices 1 2 3 4 5 6 
#
# 1 0.014958 -0.003392 -0.003896 0.000000 0.000000 0.000000
# 2 -0.003392 0.010042 -0.002812 0.000000 0.000000 0.000000
# 3 -0.003896 -0.002812 0.010723 0.000000 0.000000 0.000000
# 4 0.000000 0.000000 0.000000 0.047562 0.000000 0.000000
# 5 0.000000 0.000000 0.000000 0.000000 0.027676 0.000000
# 6 0.000000 0.000000 0.000000 0.000000 0.000000 0.033210
#
#
# Mechanical properties :
#
#
# Convention : Reuss Voigt Hill
#
# Bulk Modulus (GPa) = 64.42853 66.75786 65.59320
# Shear Modulus (GPa) = 29.49066 31.01880 30.25473
#
# Velocity S-wave (km/s) = 3.71582 3.81088 3.76365
# Velocity P-wave (km/s) = 6.96956 7.11473 7.04252
#
# Compressibility (1/GPa) = 0.01552107
#
# Stress axis : x y z
#
# Youngs Moduli (GPa) = 66.85576 99.58413 93.25934
#
# Poissons Ratio (x) = 0.33781 0.36337
# Poissons Ratio (y) = 0.22679 0.26224
# Poissons Ratio (z) = 0.26049 0.28003
#
# Static dielectric constant tensor:
#      x y z
#    x 3.986120 0.000000 0.000000 
#    y 0.000000 3.907530 0.000000 
#    z 0.000000 0.000000 4.039590 
# 
# 
# High freq. dielectric constant tensor:
#      x y z
#    x 1.854190 0.000000 0.000000 
#    y 0.000000 1.838950 0.000000 
#    z 0.000000 0.000000 1.839580 
# 
# From -- ./inp_files/23344.got.cif
#   From: 2010.03.12/outbox.cif.g09.slc.cpg/sg56_12_cif.got.tgz:23344.got - 2010.04.16 15:33:40.
