data_PCOD8229003
_publ_section_title
;
Structure prediction by ZEFSAII (Michael W. Deem and Ramdas Pophale) SiO2 
 PCOD8229003
Probable space group: P C C N
;
_chemical_formula_sum "Si O2"
_cell_formula_units_Z 44
_cell_length_a 7.481046
_cell_length_b 12.808882
_cell_length_c 22.013293
_cell_angle_alpha 90.000000
_cell_angle_beta 90.000000
_cell_angle_gamma 90.000000
_cell_volume 2109.398166
_symmetry_space_group_name_H-M "P C C N"
_symmetry_group_IT_number 56
_symmetry_cell_setting 'orthorhombic'
loop_
_space_group_symop_operation_xyz
x,y,z
1/2-x,1/2-y,z
1/2+x,-y,1/2-z
-x,1/2+y,1/2-z
-x,-y,-z
1/2+x,1/2+y,-z
1/2-x,y,1/2+z
x,1/2-y,1/2+z
loop_
_atom_site_type_symbol
_atom_site_label
_atom_site_fract_x
_atom_site_fract_y
_atom_site_fract_z
Si Si1 0.948969 0.247900 0.834236
Si Si2 0.750000 0.250000 0.147259
Si Si3 0.725229 0.061862 0.062587
Si Si4 0.605395 0.090224 0.931592
Si Si5 0.412380 0.178505 0.715675
Si Si6 0.057938 0.517822 0.635314
O O1 0.750000 0.250000 0.806578
O O2 0.944476 0.298691 0.901493
O O3 0.016776 0.128326 0.839890
O O4 0.077710 0.314167 0.789354
O O5 0.677611 0.155188 0.107054
O O6 0.588131 0.270781 0.190542
O O7 0.580899 0.970070 0.064864
O O8 0.711009 0.108036 0.994666
O O9 0.923203 0.022412 0.082475
O O10 0.742869 0.026615 0.890202
O O11 0.250000 0.250000 0.691575
O O12 0.412429 0.059478 0.692450
#
# Coordination Sequence:
#
# PCOD8229003 Si02
#       6
#     8   4   8   8   8   8
#     4  10  23  41  63  91 127 165 210 262 315 375
#     4  10  22  40  60  94 122 164 206 258 316 368
#     4  10  22  39  67  87 125 163 206 260 313 377
#     4  10  22  42  60  95 122 163 210 259 315 374
#     4  11  23  40  62  91 128 167 209 260 309 379
#     4  10  23  40  64  93 123 166 209 259 315 374
#
# _framework density 20.859030000000001
#
# number of rings (size 3 to 8) (size 9 to 14) (size 15 to 20)
#    0.000    1.818    0.909    1.636    6.364    4.364 
#    0.000    0.000    0.000    0.000    0.000    0.000 
#    0.000    0.000    0.000    0.000    0.000    0.000 
#
# Total GULP energy -545299.828149 kJ/mol
# GULP energy per Si atom -12393.177912 kJ/mol
# Density = 2.081155 g / cm^3
# Si number density = 20.859030 Si / 1000 Ang^3
#
#
#
# Elastic Constant Matrix: (Units=GPa)
#
#
# Indices 1 2 3 4 5 6 
#
# 1 54.0947 24.6193 25.8821 0.0000 0.0000 0.0000
# 2 24.6193 130.2517 64.5351 0.0000 0.0000 0.0000
# 3 25.8821 64.5351 126.6020 0.0000 0.0000 0.0000
# 4 0.0000 0.0000 0.0000 14.3719 0.0000 0.0000
# 5 0.0000 0.0000 0.0000 0.0000 109.5782 0.0000
# 6 0.0000 0.0000 0.0000 0.0000 0.0000 27.8727
#
#
#
# Elastic Compliance Matrix: (Units=1/GPa)
#
#
# Indices 1 2 3 4 5 6 
#
# 1 0.021069 -0.002473 -0.003047 0.000000 0.000000 0.000000
# 2 -0.002473 0.010562 -0.004878 0.000000 0.000000 0.000000
# 3 -0.003047 -0.004878 0.011008 0.000000 0.000000 0.000000
# 4 0.000000 0.000000 0.000000 0.069580 0.000000 0.000000
# 5 0.000000 0.000000 0.000000 0.000000 0.009126 0.000000
# 6 0.000000 0.000000 0.000000 0.000000 0.000000 0.035877
#
#
# Mechanical properties :
#
#
# Convention : Reuss Voigt Hill
#
# Bulk Modulus (GPa) = 45.78004 60.11349 52.94677
# Shear Modulus (GPa) = 26.98321 43.42535 35.20428
#
# Velocity S-wave (km/s) = 3.60057 4.56768 4.11265
# Velocity P-wave (km/s) = 6.26741 7.52992 6.92749
#
# Compressibility (1/GPa) = 0.02184358
#
# Stress axis : x y z
#
# Youngs Moduli (GPa) = 47.46248 94.68001 90.83983
#
# Poissons Ratio (x) = 0.23412 0.27677
# Poissons Ratio (y) = 0.11736 0.44315
# Poissons Ratio (z) = 0.14461 0.46188
#
# Static dielectric constant tensor:
#      x y z
#    x 3.803520 0.000000 0.000000 
#    y 0.000000 3.747680 0.000000 
#    z 0.000000 0.000000 3.931340 
# 
# 
# High freq. dielectric constant tensor:
#      x y z
#    x 1.823730 0.000000 0.000000 
#    y 0.000000 1.817030 0.000000 
#    z 0.000000 0.000000 1.819250 
# 
# From -- ./inp_files/20420.got.cif
#   From: 2010.03.12/outbox.cif.g09.slc.cpg/sg56_11_cif.got.tgz:20420.got - 2010.04.16 15:33:40.
