data_PCOD8229627
_publ_section_title
;
Structure prediction by ZEFSAII (Michael W. Deem and Ramdas Pophale) SiO2 
 PCOD8229627
Probable space group: P C C N
;
_chemical_formula_sum "Si O2"
_cell_formula_units_Z 64
_cell_length_a 22.736372
_cell_length_b 11.285155
_cell_length_c 12.165020
_cell_angle_alpha 90.000000
_cell_angle_beta 90.000000
_cell_angle_gamma 90.000000
_cell_volume 3121.343192
_symmetry_space_group_name_H-M "P C C N"
_symmetry_group_IT_number 56
_symmetry_cell_setting 'orthorhombic'
loop_
_space_group_symop_operation_xyz
x,y,z
1/2-x,1/2-y,z
1/2+x,-y,1/2-z
-x,1/2+y,1/2-z
-x,-y,-z
1/2+x,1/2+y,-z
1/2-x,y,1/2+z
x,1/2-y,1/2+z
loop_
_atom_site_type_symbol
_atom_site_label
_atom_site_fract_x
_atom_site_fract_y
_atom_site_fract_z
Si Si1 0.687206 0.113803 0.558144
Si Si2 0.058241 0.219463 0.494878
Si Si3 0.374720 0.611336 0.713855
Si Si4 0.458085 0.693471 0.135201
Si Si5 0.323783 0.877669 0.984788
Si Si6 0.525701 0.566141 0.307510
Si Si7 0.892480 0.962868 0.913892
Si Si8 0.399441 0.456020 0.335575
O O1 0.671038 0.109687 0.686612
O O2 0.756608 0.103736 0.547033
O O3 0.661402 0.237438 0.511921
O O4 0.662431 0.004621 0.487207
O O5 0.058596 0.122850 0.589810
O O6 0.080924 0.346549 0.531897
O O7 0.102444 0.168466 0.401240
O O8 0.989617 0.228051 0.457834
O O9 0.403024 0.741141 0.692125
O O10 0.338980 0.571025 0.605210
O O11 0.427633 0.523689 0.745807
O O12 0.509801 0.670959 0.223781
O O13 0.440221 0.567578 0.084109
O O14 0.361705 0.941639 0.892177
O O15 0.467388 0.494444 0.338408
O O16 0.874439 0.936818 0.787428
#
# Coordination Sequence:
#
# PCOD8229627 Si02
#       8
#     8   8   8   8   8   8   8   8
#     4  11  26  42  69  97 134 170 231 284 327 391
#     4  12  22  39  63  94 134 177 219 265 335 408
#     4  12  23  44  68 101 135 177 226 272 342 408
#     4  11  23  37  63  97 142 169 211 275 335 409
#     4  11  25  44  69  96 129 183 222 281 334 388
#     4  11  23  38  64  97 133 174 217 267 339 408
#     4  11  25  40  63  97 135 172 221 273 337 393
#     4  11  23  44  65  96 132 178 217 274 335 407
#
# _framework density 20.503992
#
# number of rings (size 3 to 8) (size 9 to 14) (size 15 to 20)
#    0.000    0.750    3.750    4.500    5.250    1.000 
#    0.000    0.625    0.000    1.500    0.000    0.000 
#    0.000    0.000    0.000    0.000    0.000    0.000 
#
# Total GULP energy -793711.069892 kJ/mol
# GULP energy per Si atom -12401.735467 kJ/mol
# Density = 2.045732 g / cm^3
# Si number density = 20.503992 Si / 1000 Ang^3
#
#
#
# Elastic Constant Matrix: (Units=GPa)
#
#
# Indices 1 2 3 4 5 6 
#
# 1 91.5604 36.0197 50.1966 0.0000 0.0000 0.0000
# 2 36.0197 85.3948 37.2055 0.0000 0.0000 0.0000
# 3 50.1966 37.2055 103.2824 0.0000 0.0000 0.0000
# 4 0.0000 0.0000 0.0000 38.3137 0.0000 0.0000
# 5 0.0000 0.0000 0.0000 0.0000 34.5426 0.0000
# 6 0.0000 0.0000 0.0000 0.0000 0.0000 25.3858
#
#
#
# Elastic Compliance Matrix: (Units=1/GPa)
#
#
# Indices 1 2 3 4 5 6 
#
# 1 0.015950 -0.003974 -0.006320 0.000000 0.000000 0.000000
# 2 -0.003974 0.014881 -0.003429 0.000000 0.000000 0.000000
# 3 -0.006320 -0.003429 0.013989 0.000000 0.000000 0.000000
# 4 0.000000 0.000000 0.000000 0.026100 0.000000 0.000000
# 5 0.000000 0.000000 0.000000 0.000000 0.028950 0.000000
# 6 0.000000 0.000000 0.000000 0.000000 0.000000 0.039392
#
#
# Mechanical properties :
#
#
# Convention : Reuss Voigt Hill
#
# Bulk Modulus (GPa) = 57.56054 58.56458 58.06256
# Shear Modulus (GPa) = 28.98545 30.10279 29.54412
#
# Velocity S-wave (km/s) = 3.76393 3.83579 3.80003
# Velocity P-wave (km/s) = 6.85736 6.94567 6.90165
#
# Compressibility (1/GPa) = 0.01737301
#
# Stress axis : x y z
#
# Youngs Moduli (GPa) = 62.69492 67.20178 71.48356
#
# Poissons Ratio (x) = 0.26707 0.45181
# Poissons Ratio (y) = 0.24916 0.24511
# Poissons Ratio (z) = 0.39626 0.23043
#
# Static dielectric constant tensor:
#      x y z
#    x 3.460770 0.000000 0.000000 
#    y 0.000000 3.782260 0.000000 
#    z 0.000000 0.000000 3.964940 
# 
# 
# High freq. dielectric constant tensor:
#      x y z
#    x 1.780740 0.000000 0.000000 
#    y 0.000000 1.803820 0.000000 
#    z 0.000000 0.000000 1.817970 
# 
# From -- ./inp_files/8959.got.cif
#   From: 2010.03.12/outbox.cif.g09.slc.cpg/sg56_5_cif.got.tgz:8959.got - 2010.04.16 15:33:40.
