data_PCOD8229403
_publ_section_title
;
Structure prediction by ZEFSAII (Michael W. Deem and Ramdas Pophale) SiO2 
 PCOD8229403
Probable space group: P C C N
;
_chemical_formula_sum "Si O2"
_cell_formula_units_Z 40
_cell_length_a 14.850835
_cell_length_b 11.631146
_cell_length_c 10.600237
_cell_angle_alpha 90.000000
_cell_angle_beta 90.000000
_cell_angle_gamma 90.000000
_cell_volume 1831.002577
_symmetry_space_group_name_H-M "P C C N"
_symmetry_group_IT_number 56
_symmetry_cell_setting 'orthorhombic'
loop_
_space_group_symop_operation_xyz
x,y,z
1/2-x,1/2-y,z
1/2+x,-y,1/2-z
-x,1/2+y,1/2-z
-x,-y,-z
1/2+x,1/2+y,-z
1/2-x,y,1/2+z
x,1/2-y,1/2+z
loop_
_atom_site_type_symbol
_atom_site_label
_atom_site_fract_x
_atom_site_fract_y
_atom_site_fract_z
Si Si1 0.069043 0.087882 0.937678
Si Si2 0.239412 0.485700 0.008659
Si Si3 0.937827 0.852672 0.534965
Si Si4 0.975710 0.452515 0.201007
Si Si5 0.715680 0.379471 0.748504
O O1 0.042586 0.219260 0.955026
O O2 0.064349 0.059621 0.788166
O O3 0.165960 0.077941 0.999345
O O4 0.000000 0.000000 0.000000
O O5 0.162924 0.387758 0.007283
O O6 0.234035 0.571223 0.890416
O O7 0.231765 0.553401 0.140663
O O8 0.011247 0.893336 0.433762
O O9 0.956718 0.912563 0.671157
O O10 0.891675 0.391677 0.272505
O O11 0.750000 0.250000 0.752595
#
# Coordination Sequence:
#
# PCOD8229403 Si02
#       5
#     8   8   8   8   8
#     4  12  25  41  71 100 132 178 238 277 345 417
#     4  11  24  45  65 102 134 186 231 284 354 409
#     4  10  25  45  69  96 143 180 225 293 345 414
#     4  10  24  45  67 101 135 183 231 284 356 405
#     4  11  24  41  69  98 141 179 233 289 347 414
#
# _framework density 21.845953999999999
#
# number of rings (size 3 to 8) (size 9 to 14) (size 15 to 20)
#    0.000    1.200    2.000    2.400    5.600    4.800 
#    0.000    4.000    0.000    0.000    0.000    0.000 
#    0.000    0.000    0.000    0.000    0.000    0.000 
#
# Total GULP energy -495918.826218 kJ/mol
# GULP energy per Si atom -12397.970655 kJ/mol
# Density = 2.179623 g / cm^3
# Si number density = 21.845954 Si / 1000 Ang^3
#
#
#
# Elastic Constant Matrix: (Units=GPa)
#
#
# Indices 1 2 3 4 5 6 
#
# 1 70.0898 49.4462 23.3638 0.0000 0.0000 0.0000
# 2 49.4462 177.4764 45.6130 0.0000 0.0000 0.0000
# 3 23.3638 45.6130 110.7175 0.0000 0.0000 0.0000
# 4 0.0000 0.0000 0.0000 20.0336 0.0000 0.0000
# 5 0.0000 0.0000 0.0000 0.0000 40.7864 0.0000
# 6 0.0000 0.0000 0.0000 0.0000 0.0000 25.7299
#
#
#
# Elastic Compliance Matrix: (Units=1/GPa)
#
#
# Indices 1 2 3 4 5 6 
#
# 1 0.018127 -0.004549 -0.001951 0.000000 0.000000 0.000000
# 2 -0.004549 0.007443 -0.002107 0.000000 0.000000 0.000000
# 3 -0.001951 -0.002107 0.010312 0.000000 0.000000 0.000000
# 4 0.000000 0.000000 0.000000 0.049916 0.000000 0.000000
# 5 0.000000 0.000000 0.000000 0.000000 0.024518 0.000000
# 6 0.000000 0.000000 0.000000 0.000000 0.000000 0.038865
#
#
# Mechanical properties :
#
#
# Convention : Reuss Voigt Hill
#
# Bulk Modulus (GPa) = 53.56566 66.12553 59.84559
# Shear Modulus (GPa) = 28.96584 33.30069 31.13327
#
# Velocity S-wave (km/s) = 3.64526 3.90852 3.77918
# Velocity P-wave (km/s) = 6.50309 7.12063 6.81885
#
# Compressibility (1/GPa) = 0.01866868
#
# Stress axis : x y z
#
# Youngs Moduli (GPa) = 55.16673 134.34915 96.97822
#
# Poissons Ratio (x) = 0.61113 0.18922
# Poissons Ratio (y) = 0.25094 0.20429
# Poissons Ratio (z) = 0.10764 0.28302
#
# Static dielectric constant tensor:
#      x y z
#    x 4.187020 0.000000 0.000000 
#    y 0.000000 3.847800 0.000000 
#    z 0.000000 0.000000 4.185700 
# 
# 
# High freq. dielectric constant tensor:
#      x y z
#    x 1.866310 0.000000 0.000000 
#    y 0.000000 1.854370 0.000000 
#    z 0.000000 0.000000 1.871430 
# 
# From -- ./inp_files/7000.got.cif
#   From: 2010.03.12/outbox.cif.g09.slc.cpg/sg56_4_cif.got.tgz:7000.got - 2010.04.16 15:33:40.
