data_PCOD8229609
_publ_section_title
;
Structure prediction by ZEFSAII (Michael W. Deem and Ramdas Pophale) SiO2 
 PCOD8229609
Probable space group: P C C N
;
_chemical_formula_sum "Si O2"
_cell_formula_units_Z 48
_cell_length_a 19.118440
_cell_length_b 8.805294
_cell_length_c 13.627375
_cell_angle_alpha 90.000000
_cell_angle_beta 90.000000
_cell_angle_gamma 90.000000
_cell_volume 2294.079799
_symmetry_space_group_name_H-M "P C C N"
_symmetry_group_IT_number 56
_symmetry_cell_setting 'orthorhombic'
loop_
_space_group_symop_operation_xyz
x,y,z
1/2-x,1/2-y,z
1/2+x,-y,1/2-z
-x,1/2+y,1/2-z
-x,-y,-z
1/2+x,1/2+y,-z
1/2-x,y,1/2+z
x,1/2-y,1/2+z
loop_
_atom_site_type_symbol
_atom_site_label
_atom_site_fract_x
_atom_site_fract_y
_atom_site_fract_z
Si Si1 0.440014 0.401176 0.780417
Si Si2 0.830144 0.395878 0.816179
Si Si3 0.933195 0.895428 0.832577
Si Si4 0.790952 0.987289 0.518722
Si Si5 0.855425 0.657438 0.526057
Si Si6 0.313079 0.935501 0.766254
O O1 0.401887 0.521626 0.710202
O O2 0.510142 0.472438 0.823959
O O3 0.462964 0.259806 0.713139
O O4 0.389044 0.350630 0.867137
O O5 0.835257 0.223058 0.781591
O O6 0.765642 0.481472 0.763524
O O7 0.816406 0.401623 0.932489
O O8 0.863202 0.933259 0.772458
O O9 0.915100 0.878242 0.946749
O O10 0.827291 0.825216 0.507074
O O11 0.707074 0.965302 0.517335
O O12 0.816418 0.073142 0.616342
#
# Coordination Sequence:
#
# PCOD8229609 Si02
#       6
#     8   8   8   8   8   8
#     4  12  25  45  68  99 139 186 230 280 341 409
#     4  11  24  42  69 102 140 177 224 288 339 404
#     4  12  25  45  68  99 139 186 230 280 341 409
#     4  11  22  42  73 108 132 176 231 288 343 410
#     4  11  23  41  74 103 136 175 234 283 344 414
#     4  11  24  42  69 102 140 177 224 288 339 404
#
# _framework density 20.923421999999999
#
# number of rings (size 3 to 8) (size 9 to 14) (size 15 to 20)
#    0.000    0.667    6.667    1.500    0.000    4.667 
#    0.000    6.667    0.000    0.000    0.000    0.000 
#    0.000    0.000    0.000    0.000    0.000    0.000 
#
# Total GULP energy -595499.081961 kJ/mol
# GULP energy per Si atom -12406.230874 kJ/mol
# Density = 2.087580 g / cm^3
# Si number density = 20.923422 Si / 1000 Ang^3
#
#
#
# Elastic Constant Matrix: (Units=GPa)
#
#
# Indices 1 2 3 4 5 6 
#
# 1 52.4391 7.5959 -6.8527 0.0000 0.0000 0.0000
# 2 7.5959 84.5536 20.1349 0.0000 0.0000 0.0000
# 3 -6.8527 20.1349 126.7063 0.0000 0.0000 0.0000
# 4 0.0000 0.0000 0.0000 38.4256 0.0000 0.0000
# 5 0.0000 0.0000 0.0000 0.0000 24.8552 0.0000
# 6 0.0000 0.0000 0.0000 0.0000 0.0000 27.6966
#
#
#
# Elastic Compliance Matrix: (Units=1/GPa)
#
#
# Indices 1 2 3 4 5 6 
#
# 1 0.019554 -0.002087 0.001389 0.000000 0.000000 0.000000
# 2 -0.002087 0.012515 -0.002102 0.000000 0.000000 0.000000
# 3 0.001389 -0.002102 0.008301 0.000000 0.000000 0.000000
# 4 0.000000 0.000000 0.000000 0.026024 0.000000 0.000000
# 5 0.000000 0.000000 0.000000 0.000000 0.040233 0.000000
# 6 0.000000 0.000000 0.000000 0.000000 0.000000 0.036105
#
#
# Mechanical properties :
#
#
# Convention : Reuss Voigt Hill
#
# Bulk Modulus (GPa) = 28.76027 33.93947 31.34987
# Shear Modulus (GPa) = 31.26520 34.38356 32.82438
#
# Velocity S-wave (km/s) = 3.86977 4.05817 3.96509
# Velocity P-wave (km/s) = 5.80880 6.18177 5.99819
#
# Compressibility (1/GPa) = 0.03477019
#
# Stress axis : x y z
#
# Youngs Moduli (GPa) = 51.14139 79.90542 120.46208
#
# Poissons Ratio (x) = 0.16680 -0.16735
# Poissons Ratio (y) = 0.10675 0.25317
# Poissons Ratio (z) = -0.07105 0.16793
#
# Static dielectric constant tensor:
#      x y z
#    x 3.796690 0.000000 0.000000 
#    y 0.000000 3.599390 0.000000 
#    z 0.000000 0.000000 3.818950 
# 
# 
# High freq. dielectric constant tensor:
#      x y z
#    x 1.817000 0.000000 0.000000 
#    y 0.000000 1.818480 0.000000 
#    z 0.000000 0.000000 1.832350 
# 
# From -- ./inp_files/10770.got.cif
#   From: 2010.03.12/outbox.cif.g09.slc.cpg/sg56_6_cif.got.tgz:10770.got - 2010.04.16 15:33:40.
