data_PCOD8229578
_publ_section_title
;
Structure prediction by ZEFSAII (Michael W. Deem and Ramdas Pophale) SiO2 
 PCOD8229578
Probable space group: P C C N
;
_chemical_formula_sum "Si O2"
_cell_formula_units_Z 40
_cell_length_a 7.992375
_cell_length_b 11.448131
_cell_length_c 17.929876
_cell_angle_alpha 90.000000
_cell_angle_beta 90.000000
_cell_angle_gamma 90.000000
_cell_volume 1640.543419
_symmetry_space_group_name_H-M "P C C N"
_symmetry_group_IT_number 56
_symmetry_cell_setting 'orthorhombic'
loop_
_space_group_symop_operation_xyz
x,y,z
1/2-x,1/2-y,z
1/2+x,-y,1/2-z
-x,1/2+y,1/2-z
-x,-y,-z
1/2+x,1/2+y,-z
1/2-x,y,1/2+z
x,1/2-y,1/2+z
loop_
_atom_site_type_symbol
_atom_site_label
_atom_site_fract_x
_atom_site_fract_y
_atom_site_fract_z
Si Si1 0.750000 0.750000 0.781657
Si Si2 0.431200 0.114116 0.840153
Si Si3 0.750000 0.250000 0.380360
Si Si4 0.497023 0.131299 0.109546
Si Si5 0.401459 0.841838 0.478935
Si Si6 0.253904 0.419107 0.483232
O O1 0.682931 0.645471 0.730245
O O2 0.598903 0.787528 0.833390
O O3 0.614644 0.176397 0.831658
O O4 0.340561 0.155571 0.917090
O O5 0.429328 0.973197 0.840659
O O6 0.649189 0.162146 0.434155
O O7 0.630070 0.217488 0.065635
O O8 0.388021 0.061865 0.048436
O O9 0.602033 0.852495 0.476789
O O10 0.307604 0.957024 0.446935
#
# Coordination Sequence:
#
# PCOD8229578 Si02
#       6
#     4   8   4   8   8   8
#     4  12  30  48  70 100 156 206 238 292 368 462
#     4  12  27  46  73 105 147 195 249 303 373 440
#     4  12  22  40  70 108 136 180 242 310 364 422
#     4  12  24  48  73 106 149 191 247 305 369 445
#     4  11  22  38  77 109 142 176 241 311 369 424
#     4  11  22  44  75 110 140 187 244 316 367 423
#
# _framework density 24.382164
#
# number of rings (size 3 to 8) (size 9 to 14) (size 15 to 20)
#    0.000    0.400    6.000    3.000    0.000    3.200 
#    0.000    1.000    0.000    0.000    0.000    0.000 
#    0.000    0.000    0.000    0.000    0.000    0.000 
#
# Total GULP energy -495808.533219 kJ/mol
# GULP energy per Si atom -12395.213330 kJ/mol
# Density = 2.432667 g / cm^3
# Si number density = 24.382164 Si / 1000 Ang^3
#
#
#
# Elastic Constant Matrix: (Units=GPa)
#
#
# Indices 1 2 3 4 5 6 
#
# 1 86.4883 44.2330 13.3559 0.0000 0.0000 0.0000
# 2 44.2330 127.1024 25.0845 0.0000 0.0000 0.0000
# 3 13.3559 25.0845 87.2322 0.0000 0.0000 0.0000
# 4 0.0000 0.0000 0.0000 22.0696 0.0000 0.0000
# 5 0.0000 0.0000 0.0000 0.0000 11.2611 0.0000
# 6 0.0000 0.0000 0.0000 0.0000 0.0000 39.7783
#
#
#
# Elastic Compliance Matrix: (Units=1/GPa)
#
#
# Indices 1 2 3 4 5 6 
#
# 1 0.014117 -0.004756 -0.000794 0.000000 0.000000 0.000000
# 2 -0.004756 0.009944 -0.002131 0.000000 0.000000 0.000000
# 3 -0.000794 -0.002131 0.012198 0.000000 0.000000 0.000000
# 4 0.000000 0.000000 0.000000 0.045311 0.000000 0.000000
# 5 0.000000 0.000000 0.000000 0.000000 0.088801 0.000000
# 6 0.000000 0.000000 0.000000 0.000000 0.000000 0.025139
#
#
# Mechanical properties :
#
#
# Convention : Reuss Voigt Hill
#
# Bulk Modulus (GPa) = 47.85491 51.79661 49.82576
# Shear Modulus (GPa) = 22.95279 29.16509 26.05894
#
# Velocity S-wave (km/s) = 3.07151 3.46231 3.27275
# Velocity P-wave (km/s) = 5.67878 6.10518 5.89584
#
# Compressibility (1/GPa) = 0.02089650
#
# Stress axis : x y z
#
# Youngs Moduli (GPa) = 70.83460 100.56789 81.98054
#
# Poissons Ratio (x) = 0.47834 0.06507
# Poissons Ratio (y) = 0.33691 0.17471
# Poissons Ratio (z) = 0.05622 0.21432
#
# Static dielectric constant tensor:
#      x y z
#    x 4.774690 0.000000 0.000000 
#    y 0.000000 4.484170 0.000000 
#    z 0.000000 0.000000 4.005070 
# 
# 
# High freq. dielectric constant tensor:
#      x y z
#    x 2.001160 0.000000 0.000000 
#    y 0.000000 1.986450 0.000000 
#    z 0.000000 0.000000 1.928130 
# 
# From -- ./inp_files/14525.got.cif
#   From: 2010.03.12/outbox.cif.g09.slc.cpg/sg56_8_cif.got.tgz:14525.got - 2010.04.16 15:33:40.
