data_PCOD8229757
_publ_section_title
;
Structure prediction by ZEFSAII (Michael W. Deem and Ramdas Pophale) SiO2 
 PCOD8229757
Probable space group: P C C N
;
_chemical_formula_sum "Si O2"
_cell_formula_units_Z 32
_cell_length_a 15.961556
_cell_length_b 10.307159
_cell_length_c 7.971325
_cell_angle_alpha 90.000000
_cell_angle_beta 90.000000
_cell_angle_gamma 90.000000
_cell_volume 1311.428803
_symmetry_space_group_name_H-M "P C C N"
_symmetry_group_IT_number 56
_symmetry_cell_setting 'orthorhombic'
loop_
_space_group_symop_operation_xyz
x,y,z
1/2-x,1/2-y,z
1/2+x,-y,1/2-z
-x,1/2+y,1/2-z
-x,-y,-z
1/2+x,1/2+y,-z
1/2-x,y,1/2+z
x,1/2-y,1/2+z
loop_
_atom_site_type_symbol
_atom_site_label
_atom_site_fract_x
_atom_site_fract_y
_atom_site_fract_z
Si Si1 0.779120 0.605742 0.582429
Si Si2 0.123111 0.435036 0.077516
Si Si3 0.082414 0.935844 0.072002
Si Si4 0.452598 0.831777 0.939346
O O1 0.750000 0.750000 0.523467
O O2 0.687550 0.538419 0.576808
O O3 0.821607 0.600101 0.761803
O O4 0.839646 0.533648 0.449039
O O5 0.054849 0.319408 0.048309
O O6 0.073084 0.571042 0.092318
O O7 0.071005 0.896873 0.263894
O O8 0.094448 0.803913 0.963814
O O9 0.000000 0.000000 0.000000
#
# Coordination Sequence:
#
# PCOD8229757 Si02
#       4
#     8   8   8   8
#     4  12  25  46  73 115 154 205 255 329 393 465
#     4  11  25  45  73 111 156 203 265 322 397 466
#     4  12  25  47  78 110 159 210 262 327 393 470
#     4  11  26  47  77 112 158 209 268 321 397 472
#
# _framework density 24.400869
#
# number of rings (size 3 to 8) (size 9 to 14) (size 15 to 20)
#    0.000    0.500    2.500    5.250    3.500    1.000 
#    0.000    6.250    0.000    0.000    0.000    0.000 
#    0.000    0.000    0.000    0.000    0.000    0.000 
#
# Total GULP energy -396444.833144 kJ/mol
# GULP energy per Si atom -12388.901036 kJ/mol
# Density = 2.434533 g / cm^3
# Si number density = 24.400869 Si / 1000 Ang^3
#
#
#
# Elastic Constant Matrix: (Units=GPa)
#
#
# Indices 1 2 3 4 5 6 
#
# 1 187.3309 61.8549 52.3482 0.0000 0.0000 0.0000
# 2 61.8549 146.4822 49.7068 0.0000 0.0000 0.0000
# 3 52.3482 49.7068 93.2763 0.0000 0.0000 0.0000
# 4 0.0000 0.0000 0.0000 39.3833 0.0000 0.0000
# 5 0.0000 0.0000 0.0000 0.0000 43.1649 0.0000
# 6 0.0000 0.0000 0.0000 0.0000 0.0000 41.9294
#
#
#
# Elastic Compliance Matrix: (Units=1/GPa)
#
#
# Indices 1 2 3 4 5 6 
#
# 1 0.006741 -0.001908 -0.002767 0.000000 0.000000 0.000000
# 2 -0.001908 0.008874 -0.003658 0.000000 0.000000 0.000000
# 3 -0.002767 -0.003658 0.014223 0.000000 0.000000 0.000000
# 4 0.000000 0.000000 0.000000 0.025391 0.000000 0.000000
# 5 0.000000 0.000000 0.000000 0.000000 0.023167 0.000000
# 6 0.000000 0.000000 0.000000 0.000000 0.000000 0.023850
#
#
# Mechanical properties :
#
#
# Convention : Reuss Voigt Hill
#
# Bulk Modulus (GPa) = 75.91404 83.87881 79.89642
# Shear Modulus (GPa) = 40.55093 42.44082 41.49588
#
# Velocity S-wave (km/s) = 4.08102 4.17504 4.12830
# Velocity P-wave (km/s) = 7.30651 7.59547 7.45239
#
# Compressibility (1/GPa) = 0.01317279
#
# Stress axis : x y z
#
# Youngs Moduli (GPa) = 148.34176 112.69261 70.30915
#
# Poissons Ratio (x) = 0.21499 0.19452
# Poissons Ratio (y) = 0.28300 0.25720
# Poissons Ratio (z) = 0.41040 0.41224
#
# Static dielectric constant tensor:
#      x y z
#    x 5.633780 0.000000 0.000000 
#    y 0.000000 4.563710 0.000000 
#    z 0.000000 0.000000 4.370720 
# 
# 
# High freq. dielectric constant tensor:
#      x y z
#    x 1.989320 0.000000 0.000000 
#    y 0.000000 1.968740 0.000000 
#    z 0.000000 0.000000 1.972370 
# 
# From -- ./inp_files/2444.got.cif
#   From: 2010.03.12/outbox.cif.g09.slc.cpg/sg56_2_cif.got.tgz:2444.got - 2010.04.16 15:33:40.
