data_PCOD8229553
_publ_section_title
;
Structure prediction by ZEFSAII (Michael W. Deem and Ramdas Pophale) SiO2 
 PCOD8229553
Probable space group: P C C N
;
_chemical_formula_sum "Si O2"
_cell_formula_units_Z 64
_cell_length_a 16.281451
_cell_length_b 19.071835
_cell_length_c 9.667689
_cell_angle_alpha 90.000000
_cell_angle_beta 90.000000
_cell_angle_gamma 90.000000
_cell_volume 3001.983207
_symmetry_space_group_name_H-M "P C C N"
_symmetry_group_IT_number 56
_symmetry_cell_setting 'orthorhombic'
loop_
_space_group_symop_operation_xyz
x,y,z
1/2-x,1/2-y,z
1/2+x,-y,1/2-z
-x,1/2+y,1/2-z
-x,-y,-z
1/2+x,1/2+y,-z
1/2-x,y,1/2+z
x,1/2-y,1/2+z
loop_
_atom_site_type_symbol
_atom_site_label
_atom_site_fract_x
_atom_site_fract_y
_atom_site_fract_z
Si Si1 0.780067 0.059163 0.180519
Si Si2 0.956898 0.833274 0.592604
Si Si3 0.986582 0.254520 0.649362
Si Si4 0.681421 0.192824 0.241039
Si Si5 0.523897 0.481036 0.844444
Si Si6 0.584712 0.458497 0.382490
Si Si7 0.897504 0.364514 0.481832
Si Si8 0.641427 0.540976 0.641715
O O1 0.709654 0.118154 0.180491
O O2 0.822274 0.058751 0.332423
O O3 0.736117 0.984535 0.144773
O O4 0.849149 0.076107 0.067235
O O5 0.966761 0.772790 0.708731
O O6 0.955245 0.793632 0.445861
O O7 0.032963 0.887236 0.605292
O O8 0.870527 0.876006 0.608233
O O9 0.901200 0.214445 0.665261
O O10 0.964755 0.328419 0.578077
O O11 0.750000 0.250000 0.211092
O O12 0.665064 0.189398 0.407148
O O13 0.449397 0.489255 0.736822
O O14 0.554172 0.400541 0.852910
O O15 0.600397 0.527996 0.791382
O O16 0.500000 0.500000 0.000000
O O17 0.587321 0.498096 0.528673
#
# Coordination Sequence:
#
# PCOD8229553 Si02
#       8
#     8   8   8   8   8   8   8   8
#     4  12  23  41  60  95 137 173 210 274 329 397
#     4  11  23  43  61  94 125 173 220 267 316 395
#     4  12  24  39  61  86 132 171 217 262 314 385
#     4  12  24  35  55  88 132 180 207 247 321 405
#     4  11  21  40  62  88 128 172 220 270 315 384
#     4  11  23  41  64  93 135 169 216 273 329 393
#     4  12  23  38  58  93 130 172 218 254 324 394
#     4  11  25  40  64  92 134 172 222 274 326 392
#
# _framework density 21.319241999999999
#
# number of rings (size 3 to 8) (size 9 to 14) (size 15 to 20)
#    0.000    0.500    6.250    3.750    3.500    0.000 
#    0.000    0.000    0.000    0.000    0.000    7.000 
#    0.000    0.000    0.000    0.000    0.000    0.000 
#
# Total GULP energy -793501.223959 kJ/mol
# GULP energy per Si atom -12398.456624 kJ/mol
# Density = 2.127072 g / cm^3
# Si number density = 21.319242 Si / 1000 Ang^3
#
#
#
# Elastic Constant Matrix: (Units=GPa)
#
#
# Indices 1 2 3 4 5 6 
#
# 1 44.4561 37.3843 8.4285 0.0000 0.0000 0.0000
# 2 37.3843 88.9928 33.3056 0.0000 0.0000 0.0000
# 3 8.4285 33.3056 107.2321 0.0000 0.0000 0.0000
# 4 0.0000 0.0000 0.0000 42.3978 0.0000 0.0000
# 5 0.0000 0.0000 0.0000 0.0000 30.7671 0.0000
# 6 0.0000 0.0000 0.0000 0.0000 0.0000 37.5625
#
#
#
# Elastic Compliance Matrix: (Units=1/GPa)
#
#
# Indices 1 2 3 4 5 6 
#
# 1 0.035180 -0.015551 0.002065 0.000000 0.000000 0.000000
# 2 -0.015551 0.019589 -0.004862 0.000000 0.000000 0.000000
# 3 0.002065 -0.004862 0.010673 0.000000 0.000000 0.000000
# 4 0.000000 0.000000 0.000000 0.023586 0.000000 0.000000
# 5 0.000000 0.000000 0.000000 0.000000 0.032502 0.000000
# 6 0.000000 0.000000 0.000000 0.000000 0.000000 0.026622
#
#
# Mechanical properties :
#
#
# Convention : Reuss Voigt Hill
#
# Bulk Modulus (GPa) = 34.78733 44.32420 39.55577
# Shear Modulus (GPa) = 25.71586 32.91630 29.31608
#
# Velocity S-wave (km/s) = 3.47685 3.93360 3.71226
# Velocity P-wave (km/s) = 5.69831 6.43947 6.08019
#
# Compressibility (1/GPa) = 0.02874610
#
# Stress axis : x y z
#
# Youngs Moduli (GPa) = 28.42507 51.04812 93.69123
#
# Poissons Ratio (x) = 0.79387 -0.19347
# Poissons Ratio (y) = 0.44205 0.45553
# Poissons Ratio (z) = -0.05870 0.24820
#
# Static dielectric constant tensor:
#      x y z
#    x 3.864030 0.000000 0.000000 
#    y 0.000000 4.041450 0.000000 
#    z 0.000000 0.000000 4.058990 
# 
# 
# High freq. dielectric constant tensor:
#      x y z
#    x 1.802210 0.000000 0.000000 
#    y 0.000000 1.823700 0.000000 
#    z 0.000000 0.000000 1.854840 
# 
# From -- ./inp_files/4224.got.cif
#   From: 2010.03.12/outbox.cif.g09.slc.cpg/sg56_3_cif.got.tgz:4224.got - 2010.04.16 15:33:40.
