data_PCOD8229478
_publ_section_title
;
Structure prediction by ZEFSAII (Michael W. Deem and Ramdas Pophale) SiO2 
 PCOD8229478
Probable space group: P C C N
;
_chemical_formula_sum "Si O2"
_cell_formula_units_Z 60
_cell_length_a 17.143880
_cell_length_b 16.986228
_cell_length_c 9.438240
_cell_angle_alpha 90.000000
_cell_angle_beta 90.000000
_cell_angle_gamma 90.000000
_cell_volume 2748.508497
_symmetry_space_group_name_H-M "P C C N"
_symmetry_group_IT_number 56
_symmetry_cell_setting 'orthorhombic'
loop_
_space_group_symop_operation_xyz
x,y,z
1/2-x,1/2-y,z
1/2+x,-y,1/2-z
-x,1/2+y,1/2-z
-x,-y,-z
1/2+x,1/2+y,-z
1/2-x,y,1/2+z
x,1/2-y,1/2+z
loop_
_atom_site_type_symbol
_atom_site_label
_atom_site_fract_x
_atom_site_fract_y
_atom_site_fract_z
Si Si1 0.926352 0.410762 0.279116
Si Si2 0.989409 0.836828 0.855494
Si Si3 0.635986 0.090160 0.972356
Si Si4 0.250000 0.250000 0.858398
Si Si5 0.315602 0.152500 0.604516
Si Si6 0.577787 0.488037 0.198070
Si Si7 0.701657 0.488678 0.971866
Si Si8 0.054956 0.758082 0.601041
O O1 0.859428 0.457233 0.359079
O O2 0.916247 0.319326 0.317693
O O3 0.013537 0.442552 0.314687
O O4 0.912478 0.424218 0.113930
O O5 0.905451 0.871520 0.888859
O O6 0.047819 0.909214 0.881096
O O7 0.991665 0.804732 0.695327
O O8 0.013417 0.764084 0.954783
O O9 0.597765 0.030162 0.860617
O O10 0.727642 0.072147 0.994313
O O11 0.627452 0.181938 0.925210
O O12 0.294636 0.190873 0.754587
O O13 0.191061 0.207188 0.965763
O O14 0.265457 0.072671 0.584952
O O15 0.658594 0.508848 0.120160
#
# Coordination Sequence:
#
# PCOD8229478 Si02
#       8
#     8   8   8   4   8   8   8   8
#     4  12  23  46  70 102 138 183 239 288 336 420
#     4  11  21  43  67  98 133 174 235 282 338 411
#     4  11  27  44  67 106 144 181 227 289 353 415
#     4  10  26  46  62 100 136 174 230 276 364 414
#     4  11  24  44  69  97 135 182 225 289 345 420
#     4  11  24  44  71 101 133 182 238 283 339 413
#     4  12  25  44  71 100 142 184 230 280 357 415
#     4  11  23  42  67 101 135 181 229 281 350 402
#
# _framework density 21.830019
#
# number of rings (size 3 to 8) (size 9 to 14) (size 15 to 20)
#    0.000    0.800    4.000    3.200    3.733    0.533 
#    2.400    1.333    0.000    0.000    0.000    0.000 
#    0.000    0.000    0.000    0.000    0.000    0.000 
#
# Total GULP energy -744002.113976 kJ/mol
# GULP energy per Si atom -12400.035233 kJ/mol
# Density = 2.178033 g / cm^3
# Si number density = 21.830019 Si / 1000 Ang^3
#
#
#
# Elastic Constant Matrix: (Units=GPa)
#
#
# Indices 1 2 3 4 5 6 
#
# 1 110.2980 42.4506 35.9245 0.0000 0.0000 0.0000
# 2 42.4506 115.7963 35.0423 0.0000 0.0000 0.0000
# 3 35.9245 35.0423 121.4207 0.0000 0.0000 0.0000
# 4 0.0000 0.0000 0.0000 19.7820 0.0000 0.0000
# 5 0.0000 0.0000 0.0000 0.0000 24.1279 0.0000
# 6 0.0000 0.0000 0.0000 0.0000 0.0000 35.2828
#
#
#
# Elastic Compliance Matrix: (Units=1/GPa)
#
#
# Indices 1 2 3 4 5 6 
#
# 1 0.011120 -0.003376 -0.002316 0.000000 0.000000 0.000000
# 2 -0.003376 0.010487 -0.002028 0.000000 0.000000 0.000000
# 3 -0.002316 -0.002028 0.009506 0.000000 0.000000 0.000000
# 4 0.000000 0.000000 0.000000 0.050551 0.000000 0.000000
# 5 0.000000 0.000000 0.000000 0.000000 0.041446 0.000000
# 6 0.000000 0.000000 0.000000 0.000000 0.000000 0.028342
#
#
# Mechanical properties :
#
#
# Convention : Reuss Voigt Hill
#
# Bulk Modulus (GPa) = 63.79788 63.81667 63.80728
# Shear Modulus (GPa) = 29.05020 31.44503 30.24761
#
# Velocity S-wave (km/s) = 3.65190 3.79944 3.72640
# Velocity P-wave (km/s) = 6.86076 6.96739 6.91428
#
# Compressibility (1/GPa) = 0.01567450
#
# Stress axis : x y z
#
# Youngs Moduli (GPa) = 89.92960 95.35583 105.19423
#
# Poissons Ratio (x) = 0.32189 0.24361
# Poissons Ratio (y) = 0.30357 0.21332
# Poissons Ratio (z) = 0.20826 0.19336
#
# Static dielectric constant tensor:
#      x y z
#    x 3.691820 0.000000 0.000000 
#    y 0.000000 4.067090 0.000000 
#    z 0.000000 0.000000 4.139460 
# 
# 
# High freq. dielectric constant tensor:
#      x y z
#    x 1.839010 0.000000 0.000000 
#    y 0.000000 1.866950 0.000000 
#    z 0.000000 0.000000 1.881570 
# 
# From -- ./inp_files/4143.got.cif
#   From: 2010.03.12/outbox.cif.g09.slc.cpg/sg56_3_cif.got.tgz:4143.got - 2010.04.16 15:33:40.
