data_PCOD8229682
_publ_section_title
;
Structure prediction by ZEFSAII (Michael W. Deem and Ramdas Pophale) SiO2 
 PCOD8229682
Probable space group: P C C N
;
_chemical_formula_sum "Si O2"
_cell_formula_units_Z 48
_cell_length_a 23.014904
_cell_length_b 8.076559
_cell_length_c 10.200913
_cell_angle_alpha 90.000000
_cell_angle_beta 90.000000
_cell_angle_gamma 90.000000
_cell_volume 1896.158256
_symmetry_space_group_name_H-M "P C C N"
_symmetry_group_IT_number 56
_symmetry_cell_setting 'orthorhombic'
loop_
_space_group_symop_operation_xyz
x,y,z
1/2-x,1/2-y,z
1/2+x,-y,1/2-z
-x,1/2+y,1/2-z
-x,-y,-z
1/2+x,1/2+y,-z
1/2-x,y,1/2+z
x,1/2-y,1/2+z
loop_
_atom_site_type_symbol
_atom_site_label
_atom_site_fract_x
_atom_site_fract_y
_atom_site_fract_z
Si Si1 0.758208 0.440331 0.916188
Si Si2 0.787241 0.605948 0.176520
Si Si3 0.090499 0.797546 0.854276
Si Si4 0.898405 0.819481 0.115115
Si Si5 0.614776 0.395984 0.405852
Si Si6 0.959319 0.791405 0.372250
O O1 0.750000 0.250000 0.950346
O O2 0.710777 0.481459 0.801772
O O3 0.824141 0.481758 0.866967
O O4 0.749691 0.537801 0.053107
O O5 0.750000 0.750000 0.242075
O O6 0.848084 0.682107 0.128450
O O7 0.099733 0.751180 0.701140
O O8 0.025308 0.758584 0.900505
O O9 0.113800 0.987343 0.857346
O O10 0.128588 0.684695 0.951442
O O11 0.946255 0.755792 0.219949
O O12 0.921548 0.823228 0.967499
O O13 0.559458 0.520261 0.408728
#
# Coordination Sequence:
#
# PCOD8229682 Si02
#       6
#     8   8   8   8   8   8
#     4  12  29  49  77 113 152 200 260 318 387 463
#     4  12  27  49  76 108 152 201 255 317 391 458
#     4  11  25  44  75 108 148 196 252 303 377 449
#     4  11  26  45  73 109 150 195 250 309 374 453
#     4  11  26  47  70 110 155 194 251 316 376 449
#     4  11  23  46  71 108 148 197 248 305 377 446
#
# _framework density 25.314343000000001
#
# number of rings (size 3 to 8) (size 9 to 14) (size 15 to 20)
#    0.000    0.667    1.667    5.000    9.333    4.000 
#    0.000    0.000    0.000    0.000    0.000    0.000 
#    0.000    0.000    0.000    0.000    0.000    0.000 
#
# Total GULP energy -594724.072663 kJ/mol
# GULP energy per Si atom -12390.084847 kJ/mol
# Density = 2.525673 g / cm^3
# Si number density = 25.314343 Si / 1000 Ang^3
#
#
#
# Elastic Constant Matrix: (Units=GPa)
#
#
# Indices 1 2 3 4 5 6 
#
# 1 77.1416 27.0452 2.0140 0.0000 0.0000 0.0000
# 2 27.0452 87.2015 38.2358 0.0000 0.0000 0.0000
# 3 2.0140 38.2358 124.9424 0.0000 0.0000 0.0000
# 4 0.0000 0.0000 0.0000 38.9698 0.0000 0.0000
# 5 0.0000 0.0000 0.0000 0.0000 37.1969 0.0000
# 6 0.0000 0.0000 0.0000 0.0000 0.0000 34.9485
#
#
#
# Elastic Compliance Matrix: (Units=1/GPa)
#
#
# Indices 1 2 3 4 5 6 
#
# 1 0.014737 -0.005159 0.001341 0.000000 0.000000 0.000000
# 2 -0.005159 0.015051 -0.004523 0.000000 0.000000 0.000000
# 3 0.001341 -0.004523 0.009366 0.000000 0.000000 0.000000
# 4 0.000000 0.000000 0.000000 0.025661 0.000000 0.000000
# 5 0.000000 0.000000 0.000000 0.000000 0.026884 0.000000
# 6 0.000000 0.000000 0.000000 0.000000 0.000000 0.028614
#
#
# Mechanical properties :
#
#
# Convention : Reuss Voigt Hill
#
# Bulk Modulus (GPa) = 44.49758 47.09726 45.79742
# Shear Modulus (GPa) = 34.60601 37.02240 35.81420
#
# Velocity S-wave (km/s) = 3.70138 3.82842 3.76544
# Velocity P-wave (km/s) = 5.99025 6.17963 6.08567
#
# Compressibility (1/GPa) = 0.02247313
#
# Stress axis : x y z
#
# Youngs Moduli (GPa) = 67.85776 66.44192 106.76727
#
# Poissons Ratio (x) = 0.34275 -0.14319
# Poissons Ratio (y) = 0.35005 0.48289
# Poissons Ratio (z) = -0.09101 0.30050
#
# Static dielectric constant tensor:
#      x y z
#    x 4.445840 0.000000 0.000000 
#    y 0.000000 4.435270 0.000000 
#    z 0.000000 0.000000 4.925190 
# 
# 
# High freq. dielectric constant tensor:
#      x y z
#    x 2.000560 0.000000 0.000000 
#    y 0.000000 1.999710 0.000000 
#    z 0.000000 0.000000 2.034940 
# 
# From -- ./inp_files/8867.got.cif
#   From: 2010.03.12/outbox.cif.g09.slc.cpg/sg56_5_cif.got.tgz:8867.got - 2010.04.16 15:33:40.
