data_PCOD8229217
_publ_section_title
;
Structure prediction by ZEFSAII (Michael W. Deem and Ramdas Pophale) SiO2 
 PCOD8229217
Probable space group: P C C N
;
_chemical_formula_sum "Si O2"
_cell_formula_units_Z 56
_cell_length_a 11.940384
_cell_length_b 15.332899
_cell_length_c 15.361126
_cell_angle_alpha 90.000000
_cell_angle_beta 90.000000
_cell_angle_gamma 90.000000
_cell_volume 2812.325730
_symmetry_space_group_name_H-M "P C C N"
_symmetry_group_IT_number 56
_symmetry_cell_setting 'orthorhombic'
loop_
_space_group_symop_operation_xyz
x,y,z
1/2-x,1/2-y,z
1/2+x,-y,1/2-z
-x,1/2+y,1/2-z
-x,-y,-z
1/2+x,1/2+y,-z
1/2-x,y,1/2+z
x,1/2-y,1/2+z
loop_
_atom_site_type_symbol
_atom_site_label
_atom_site_fract_x
_atom_site_fract_y
_atom_site_fract_z
Si Si1 0.558491 0.897690 0.325023
Si Si2 0.219102 0.154774 0.320796
Si Si3 0.654787 0.685136 0.486015
Si Si4 0.740480 0.387510 0.559577
Si Si5 0.158546 0.991717 0.785827
Si Si6 0.271311 0.479450 0.597515
Si Si7 0.934498 0.238232 0.064625
O O1 0.614854 0.879930 0.233093
O O2 0.469506 0.972778 0.305835
O O3 0.645741 0.938367 0.395167
O O4 0.497527 0.807767 0.353915
O O5 0.250000 0.250000 0.287545
O O6 0.191374 0.149378 0.421392
O O7 0.326277 0.094183 0.303452
O O8 0.750000 0.750000 0.448704
O O9 0.646132 0.602723 0.420821
O O10 0.535526 0.733420 0.498992
O O11 0.762070 0.436799 0.649884
O O12 0.714695 0.453132 0.481348
O O13 0.636877 0.324887 0.585233
O O14 0.849147 0.333267 0.525606
O O15 0.191996 0.971126 0.685669
#
# Coordination Sequence:
#
# PCOD8229217 Si02
#       7
#     8   8   8   8   8   8   8
#     4  10  23  42  65  91 128 173 210 259 325 379
#     4  10  23  40  60  94 128 157 216 266 311 380
#     4  11  22  39  63  95 122 162 207 265 314 370
#     4  10  23  46  60  95 127 171 210 266 312 389
#     4  10  23  42  62  91 130 168 216 262 321 383
#     4  11  23  39  69  92 129 164 220 260 323 381
#     4  10  23  41  67  87 131 163 208 260 322 374
#
# _framework density 19.912344000000001
#
# number of rings (size 3 to 8) (size 9 to 14) (size 15 to 20)
#    0.000    1.714    2.857    0.000    6.000    7.429 
#    2.571    1.429    0.000    0.000    0.000    0.000 
#    0.000    0.000    0.000    0.000    0.000    0.000 
#
# Total GULP energy -694118.786571 kJ/mol
# GULP energy per Si atom -12394.978332 kJ/mol
# Density = 1.986702 g / cm^3
# Si number density = 19.912344 Si / 1000 Ang^3
#
#
#
# Elastic Constant Matrix: (Units=GPa)
#
#
# Indices 1 2 3 4 5 6 
#
# 1 104.1753 49.2949 17.5069 0.0000 0.0000 0.0000
# 2 49.2949 125.2053 42.8766 0.0000 0.0000 0.0000
# 3 17.5069 42.8766 94.3278 0.0000 0.0000 0.0000
# 4 0.0000 0.0000 0.0000 21.0406 0.0000 0.0000
# 5 0.0000 0.0000 0.0000 0.0000 19.3834 0.0000
# 6 0.0000 0.0000 0.0000 0.0000 0.0000 34.2105
#
#
#
# Elastic Compliance Matrix: (Units=1/GPa)
#
#
# Indices 1 2 3 4 5 6 
#
# 1 0.011798 -0.004613 -0.000093 0.000000 0.000000 0.000000
# 2 -0.004613 0.011263 -0.004263 0.000000 0.000000 0.000000
# 3 -0.000093 -0.004263 0.012556 0.000000 0.000000 0.000000
# 4 0.000000 0.000000 0.000000 0.047527 0.000000 0.000000
# 5 0.000000 0.000000 0.000000 0.000000 0.051590 0.000000
# 6 0.000000 0.000000 0.000000 0.000000 0.000000 0.029231
#
#
# Mechanical properties :
#
#
# Convention : Reuss Voigt Hill
#
# Bulk Modulus (GPa) = 56.56530 60.34058 58.45294
# Shear Modulus (GPa) = 26.62443 29.19556 27.91000
#
# Velocity S-wave (km/s) = 3.66058 3.83326 3.74791
# Velocity P-wave (km/s) = 6.80700 7.06829 6.93888
#
# Compressibility (1/GPa) = 0.01767868
#
# Stress axis : x y z
#
# Youngs Moduli (GPa) = 84.76238 88.78492 79.64005
#
# Poissons Ratio (x) = 0.40958 0.00738
# Poissons Ratio (y) = 0.39102 0.33954
# Poissons Ratio (z) = 0.00786 0.37853
#
# Static dielectric constant tensor:
#      x y z
#    x 3.715700 0.000000 0.000000 
#    y 0.000000 3.934220 0.000000 
#    z 0.000000 0.000000 3.458840 
# 
# 
# High freq. dielectric constant tensor:
#      x y z
#    x 1.778930 0.000000 0.000000 
#    y 0.000000 1.789970 0.000000 
#    z 0.000000 0.000000 1.766230 
# 
# From -- ./inp_files/11703.got.cif
#   From: 2010.03.12/outbox.cif.g09.slc.cpg/sg56_6_cif.got.tgz:11703.got - 2010.04.16 15:33:40.
