data_PCOD8229931
_publ_section_title
;
Structure prediction by ZEFSAII (Michael W. Deem and Ramdas Pophale) SiO2 
 PCOD8229931
Probable space group: P B C M
;
_chemical_formula_sum "Si O2"
_cell_formula_units_Z 64
_cell_length_a 20.069050
_cell_length_b 22.150515
_cell_length_c 9.248012
_cell_angle_alpha 90.000000
_cell_angle_beta 90.000000
_cell_angle_gamma 90.000000
_cell_volume 4111.109341
_symmetry_space_group_name_H-M "P B C M"
_symmetry_group_IT_number 57
_symmetry_cell_setting 'orthorhombic'
loop_
_space_group_symop_operation_xyz
x,y,z
-x,-y,1/2+z
x,1/2-y,-z
-x,1/2+y,1/2-z
-x,-y,-z
x,y,1/2-z
-x,1/2+y,z
x,1/2-y,1/2+z
loop_
_atom_site_type_symbol
_atom_site_label
_atom_site_fract_x
_atom_site_fract_y
_atom_site_fract_z
Si Si1 0.616439 0.407400 0.413984
Si Si2 0.351126 0.451694 0.589967
Si Si3 0.227276 0.029889 0.583202
Si Si4 0.256258 0.609369 0.082316
Si Si5 0.504717 0.936929 0.919820
Si Si6 0.959004 0.079883 0.415053
Si Si7 0.868714 0.188344 0.417329
Si Si8 0.098776 0.469448 0.916563
O O1 0.608383 0.383918 0.250000
O O2 0.629303 0.478400 0.419252
O O3 0.678806 0.373898 0.488554
O O4 0.548891 0.392245 0.504549
O O5 0.323813 0.436865 0.750000
O O6 0.293420 0.436390 0.475641
O O7 0.418932 0.413261 0.559717
O O8 0.220380 0.045984 0.750000
O O9 0.162809 0.055882 0.501030
O O10 0.231569 0.958579 0.553325
O O11 0.274402 0.617557 0.250000
O O12 0.197883 0.653940 0.031292
O O13 0.487679 0.944758 0.750000
O O14 0.500000 0.000000 0.000000
O O15 0.939520 0.061821 0.250000
O O16 0.933035 0.146811 0.450151
O O17 0.038757 0.078501 0.436195
O O18 0.923339 0.033778 0.521681
O O19 0.878444 0.250000 0.500000
O O20 0.863193 0.203956 0.250000
O O21 0.117918 0.478495 0.750000
#
# Coordination Sequence:
#
# PCOD8229931 Si02
#       8
#     8   8   8   8   8   8   8   8
#     4   9  16  24  36  53  73  98 133 173 204 238
#     4   8  15  24  33  50  75 102 136 170 198 237
#     4  10  17  26  40  57  81 110 137 170 212 252
#     4   9  17  29  42  55  77 107 137 171 210 251
#     4   9  15  23  34  49  71 100 134 169 202 236
#     4   9  18  33  46  61  84 108 136 172 215 259
#     4  10  20  34  48  63  84 110 141 177 218 260
#     4  10  18  27  45  65  83 107 137 175 213 254
#
# _framework density 15.567574
#
# number of rings (size 3 to 8) (size 9 to 14) (size 15 to 20)
#    0.000    2.750    1.250    2.250    0.000    5.500 
#    0.000    0.000    0.000    0.000    0.000    0.000 
#    0.000    0.000    0.000    1.125    0.000   15.875 
#
# Total GULP energy -793291.700906 kJ/mol
# GULP energy per Si atom -12395.182827 kJ/mol
# Density = 1.553214 g / cm^3
# Si number density = 15.567574 Si / 1000 Ang^3
#
#
#
# Elastic Constant Matrix: (Units=GPa)
#
#
# Indices 1 2 3 4 5 6 
#
# 1 137.4695 34.2000 78.9344 0.0000 0.0000 0.0000
# 2 34.2000 38.8979 24.5730 0.0000 0.0000 0.0000
# 3 78.9344 24.5730 111.2970 0.0000 0.0000 0.0000
# 4 0.0000 0.0000 0.0000 14.6578 0.0000 0.0000
# 5 0.0000 0.0000 0.0000 0.0000 31.6310 0.0000
# 6 0.0000 0.0000 0.0000 0.0000 0.0000 11.3518
#
#
#
# Elastic Compliance Matrix: (Units=1/GPa)
#
#
# Indices 1 2 3 4 5 6 
#
# 1 0.013683 -0.006856 -0.008191 0.000000 0.000000 0.000000
# 2 -0.006856 0.033311 -0.002492 0.000000 0.000000 0.000000
# 3 -0.008191 -0.002492 0.015344 0.000000 0.000000 0.000000
# 4 0.000000 0.000000 0.000000 0.068223 0.000000 0.000000
# 5 0.000000 0.000000 0.000000 0.000000 0.031615 0.000000
# 6 0.000000 0.000000 0.000000 0.000000 0.000000 0.088092
#
#
# Mechanical properties :
#
#
# Convention : Reuss Voigt Hill
#
# Bulk Modulus (GPa) = 36.68334 62.56435 49.62385
# Shear Modulus (GPa) = 16.98185 21.52524 19.25354
#
# Velocity S-wave (km/s) = 3.30638 3.72250 3.52059
# Velocity P-wave (km/s) = 6.17991 7.66499 6.96216
#
# Compressibility (1/GPa) = 0.02726033
#
# Stress axis : x y z
#
# Youngs Moduli (GPa) = 73.08323 30.02032 65.17156
#
# Poissons Ratio (x) = 0.20583 0.53379
# Poissons Ratio (y) = 0.50107 0.16241
# Poissons Ratio (z) = 0.59859 0.07481
#
# Static dielectric constant tensor:
#      x y z
#    x 3.453720 0.000000 0.000000 
#    y 0.000000 2.355440 0.000000 
#    z 0.000000 0.000000 3.114090 
# 
# 
# High freq. dielectric constant tensor:
#      x y z
#    x 1.616140 0.000000 0.000000 
#    y 0.000000 1.510050 0.000000 
#    z 0.000000 0.000000 1.611460 
# 
# From -- ./inp_files/8715.got.cif
#   From: 2010.03.12/outbox.cif.g09.slc.cpg/sg57_5_cif.got.tgz:8715.got - 2010.04.16 15:48:40.
