data_PCOD8229934
_publ_section_title
;
Structure prediction by ZEFSAII (Michael W. Deem and Ramdas Pophale) SiO2 
 PCOD8229934
Probable space group: P B C M
;
_chemical_formula_sum "Si O2"
_cell_formula_units_Z 64
_cell_length_a 20.295972
_cell_length_b 22.523375
_cell_length_c 8.866726
_cell_angle_alpha 90.000000
_cell_angle_beta 90.000000
_cell_angle_gamma 90.000000
_cell_volume 4053.280047
_symmetry_space_group_name_H-M "P B C M"
_symmetry_group_IT_number 57
_symmetry_cell_setting 'orthorhombic'
loop_
_space_group_symop_operation_xyz
x,y,z
-x,-y,1/2+z
x,1/2-y,-z
-x,1/2+y,1/2-z
-x,-y,-z
x,y,1/2-z
-x,1/2+y,z
x,1/2-y,1/2+z
loop_
_atom_site_type_symbol
_atom_site_label
_atom_site_fract_x
_atom_site_fract_y
_atom_site_fract_z
Si Si1 0.521035 0.059231 0.423107
Si Si2 0.656936 0.019559 0.427229
Si Si3 0.823645 0.607199 0.076947
Si Si4 0.209925 0.530223 0.577263
Si Si5 0.714632 0.813761 0.428479
Si Si6 0.612475 0.896188 0.571946
Si Si7 0.952925 0.918436 0.079864
Si Si8 0.919280 0.443427 0.919962
O O1 0.512027 0.045468 0.250000
O O2 0.598797 0.068971 0.459093
O O3 0.466682 0.109580 0.465880
O O4 0.500000 0.000000 0.500000
O O5 0.664217 0.005967 0.250000
O O6 0.723611 0.048229 0.490232
O O7 0.641780 0.958086 0.511933
O O8 0.820136 0.628342 0.250000
O O9 0.801563 0.539575 0.060259
O O10 0.775930 0.645704 0.974159
O O11 0.897847 0.615926 0.016835
O O12 0.216155 0.549547 0.750000
O O13 0.149787 0.566689 0.504511
O O14 0.725222 0.750000 0.500000
O O15 0.710925 0.808498 0.250000
O O16 0.646678 0.841314 0.489680
O O17 0.627409 0.892618 0.750000
O O18 0.953295 0.893609 0.250000
O O19 0.937785 0.987836 0.079446
O O20 0.024012 0.906394 0.005272
O O21 0.913259 0.419419 0.750000
#
# Coordination Sequence:
#
# PCOD8229934 Si02
#       8
#     8   8   8   8   8   8   8   8
#     4   8  16  27  41  60  82 107 137 172 209 252
#     4  10  17  26  41  62  85 112 144 175 210 254
#     4  10  19  31  45  60  80 107 141 177 217 256
#     4  10  18  26  39  58  84 114 143 176 213 250
#     4  12  24  36  49  64  83 108 143 184 226 265
#     4  10  18  31  46  61  82 108 139 177 218 258
#     4   9  16  26  40  57  78 104 138 173 209 248
#     4   9  16  25  37  55  79 107 140 174 207 244
#
# _framework density 15.789682000000001
#
# number of rings (size 3 to 8) (size 9 to 14) (size 15 to 20)
#    0.000    2.250    1.250    3.375    0.000    5.000 
#    0.000    0.000    0.000    0.000    0.000    0.000 
#    0.000    0.000    0.000    1.125    0.000   16.500 
#
# Total GULP energy -793171.068506 kJ/mol
# GULP energy per Si atom -12393.297945 kJ/mol
# Density = 1.575374 g / cm^3
# Si number density = 15.789682 Si / 1000 Ang^3
#
#
#
# Elastic Constant Matrix: (Units=GPa)
#
#
# Indices 1 2 3 4 5 6 
#
# 1 137.7127 16.6013 56.0510 0.0000 0.0000 0.0000
# 2 16.6013 16.0918 16.1841 0.0000 0.0000 0.0000
# 3 56.0510 16.1841 113.5056 0.0000 0.0000 0.0000
# 4 0.0000 0.0000 0.0000 15.0943 0.0000 0.0000
# 5 0.0000 0.0000 0.0000 0.0000 28.6953 0.0000
# 6 0.0000 0.0000 0.0000 0.0000 0.0000 6.2443
#
#
#
# Elastic Compliance Matrix: (Units=1/GPa)
#
#
# Indices 1 2 3 4 5 6 
#
# 1 0.009555 -0.005968 -0.003868 0.000000 0.000000 0.000000
# 2 -0.005968 0.076274 -0.007929 0.000000 0.000000 0.000000
# 3 -0.003868 -0.007929 0.011850 0.000000 0.000000 0.000000
# 4 0.000000 0.000000 0.000000 0.066250 0.000000 0.000000
# 5 0.000000 0.000000 0.000000 0.000000 0.034849 0.000000
# 6 0.000000 0.000000 0.000000 0.000000 0.000000 0.160146
#
#
# Mechanical properties :
#
#
# Convention : Reuss Voigt Hill
#
# Bulk Modulus (GPa) = 16.08956 49.44254 32.76605
# Shear Modulus (GPa) = 12.04324 21.90502 16.97413
#
# Velocity S-wave (km/s) = 2.76475 3.72869 3.28230
# Velocity P-wave (km/s) = 4.51706 7.06531 5.92969
#
# Compressibility (1/GPa) = 0.06215212
#
# Stress axis : x y z
#
# Youngs Moduli (GPa) = 104.65665 13.11056 84.38488
#
# Poissons Ratio (x) = 0.07824 0.32636
# Poissons Ratio (y) = 0.62458 0.66905
# Poissons Ratio (z) = 0.40476 0.10395
#
# Static dielectric constant tensor:
#      x y z
#    x 3.576390 0.000000 0.000000 
#    y 0.000000 2.464570 0.000000 
#    z 0.000000 0.000000 3.190910 
# 
# 
# High freq. dielectric constant tensor:
#      x y z
#    x 1.627780 0.000000 0.000000 
#    y 0.000000 1.518210 0.000000 
#    z 0.000000 0.000000 1.629060 
# 
# From -- ./inp_files/7372.got.cif
#   From: 2010.03.12/outbox.cif.g09.slc.cpg/sg57_4_cif.got.tgz:7372.got - 2010.04.16 15:48:40.
