data_PCOD8229616
_publ_section_title
;
Structure prediction by ZEFSAII (Michael W. Deem and Ramdas Pophale) SiO2 
 PCOD8229616
Probable space group: P C C N
;
_chemical_formula_sum "Si O2"
_cell_formula_units_Z 60
_cell_length_a 7.830867
_cell_length_b 25.747212
_cell_length_c 13.866193
_cell_angle_alpha 90.000000
_cell_angle_beta 90.000000
_cell_angle_gamma 90.000000
_cell_volume 2795.743331
_symmetry_space_group_name_H-M "P C C N"
_symmetry_group_IT_number 56
_symmetry_cell_setting 'orthorhombic'
loop_
_space_group_symop_operation_xyz
x,y,z
1/2-x,1/2-y,z
1/2+x,-y,1/2-z
-x,1/2+y,1/2-z
-x,-y,-z
1/2+x,1/2+y,-z
1/2-x,y,1/2+z
x,1/2-y,1/2+z
loop_
_atom_site_type_symbol
_atom_site_label
_atom_site_fract_x
_atom_site_fract_y
_atom_site_fract_z
Si Si1 0.304717 0.483874 0.004368
Si Si2 0.218442 0.152348 0.752867
Si Si3 0.250000 0.750000 0.399620
Si Si4 0.261053 0.548810 0.336315
Si Si5 0.141819 0.039722 0.703731
Si Si6 0.319260 0.134455 0.468933
Si Si7 0.053910 0.846574 0.848871
Si Si8 0.600933 0.792107 0.924634
O O1 0.218807 0.486213 0.108477
O O2 0.500000 0.500000 0.000000
O O3 0.206031 0.528385 0.944790
O O4 0.288625 0.426713 0.958566
O O5 0.242544 0.092382 0.722510
O O6 0.151409 0.158411 0.862163
O O7 0.413087 0.170239 0.730792
O O8 0.092437 0.186767 0.685958
O O9 0.309362 0.800239 0.339667
O O10 0.418864 0.731495 0.458692
O O11 0.446316 0.558118 0.293450
O O12 0.156715 0.502641 0.286542
O O13 0.149573 0.600218 0.325575
O O14 0.472103 0.148715 0.543104
O O15 0.142619 0.158790 0.507958
O O16 0.750000 0.750000 0.937626
#
# Coordination Sequence:
#
# PCOD8229616 Si02
#       8
#     8   8   4   8   8   8   8   8
#     4  12  22  42  67  97 140 181 224 276 345 418
#     4  11  22  44  70 102 137 179 225 286 353 414
#     4  12  24  50  74  96 134 188 232 292 354 406
#     4  12  25  41  67 103 138 183 232 278 341 429
#     4  12  24  41  67  99 141 186 221 281 349 412
#     4  11  23  42  74 100 139 183 224 289 353 414
#     4  11  24  46  70 100 139 181 234 287 346 416
#     4  11  23  47  72  96 136 181 228 291 347 402
#
# _framework density 21.461199000000001
#
# number of rings (size 3 to 8) (size 9 to 14) (size 15 to 20)
#    0.000    0.533    8.000    2.800    0.000    0.533 
#    0.000    4.000    0.000    0.000    0.000    0.000 
#    0.000    0.000    0.000    0.000    0.000    0.000 
#
# Total GULP energy -743622.989515 kJ/mol
# GULP energy per Si atom -12393.716492 kJ/mol
# Density = 2.141235 g / cm^3
# Si number density = 21.461199 Si / 1000 Ang^3
#
#
#
# Elastic Constant Matrix: (Units=GPa)
#
#
# Indices 1 2 3 4 5 6 
#
# 1 128.5170 38.2419 21.2302 0.0000 0.0000 0.0000
# 2 38.2419 108.7421 0.6187 0.0000 0.0000 0.0000
# 3 21.2302 0.6187 79.8484 0.0000 0.0000 0.0000
# 4 0.0000 0.0000 0.0000 15.8634 0.0000 0.0000
# 5 0.0000 0.0000 0.0000 0.0000 20.4673 0.0000
# 6 0.0000 0.0000 0.0000 0.0000 0.0000 47.2318
#
#
#
# Elastic Compliance Matrix: (Units=1/GPa)
#
#
# Indices 1 2 3 4 5 6 
#
# 1 0.009129 -0.003197 -0.002403 0.000000 0.000000 0.000000
# 2 -0.003197 0.010316 0.000770 0.000000 0.000000 0.000000
# 3 -0.002403 0.000770 0.013157 0.000000 0.000000 0.000000
# 4 0.000000 0.000000 0.000000 0.063038 0.000000 0.000000
# 5 0.000000 0.000000 0.000000 0.000000 0.048858 0.000000
# 6 0.000000 0.000000 0.000000 0.000000 0.000000 0.021172
#
#
# Mechanical properties :
#
#
# Convention : Reuss Voigt Hill
#
# Bulk Modulus (GPa) = 43.58615 48.58769 46.08692
# Shear Modulus (GPa) = 27.32587 33.84696 30.58642
#
# Velocity S-wave (km/s) = 3.57216 3.97561 3.77927
# Velocity P-wave (km/s) = 6.11287 6.61535 6.36907
#
# Compressibility (1/GPa) = 0.02294307
#
# Stress axis : x y z
#
# Youngs Moduli (GPa) = 109.53842 96.93736 76.00775
#
# Poissons Ratio (x) = 0.30989 0.18261
# Poissons Ratio (y) = 0.35018 -0.05853
# Poissons Ratio (z) = 0.26317 -0.07465
#
# Static dielectric constant tensor:
#      x y z
#    x 3.935520 0.000000 0.000000 
#    y 0.000000 4.713710 0.000000 
#    z 0.000000 0.000000 4.075850 
# 
# 
# High freq. dielectric constant tensor:
#      x y z
#    x 1.843130 0.000000 0.000000 
#    y 0.000000 1.862600 0.000000 
#    z 0.000000 0.000000 1.820080 
# 
# From -- ./inp_files/10990.got.cif
#   From: 2010.03.12/outbox.cif.g09.slc.cpg/sg56_6_cif.got.tgz:10990.got - 2010.04.16 15:33:40.
