data_PCOD8229984
_publ_section_title
;
Structure prediction by ZEFSAII (Michael W. Deem and Ramdas Pophale) SiO2 
 PCOD8229984
Probable space group: P B C M
;
_chemical_formula_sum "Si O2"
_cell_formula_units_Z 56
_cell_length_a 14.496012
_cell_length_b 26.902108
_cell_length_c 8.915383
_cell_angle_alpha 90.000000
_cell_angle_beta 90.000000
_cell_angle_gamma 90.000000
_cell_volume 3476.761154
_symmetry_space_group_name_H-M "P B C M"
_symmetry_group_IT_number 57
_symmetry_cell_setting 'orthorhombic'
loop_
_space_group_symop_operation_xyz
x,y,z
-x,-y,1/2+z
x,1/2-y,-z
-x,1/2+y,1/2-z
-x,-y,-z
x,y,1/2-z
-x,1/2+y,z
x,1/2-y,1/2+z
loop_
_atom_site_type_symbol
_atom_site_label
_atom_site_fract_x
_atom_site_fract_y
_atom_site_fract_z
Si Si1 0.937617 0.566370 0.424681
Si Si2 0.369872 0.196349 0.929251
Si Si3 0.485384 0.619057 0.581084
Si Si4 0.883794 0.457283 0.426138
Si Si5 0.761082 0.622737 0.074950
Si Si6 0.678308 0.441788 0.428672
Si Si7 0.640814 0.957378 0.078460
O O1 0.956659 0.561626 0.250000
O O2 0.893353 0.514289 0.483133
O O3 0.869278 0.612503 0.459078
O O4 0.035469 0.576587 0.503835
O O5 0.368767 0.199190 0.750000
O O6 0.456274 0.163812 0.995844
O O7 0.377935 0.250000 0.000000
O O8 0.274738 0.170100 0.981142
O O9 0.475264 0.637307 0.750000
O O10 0.381951 0.606912 0.519971
O O11 0.540390 0.567369 0.569770
O O12 0.893663 0.454186 0.250000
O O13 0.784814 0.435273 0.477069
O O14 0.744058 0.632804 0.250000
O O15 0.709894 0.572639 0.027551
O O16 0.669032 0.450552 0.250000
O O17 0.633342 0.487513 0.515905
O O18 0.677026 0.956777 0.250000
#
# Coordination Sequence:
#
# PCOD8229984 Si02
#       7
#     8   8   8   8   8   8   8
#     4   9  17  29  42  62  89 121 157 191 229 267
#     4  10  20  35  52  74  95 117 148 186 235 282
#     4   8  17  30  45  64  89 118 152 189 226 270
#     4   9  17  27  41  62  88 123 161 192 224 262
#     4  10  18  31  49  68  91 123 157 192 233 276
#     4  10  17  29  44  61  89 125 159 192 225 267
#     4  10  18  27  40  64  93 123 156 190 224 267
#
# _framework density 16.106945
#
# number of rings (size 3 to 8) (size 9 to 14) (size 15 to 20)
#    0.000    2.571    1.429    2.571    0.000    1.714 
#    0.000    3.571    0.000    0.000    0.000    1.000 
#    0.000    4.571    0.000    0.000    0.000    0.000 
#
# Total GULP energy -693917.346948 kJ/mol
# GULP energy per Si atom -12391.381195 kJ/mol
# Density = 1.607028 g / cm^3
# Si number density = 16.106945 Si / 1000 Ang^3
#
#
#
# Elastic Constant Matrix: (Units=GPa)
#
#
# Indices 1 2 3 4 5 6 
#
# 1 121.7561 60.0422 37.3168 0.0000 0.0000 0.0000
# 2 60.0422 88.5667 30.9749 0.0000 0.0000 0.0000
# 3 37.3168 30.9749 45.6265 0.0000 0.0000 0.0000
# 4 0.0000 0.0000 0.0000 19.9623 0.0000 0.0000
# 5 0.0000 0.0000 0.0000 0.0000 21.7128 0.0000
# 6 0.0000 0.0000 0.0000 0.0000 0.0000 13.6146
#
#
#
# Elastic Compliance Matrix: (Units=1/GPa)
#
#
# Indices 1 2 3 4 5 6 
#
# 1 0.013624 -0.007002 -0.006390 0.000000 0.000000 0.000000
# 2 -0.007002 0.018405 -0.006768 0.000000 0.000000 0.000000
# 3 -0.006390 -0.006768 0.031738 0.000000 0.000000 0.000000
# 4 0.000000 0.000000 0.000000 0.050095 0.000000 0.000000
# 5 0.000000 0.000000 0.000000 0.000000 0.046056 0.000000
# 6 0.000000 0.000000 0.000000 0.000000 0.000000 0.073451
#
#
# Mechanical properties :
#
#
# Convention : Reuss Voigt Hill
#
# Bulk Modulus (GPa) = 42.64778 56.95747 49.80262
# Shear Modulus (GPa) = 17.76185 19.56563 18.66374
#
# Velocity S-wave (km/s) = 3.32436 3.48908 3.40772
# Velocity P-wave (km/s) = 6.42422 7.18821 6.81693
#
# Compressibility (1/GPa) = 0.02344788
#
# Stress axis : x y z
#
# Youngs Moduli (GPa) = 73.39863 54.33441 31.50819
#
# Poissons Ratio (x) = 0.38043 0.20133
# Poissons Ratio (y) = 0.51391 0.21325
# Poissons Ratio (z) = 0.46900 0.36774
#
# Static dielectric constant tensor:
#      x y z
#    x 3.259560 0.000000 0.000000 
#    y 0.000000 2.793450 0.000000 
#    z 0.000000 0.000000 2.977430 
# 
# 
# High freq. dielectric constant tensor:
#      x y z
#    x 1.621760 0.000000 0.000000 
#    y 0.000000 1.573760 0.000000 
#    z 0.000000 0.000000 1.614590 
# 
# From -- ./inp_files/5905.got.cif
#   From: 2010.03.12/outbox.cif.g09.slc.cpg/sg57_3_cif.got.tgz:5905.got - 2010.04.16 15:48:40.
