data_PCOD8229685
_publ_section_title
;
Structure prediction by ZEFSAII (Michael W. Deem and Ramdas Pophale) SiO2 
 PCOD8229685
Probable space group: P C C N
;
_chemical_formula_sum "Si O2"
_cell_formula_units_Z 48
_cell_length_a 17.727271
_cell_length_b 6.776150
_cell_length_c 17.679754
_cell_angle_alpha 90.000000
_cell_angle_beta 90.000000
_cell_angle_gamma 90.000000
_cell_volume 2123.738856
_symmetry_space_group_name_H-M "P C C N"
_symmetry_group_IT_number 56
_symmetry_cell_setting 'orthorhombic'
loop_
_space_group_symop_operation_xyz
x,y,z
1/2-x,1/2-y,z
1/2+x,-y,1/2-z
-x,1/2+y,1/2-z
-x,-y,-z
1/2+x,1/2+y,-z
1/2-x,y,1/2+z
x,1/2-y,1/2+z
loop_
_atom_site_type_symbol
_atom_site_label
_atom_site_fract_x
_atom_site_fract_y
_atom_site_fract_z
Si Si1 0.568754 0.346660 0.504211
Si Si2 0.926538 0.396229 0.351208
Si Si3 0.331471 0.290190 0.647761
Si Si4 0.583880 0.005223 0.610748
Si Si5 0.167023 0.652274 0.251678
Si Si6 0.670510 0.820646 0.026237
O O1 0.500000 0.500000 0.500000
O O2 0.591138 0.245651 0.423723
O O3 0.545418 0.176274 0.561638
O O4 0.639352 0.460177 0.545710
O O5 0.888878 0.610134 0.356247
O O6 0.893634 0.315008 0.272691
O O7 0.016349 0.415048 0.339413
O O8 0.250000 0.250000 0.684910
O O9 0.357954 0.473262 0.697422
O O10 0.319708 0.353277 0.562256
O O11 0.652749 0.082540 0.662385
O O12 0.610444 0.841873 0.551126
O O13 0.250000 0.750000 0.242201
O O14 0.750000 0.750000 0.063019
#
# Coordination Sequence:
#
# PCOD8229685 Si02
#       6
#     8   8   8   8   8   8
#     4  12  24  46  76 107 146 192 246 309 371 436
#     4  12  25  46  76 104 144 194 251 297 367 450
#     4  11  23  46  73 103 140 192 248 294 362 447
#     4  12  29  45  72 113 146 188 248 314 368 432
#     4  12  29  48  71 106 153 199 236 303 379 452
#     4  11  25  44  75 108 143 190 245 311 369 433
#
# _framework density 22.601645999999999
#
# number of rings (size 3 to 8) (size 9 to 14) (size 15 to 20)
#    0.000    0.333    6.667    1.500    4.667    2.000 
#    0.000    0.000    0.000    0.000    0.000    0.000 
#    0.000    0.000    0.000    0.000    0.000    0.000 
#
# Total GULP energy -594669.830203 kJ/mol
# GULP energy per Si atom -12388.954796 kJ/mol
# Density = 2.255020 g / cm^3
# Si number density = 22.601646 Si / 1000 Ang^3
#
#
#
# Elastic Constant Matrix: (Units=GPa)
#
#
# Indices 1 2 3 4 5 6 
#
# 1 118.3359 50.9989 13.5475 0.0000 0.0000 0.0000
# 2 50.9989 123.9285 31.3203 0.0000 0.0000 0.0000
# 3 13.5475 31.3203 78.3827 0.0000 0.0000 0.0000
# 4 0.0000 0.0000 0.0000 28.8042 0.0000 0.0000
# 5 0.0000 0.0000 0.0000 0.0000 31.7833 0.0000
# 6 0.0000 0.0000 0.0000 0.0000 0.0000 41.9453
#
#
#
# Elastic Compliance Matrix: (Units=1/GPa)
#
#
# Indices 1 2 3 4 5 6 
#
# 1 0.010273 -0.004203 -0.000096 0.000000 0.000000 0.000000
# 2 -0.004203 0.010695 -0.003547 0.000000 0.000000 0.000000
# 3 -0.000096 -0.003547 0.014192 0.000000 0.000000 0.000000
# 4 0.000000 0.000000 0.000000 0.034717 0.000000 0.000000
# 5 0.000000 0.000000 0.000000 0.000000 0.031463 0.000000
# 6 0.000000 0.000000 0.000000 0.000000 0.000000 0.023841
#
#
# Mechanical properties :
#
#
# Convention : Reuss Voigt Hill
#
# Bulk Modulus (GPa) = 51.36813 56.93116 54.14964
# Shear Modulus (GPa) = 33.92980 35.49191 34.71085
#
# Velocity S-wave (km/s) = 3.87875 3.96703 3.92314
# Velocity P-wave (km/s) = 6.54496 6.79902 6.67320
#
# Compressibility (1/GPa) = 0.01946732
#
# Stress axis : x y z
#
# Youngs Moduli (GPa) = 97.34272 93.49845 70.46269
#
# Poissons Ratio (x) = 0.39300 0.00677
# Poissons Ratio (y) = 0.40916 0.24994
# Poissons Ratio (z) = 0.00935 0.33166
#
# Static dielectric constant tensor:
#      x y z
#    x 4.444960 0.000000 0.000000 
#    y 0.000000 4.596660 0.000000 
#    z 0.000000 0.000000 3.848350 
# 
# 
# High freq. dielectric constant tensor:
#      x y z
#    x 1.896360 0.000000 0.000000 
#    y 0.000000 1.911420 0.000000 
#    z 0.000000 0.000000 1.873480 
# 
# From -- ./inp_files/19432.got.cif
#   From: 2010.03.12/outbox.cif.g09.slc.cpg/sg56_10_cif.got.tgz:19432.got - 2010.04.16 15:33:40.
