data_PCOD8229944
_publ_section_title
;
Structure prediction by ZEFSAII (Michael W. Deem and Ramdas Pophale) SiO2 
 PCOD8229944
Probable space group: P B C M
;
_chemical_formula_sum "Si O2"
_cell_formula_units_Z 64
_cell_length_a 12.587297
_cell_length_b 12.184530
_cell_length_c 22.053298
_cell_angle_alpha 90.000000
_cell_angle_beta 90.000000
_cell_angle_gamma 90.000000
_cell_volume 3382.320884
_symmetry_space_group_name_H-M "P B C M"
_symmetry_group_IT_number 57
_symmetry_cell_setting 'orthorhombic'
loop_
_space_group_symop_operation_xyz
x,y,z
-x,-y,1/2+z
x,1/2-y,-z
-x,1/2+y,1/2-z
-x,-y,-z
x,y,1/2-z
-x,1/2+y,z
x,1/2-y,1/2+z
loop_
_atom_site_type_symbol
_atom_site_label
_atom_site_fract_x
_atom_site_fract_y
_atom_site_fract_z
Si Si1 0.234652 0.751602 0.185505
Si Si2 0.207339 0.101192 0.437279
Si Si3 0.278352 0.459749 0.429766
Si Si4 0.105863 0.560630 0.146733
Si Si5 0.367187 0.698766 0.432920
Si Si6 0.394391 0.245477 0.071373
Si Si7 0.998588 0.732965 0.433646
Si Si8 0.087121 0.926689 0.140888
O O1 0.300320 0.757560 0.250000
O O2 0.163443 0.641769 0.193496
O O3 0.297617 0.751335 0.121741
O O4 0.158392 0.857965 0.187177
O O5 0.222233 0.068582 0.507038
O O6 0.316477 0.146863 0.407049
O O7 0.125466 0.202363 0.433217
O O8 0.166864 0.996845 0.400450
O O9 0.189148 0.471836 0.378288
O O10 0.348062 0.569569 0.437753
O O11 0.356801 0.364589 0.404922
O O12 0.069881 0.633774 0.089935
O O13 0.000388 0.503191 0.175326
O O14 0.344490 0.750000 0.500000
O O15 0.486001 0.719989 0.409030
O O16 0.386911 0.250000 0.000000
O O17 0.043966 0.750000 0.500000
O O18 0.014713 0.845818 0.398604
#
# Coordination Sequence:
#
# PCOD8229944 Si02
#       8
#     8   8   8   8   8   8   8   8
#     4  10  22  38  55  77 105 137 175 216 260 314
#     4  10  18  28  47  76 109 142 177 214 260 316
#     4  10  18  31  49  73 110 144 171 216 268 310
#     4   9  19  31  48  73 100 138 178 208 250 314
#     4  10  21  36  56  80 104 135 180 224 264 312
#     4   9  19  31  49  77 105 137 177 220 264 311
#     4  10  17  26  43  75 113 143 172 209 258 312
#     4  10  19  31  50  73 103 140 175 214 256 304
#
# _framework density 18.921918000000002
#
# number of rings (size 3 to 8) (size 9 to 14) (size 15 to 20)
#    0.000    2.250    0.000    4.125    0.000   11.500 
#    0.000    0.000    0.000    6.750    0.000    0.000 
#    0.000    0.000    0.000    0.000    0.000    0.000 
#
# Total GULP energy -792993.474534 kJ/mol
# GULP energy per Si atom -12390.523040 kJ/mol
# Density = 1.887885 g / cm^3
# Si number density = 18.921918 Si / 1000 Ang^3
#
#
#
# Elastic Constant Matrix: (Units=GPa)
#
#
# Indices 1 2 3 4 5 6 
#
# 1 111.0249 50.5628 33.4596 0.0000 0.0000 0.0000
# 2 50.5628 104.0324 21.9915 0.0000 0.0000 0.0000
# 3 33.4596 21.9915 81.2881 0.0000 0.0000 0.0000
# 4 0.0000 0.0000 0.0000 -22.0976 0.0000 0.0000
# 5 0.0000 0.0000 0.0000 0.0000 5.7446 0.0000
# 6 0.0000 0.0000 0.0000 0.0000 0.0000 36.5789
#
#
#
# Elastic Compliance Matrix: (Units=1/GPa)
#
#
# Indices 1 2 3 4 5 6 
#
# 1 0.012550 -0.005311 -0.003729 0.000000 0.000000 0.000000
# 2 -0.005311 0.012443 -0.001180 0.000000 0.000000 0.000000
# 3 -0.003729 -0.001180 0.014156 0.000000 0.000000 0.000000
# 4 0.000000 0.000000 0.000000 -0.045254 0.000000 0.000000
# 5 0.000000 0.000000 0.000000 0.000000 0.174078 0.000000
# 6 0.000000 0.000000 0.000000 0.000000 0.000000 0.027338
#
#
# Mechanical properties :
#
#
# Convention : Reuss Voigt Hill
#
# Bulk Modulus (GPa) = 53.45145 56.48591 54.96868
# Shear Modulus (GPa) = 22.52378 16.73394 19.62886
#
# Velocity S-wave (km/s) = 3.45389 2.97706 3.22430
# Velocity P-wave (km/s) = 6.64948 6.46019 6.55552
#
# Compressibility (1/GPa) = 0.01870857
#
# Stress axis : x y z
#
# Youngs Moduli (GPa) = 79.68417 80.36468 70.64137
#
# Poissons Ratio (x) = 0.42683 0.26340
# Poissons Ratio (y) = 0.42322 0.08337
# Poissons Ratio (z) = 0.29712 0.09485
#
# Static dielectric constant tensor:
#      x y z
#    x 3.805430 0.000000 0.000000 
#    y 0.000000 3.755020 0.000000 
#    z 0.000000 0.000000 3.012350 
# 
# 
# High freq. dielectric constant tensor:
#      x y z
#    x 1.736190 0.000000 0.000000 
#    y 0.000000 1.753020 0.000000 
#    z 0.000000 0.000000 1.690250 
# 
# From -- ./inp_files/27294.got.cif
#   From: 2010.03.12/outbox.cif.g09.slc.cpg/sg57_14_cif.got.tgz:27294.got - 2010.04.16 15:48:40.
