data_PCOD8229774
_publ_section_title
;
Structure prediction by ZEFSAII (Michael W. Deem and Ramdas Pophale) SiO2 
 PCOD8229774
Probable space group: P C C N
;
_chemical_formula_sum "Si O2"
_cell_formula_units_Z 20
_cell_length_a 9.792777
_cell_length_b 8.458084
_cell_length_c 8.548254
_cell_angle_alpha 90.000000
_cell_angle_beta 90.000000
_cell_angle_gamma 90.000000
_cell_volume 708.035898
_symmetry_space_group_name_H-M "P C C N"
_symmetry_group_IT_number 56
_symmetry_cell_setting 'orthorhombic'
loop_
_space_group_symop_operation_xyz
x,y,z
1/2-x,1/2-y,z
1/2+x,-y,1/2-z
-x,1/2+y,1/2-z
-x,-y,-z
1/2+x,1/2+y,-z
1/2-x,y,1/2+z
x,1/2-y,1/2+z
loop_
_atom_site_type_symbol
_atom_site_label
_atom_site_fract_x
_atom_site_fract_y
_atom_site_fract_z
Si Si1 0.965524 0.714504 0.954091
Si Si2 0.116911 0.023361 0.271356
Si Si3 0.750000 0.250000 0.869919
O O1 0.986345 0.589198 0.811914
O O2 0.905715 0.875876 0.885813
O O3 0.113237 0.745781 0.029386
O O4 0.859946 0.639987 0.080354
O O5 0.245635 0.907391 0.239699
#
# Coordination Sequence:
#
# PCOD8229774 Si02
#       3
#     8   8   4
#     4  11  25  48  82 117 165 203 262 332 389 487
#     4  11  25  49  80 117 164 203 265 328 394 473
#     4  12  24  48  84 114 158 214 254 328 398 470
#
# _framework density 28.247153000000001
#
# number of rings (size 3 to 8) (size 9 to 14) (size 15 to 20)
#    0.000    0.800    4.000    2.400    0.000    0.000 
#    0.000   16.000    0.000    0.000    0.000    0.000 
#    0.000    0.000    0.000    0.000    0.000    0.000 
#
# Total GULP energy -247868.127099 kJ/mol
# GULP energy per Si atom -12393.406355 kJ/mol
# Density = 2.818286 g / cm^3
# Si number density = 28.247153 Si / 1000 Ang^3
#
#
#
# Elastic Constant Matrix: (Units=GPa)
#
#
# Indices 1 2 3 4 5 6 
#
# 1 55.4615 71.2474 65.3377 0.0000 0.0000 0.0000
# 2 71.2474 222.1267 124.0955 0.0000 0.0000 0.0000
# 3 65.3377 124.0955 150.0425 0.0000 0.0000 0.0000
# 4 0.0000 0.0000 0.0000 86.8478 0.0000 0.0000
# 5 0.0000 0.0000 0.0000 0.0000 17.9688 0.0000
# 6 0.0000 0.0000 0.0000 0.0000 0.0000 63.0102
#
#
#
# Elastic Compliance Matrix: (Units=1/GPa)
#
#
# Indices 1 2 3 4 5 6 
#
# 1 0.040765 -0.005871 -0.012896 0.000000 0.000000 0.000000
# 2 -0.005871 0.009214 -0.005064 0.000000 0.000000 0.000000
# 3 -0.012896 -0.005064 0.016469 0.000000 0.000000 0.000000
# 4 0.000000 0.000000 0.000000 0.011514 0.000000 0.000000
# 5 0.000000 0.000000 0.000000 0.000000 0.055652 0.000000
# 6 0.000000 0.000000 0.000000 0.000000 0.000000 0.015870
#
#
# Mechanical properties :
#
#
# Convention : Reuss Voigt Hill
#
# Bulk Modulus (GPa) = 53.23146 105.44356 79.33751
# Shear Modulus (GPa) = 24.58103 44.69534 34.63818
#
# Velocity S-wave (km/s) = 2.95314 3.98212 3.50559
# Velocity P-wave (km/s) = 5.52393 7.65199 6.67334
#
# Compressibility (1/GPa) = 0.01878588
#
# Stress axis : x y z
#
# Youngs Moduli (GPa) = 24.53109 108.52691 60.71997
#
# Poissons Ratio (x) = 0.63713 0.78304
# Poissons Ratio (y) = 0.14402 0.30751
# Poissons Ratio (z) = 0.31635 0.54962
#
# Static dielectric constant tensor:
#      x y z
#    x 4.648160 0.000000 0.000000 
#    y 0.000000 5.985170 0.000000 
#    z 0.000000 0.000000 5.614680 
# 
# 
# High freq. dielectric constant tensor:
#      x y z
#    x 2.100270 0.000000 0.000000 
#    y 0.000000 2.174150 0.000000 
#    z 0.000000 0.000000 2.154180 
# 
# From -- ./inp_files/1681.got.cif
#   From: 2010.03.12/outbox.cif.g09.slc.cpg/sg56_1_cif.got.tgz:1681.got - 2010.04.16 15:33:40.
