data_PCOD8229887
_publ_section_title
;
Structure prediction by ZEFSAII (Michael W. Deem and Ramdas Pophale) SiO2 
 PCOD8229887
Probable space group: P B C M
;
_chemical_formula_sum "Si O2"
_cell_formula_units_Z 28
_cell_length_a 15.299871
_cell_length_b 18.686970
_cell_length_c 5.325073
_cell_angle_alpha 90.000000
_cell_angle_beta 90.000000
_cell_angle_gamma 90.000000
_cell_volume 1522.482198
_symmetry_space_group_name_H-M "P B C M"
_symmetry_group_IT_number 57
_symmetry_cell_setting 'orthorhombic'
loop_
_space_group_symop_operation_xyz
x,y,z
-x,-y,1/2+z
x,1/2-y,-z
-x,1/2+y,1/2-z
-x,-y,-z
x,y,1/2-z
-x,1/2+y,z
x,1/2-y,1/2+z
loop_
_atom_site_type_symbol
_atom_site_label
_atom_site_fract_x
_atom_site_fract_y
_atom_site_fract_z
Si Si1 0.146338 0.115711 0.750000
Si Si2 0.080648 0.406981 0.750000
Si Si3 0.882997 0.447968 0.750000
Si Si4 0.191935 0.951644 0.250000
Si Si5 0.679543 0.703453 0.750000
Si Si6 0.613917 0.007750 0.750000
Si Si7 0.431337 0.426044 0.250000
O O1 0.094495 0.141616 0.499130
O O2 0.243297 0.145775 0.750000
O O3 0.148136 0.029874 0.750000
O O4 0.155938 0.467259 0.750000
O O5 0.987333 0.445091 0.750000
O O6 0.844017 0.410921 0.499089
O O7 0.296287 0.948792 0.250000
O O8 0.685085 0.750000 0.500000
O O9 0.589555 0.658480 0.750000
O O10 0.610096 0.959989 0.500214
O O11 0.535772 0.065366 0.750000
#
# Coordination Sequence:
#
# PCOD8229887 Si02
#       7
#     4   4   4   4   4   4   4
#     4  10  18  30  46  64  95 132 170 203 231 284
#     4  10  17  28  46  71 101 134 159 194 252 299
#     4  10  18  27  45  71 103 134 157 193 250 303
#     4  10  16  25  40  66  98 125 159 193 240 311
#     4  12  24  37  52  74 106 146 182 209 251 313
#     4  10  19  32  54  75  99 135 168 217 280 316
#     4  10  20  35  51  73 100 132 175 217 264 322
#
# _framework density 18.391017999999999
#
# number of rings (size 3 to 8) (size 9 to 14) (size 15 to 20)
#    0.000    1.714    0.000   10.286    0.000    0.000 
#    0.000    0.000    0.000    0.000    0.000    0.000 
#    0.000   38.857    0.000    0.000    0.000    0.000 
#
# Total GULP energy -347041.035087 kJ/mol
# GULP energy per Si atom -12394.322682 kJ/mol
# Density = 1.834916 g / cm^3
# Si number density = 18.391018 Si / 1000 Ang^3
#
#
#
# Elastic Constant Matrix: (Units=GPa)
#
#
# Indices 1 2 3 4 5 6 
#
# 1 122.1827 34.1206 48.4332 0.0000 0.0000 0.0000
# 2 34.1206 45.2470 21.8095 0.0000 0.0000 0.0000
# 3 48.4332 21.8095 211.9298 0.0000 0.0000 0.0000
# 4 0.0000 0.0000 0.0000 14.6467 0.0000 0.0000
# 5 0.0000 0.0000 0.0000 0.0000 22.1711 0.0000
# 6 0.0000 0.0000 0.0000 0.0000 0.0000 22.0565
#
#
#
# Elastic Compliance Matrix: (Units=1/GPa)
#
#
# Indices 1 2 3 4 5 6 
#
# 1 0.010944 -0.007415 -0.001738 0.000000 0.000000 0.000000
# 2 -0.007415 0.028279 -0.001215 0.000000 0.000000 0.000000
# 3 -0.001738 -0.001215 0.005241 0.000000 0.000000 0.000000
# 4 0.000000 0.000000 0.000000 0.068275 0.000000 0.000000
# 5 0.000000 0.000000 0.000000 0.000000 0.045104 0.000000
# 6 0.000000 0.000000 0.000000 0.000000 0.000000 0.045338
#
#
# Mechanical properties :
#
#
# Convention : Reuss Voigt Hill
#
# Bulk Modulus (GPa) = 42.14765 65.34288 53.74526
# Shear Modulus (GPa) = 21.56788 30.10796 25.83792
#
# Velocity S-wave (km/s) = 3.42824 4.05050 3.75229
# Velocity P-wave (km/s) = 6.21593 7.58171 6.93253
#
# Compressibility (1/GPa) = 0.02372612
#
# Stress axis : x y z
#
# Youngs Moduli (GPa) = 91.37279 35.36247 190.80964
#
# Poissons Ratio (x) = 0.26222 0.33163
# Poissons Ratio (y) = 0.67755 0.23193
# Poissons Ratio (z) = 0.15881 0.04298
#
# Static dielectric constant tensor:
#      x y z
#    x 3.371010 0.000000 0.000000 
#    y 0.000000 2.735760 0.000000 
#    z 0.000000 0.000000 5.551380 
# 
# 
# High freq. dielectric constant tensor:
#      x y z
#    x 1.716710 0.000000 0.000000 
#    y 0.000000 1.626350 0.000000 
#    z 0.000000 0.000000 1.763590 
# 
# From -- ./inp_files/315.got.cif
#   From: 2010.03.12/outbox.cif.g09.slc.cpg/sg57_1_cif.got.tgz:315.got - 2010.04.16 15:48:40.
