data_PCOD8229184
_publ_section_title
;
Structure prediction by ZEFSAII (Michael W. Deem and Ramdas Pophale) SiO2 
 PCOD8229184
Probable space group: P C C N
;
_chemical_formula_sum "Si O2"
_cell_formula_units_Z 36
_cell_length_a 11.024240
_cell_length_b 5.089724
_cell_length_c 24.037292
_cell_angle_alpha 90.000000
_cell_angle_beta 90.000000
_cell_angle_gamma 90.000000
_cell_volume 1348.740601
_symmetry_space_group_name_H-M "P C C N"
_symmetry_group_IT_number 56
_symmetry_cell_setting 'orthorhombic'
loop_
_space_group_symop_operation_xyz
x,y,z
1/2-x,1/2-y,z
1/2+x,-y,1/2-z
-x,1/2+y,1/2-z
-x,-y,-z
1/2+x,1/2+y,-z
1/2-x,y,1/2+z
x,1/2-y,1/2+z
loop_
_atom_site_type_symbol
_atom_site_label
_atom_site_fract_x
_atom_site_fract_y
_atom_site_fract_z
Si Si1 0.905238 0.922213 0.807091
Si Si2 0.060747 0.418699 0.815843
Si Si3 0.750000 0.250000 0.883108
Si Si4 0.875516 0.881194 0.454742
Si Si5 0.130086 0.905756 0.428650
O O1 0.866966 0.955344 0.742003
O O2 0.790411 0.004094 0.844251
O O3 0.014647 0.121767 0.819946
O O4 0.948106 0.624508 0.819336
O O5 0.150435 0.464288 0.868238
O O6 0.862910 0.335080 0.923420
O O7 0.750000 0.750000 0.436071
O O8 0.000092 0.746211 0.430810
O O9 0.885731 0.883026 0.521712
O O10 0.250000 0.750000 0.444781
#
# Coordination Sequence:
#
# PCOD8229184 Si02
#       5
#     8   8   4   8   8
#     4  10  23  40  72  95 141 183 243 285 364 432
#     4  10  22  45  63 104 137 186 229 306 357 430
#     4  12  22  42  68  98 132 196 242 296 348 462
#     4  11  25  45  70 100 139 192 242 294 366 440
#     4  11  24  44  68 104 142 179 240 300 364 424
#
# _framework density 26.691568
#
# number of rings (size 3 to 8) (size 9 to 14) (size 15 to 20)
#    0.000    1.333    3.333    1.333    1.556    2.667 
#    0.000    0.000    0.000    0.000    0.000    0.000 
#    0.000    0.000    0.000    0.000    0.000    0.000 
#
# Total GULP energy -446051.131555 kJ/mol
# GULP energy per Si atom -12390.309210 kJ/mol
# Density = 2.663082 g / cm^3
# Si number density = 26.691568 Si / 1000 Ang^3
#
#
#
# Elastic Constant Matrix: (Units=GPa)
#
#
# Indices 1 2 3 4 5 6 
#
# 1 167.6784 16.3482 20.8064 0.0000 0.0000 0.0000
# 2 16.3482 42.0530 -4.0037 0.0000 0.0000 0.0000
# 3 20.8064 -4.0037 202.0800 0.0000 0.0000 0.0000
# 4 0.0000 0.0000 0.0000 11.7597 0.0000 0.0000
# 5 0.0000 0.0000 0.0000 0.0000 30.0236 0.0000
# 6 0.0000 0.0000 0.0000 0.0000 0.0000 32.2784
#
#
#
# Elastic Compliance Matrix: (Units=1/GPa)
#
#
# Indices 1 2 3 4 5 6 
#
# 1 0.006296 -0.002514 -0.000698 0.000000 0.000000 0.000000
# 2 -0.002514 0.024828 0.000751 0.000000 0.000000 0.000000
# 3 -0.000698 0.000751 0.005035 0.000000 0.000000 0.000000
# 4 0.000000 0.000000 0.000000 0.085036 0.000000 0.000000
# 5 0.000000 0.000000 0.000000 0.000000 0.033307 0.000000
# 6 0.000000 0.000000 0.000000 0.000000 0.000000 0.030980
#
#
# Mechanical properties :
#
#
# Convention : Reuss Voigt Hill
#
# Bulk Modulus (GPa) = 32.01349 53.12370 42.56859
# Shear Modulus (GPa) = 24.89825 40.05638 32.47731
#
# Velocity S-wave (km/s) = 3.05751 3.87811 3.49200
# Velocity P-wave (km/s) = 4.94817 6.32447 5.67818
#
# Compressibility (1/GPa) = 0.03123683
#
# Stress axis : x y z
#
# Youngs Moduli (GPa) = 158.84357 40.27665 198.59881
#
# Poissons Ratio (x) = 0.10125 0.13862
# Poissons Ratio (y) = 0.39931 -0.14910
# Poissons Ratio (z) = 0.11087 -0.03024
#
# Static dielectric constant tensor:
#      x y z
#    x 4.678550 0.000000 0.000000 
#    y 0.000000 4.500580 0.000000 
#    z 0.000000 0.000000 5.324170 
# 
# 
# High freq. dielectric constant tensor:
#      x y z
#    x 2.057770 0.000000 0.000000 
#    y 0.000000 2.036740 0.000000 
#    z 0.000000 0.000000 2.114080 
# 
# From -- ./inp_files/19878.got.cif
#   From: 2010.03.12/outbox.cif.g09.slc.cpg/sg56_10_cif.got.tgz:19878.got - 2010.04.16 15:33:40.
