data_PCOD8229814
_publ_section_title
;
Structure prediction by ZEFSAII (Michael W. Deem and Ramdas Pophale) SiO2 
 PCOD8229814
Probable space group: P C C N
;
_chemical_formula_sum "Si O2"
_cell_formula_units_Z 56
_cell_length_a 14.597322
_cell_length_b 12.161690
_cell_length_c 13.417197
_cell_angle_alpha 90.000000
_cell_angle_beta 90.000000
_cell_angle_gamma 90.000000
_cell_volume 2381.929558
_symmetry_space_group_name_H-M "P C C N"
_symmetry_group_IT_number 56
_symmetry_cell_setting 'orthorhombic'
loop_
_space_group_symop_operation_xyz
x,y,z
1/2-x,1/2-y,z
1/2+x,-y,1/2-z
-x,1/2+y,1/2-z
-x,-y,-z
1/2+x,1/2+y,-z
1/2-x,y,1/2+z
x,1/2-y,1/2+z
loop_
_atom_site_type_symbol
_atom_site_label
_atom_site_fract_x
_atom_site_fract_y
_atom_site_fract_z
Si Si1 0.104983 0.999101 0.968690
Si Si2 0.767344 0.879341 0.427839
Si Si3 0.919711 0.210985 0.342928
Si Si4 0.377453 0.899931 0.793818
Si Si5 0.824129 0.019207 0.240070
Si Si6 0.064149 0.425418 0.930962
Si Si7 0.151659 0.749593 0.460913
O O1 0.133052 0.041527 0.857462
O O2 0.117752 0.871125 0.971772
O O3 0.170323 0.061844 0.048029
O O4 0.000000 0.000000 0.000000
O O5 0.750000 0.750000 0.412460
O O6 0.838640 0.900770 0.517577
O O7 0.810796 0.928896 0.326633
O O8 0.920466 0.336041 0.300807
O O9 0.896865 0.115965 0.264342
O O10 0.843026 0.197416 0.428916
O O11 0.016407 0.189838 0.400152
O O12 0.269612 0.917241 0.781773
O O13 0.407985 0.824367 0.887702
O O14 0.421915 0.016608 0.822292
O O15 0.000000 0.500000 0.000000
O O16 0.250000 0.750000 0.410182
#
# Coordination Sequence:
#
# PCOD8229814 Si02
#       7
#     8   8   8   8   8   8   8
#     4  12  28  50  78 119 158 202 278 344 392 489
#     4  12  29  55  79 109 168 223 257 327 425 489
#     4  12  25  41  79 112 144 201 259 321 395 470
#     4  12  23  46  76 113 151 202 264 332 395 470
#     4  12  24  50  78 114 152 202 271 331 400 475
#     4  12  25  51  75 105 164 210 263 323 401 493
#     4  12  21  43  75 104 149 195 254 329 399 447
#
# _framework density 23.510352000000001
#
# number of rings (size 3 to 8) (size 9 to 14) (size 15 to 20)
#    0.000    0.000    7.143    3.000    2.000    2.857 
#    2.571    0.000    0.000    0.000    0.000    0.000 
#    0.000    0.000    0.000    0.000    0.000    0.000 
#
# Total GULP energy -693892.144331 kJ/mol
# GULP energy per Si atom -12390.931149 kJ/mol
# Density = 2.345684 g / cm^3
# Si number density = 23.510352 Si / 1000 Ang^3
#
#
#
# Elastic Constant Matrix: (Units=GPa)
#
#
# Indices 1 2 3 4 5 6 
#
# 1 143.9242 45.7975 43.6308 0.0000 0.0000 0.0000
# 2 45.7975 100.5531 29.6421 0.0000 0.0000 0.0000
# 3 43.6308 29.6421 117.8890 0.0000 0.0000 0.0000
# 4 0.0000 0.0000 0.0000 -283.2721 0.0000 0.0000
# 5 0.0000 0.0000 0.0000 0.0000 39.9147 0.0000
# 6 0.0000 0.0000 0.0000 0.0000 0.0000 37.3037
#
#
#
# Elastic Compliance Matrix: (Units=1/GPa)
#
#
# Indices 1 2 3 4 5 6 
#
# 1 0.008715 -0.003260 -0.002406 0.000000 0.000000 0.000000
# 2 -0.003260 0.011961 -0.001801 0.000000 0.000000 0.000000
# 3 -0.002406 -0.001801 0.009826 0.000000 0.000000 0.000000
# 4 0.000000 0.000000 0.000000 -0.003530 0.000000 0.000000
# 5 0.000000 0.000000 0.000000 0.000000 0.025053 0.000000
# 6 0.000000 0.000000 0.000000 0.000000 0.000000 0.026807
#
#
# Mechanical properties :
#
#
# Convention : Reuss Voigt Hill
#
# Bulk Modulus (GPa) = 64.23403 66.72300 65.47851
# Shear Modulus (GPa) = 50.52867 -24.99102 12.76883
#
# Velocity S-wave (km/s) = 4.64099 -3.26387 2.33301
# Velocity P-wave (km/s) = 7.48994 3.77333 5.93032
#
# Compressibility (1/GPa) = 0.01556807
#
# Stress axis : x y z
#
# Youngs Moduli (GPa) = 114.74823 83.60734 101.77400
#
# Poissons Ratio (x) = 0.27256 0.24483
# Poissons Ratio (y) = 0.37408 0.18328
# Poissons Ratio (z) = 0.27604 0.15057
#
# Static dielectric constant tensor:
#      x y z
#    x 4.250670 0.000000 0.000000 
#    y 0.000000 4.212800 0.000000 
#    z 0.000000 0.000000 4.864480 
# 
# 
# High freq. dielectric constant tensor:
#      x y z
#    x 1.924160 0.000000 0.000000 
#    y 0.000000 1.928370 0.000000 
#    z 0.000000 0.000000 1.946940 
# 
# From -- ./inp_files/12288.got.cif
#   From: 2010.03.12/outbox.cif.g09.slc.cpg/sg56_7_cif.got.tgz:12288.got - 2010.04.16 15:33:40.
