data_PCOD8229973
_publ_section_title
;
Structure prediction by ZEFSAII (Michael W. Deem and Ramdas Pophale) SiO2 
 PCOD8229973
Probable space group: P B C M
;
_chemical_formula_sum "Si O2"
_cell_formula_units_Z 64
_cell_length_a 15.044814
_cell_length_b 29.656052
_cell_length_c 9.491281
_cell_angle_alpha 90.000000
_cell_angle_beta 90.000000
_cell_angle_gamma 90.000000
_cell_volume 4234.722816
_symmetry_space_group_name_H-M "P B C M"
_symmetry_group_IT_number 57
_symmetry_cell_setting 'orthorhombic'
loop_
_space_group_symop_operation_xyz
x,y,z
-x,-y,1/2+z
x,1/2-y,-z
-x,1/2+y,1/2-z
-x,-y,-z
x,y,1/2-z
-x,1/2+y,z
x,1/2-y,1/2+z
loop_
_atom_site_type_symbol
_atom_site_label
_atom_site_fract_x
_atom_site_fract_y
_atom_site_fract_z
Si Si1 0.532083 0.609019 0.084996
Si Si2 0.366856 0.549714 0.082277
Si Si3 0.324423 0.461841 0.914777
Si Si4 0.940243 0.057007 0.088015
Si Si5 0.214986 0.615819 0.414135
Si Si6 0.493537 0.707210 0.088915
Si Si7 0.874354 0.973987 0.587324
Si Si8 0.283193 0.708342 0.089396
O O1 0.516186 0.614390 0.250000
O O2 0.451198 0.578452 0.027607
O O3 0.624813 0.584566 0.047965
O O4 0.532807 0.660261 0.024454
O O5 0.369190 0.541281 0.250000
O O6 0.279022 0.576159 0.029988
O O7 0.367713 0.501767 0.004771
O O8 0.336097 0.473639 0.750000
O O9 0.221007 0.453499 0.955313
O O10 0.924520 0.043569 0.250000
O O11 0.888128 0.103451 0.054018
O O12 0.045767 0.061876 0.055637
O O13 0.893622 0.018605 0.998575
O O14 0.236046 0.620838 0.250000
O O15 0.237842 0.664158 0.480945
O O16 0.523692 0.714884 0.250000
O O17 0.388173 0.702830 0.077267
O O18 0.528976 0.750000 0.000000
O O19 0.874452 0.987930 0.750000
O O20 0.253393 0.716018 0.250000
O O21 0.247221 0.750000 0.000000
#
# Coordination Sequence:
#
# PCOD8229973 Si02
#       8
#     8   8   8   8   8   8   8   8
#     4   9  17  29  44  59  81 114 143 165 201 248
#     4  10  17  28  43  59  80 113 149 169 187 235
#     4  10  19  29  40  59  87 114 138 171 208 237
#     4   9  16  27  43  59  77 106 139 166 196 237
#     4   9  15  25  43  61  78 105 140 167 192 238
#     4   9  16  28  44  60  78 102 132 167 205 243
#     4   9  17  27  39  59  84 105 132 171 205 231
#     4   9  16  27  42  60  80 102 130 166 204 243
#
# _framework density 15.113149
#
# number of rings (size 3 to 8) (size 9 to 14) (size 15 to 20)
#    0.000    2.750    2.500    0.375    0.000    0.000 
#    0.000    2.500    0.000    0.000    0.000    0.875 
#    0.000    0.000    0.000    0.000    0.000    0.000 
#
# Total GULP energy -793155.275496 kJ/mol
# GULP energy per Si atom -12393.051180 kJ/mol
# Density = 1.507875 g / cm^3
# Si number density = 15.113149 Si / 1000 Ang^3
#
#
#
# Elastic Constant Matrix: (Units=GPa)
#
#
# Indices 1 2 3 4 5 6 
#
# 1 93.5632 52.9603 22.9978 0.0000 0.0000 0.0000
# 2 52.9603 122.5251 35.6403 0.0000 0.0000 0.0000
# 3 22.9978 35.6403 33.5202 0.0000 0.0000 0.0000
# 4 0.0000 0.0000 0.0000 22.0898 0.0000 0.0000
# 5 0.0000 0.0000 0.0000 0.0000 12.7633 0.0000
# 6 0.0000 0.0000 0.0000 0.0000 0.0000 19.8280
#
#
#
# Elastic Compliance Matrix: (Units=1/GPa)
#
#
# Indices 1 2 3 4 5 6 
#
# 1 0.014667 -0.004940 -0.004810 0.000000 0.000000 0.000000
# 2 -0.004940 0.013480 -0.010943 0.000000 0.000000 0.000000
# 3 -0.004810 -0.010943 0.044768 0.000000 0.000000 0.000000
# 4 0.000000 0.000000 0.000000 0.045270 0.000000 0.000000
# 5 0.000000 0.000000 0.000000 0.000000 0.078350 0.000000
# 6 0.000000 0.000000 0.000000 0.000000 0.000000 0.050434
#
#
# Mechanical properties :
#
#
# Convention : Reuss Voigt Hill
#
# Bulk Modulus (GPa) = 31.71766 52.53391 42.12579
# Shear Modulus (GPa) = 16.72998 20.13688 18.43343
#
# Velocity S-wave (km/s) = 3.33074 3.65418 3.49620
# Velocity P-wave (km/s) = 5.98533 7.25533 6.65072
#
# Compressibility (1/GPa) = 0.03152817
#
# Stress axis : x y z
#
# Youngs Moduli (GPa) = 68.18176 74.18244 22.33732
#
# Poissons Ratio (x) = 0.36650 0.10744
# Poissons Ratio (y) = 0.33685 0.24444
# Poissons Ratio (z) = 0.32793 0.81180
#
# Static dielectric constant tensor:
#      x y z
#    x 2.998840 0.000000 0.000000 
#    y 0.000000 2.975950 0.000000 
#    z 0.000000 0.000000 2.730670 
# 
# 
# High freq. dielectric constant tensor:
#      x y z
#    x 1.567180 0.000000 0.000000 
#    y 0.000000 1.566200 0.000000 
#    z 0.000000 0.000000 1.557520 
# 
# From -- ./inp_files/6042.got.cif
#   From: 2010.03.12/outbox.cif.g09.slc.cpg/sg57_4_cif.got.tgz:6042.got - 2010.04.16 15:48:40.
