data_PCOD8229304
_publ_section_title
;
Structure prediction by ZEFSAII (Michael W. Deem and Ramdas Pophale) SiO2 
 PCOD8229304
Probable space group: P C C N
;
_chemical_formula_sum "Si O2"
_cell_formula_units_Z 64
_cell_length_a 9.421828
_cell_length_b 16.222660
_cell_length_c 20.760101
_cell_angle_alpha 90.000000
_cell_angle_beta 90.000000
_cell_angle_gamma 90.000000
_cell_volume 3173.121487
_symmetry_space_group_name_H-M "P C C N"
_symmetry_group_IT_number 56
_symmetry_cell_setting 'orthorhombic'
loop_
_space_group_symop_operation_xyz
x,y,z
1/2-x,1/2-y,z
1/2+x,-y,1/2-z
-x,1/2+y,1/2-z
-x,-y,-z
1/2+x,1/2+y,-z
1/2-x,y,1/2+z
x,1/2-y,1/2+z
loop_
_atom_site_type_symbol
_atom_site_label
_atom_site_fract_x
_atom_site_fract_y
_atom_site_fract_z
Si Si1 0.670833 0.667669 0.896011
Si Si2 0.243563 0.504210 0.149755
Si Si3 0.723715 0.483397 0.201758
Si Si4 0.537139 0.919694 0.130358
Si Si5 0.911362 0.236772 0.298284
Si Si6 0.132527 0.688831 0.345364
Si Si7 0.237766 0.154856 0.956850
Si Si8 0.988935 0.600388 0.640937
O O1 0.750000 0.750000 0.872134
O O2 0.718198 0.592405 0.850562
O O3 0.501186 0.680897 0.893327
O O4 0.718811 0.643625 0.967499
O O5 0.231949 0.536129 0.222892
O O6 0.364121 0.560349 0.116466
O O7 0.095945 0.521726 0.112377
O O8 0.862660 0.531387 0.179234
O O9 0.711049 0.397896 0.163719
O O10 0.583423 0.536160 0.189326
O O11 0.480087 0.839738 0.166186
O O12 0.620501 0.893354 0.065737
O O13 0.750000 0.250000 0.320903
O O14 0.923990 0.225518 0.221844
O O15 0.998732 0.316927 0.317992
O O16 0.250000 0.750000 0.376261
O O17 0.250000 0.250000 0.937141
O O18 0.102268 0.114947 0.922845
#
# Coordination Sequence:
#
# PCOD8229304 Si02
#       8
#     8   8   8   8   8   8   8   8
#     4  11  27  45  62  89 130 172 208 262 318 379
#     4  12  22  40  63  96 130 158 208 259 324 377
#     4  11  23  39  60  98 133 161 202 267 317 379
#     4  11  22  37  66  92 123 167 210 258 317 365
#     4  11  20  37  65  99 126 156 207 264 322 379
#     4  11  23  43  64  94 130 168 207 258 327 388
#     4  10  23  45  62  86 127 166 217 262 301 367
#     4  11  22  39  67  90 123 168 206 265 308 372
#
# _framework density 20.169415000000001
#
# number of rings (size 3 to 8) (size 9 to 14) (size 15 to 20)
#    0.000    1.000    5.000    2.250    3.500    1.000 
#    0.000    3.125    0.000    0.000    0.000    0.000 
#    0.000    0.000    0.000    0.000    0.000    0.000 
#
# Total GULP energy -793895.911681 kJ/mol
# GULP energy per Si atom -12404.623620 kJ/mol
# Density = 2.012351 g / cm^3
# Si number density = 20.169415 Si / 1000 Ang^3
#
#
#
# Elastic Constant Matrix: (Units=GPa)
#
#
# Indices 1 2 3 4 5 6 
#
# 1 151.6805 59.2802 45.8821 0.0000 0.0000 0.0000
# 2 59.2802 129.6760 21.3746 0.0000 0.0000 0.0000
# 3 45.8821 21.3746 48.5401 0.0000 0.0000 0.0000
# 4 0.0000 0.0000 0.0000 17.2573 0.0000 0.0000
# 5 0.0000 0.0000 0.0000 0.0000 23.8296 0.0000
# 6 0.0000 0.0000 0.0000 0.0000 0.0000 48.2312
#
#
#
# Elastic Compliance Matrix: (Units=1/GPa)
#
#
# Indices 1 2 3 4 5 6 
#
# 1 0.010459 -0.003398 -0.008390 0.000000 0.000000 0.000000
# 2 -0.003398 0.009419 -0.000936 0.000000 0.000000 0.000000
# 3 -0.008390 -0.000936 0.028944 0.000000 0.000000 0.000000
# 4 0.000000 0.000000 0.000000 0.057946 0.000000 0.000000
# 5 0.000000 0.000000 0.000000 0.000000 0.041965 0.000000
# 6 0.000000 0.000000 0.000000 0.000000 0.000000 0.020733
#
#
# Mechanical properties :
#
#
# Convention : Reuss Voigt Hill
#
# Bulk Modulus (GPa) = 42.78111 64.77449 53.77780
# Shear Modulus (GPa) = 24.66646 31.42095 28.04370
#
# Velocity S-wave (km/s) = 3.50088 3.95124 3.73286
# Velocity P-wave (km/s) = 6.13176 7.28020 6.73052
#
# Compressibility (1/GPa) = 0.02337480
#
# Stress axis : x y z
#
# Youngs Moduli (GPa) = 95.61422 106.16597 34.54982
#
# Poissons Ratio (x) = 0.36078 0.28986
# Poissons Ratio (y) = 0.32492 0.03232
# Poissons Ratio (z) = 0.80216 0.09933
#
# Static dielectric constant tensor:
#      x y z
#    x 3.994590 0.000000 0.000000 
#    y 0.000000 3.899140 0.000000 
#    z 0.000000 0.000000 3.262780 
# 
# 
# High freq. dielectric constant tensor:
#      x y z
#    x 1.804010 0.000000 0.000000 
#    y 0.000000 1.809720 0.000000 
#    z 0.000000 0.000000 1.753370 
# 
# From -- ./inp_files/20673.got.cif
#   From: 2010.03.12/outbox.cif.g09.slc.cpg/sg56_11_cif.got.tgz:20673.got - 2010.04.16 15:33:40.
