data_PCOD8229002
_publ_section_title
;
Structure prediction by ZEFSAII (Michael W. Deem and Ramdas Pophale) SiO2 
 PCOD8229002
Probable space group: P C C N
;
_chemical_formula_sum "Si O2"
_cell_formula_units_Z 64
_cell_length_a 22.630358
_cell_length_b 8.922508
_cell_length_c 15.009268
_cell_angle_alpha 90.000000
_cell_angle_beta 90.000000
_cell_angle_gamma 90.000000
_cell_volume 3030.664645
_symmetry_space_group_name_H-M "P C C N"
_symmetry_group_IT_number 56
_symmetry_cell_setting 'orthorhombic'
loop_
_space_group_symop_operation_xyz
x,y,z
1/2-x,1/2-y,z
1/2+x,-y,1/2-z
-x,1/2+y,1/2-z
-x,-y,-z
1/2+x,1/2+y,-z
1/2-x,y,1/2+z
x,1/2-y,1/2+z
loop_
_atom_site_type_symbol
_atom_site_label
_atom_site_fract_x
_atom_site_fract_y
_atom_site_fract_z
Si Si1 0.370752 0.148701 0.148406
Si Si2 0.247090 0.429557 0.077444
Si Si3 0.115503 0.988329 0.812551
Si Si4 0.019063 0.223258 0.072829
Si Si5 0.002997 0.108037 0.886022
Si Si6 0.065129 0.822660 0.281160
Si Si7 0.757550 0.925524 0.120749
Si Si8 0.333430 0.045299 0.730368
O O1 0.320166 0.040989 0.107568
O O2 0.406516 0.044848 0.216250
O O3 0.414740 0.207817 0.071587
O O4 0.345086 0.280638 0.211599
O O5 0.250000 0.250000 0.079174
O O6 0.295403 0.508539 0.143006
O O7 0.256469 0.496478 0.978507
O O8 0.072964 0.069960 0.883501
O O9 0.182260 0.028915 0.832410
O O10 0.109146 0.810670 0.806326
O O11 0.976899 0.333346 0.131229
O O12 0.992296 0.209254 0.973584
O O13 0.027834 0.055728 0.112482
O O14 0.978517 0.204401 0.803064
O O15 0.104868 0.963737 0.252033
O O16 0.750000 0.750000 0.111343
O O17 0.704804 0.985758 0.181508
#
# Coordination Sequence:
#
# PCOD8229002 Si02
#       8
#     8   8   8   8   8   8   8   8
#     4  11  19  39  64  92 122 164 215 263 313 382
#     4   9  21  35  62  96 119 157 219 265 314 382
#     4  11  23  39  66  89 126 166 213 263 323 384
#     4  10  22  39  66  95 126 171 222 254 322 396
#     4  10  22  41  64  93 129 175 210 265 323 390
#     4  11  24  41  62  95 130 170 213 263 325 389
#     4  11  21  39  63  96 124 163 220 269 317 381
#     4  11  21  39  65  87 127 169 205 265 328 379
#
# _framework density 21.11748
#
# number of rings (size 3 to 8) (size 9 to 14) (size 15 to 20)
#    0.000    1.500    5.000    0.375    5.250    1.500 
#    2.250    0.625    2.750    0.000    0.000    0.000 
#    0.000    0.000    0.000    0.000    0.000    0.000 
#
# Total GULP energy -792940.078479 kJ/mol
# GULP energy per Si atom -12389.688726 kJ/mol
# Density = 2.106942 g / cm^3
# Si number density = 21.117480 Si / 1000 Ang^3
#
#
#
# Elastic Constant Matrix: (Units=GPa)
#
#
# Indices 1 2 3 4 5 6 
#
# 1 91.7193 21.4295 31.4046 0.0000 0.0000 0.0000
# 2 21.4295 22.9225 16.8924 0.0000 0.0000 0.0000
# 3 31.4046 16.8924 136.0094 0.0000 0.0000 0.0000
# 4 0.0000 0.0000 0.0000 16.4893 0.0000 0.0000
# 5 0.0000 0.0000 0.0000 0.0000 24.4214 0.0000
# 6 0.0000 0.0000 0.0000 0.0000 0.0000 26.1760
#
#
#
# Elastic Compliance Matrix: (Units=1/GPa)
#
#
# Indices 1 2 3 4 5 6 
#
# 1 0.014345 -0.012075 -0.001812 0.000000 0.000000 0.000000
# 2 -0.012075 0.058184 -0.004438 0.000000 0.000000 0.000000
# 3 -0.001812 -0.004438 0.008322 0.000000 0.000000 0.000000
# 4 0.000000 0.000000 0.000000 0.060645 0.000000 0.000000
# 5 0.000000 0.000000 0.000000 0.000000 0.040948 0.000000
# 6 0.000000 0.000000 0.000000 0.000000 0.000000 0.038203
#
#
# Mechanical properties :
#
#
# Convention : Reuss Voigt Hill
#
# Bulk Modulus (GPa) = 22.62447 43.34491 32.98469
# Shear Modulus (GPa) = 18.38022 25.47898 21.92960
#
# Velocity S-wave (km/s) = 2.95342 3.47729 3.22601
# Velocity P-wave (km/s) = 4.72939 6.05741 5.43412
#
# Compressibility (1/GPa) = 0.04419992
#
# Stress axis : x y z
#
# Youngs Moduli (GPa) = 69.71286 17.18677 120.16052
#
# Poissons Ratio (x) = 0.20752 0.21779
# Poissons Ratio (y) = 0.84175 0.53333
# Poissons Ratio (z) = 0.12635 0.07628
#
# Static dielectric constant tensor:
#      x y z
#    x 3.944770 0.000000 0.000000 
#    y 0.000000 3.373020 0.000000 
#    z 0.000000 0.000000 4.025990 
# 
# 
# High freq. dielectric constant tensor:
#      x y z
#    x 1.838990 0.000000 0.000000 
#    y 0.000000 1.780290 0.000000 
#    z 0.000000 0.000000 1.835480 
# 
# From -- ./inp_files/13303.got.cif
#   From: 2010.03.12/outbox.cif.g09.slc.cpg/sg56_7_cif.got.tgz:13303.got - 2010.04.16 15:33:40.
