data_PCOD8229098
_publ_section_title
;
Structure prediction by ZEFSAII (Michael W. Deem and Ramdas Pophale) SiO2 
 PCOD8229098
Probable space group: P C C N
;
_chemical_formula_sum "Si O2"
_cell_formula_units_Z 40
_cell_length_a 6.957806
_cell_length_b 13.774717
_cell_length_c 19.546902
_cell_angle_alpha 90.000000
_cell_angle_beta 90.000000
_cell_angle_gamma 90.000000
_cell_volume 1873.410440
_symmetry_space_group_name_H-M "P C C N"
_symmetry_group_IT_number 56
_symmetry_cell_setting 'orthorhombic'
loop_
_space_group_symop_operation_xyz
x,y,z
1/2-x,1/2-y,z
1/2+x,-y,1/2-z
-x,1/2+y,1/2-z
-x,-y,-z
1/2+x,1/2+y,-z
1/2-x,y,1/2+z
x,1/2-y,1/2+z
loop_
_atom_site_type_symbol
_atom_site_label
_atom_site_fract_x
_atom_site_fract_y
_atom_site_fract_z
Si Si1 0.332046 0.507074 0.412026
Si Si2 0.500005 0.589184 0.817986
Si Si3 0.250000 0.750000 0.586032
Si Si4 0.250000 0.250000 0.116996
Si Si5 0.176153 0.565669 0.176557
Si Si6 0.461004 0.349864 0.499364
O O1 0.509648 0.496957 0.359591
O O2 0.308980 0.400189 0.446771
O O3 0.371510 0.576503 0.477119
O O4 0.143993 0.547595 0.375194
O O5 0.595312 0.691687 0.838193
O O6 0.656597 0.507752 0.804338
O O7 0.395110 0.612664 0.747131
O O8 0.238725 0.652348 0.630637
O O9 0.440394 0.742064 0.538263
O O10 0.142388 0.325351 0.069273
#
# Coordination Sequence:
#
# PCOD8229098 Si02
#       6
#     8   8   4   4   8   8
#     4  10  22  44  69  92 139 174 216 281 332 398
#     4  12  25  43  70  95 136 175 231 278 332 405
#     4  10  24  42  66  96 136 174 220 280 332 396
#     4  12  26  40  70 106 130 178 224 272 346 398
#     4  11  24  45  65 100 129 182 227 275 339 392
#     4  10  22  42  64 103 136 170 223 270 341 404
#
# _framework density 21.351433
#
# number of rings (size 3 to 8) (size 9 to 14) (size 15 to 20)
#    0.000    1.200    4.000    1.200    2.800    4.000 
#    0.000    0.000    0.000    0.000    0.000    0.000 
#    0.000    0.000    0.000    0.000    0.000    0.000 
#
# Total GULP energy -495860.321102 kJ/mol
# GULP energy per Si atom -12396.508028 kJ/mol
# Density = 2.130284 g / cm^3
# Si number density = 21.351433 Si / 1000 Ang^3
#
#
#
# Elastic Constant Matrix: (Units=GPa)
#
#
# Indices 1 2 3 4 5 6 
#
# 1 96.9927 54.7548 51.5733 0.0000 0.0000 0.0000
# 2 54.7548 85.6502 43.9577 0.0000 0.0000 0.0000
# 3 51.5733 43.9577 130.9530 0.0000 0.0000 0.0000
# 4 0.0000 0.0000 0.0000 34.2697 0.0000 0.0000
# 5 0.0000 0.0000 0.0000 0.0000 55.6260 0.0000
# 6 0.0000 0.0000 0.0000 0.0000 0.0000 42.9401
#
#
#
# Elastic Compliance Matrix: (Units=1/GPa)
#
#
# Indices 1 2 3 4 5 6 
#
# 1 0.017573 -0.009281 -0.003805 0.000000 0.000000 0.000000
# 2 -0.009281 0.019007 -0.002725 0.000000 0.000000 0.000000
# 3 -0.003805 -0.002725 0.010050 0.000000 0.000000 0.000000
# 4 0.000000 0.000000 0.000000 0.029180 0.000000 0.000000
# 5 0.000000 0.000000 0.000000 0.000000 0.017977 0.000000
# 6 0.000000 0.000000 0.000000 0.000000 0.000000 0.023288
#
#
# Mechanical properties :
#
#
# Convention : Reuss Voigt Hill
#
# Bulk Modulus (GPa) = 66.63617 68.24084 67.43850
# Shear Modulus (GPa) = 32.53077 37.45450 34.99264
#
# Velocity S-wave (km/s) = 3.90755 4.19285 4.05271
# Velocity P-wave (km/s) = 7.18579 7.44783 7.31798
#
# Compressibility (1/GPa) = 0.01500687
#
# Stress axis : x y z
#
# Youngs Moduli (GPa) = 56.90610 52.61160 99.50537
#
# Poissons Ratio (x) = 0.48829 0.37865
# Poissons Ratio (y) = 0.52815 0.27116
# Poissons Ratio (z) = 0.21654 0.14337
#
# Static dielectric constant tensor:
#      x y z
#    x 3.768300 0.000000 0.000000 
#    y 0.000000 3.896200 0.000000 
#    z 0.000000 0.000000 3.999080 
# 
# 
# High freq. dielectric constant tensor:
#      x y z
#    x 1.826250 0.000000 0.000000 
#    y 0.000000 1.840190 0.000000 
#    z 0.000000 0.000000 1.856390 
# 
# From -- ./inp_files/20013.got.cif
#   From: 2010.03.12/outbox.cif.g09.slc.cpg/sg56_11_cif.got.tgz:20013.got - 2010.04.16 15:33:40.
