data_PCOD8229202
_publ_section_title
;
Structure prediction by ZEFSAII (Michael W. Deem and Ramdas Pophale) SiO2 
 PCOD8229202
Probable space group: P C C N
;
_chemical_formula_sum "Si O2"
_cell_formula_units_Z 64
_cell_length_a 22.505985
_cell_length_b 8.509794
_cell_length_c 15.620146
_cell_angle_alpha 90.000000
_cell_angle_beta 90.000000
_cell_angle_gamma 90.000000
_cell_volume 2991.590607
_symmetry_space_group_name_H-M "P C C N"
_symmetry_group_IT_number 56
_symmetry_cell_setting 'orthorhombic'
loop_
_space_group_symop_operation_xyz
x,y,z
1/2-x,1/2-y,z
1/2+x,-y,1/2-z
-x,1/2+y,1/2-z
-x,-y,-z
1/2+x,1/2+y,-z
1/2-x,y,1/2+z
x,1/2-y,1/2+z
loop_
_atom_site_type_symbol
_atom_site_label
_atom_site_fract_x
_atom_site_fract_y
_atom_site_fract_z
Si Si1 0.817053 0.694272 0.642118
Si Si2 0.874090 0.124064 0.175726
Si Si3 0.623118 0.130857 0.325974
Si Si4 0.134155 0.354429 0.021098
Si Si5 0.501060 0.516020 0.138188
Si Si6 0.487915 0.249311 0.502546
Si Si7 0.316844 0.186687 0.684881
Si Si8 0.118331 0.806569 0.496015
O O1 0.750000 0.750000 0.629366
O O2 0.824494 0.511633 0.667752
O O3 0.848359 0.732299 0.552662
O O4 0.846816 0.785335 0.722161
O O5 0.861289 0.235308 0.256830
O O6 0.941022 0.052182 0.187441
O O7 0.861805 0.219182 0.089273
O O8 0.626274 0.199720 0.421001
O O9 0.557823 0.054614 0.304257
O O10 0.674863 0.999008 0.329404
O O11 0.063370 0.373092 0.021526
O O12 0.156766 0.532604 0.005049
O O13 0.153368 0.290849 0.112269
O O14 0.519595 0.678800 0.092934
O O15 0.479030 0.393149 0.068341
O O16 0.548686 0.342346 0.515252
O O17 0.250000 0.250000 0.689732
#
# Coordination Sequence:
#
# PCOD8229202 Si02
#       8
#     8   8   8   8   8   8   8   8
#     4  11  25  44  65  91 122 169 221 268 320 380
#     4  11  22  42  65  94 133 170 213 267 326 381
#     4  11  22  42  65  94 133 170 213 267 326 381
#     4  12  20  41  66  92 126 171 218 260 316 387
#     4   9  18  36  60  95 128 168 204 259 318 385
#     4   9  17  35  61  89 131 169 199 256 320 378
#     4  11  25  44  65  91 122 169 221 268 320 380
#     4  10  23  38  60  99 132 168 209 259 323 385
#
# _framework density 21.393303
#
# number of rings (size 3 to 8) (size 9 to 14) (size 15 to 20)
#    0.000    1.500    2.500    3.750    0.000    1.000 
#    9.000   10.000    0.000    0.000    0.000    0.000 
#    0.000    0.000    0.000    0.000    0.000    0.000 
#
# Total GULP energy -793078.740421 kJ/mol
# GULP energy per Si atom -12391.855319 kJ/mol
# Density = 2.134461 g / cm^3
# Si number density = 21.393303 Si / 1000 Ang^3
#
#
#
# Elastic Constant Matrix: (Units=GPa)
#
#
# Indices 1 2 3 4 5 6 
#
# 1 72.7369 30.5289 13.5060 0.0000 0.0000 0.0000
# 2 30.5289 90.6304 -1.0734 0.0000 0.0000 0.0000
# 3 13.5060 -1.0734 81.6581 0.0000 0.0000 0.0000
# 4 0.0000 0.0000 0.0000 10.5576 0.0000 0.0000
# 5 0.0000 0.0000 0.0000 0.0000 17.3682 0.0000
# 6 0.0000 0.0000 0.0000 0.0000 0.0000 32.6787
#
#
#
# Elastic Compliance Matrix: (Units=1/GPa)
#
#
# Indices 1 2 3 4 5 6 
#
# 1 0.016640 -0.005639 -0.002826 0.000000 0.000000 0.000000
# 2 -0.005639 0.012946 0.001103 0.000000 0.000000 0.000000
# 3 -0.002826 0.001103 0.012728 0.000000 0.000000 0.000000
# 4 0.000000 0.000000 0.000000 0.094718 0.000000 0.000000
# 5 0.000000 0.000000 0.000000 0.000000 0.057576 0.000000
# 6 0.000000 0.000000 0.000000 0.000000 0.000000 0.030601
#
#
# Mechanical properties :
#
#
# Convention : Reuss Voigt Hill
#
# Bulk Modulus (GPa) = 36.24510 36.77203 36.50856
# Shear Modulus (GPa) = 20.06982 25.59184 22.83083
#
# Velocity S-wave (km/s) = 3.06622 3.46244 3.27034
# Velocity P-wave (km/s) = 5.43274 5.76286 5.60023
#
# Compressibility (1/GPa) = 0.02758993
#
# Stress axis : x y z
#
# Youngs Moduli (GPa) = 60.09782 77.24256 78.56610
#
# Poissons Ratio (x) = 0.43553 0.22205
# Poissons Ratio (y) = 0.33886 -0.08664
# Poissons Ratio (z) = 0.16985 -0.08518
#
# Static dielectric constant tensor:
#      x y z
#    x 3.779320 0.000000 0.000000 
#    y 0.000000 3.876570 0.000000 
#    z 0.000000 0.000000 4.043360 
# 
# 
# High freq. dielectric constant tensor:
#      x y z
#    x 1.821370 0.000000 0.000000 
#    y 0.000000 1.848230 0.000000 
#    z 0.000000 0.000000 1.840700 
# 
# From -- ./inp_files/13264.got.cif
#   From: 2010.03.12/outbox.cif.g09.slc.cpg/sg56_7_cif.got.tgz:13264.got - 2010.04.16 15:33:40.
