data_PCOD8229473
_publ_section_title
;
Structure prediction by ZEFSAII (Michael W. Deem and Ramdas Pophale) SiO2 
 PCOD8229473
Probable space group: P C C N
;
_chemical_formula_sum "Si O2"
_cell_formula_units_Z 28
_cell_length_a 18.370982
_cell_length_b 7.176108
_cell_length_c 8.898419
_cell_angle_alpha 90.000000
_cell_angle_beta 90.000000
_cell_angle_gamma 90.000000
_cell_volume 1173.097716
_symmetry_space_group_name_H-M "P C C N"
_symmetry_group_IT_number 56
_symmetry_cell_setting 'orthorhombic'
loop_
_space_group_symop_operation_xyz
x,y,z
1/2-x,1/2-y,z
1/2+x,-y,1/2-z
-x,1/2+y,1/2-z
-x,-y,-z
1/2+x,1/2+y,-z
1/2-x,y,1/2+z
x,1/2-y,1/2+z
loop_
_atom_site_type_symbol
_atom_site_label
_atom_site_fract_x
_atom_site_fract_y
_atom_site_fract_z
Si Si1 0.841826 0.424935 0.593854
Si Si2 0.438899 0.263477 0.432176
Si Si3 0.750000 0.250000 0.335418
Si Si4 0.036918 0.644500 0.808651
O O1 0.866215 0.638122 0.565317
O O2 0.812664 0.342180 0.436847
O O3 0.781786 0.412131 0.726460
O O4 0.910389 0.311444 0.652462
O O5 0.461688 0.336030 0.596420
O O6 0.509667 0.155520 0.363678
O O7 0.422758 0.447693 0.332090
#
# Coordination Sequence:
#
# PCOD8229473 Si02
#       4
#     8   8   4   8
#     4  11  23  47  65  96 138 178 223 280 316 411
#     4  11  24  39  70 102 136 159 219 277 356 388
#     4  10  26  44  68  90 138 194 230 256 326 390
#     4  11  23  41  69 109 123 171 209 291 348 397
#
# _framework density 23.868431000000001
#
# number of rings (size 3 to 8) (size 9 to 14) (size 15 to 20)
#    0.000    1.143    2.857    2.571    8.000    0.000 
#    0.000    8.571    0.000    0.000    0.000    0.000 
#    0.000    0.000    0.000    0.000    0.000    0.000 
#
# Total GULP energy -347249.963174 kJ/mol
# GULP energy per Si atom -12401.784399 kJ/mol
# Density = 2.381411 g / cm^3
# Si number density = 23.868431 Si / 1000 Ang^3
#
#
#
# Elastic Constant Matrix: (Units=GPa)
#
#
# Indices 1 2 3 4 5 6 
#
# 1 67.6170 27.6673 22.7719 0.0000 0.0000 0.0000
# 2 27.6673 130.7001 21.0668 0.0000 0.0000 0.0000
# 3 22.7719 21.0668 91.4524 0.0000 0.0000 0.0000
# 4 0.0000 0.0000 0.0000 18.3558 0.0000 0.0000
# 5 0.0000 0.0000 0.0000 0.0000 29.4676 0.0000
# 6 0.0000 0.0000 0.0000 0.0000 0.0000 51.2058
#
#
#
# Elastic Compliance Matrix: (Units=1/GPa)
#
#
# Indices 1 2 3 4 5 6 
#
# 1 0.017256 -0.003074 -0.003589 0.000000 0.000000 0.000000
# 2 -0.003074 0.008494 -0.001191 0.000000 0.000000 0.000000
# 3 -0.003589 -0.001191 0.012103 0.000000 0.000000 0.000000
# 4 0.000000 0.000000 0.000000 0.054479 0.000000 0.000000
# 5 0.000000 0.000000 0.000000 0.000000 0.033936 0.000000
# 6 0.000000 0.000000 0.000000 0.000000 0.000000 0.019529
#
#
# Mechanical properties :
#
#
# Convention : Reuss Voigt Hill
#
# Bulk Modulus (GPa) = 45.15860 48.08683 46.62271
# Shear Modulus (GPa) = 29.60596 34.35673 31.98135
#
# Velocity S-wave (km/s) = 3.52573 3.79809 3.66444
# Velocity P-wave (km/s) = 5.96114 6.27888 6.12207
#
# Compressibility (1/GPa) = 0.02214418
#
# Stress axis : x y z
#
# Youngs Moduli (GPa) = 57.95203 117.73172 82.62703
#
# Poissons Ratio (x) = 0.36195 0.29651
# Poissons Ratio (y) = 0.17817 0.09842
# Poissons Ratio (z) = 0.20796 0.14023
#
# Static dielectric constant tensor:
#      x y z
#    x 4.079550 0.000000 0.000000 
#    y 0.000000 4.312380 0.000000 
#    z 0.000000 0.000000 4.662890 
# 
# 
# High freq. dielectric constant tensor:
#      x y z
#    x 1.919940 0.000000 0.000000 
#    y 0.000000 1.941910 0.000000 
#    z 0.000000 0.000000 1.968480 
# 
# From -- ./inp_files/1872.got.cif
#   From: 2010.03.12/outbox.cif.g09.slc.cpg/sg56_1_cif.got.tgz:1872.got - 2010.04.16 15:33:40.
