data_PCOD8229879
_publ_section_title
;
Structure prediction by ZEFSAII (Michael W. Deem and Ramdas Pophale) SiO2 
 PCOD8229879
Probable space group: P B C M
;
_chemical_formula_sum "Si O2"
_cell_formula_units_Z 56
_cell_length_a 18.690620
_cell_length_b 7.974482
_cell_length_c 21.145959
_cell_angle_alpha 90.000000
_cell_angle_beta 90.000000
_cell_angle_gamma 90.000000
_cell_volume 3151.763167
_symmetry_space_group_name_H-M "P B C M"
_symmetry_group_IT_number 57
_symmetry_cell_setting 'orthorhombic'
loop_
_space_group_symop_operation_xyz
x,y,z
-x,-y,1/2+z
x,1/2-y,-z
-x,1/2+y,1/2-z
-x,-y,-z
x,y,1/2-z
-x,1/2+y,z
x,1/2-y,1/2+z
loop_
_atom_site_type_symbol
_atom_site_label
_atom_site_fract_x
_atom_site_fract_y
_atom_site_fract_z
Si Si1 0.846709 0.081370 0.433605
Si Si2 0.530701 0.566212 0.138675
Si Si3 0.606639 0.251153 0.819171
Si Si4 0.565774 0.643451 0.940300
Si Si5 0.917060 0.100689 0.570373
Si Si6 0.922978 0.731203 0.572309
Si Si7 0.681192 0.371771 0.557381
O O1 0.895376 0.083767 0.496866
O O2 0.865670 0.257133 0.397352
O O3 0.763316 0.077097 0.447814
O O4 0.870698 0.911374 0.396457
O O5 0.580386 0.441422 0.178120
O O6 0.460736 0.623270 0.177541
O O7 0.577125 0.728120 0.118637
O O8 0.502009 0.474553 0.075015
O O9 0.642748 0.276974 0.750000
O O10 0.663281 0.287339 0.874958
O O11 0.638471 0.543567 0.951638
O O12 0.542683 0.750000 0.000000
O O13 0.996716 0.168020 0.578343
O O14 0.911433 0.916561 0.603780
O O15 0.899739 0.750000 0.500000
O O16 0.659939 0.250000 0.500000
#
# Coordination Sequence:
#
# PCOD8229879 Si02
#       7
#     8   8   8   8   8   8   8
#     4  10  18  28  40  63 100 135 166 203 251 305
#     4   9  19  34  53  77  93 124 173 226 258 299
#     4  10  20  36  57  76  98 129 171 217 265 311
#     4  10  19  31  50  73 105 134 165 206 264 318
#     4  10  15  25  42  62  93 134 169 211 252 298
#     4  10  15  23  42  65  89 135 169 212 256 297
#     4  11  22  35  48  73 109 141 168 205 257 324
#
# _framework density 17.767831999999999
#
# number of rings (size 3 to 8) (size 9 to 14) (size 15 to 20)
#    0.000    2.000    4.286    2.571    0.000    5.714 
#    2.571    0.714    0.000    0.000    0.000    0.000 
#    0.000    1.143    0.000    0.000    0.000    0.286 
#
# Total GULP energy -693788.086434 kJ/mol
# GULP energy per Si atom -12389.072972 kJ/mol
# Density = 1.772739 g / cm^3
# Si number density = 17.767832 Si / 1000 Ang^3
#
#
#
# Elastic Constant Matrix: (Units=GPa)
#
#
# Indices 1 2 3 4 5 6 
#
# 1 65.0030 42.0037 18.8438 0.0000 0.0000 0.0000
# 2 42.0037 159.2873 22.1989 0.0000 0.0000 0.0000
# 3 18.8438 22.1989 68.6041 0.0000 0.0000 0.0000
# 4 0.0000 0.0000 0.0000 8.6076 0.0000 0.0000
# 5 0.0000 0.0000 0.0000 0.0000 1.5602 0.0000
# 6 0.0000 0.0000 0.0000 0.0000 0.0000 26.5958
#
#
#
# Elastic Compliance Matrix: (Units=1/GPa)
#
#
# Indices 1 2 3 4 5 6 
#
# 1 0.019474 -0.004597 -0.003861 0.000000 0.000000 0.000000
# 2 -0.004597 0.007660 -0.001216 0.000000 0.000000 0.000000
# 3 -0.003861 -0.001216 0.016030 0.000000 0.000000 0.000000
# 4 0.000000 0.000000 0.000000 0.116176 0.000000 0.000000
# 5 0.000000 0.000000 0.000000 0.000000 0.640956 0.000000
# 6 0.000000 0.000000 0.000000 0.000000 0.000000 0.037600
#
#
# Mechanical properties :
#
#
# Convention : Reuss Voigt Hill
#
# Bulk Modulus (GPa) = 41.98985 50.99859 46.49422
# Shear Modulus (GPa) = 5.77912 21.34259 13.56086
#
# Velocity S-wave (km/s) = 1.80545 3.46958 2.76565
# Velocity P-wave (km/s) = 5.29434 6.69446 6.03514
#
# Compressibility (1/GPa) = 0.02381528
#
# Stress axis : x y z
#
# Youngs Moduli (GPa) = 51.35098 130.55451 62.38135
#
# Poissons Ratio (x) = 0.60017 0.24088
# Poissons Ratio (y) = 0.23606 0.07584
# Poissons Ratio (z) = 0.19829 0.15873
#
# Static dielectric constant tensor:
#      x y z
#    x 3.033570 0.000000 0.000000 
#    y 0.000000 4.415230 0.000000 
#    z 0.000000 0.000000 2.756410 
# 
# 
# High freq. dielectric constant tensor:
#      x y z
#    x 1.667210 0.000000 0.000000 
#    y 0.000000 1.726670 0.000000 
#    z 0.000000 0.000000 1.612750 
# 
# From -- ./inp_files/25569.got.cif
#   From: 2010.03.12/outbox.cif.g09.slc.cpg/sg57_13_cif.got.tgz:25569.got - 2010.04.16 15:48:40.
