data_PCOD8229721
_publ_section_title
;
Structure prediction by ZEFSAII (Michael W. Deem and Ramdas Pophale) SiO2 
 PCOD8229721
Probable space group: P C C N
;
_chemical_formula_sum "Si O2"
_cell_formula_units_Z 48
_cell_length_a 13.578196
_cell_length_b 11.698439
_cell_length_c 14.252532
_cell_angle_alpha 90.000000
_cell_angle_beta 90.000000
_cell_angle_gamma 90.000000
_cell_volume 2263.924884
_symmetry_space_group_name_H-M "P C C N"
_symmetry_group_IT_number 56
_symmetry_cell_setting 'orthorhombic'
loop_
_space_group_symop_operation_xyz
x,y,z
1/2-x,1/2-y,z
1/2+x,-y,1/2-z
-x,1/2+y,1/2-z
-x,-y,-z
1/2+x,1/2+y,-z
1/2-x,y,1/2+z
x,1/2-y,1/2+z
loop_
_atom_site_type_symbol
_atom_site_label
_atom_site_fract_x
_atom_site_fract_y
_atom_site_fract_z
Si Si1 0.514392 0.727057 0.117785
Si Si2 0.129550 0.446336 0.831987
Si Si3 0.539158 0.310500 0.677671
Si Si4 0.673492 0.561220 0.047941
Si Si5 0.658880 0.680202 0.852595
Si Si6 0.647848 0.196711 0.526171
O O1 0.579361 0.839606 0.119218
O O2 0.452561 0.707720 0.211821
O O3 0.584613 0.617323 0.105612
O O4 0.438676 0.750291 0.035170
O O5 0.061586 0.557531 0.847908
O O6 0.234015 0.457239 0.883825
O O7 0.139229 0.423551 0.720008
O O8 0.433585 0.266715 0.638849
O O9 0.625697 0.233027 0.633213
O O10 0.640905 0.437865 0.012563
O O11 0.692191 0.635154 0.954470
O O12 0.750000 0.750000 0.809422
O O13 0.750000 0.250000 0.491652
#
# Coordination Sequence:
#
# PCOD8229721 Si02
#       6
#     8   8   8   8   8   8
#     4  11  25  43  74  98 134 184 233 276 351 410
#     4  11  24  45  69 107 137 176 231 291 342 414
#     4  11  25  45  67  99 141 178 230 283 350 407
#     4  12  24  45  73  98 142 178 234 285 343 418
#     4  11  24  45  74 104 137 185 235 287 349 413
#     4  12  26  46  64 102 139 182 228 286 349 414
#
# _framework density 21.202117000000001
#
# number of rings (size 3 to 8) (size 9 to 14) (size 15 to 20)
#    0.000    0.667    3.333    5.000    4.667    2.667 
#    3.000    0.000    0.000    0.000    0.000    0.000 
#    0.000    0.000    0.000    0.000    0.000    0.000 
#
# Total GULP energy -595315.460735 kJ/mol
# GULP energy per Si atom -12402.405432 kJ/mol
# Density = 2.115386 g / cm^3
# Si number density = 21.202117 Si / 1000 Ang^3
#
#
#
# Elastic Constant Matrix: (Units=GPa)
#
#
# Indices 1 2 3 4 5 6 
#
# 1 96.3726 25.9958 28.9475 0.0000 0.0000 0.0000
# 2 25.9958 100.7373 18.2679 0.0000 0.0000 0.0000
# 3 28.9475 18.2679 101.3090 0.0000 0.0000 0.0000
# 4 0.0000 0.0000 0.0000 21.2386 0.0000 0.0000
# 5 0.0000 0.0000 0.0000 0.0000 21.4972 0.0000
# 6 0.0000 0.0000 0.0000 0.0000 0.0000 32.9862
#
#
#
# Elastic Compliance Matrix: (Units=1/GPa)
#
#
# Indices 1 2 3 4 5 6 
#
# 1 0.011951 -0.002548 -0.002955 0.000000 0.000000 0.000000
# 2 -0.002548 0.010806 -0.001220 0.000000 0.000000 0.000000
# 3 -0.002955 -0.001220 0.010935 0.000000 0.000000 0.000000
# 4 0.000000 0.000000 0.000000 0.047084 0.000000 0.000000
# 5 0.000000 0.000000 0.000000 0.000000 0.046518 0.000000
# 6 0.000000 0.000000 0.000000 0.000000 0.000000 0.030316
#
#
# Mechanical properties :
#
#
# Convention : Reuss Voigt Hill
#
# Bulk Modulus (GPa) = 49.39625 49.42682 49.41153
# Shear Modulus (GPa) = 28.12049 30.15824 29.13936
#
# Velocity S-wave (km/s) = 3.64580 3.77558 3.71126
# Velocity P-wave (km/s) = 6.40865 6.50919 6.45912
#
# Compressibility (1/GPa) = 0.02024445
#
# Stress axis : x y z
#
# Youngs Moduli (GPa) = 83.67162 92.54386 91.44670
#
# Poissons Ratio (x) = 0.23582 0.27027
# Poissons Ratio (y) = 0.21321 0.11160
# Poissons Ratio (z) = 0.24729 0.11294
#
# Static dielectric constant tensor:
#      x y z
#    x 3.864240 0.000000 0.000000 
#    y 0.000000 3.906300 0.000000 
#    z 0.000000 0.000000 3.876370 
# 
# 
# High freq. dielectric constant tensor:
#      x y z
#    x 1.837800 0.000000 0.000000 
#    y 0.000000 1.838310 0.000000 
#    z 0.000000 0.000000 1.841620 
# 
# From -- ./inp_files/12206.got.cif
#   From: 2010.03.12/outbox.cif.g09.slc.cpg/sg56_7_cif.got.tgz:12206.got - 2010.04.16 15:33:40.
