data_PCOD8229008
_publ_section_title
;
Structure prediction by ZEFSAII (Michael W. Deem and Ramdas Pophale) SiO2 
 PCOD8229008
Probable space group: P C C N
;
_chemical_formula_sum "Si O2"
_cell_formula_units_Z 60
_cell_length_a 11.356442
_cell_length_b 9.038570
_cell_length_c 28.586304
_cell_angle_alpha 90.000000
_cell_angle_beta 90.000000
_cell_angle_gamma 90.000000
_cell_volume 2934.269645
_symmetry_space_group_name_H-M "P C C N"
_symmetry_group_IT_number 56
_symmetry_cell_setting 'orthorhombic'
loop_
_space_group_symop_operation_xyz
x,y,z
1/2-x,1/2-y,z
1/2+x,-y,1/2-z
-x,1/2+y,1/2-z
-x,-y,-z
1/2+x,1/2+y,-z
1/2-x,y,1/2+z
x,1/2-y,1/2+z
loop_
_atom_site_type_symbol
_atom_site_label
_atom_site_fract_x
_atom_site_fract_y
_atom_site_fract_z
Si Si1 0.067667 0.628075 0.973465
Si Si2 0.983695 0.538593 0.107361
Si Si3 0.059451 0.462328 0.786764
Si Si4 0.750000 0.750000 0.683245
Si Si5 0.784249 0.095579 0.440774
Si Si6 0.956980 0.935249 0.951944
Si Si7 0.456076 0.362403 0.872032
Si Si8 0.886235 0.284441 0.285476
O O1 0.108139 0.556045 0.924019
O O2 0.981816 0.762076 0.958155
O O3 0.175299 0.661203 0.008096
O O4 0.000000 0.500000 0.000000
O O5 0.117371 0.509791 0.089519
O O6 0.965106 0.486499 0.160221
O O7 0.959728 0.711571 0.098123
O O8 0.168541 0.349295 0.783864
O O9 0.088716 0.602745 0.756175
O O10 0.945188 0.370950 0.769933
O O11 0.827542 0.635409 0.652167
O O12 0.750000 0.250000 0.414279
O O13 0.679743 0.976694 0.445353
O O14 0.027701 0.999561 0.906833
O O15 0.000000 0.000000 0.000000
O O16 0.558875 0.353313 0.832769
O O17 0.750000 0.250000 0.293204
#
# Coordination Sequence:
#
# PCOD8229008 Si02
#       8
#     8   8   8   4   8   8   8   8
#     4  10  22  40  56  89 128 164 210 266 323 383
#     4   9  20  39  60  84 124 167 208 266 325 381
#     4  10  23  42  67  96 130 173 222 269 339 396
#     4   8  20  42  62  90 132 174 210 276 326 392
#     4  11  20  38  64  85 130 165 212 277 313 387
#     4  12  23  36  63  96 120 168 224 262 325 393
#     4  10  22  40  65  91 125 172 224 260 332 394
#     4  10  24  41  71  98 132 177 218 274 341 404
#
# _framework density 20.448018000000001
#
# number of rings (size 3 to 8) (size 9 to 14) (size 15 to 20)
#    0.000    2.133    2.667    0.800    7.467    5.333 
#    0.000    0.000    5.867    0.000    0.000    0.000 
#    0.000    0.000    0.000    0.000    0.000    0.000 
#
# Total GULP energy -743307.473897 kJ/mol
# GULP energy per Si atom -12388.457898 kJ/mol
# Density = 2.040148 g / cm^3
# Si number density = 20.448018 Si / 1000 Ang^3
#
#
#
# Elastic Constant Matrix: (Units=GPa)
#
#
# Indices 1 2 3 4 5 6 
#
# 1 98.6871 17.3562 21.8351 0.0000 0.0000 0.0000
# 2 17.3562 96.7744 46.3122 0.0000 0.0000 0.0000
# 3 21.8351 46.3122 103.6038 0.0000 0.0000 0.0000
# 4 0.0000 0.0000 0.0000 41.4594 0.0000 0.0000
# 5 0.0000 0.0000 0.0000 0.0000 19.6544 0.0000
# 6 0.0000 0.0000 0.0000 0.0000 0.0000 23.9558
#
#
#
# Elastic Compliance Matrix: (Units=1/GPa)
#
#
# Indices 1 2 3 4 5 6 
#
# 1 0.010715 -0.001070 -0.001780 0.000000 0.000000 0.000000
# 2 -0.001070 0.013252 -0.005698 0.000000 0.000000 0.000000
# 3 -0.001780 -0.005698 0.012575 0.000000 0.000000 0.000000
# 4 0.000000 0.000000 0.000000 0.024120 0.000000 0.000000
# 5 0.000000 0.000000 0.000000 0.000000 0.050879 0.000000
# 6 0.000000 0.000000 0.000000 0.000000 0.000000 0.041744
#
#
# Mechanical properties :
#
#
# Convention : Reuss Voigt Hill
#
# Bulk Modulus (GPa) = 51.42656 52.23026 51.82841
# Shear Modulus (GPa) = 28.27051 31.25139 29.76095
#
# Velocity S-wave (km/s) = 3.72231 3.91363 3.81917
# Velocity P-wave (km/s) = 6.60898 6.78383 6.69698
#
# Compressibility (1/GPa) = 0.01944521
#
# Stress axis : x y z
#
# Youngs Moduli (GPa) = 93.32686 75.45905 79.52560
#
# Poissons Ratio (x) = 0.08073 0.14156
# Poissons Ratio (y) = 0.09985 0.45317
# Poissons Ratio (z) = 0.16612 0.43000
#
# Static dielectric constant tensor:
#      x y z
#    x 5.177870 0.000000 0.000000 
#    y 0.000000 5.534010 0.000000 
#    z 0.000000 0.000000 4.013600 
# 
# 
# High freq. dielectric constant tensor:
#      x y z
#    x 1.802560 0.000000 0.000000 
#    y 0.000000 1.789410 0.000000 
#    z 0.000000 0.000000 1.798840 
# 
# From -- ./inp_files/23496.got.cif
#   From: 2010.03.12/outbox.cif.g09.slc.cpg/sg56_12_cif.got.tgz:23496.got - 2010.04.16 15:33:40.
