data_PCOD8229233
_publ_section_title
;
Structure prediction by ZEFSAII (Michael W. Deem and Ramdas Pophale) SiO2 
 PCOD8229233
Probable space group: P C C N
;
_chemical_formula_sum "Si O2"
_cell_formula_units_Z 32
_cell_length_a 9.998836
_cell_length_b 15.275170
_cell_length_c 9.665109
_cell_angle_alpha 90.000000
_cell_angle_beta 90.000000
_cell_angle_gamma 90.000000
_cell_volume 1476.189982
_symmetry_space_group_name_H-M "P C C N"
_symmetry_group_IT_number 56
_symmetry_cell_setting 'orthorhombic'
loop_
_space_group_symop_operation_xyz
x,y,z
1/2-x,1/2-y,z
1/2+x,-y,1/2-z
-x,1/2+y,1/2-z
-x,-y,-z
1/2+x,1/2+y,-z
1/2-x,y,1/2+z
x,1/2-y,1/2+z
loop_
_atom_site_type_symbol
_atom_site_label
_atom_site_fract_x
_atom_site_fract_y
_atom_site_fract_z
Si Si1 0.402651 0.723130 0.775090
Si Si2 0.946125 0.471446 0.646266
Si Si3 0.019024 0.850651 0.493475
Si Si4 0.152869 0.488746 0.885864
O O1 0.250000 0.750000 0.795052
O O2 0.430613 0.632406 0.851231
O O3 0.439692 0.717494 0.613717
O O4 0.493498 0.796920 0.850562
O O5 0.802434 0.516840 0.672327
O O6 0.000000 0.500000 0.500000
O O7 0.048738 0.504030 0.761549
O O8 0.879027 0.898728 0.531108
O O9 0.132820 0.927101 0.486230
#
# Coordination Sequence:
#
# PCOD8229233 Si02
#       4
#     8   8   8   8
#     4  11  22  39  68 103 131 179 235 285 333 411
#     4  11  26  42  73 102 138 183 233 284 352 416
#     4  10  23  40  70  97 136 171 232 287 338 396
#     4  10  24  44  67 102 139 182 227 284 352 414
#
# _framework density 21.677427000000002
#
# number of rings (size 3 to 8) (size 9 to 14) (size 15 to 20)
#    0.000    1.500    2.500    0.750   14.000    0.000 
#    0.000    1.250    0.000    0.000    0.000    0.000 
#    0.000    0.000    0.000    0.000    0.000    0.000 
#
# Total GULP energy -396821.241701 kJ/mol
# GULP energy per Si atom -12400.663803 kJ/mol
# Density = 2.162809 g / cm^3
# Si number density = 21.677427 Si / 1000 Ang^3
#
#
#
# Elastic Constant Matrix: (Units=GPa)
#
#
# Indices 1 2 3 4 5 6 
#
# 1 147.3702 31.9474 49.5215 0.0000 0.0000 0.0000
# 2 31.9474 97.6905 51.9610 0.0000 0.0000 0.0000
# 3 49.5215 51.9610 127.8445 0.0000 0.0000 0.0000
# 4 0.0000 0.0000 0.0000 51.9809 0.0000 0.0000
# 5 0.0000 0.0000 0.0000 0.0000 32.1918 0.0000
# 6 0.0000 0.0000 0.0000 0.0000 0.0000 30.5094
#
#
#
# Elastic Compliance Matrix: (Units=1/GPa)
#
#
# Indices 1 2 3 4 5 6 
#
# 1 0.007914 -0.001222 -0.002569 0.000000 0.000000 0.000000
# 2 -0.001222 0.013248 -0.004911 0.000000 0.000000 0.000000
# 3 -0.002569 -0.004911 0.010813 0.000000 0.000000 0.000000
# 4 0.000000 0.000000 0.000000 0.019238 0.000000 0.000000
# 5 0.000000 0.000000 0.000000 0.000000 0.031064 0.000000
# 6 0.000000 0.000000 0.000000 0.000000 0.000000 0.032777
#
#
# Mechanical properties :
#
#
# Convention : Reuss Voigt Hill
#
# Bulk Modulus (GPa) = 68.62770 71.08499 69.85635
# Shear Modulus (GPa) = 36.41272 38.90145 37.65709
#
# Velocity S-wave (km/s) = 4.10293 4.24082 4.17244
# Velocity P-wave (km/s) = 7.36021 7.53941 7.45035
#
# Compressibility (1/GPa) = 0.01457137
#
# Stress axis : x y z
#
# Youngs Moduli (GPa) = 126.36315 75.48167 92.47890
#
# Poissons Ratio (x) = 0.09221 0.23757
# Poissons Ratio (y) = 0.15436 0.45420
# Poissons Ratio (z) = 0.32462 0.37072
#
# Static dielectric constant tensor:
#      x y z
#    x 3.847120 0.000000 0.000000 
#    y 0.000000 4.138220 0.000000 
#    z 0.000000 0.000000 4.104380 
# 
# 
# High freq. dielectric constant tensor:
#      x y z
#    x 1.828490 0.000000 0.000000 
#    y 0.000000 1.857080 0.000000 
#    z 0.000000 0.000000 1.863350 
# 
# From -- ./inp_files/2441.got.cif
#   From: 2010.03.12/outbox.cif.g09.slc.cpg/sg56_2_cif.got.tgz:2441.got - 2010.04.16 15:33:40.
