data_PCOD8229036
_publ_section_title
;
Structure prediction by ZEFSAII (Michael W. Deem and Ramdas Pophale) SiO2 
 PCOD8229036
Probable space group: P C C N
;
_chemical_formula_sum "Si O2"
_cell_formula_units_Z 32
_cell_length_a 5.193862
_cell_length_b 14.104958
_cell_length_c 22.795049
_cell_angle_alpha 90.000000
_cell_angle_beta 90.000000
_cell_angle_gamma 90.000000
_cell_volume 1669.947176
_symmetry_space_group_name_H-M "P C C N"
_symmetry_group_IT_number 56
_symmetry_cell_setting 'orthorhombic'
loop_
_space_group_symop_operation_xyz
x,y,z
1/2-x,1/2-y,z
1/2+x,-y,1/2-z
-x,1/2+y,1/2-z
-x,-y,-z
1/2+x,1/2+y,-z
1/2-x,y,1/2+z
x,1/2-y,1/2+z
loop_
_atom_site_type_symbol
_atom_site_label
_atom_site_fract_x
_atom_site_fract_y
_atom_site_fract_z
Si Si1 0.998802 0.811502 0.227424
Si Si2 0.044822 0.496963 0.931401
Si Si3 0.554976 0.033424 0.368898
Si Si4 0.660777 0.647447 0.355388
O O1 0.250000 0.750000 0.215167
O O2 0.001001 0.904757 0.187998
O O3 0.750000 0.750000 0.211324
O O4 0.992456 0.845183 0.294511
O O5 0.321942 0.454493 0.915087
O O6 0.817187 0.433319 0.902038
O O7 0.028205 0.603872 0.904856
O O8 0.000000 0.500000 0.000000
O O9 0.593227 0.923671 0.347905
O O10 0.750000 0.750000 0.377423
#
# Coordination Sequence:
#
# PCOD8229036 Si02
#       4
#     8   8   8   8
#     4  11  24  39  62  95 134 162 211 258 318 383
#     4  10  22  40  65  86 125 163 219 257 310 368
#     4  10  23  39  67  86 127 165 209 257 321 362
#     4   9  24  36  65  92 126 160 207 256 315 376
#
# _framework density 19.162281
#
# number of rings (size 3 to 8) (size 9 to 14) (size 15 to 20)
#    1.500    0.500    0.000    2.250   10.500    0.000 
#    0.000    3.750    5.500    0.000    0.000    0.000 
#    0.000    0.000    0.000    0.000    0.000    0.000 
#
# Total GULP energy -396568.352296 kJ/mol
# GULP energy per Si atom -12392.761009 kJ/mol
# Density = 1.911867 g / cm^3
# Si number density = 19.162281 Si / 1000 Ang^3
#
#
#
# Elastic Constant Matrix: (Units=GPa)
#
#
# Indices 1 2 3 4 5 6 
#
# 1 132.5482 35.9671 23.5828 0.0000 0.0000 0.0000
# 2 35.9671 94.8215 47.6317 0.0000 0.0000 0.0000
# 3 23.5828 47.6317 90.2181 0.0000 0.0000 0.0000
# 4 0.0000 0.0000 0.0000 18.9686 0.0000 0.0000
# 5 0.0000 0.0000 0.0000 0.0000 66.0095 0.0000
# 6 0.0000 0.0000 0.0000 0.0000 0.0000 28.1194
#
#
#
# Elastic Compliance Matrix: (Units=1/GPa)
#
#
# Indices 1 2 3 4 5 6 
#
# 1 0.008443 -0.002850 -0.000702 0.000000 0.000000 0.000000
# 2 -0.002850 0.015314 -0.007341 0.000000 0.000000 0.000000
# 3 -0.000702 -0.007341 0.015143 0.000000 0.000000 0.000000
# 4 0.000000 0.000000 0.000000 0.052719 0.000000 0.000000
# 5 0.000000 0.000000 0.000000 0.000000 0.015149 0.000000
# 6 0.000000 0.000000 0.000000 0.000000 0.000000 0.035563
#
#
# Mechanical properties :
#
#
# Convention : Reuss Voigt Hill
#
# Bulk Modulus (GPa) = 58.42704 59.10563 58.76633
# Shear Modulus (GPa) = 29.44273 36.64659 33.04466
#
# Velocity S-wave (km/s) = 3.92407 4.37788 4.15717
# Velocity P-wave (km/s) = 7.14758 7.51440 7.33328
#
# Compressibility (1/GPa) = 0.01711536
#
# Stress axis : x y z
#
# Youngs Moduli (GPa) = 118.44649 65.29809 66.03541
#
# Poissons Ratio (x) = 0.18607 0.04638
# Poissons Ratio (y) = 0.33752 0.48474
# Poissons Ratio (z) = 0.08320 0.47932
#
# Static dielectric constant tensor:
#      x y z
#    x 3.641550 0.000000 0.000000 
#    y 0.000000 3.361800 0.000000 
#    z 0.000000 0.000000 3.265290 
# 
# 
# High freq. dielectric constant tensor:
#      x y z
#    x 1.757160 0.000000 0.000000 
#    y 0.000000 1.727800 0.000000 
#    z 0.000000 0.000000 1.737800 
# 
# From -- ./inp_files/13702.got.cif
#   From: 2010.03.12/outbox.cif.g09.slc.cpg/sg56_7_cif.got.tgz:13702.got - 2010.04.16 15:33:40.
