data_PCOD8229454
_publ_section_title
;
Structure prediction by ZEFSAII (Michael W. Deem and Ramdas Pophale) SiO2 
 PCOD8229454
Probable space group: P C C N
;
_chemical_formula_sum "Si O2"
_cell_formula_units_Z 64
_cell_length_a 18.320155
_cell_length_b 14.162713
_cell_length_c 10.805551
_cell_angle_alpha 90.000000
_cell_angle_beta 90.000000
_cell_angle_gamma 90.000000
_cell_volume 2803.641731
_symmetry_space_group_name_H-M "P C C N"
_symmetry_group_IT_number 56
_symmetry_cell_setting 'orthorhombic'
loop_
_space_group_symop_operation_xyz
x,y,z
1/2-x,1/2-y,z
1/2+x,-y,1/2-z
-x,1/2+y,1/2-z
-x,-y,-z
1/2+x,1/2+y,-z
1/2-x,y,1/2+z
x,1/2-y,1/2+z
loop_
_atom_site_type_symbol
_atom_site_label
_atom_site_fract_x
_atom_site_fract_y
_atom_site_fract_z
Si Si1 0.107208 0.425044 0.296149
Si Si2 0.591944 0.230460 0.204306
Si Si3 0.313458 0.494215 0.579394
Si Si4 0.445013 0.078024 0.944315
Si Si5 0.947472 0.026640 0.792282
Si Si6 0.173262 0.793030 0.547828
Si Si7 0.842645 0.916570 0.943771
Si Si8 0.562055 0.739486 0.377169
O O1 0.143081 0.504112 0.208982
O O2 0.161784 0.411303 0.408968
O O3 0.101427 0.329539 0.218382
O O4 0.028067 0.456535 0.346096
O O5 0.580341 0.117821 0.217262
O O6 0.622190 0.274271 0.332270
O O7 0.513390 0.279998 0.179491
O O8 0.641494 0.248182 0.081749
O O9 0.361072 0.436716 0.481463
O O10 0.306229 0.598362 0.526701
O O11 0.238579 0.437092 0.604435
O O12 0.448676 0.066246 0.796721
O O13 0.463201 0.183040 0.996298
O O14 0.500000 0.000000 0.000000
O O15 0.893040 0.005101 0.904347
O O16 0.250000 0.750000 0.581753
O O17 0.878007 0.819352 0.898398
#
# Coordination Sequence:
#
# PCOD8229454 Si02
#       8
#     8   8   8   8   8   8   8   8
#     4  10  25  47  67 101 142 177 243 292 350 438
#     4  11  25  43  75 105 145 189 246 303 368 440
#     4  11  25  46  68  96 141 196 227 287 373 433
#     4  11  19  45  75  97 136 189 240 274 345 453
#     4  11  23  45  73 104 136 194 238 288 365 432
#     4  12  26  44  71 107 146 189 241 306 372 446
#     4  12  28  41  71 106 143 184 235 311 363 424
#     4  10  25  44  71 106 138 183 246 295 364 428
#
# _framework density 22.827452999999998
#
# number of rings (size 3 to 8) (size 9 to 14) (size 15 to 20)
#    0.000    1.000    5.000    1.500    8.750    5.000 
#    0.000    2.500    0.000    0.000    0.000    0.000 
#    0.000    0.000    0.000    0.000    0.000    0.000 
#
# Total GULP energy -793330.768654 kJ/mol
# GULP energy per Si atom -12395.793260 kJ/mol
# Density = 2.277550 g / cm^3
# Si number density = 22.827453 Si / 1000 Ang^3
#
#
#
# Elastic Constant Matrix: (Units=GPa)
#
#
# Indices 1 2 3 4 5 6 
#
# 1 118.4481 35.0332 14.6035 0.0000 0.0000 0.0000
# 2 35.0332 59.9390 10.2968 0.0000 0.0000 0.0000
# 3 14.6035 10.2968 95.4651 0.0000 0.0000 0.0000
# 4 0.0000 0.0000 0.0000 19.4249 0.0000 0.0000
# 5 0.0000 0.0000 0.0000 0.0000 20.5053 0.0000
# 6 0.0000 0.0000 0.0000 0.0000 0.0000 33.9328
#
#
#
# Elastic Compliance Matrix: (Units=1/GPa)
#
#
# Indices 1 2 3 4 5 6 
#
# 1 0.010290 -0.005852 -0.000943 0.000000 0.000000 0.000000
# 2 -0.005852 0.020327 -0.001297 0.000000 0.000000 0.000000
# 3 -0.000943 -0.001297 0.010759 0.000000 0.000000 0.000000
# 4 0.000000 0.000000 0.000000 0.051480 0.000000 0.000000
# 5 0.000000 0.000000 0.000000 0.000000 0.048768 0.000000
# 6 0.000000 0.000000 0.000000 0.000000 0.000000 0.029470
#
#
# Mechanical properties :
#
#
# Convention : Reuss Voigt Hill
#
# Bulk Modulus (GPa) = 39.69612 43.74657 41.72135
# Shear Modulus (GPa) = 25.55251 29.03384 27.29317
#
# Velocity S-wave (km/s) = 3.34934 3.57022 3.46154
# Velocity P-wave (km/s) = 5.69077 6.01672 5.85601
#
# Compressibility (1/GPa) = 0.02519138
#
# Stress axis : x y z
#
# Youngs Moduli (GPa) = 97.18521 49.19583 92.94395
#
# Poissons Ratio (x) = 0.28790 0.08763
# Poissons Ratio (y) = 0.56874 0.12057
# Poissons Ratio (z) = 0.09163 0.06382
#
# Static dielectric constant tensor:
#      x y z
#    x 4.171820 0.000000 0.000000 
#    y 0.000000 4.129920 0.000000 
#    z 0.000000 0.000000 4.217240 
# 
# 
# High freq. dielectric constant tensor:
#      x y z
#    x 1.904970 0.000000 0.000000 
#    y 0.000000 1.892050 0.000000 
#    z 0.000000 0.000000 1.904080 
# 
# From -- ./inp_files/8418.got.cif
#   From: 2010.03.12/outbox.cif.g09.slc.cpg/sg56_5_cif.got.tgz:8418.got - 2010.04.16 15:33:40.
