data_PCOD8229875
_publ_section_title
;
Structure prediction by ZEFSAII (Michael W. Deem and Ramdas Pophale) SiO2 
 PCOD8229875
Probable space group: P C C N
;
_chemical_formula_sum "Si O2"
_cell_formula_units_Z 20
_cell_length_a 6.149269
_cell_length_b 4.815142
_cell_length_c 24.742896
_cell_angle_alpha 90.000000
_cell_angle_beta 90.000000
_cell_angle_gamma 90.000000
_cell_volume 732.627338
_symmetry_space_group_name_H-M "P C C N"
_symmetry_group_IT_number 56
_symmetry_cell_setting 'orthorhombic'
loop_
_space_group_symop_operation_xyz
x,y,z
1/2-x,1/2-y,z
1/2+x,-y,1/2-z
-x,1/2+y,1/2-z
-x,-y,-z
1/2+x,1/2+y,-z
1/2-x,y,1/2+z
x,1/2-y,1/2+z
loop_
_atom_site_type_symbol
_atom_site_label
_atom_site_fract_x
_atom_site_fract_y
_atom_site_fract_z
Si Si1 0.592949 0.997877 0.440079
Si Si2 0.250000 0.750000 0.363879
Si Si3 0.473678 0.871372 0.214637
O O1 0.750000 0.250000 0.426660
O O2 0.750000 0.750000 0.430987
O O3 0.500000 0.000000 0.500000
O O4 0.391487 0.964815 0.399277
O O5 0.396753 0.539886 0.329890
O O6 0.250000 0.750000 0.189774
O O7 0.595677 0.591692 0.237622
#
# Coordination Sequence:
#
# PCOD8229875 Si02
#       3
#     8   4   8
#     4  12  29  57  92 130 178 233 297 368 451 534
#     4  12  32  60  92 130 188 234 302 374 456 522
#     4  12  29  60  88 125 182 239 298 374 446 537
#
# _framework density 27.299005000000001
#
# number of rings (size 3 to 8) (size 9 to 14) (size 15 to 20)
#    0.000    0.000    4.000    2.400    0.000   11.200 
#   10.800    0.000    0.000    0.000    0.000    0.000 
#    0.000    0.000    0.000    0.000    0.000    0.000 
#
# Total GULP energy -247952.288410 kJ/mol
# GULP energy per Si atom -12397.614420 kJ/mol
# Density = 2.723687 g / cm^3
# Si number density = 27.299005 Si / 1000 Ang^3
#
#
#
# Elastic Constant Matrix: (Units=GPa)
#
#
# Indices 1 2 3 4 5 6 
#
# 1 206.7953 114.0175 102.9704 0.0000 0.0000 0.0000
# 2 114.0175 235.1203 73.1098 0.0000 0.0000 0.0000
# 3 102.9704 73.1098 163.1800 0.0000 0.0000 0.0000
# 4 0.0000 0.0000 0.0000 46.4694 0.0000 0.0000
# 5 0.0000 0.0000 0.0000 0.0000 43.1731 0.0000
# 6 0.0000 0.0000 0.0000 0.0000 0.0000 87.7204
#
#
#
# Elastic Compliance Matrix: (Units=1/GPa)
#
#
# Indices 1 2 3 4 5 6 
#
# 1 0.008400 -0.002818 -0.004038 0.000000 0.000000 0.000000
# 2 -0.002818 0.005887 -0.000859 0.000000 0.000000 0.000000
# 3 -0.004038 -0.000859 0.009061 0.000000 0.000000 0.000000
# 4 0.000000 0.000000 0.000000 0.021520 0.000000 0.000000
# 5 0.000000 0.000000 0.000000 0.000000 0.023163 0.000000
# 6 0.000000 0.000000 0.000000 0.000000 0.000000 0.011400
#
#
# Mechanical properties :
#
#
# Convention : Reuss Voigt Hill
#
# Bulk Modulus (GPa) = 126.30127 131.69899 129.00013
# Shear Modulus (GPa) = 51.28200 56.47243 53.87722
#
# Velocity S-wave (km/s) = 4.33890 4.55319 4.44734
# Velocity P-wave (km/s) = 8.45386 8.71722 8.58655
#
# Compressibility (1/GPa) = 0.00791758
#
# Stress axis : x y z
#
# Youngs Moduli (GPa) = 119.04696 169.87130 110.35826
#
# Poissons Ratio (x) = 0.47866 0.44564
# Poissons Ratio (y) = 0.33545 0.09484
# Poissons Ratio (z) = 0.48073 0.14598
#
# Static dielectric constant tensor:
#      x y z
#    x 5.378270 0.000000 0.000000 
#    y 0.000000 5.707430 0.000000 
#    z 0.000000 0.000000 5.065360 
# 
# 
# High freq. dielectric constant tensor:
#      x y z
#    x 2.138970 0.000000 0.000000 
#    y 0.000000 2.134490 0.000000 
#    z 0.000000 0.000000 2.101200 
# 
# From -- ./inp_files/22617.got.cif
#   From: 2010.03.12/outbox.cif.g09.slc.cpg/sg56_12_cif.got.tgz:22617.got - 2010.04.16 15:33:40.
