data_PCOD8229568
_publ_section_title
;
Structure prediction by ZEFSAII (Michael W. Deem and Ramdas Pophale) SiO2 
 PCOD8229568
Probable space group: P C C N
;
_chemical_formula_sum "Si O2"
_cell_formula_units_Z 48
_cell_length_a 18.356551
_cell_length_b 7.851315
_cell_length_c 15.442102
_cell_angle_alpha 90.000000
_cell_angle_beta 90.000000
_cell_angle_gamma 90.000000
_cell_volume 2225.563058
_symmetry_space_group_name_H-M "P C C N"
_symmetry_group_IT_number 56
_symmetry_cell_setting 'orthorhombic'
loop_
_space_group_symop_operation_xyz
x,y,z
1/2-x,1/2-y,z
1/2+x,-y,1/2-z
-x,1/2+y,1/2-z
-x,-y,-z
1/2+x,1/2+y,-z
1/2-x,y,1/2+z
x,1/2-y,1/2+z
loop_
_atom_site_type_symbol
_atom_site_label
_atom_site_fract_x
_atom_site_fract_y
_atom_site_fract_z
Si Si1 0.560804 0.352655 0.672932
Si Si2 0.931762 0.399161 0.830899
Si Si3 0.779514 0.431524 0.146836
Si Si4 0.447453 0.661474 0.001082
Si Si5 0.722074 0.932065 0.817278
Si Si6 0.715635 0.070068 0.481922
O O1 0.580594 0.226849 0.751018
O O2 0.499077 0.485574 0.699285
O O3 0.634690 0.456495 0.655554
O O4 0.533354 0.263185 0.585821
O O5 0.861655 0.524942 0.844862
O O6 0.952239 0.289268 0.916370
O O7 0.750000 0.250000 0.111744
O O8 0.736254 0.451007 0.235008
O O9 0.754290 0.535892 0.061252
O O10 0.367893 0.585910 0.993518
O O11 0.500000 0.500000 0.000000
O O12 0.750000 0.750000 0.782354
O O13 0.776985 0.957965 0.896231
O O14 0.750000 0.250000 0.453515
#
# Coordination Sequence:
#
# PCOD8229568 Si02
#       6
#     8   8   8   8   8   8
#     4  12  25  44  67  96 134 176 221 275 343 414
#     4  12  26  44  67 100 140 176 223 286 349 412
#     4  11  21  45  71  89 124 177 225 267 334 409
#     4  12  25  44  70  98 135 179 227 282 348 415
#     4  12  26  41  68 100 134 171 229 289 334 396
#     4  11  21  45  71  92 126 179 228 278 339 404
#
# _framework density 21.567575999999999
#
# number of rings (size 3 to 8) (size 9 to 14) (size 15 to 20)
#    0.000    0.333    6.667    3.000    4.667    0.667 
#    0.000    0.000    0.000    0.000    0.000    0.000 
#    0.000    0.000    0.000    0.000    0.000    0.000 
#
# Total GULP energy -594824.346530 kJ/mol
# GULP energy per Si atom -12392.173886 kJ/mol
# Density = 2.151849 g / cm^3
# Si number density = 21.567576 Si / 1000 Ang^3
#
#
#
# Elastic Constant Matrix: (Units=GPa)
#
#
# Indices 1 2 3 4 5 6 
#
# 1 111.9821 46.6612 0.0142 0.0000 0.0000 0.0000
# 2 46.6612 62.3138 18.3168 0.0000 0.0000 0.0000
# 3 0.0142 18.3168 139.7836 0.0000 0.0000 0.0000
# 4 0.0000 0.0000 0.0000 31.4985 0.0000 0.0000
# 5 0.0000 0.0000 0.0000 0.0000 32.0772 0.0000
# 6 0.0000 0.0000 0.0000 0.0000 0.0000 37.6880
#
#
#
# Elastic Compliance Matrix: (Units=1/GPa)
#
#
# Indices 1 2 3 4 5 6 
#
# 1 0.013220 -0.010295 0.001348 0.000000 0.000000 0.000000
# 2 -0.010295 0.024708 -0.003237 0.000000 0.000000 0.000000
# 3 0.001348 -0.003237 0.007578 0.000000 0.000000 0.000000
# 4 0.000000 0.000000 0.000000 0.031748 0.000000 0.000000
# 5 0.000000 0.000000 0.000000 0.000000 0.031175 0.000000
# 6 0.000000 0.000000 0.000000 0.000000 0.000000 0.026534
#
#
# Mechanical properties :
#
#
# Convention : Reuss Voigt Hill
#
# Bulk Modulus (GPa) = 47.30894 49.34043 48.32468
# Shear Modulus (GPa) = 30.05240 36.85854 33.45547
#
# Velocity S-wave (km/s) = 3.73689 4.13847 3.94279
# Velocity P-wave (km/s) = 6.37196 6.76481 6.57132
#
# Compressibility (1/GPa) = 0.02113766
#
# Stress axis : x y z
#
# Youngs Moduli (GPa) = 75.64495 40.47221 131.96266
#
# Poissons Ratio (x) = 0.41667 -0.17785
# Poissons Ratio (y) = 0.77878 0.42712
# Poissons Ratio (z) = -0.10195 0.13099
#
# Static dielectric constant tensor:
#      x y z
#    x 3.835080 0.000000 0.000000 
#    y 0.000000 3.564950 0.000000 
#    z 0.000000 0.000000 4.121590 
# 
# 
# High freq. dielectric constant tensor:
#      x y z
#    x 1.855240 0.000000 0.000000 
#    y 0.000000 1.824480 0.000000 
#    z 0.000000 0.000000 1.879640 
# 
# From -- ./inp_files/12702.got.cif
#   From: 2010.03.12/outbox.cif.g09.slc.cpg/sg56_7_cif.got.tgz:12702.got - 2010.04.16 15:33:40.
