data_PCOD8229018
_publ_section_title
;
Structure prediction by ZEFSAII (Michael W. Deem and Ramdas Pophale) SiO2 
 PCOD8229018
Probable space group: P C C N
;
_chemical_formula_sum "Si O2"
_cell_formula_units_Z 52
_cell_length_a 21.565709
_cell_length_b 5.466055
_cell_length_c 20.524368
_cell_angle_alpha 90.000000
_cell_angle_beta 90.000000
_cell_angle_gamma 90.000000
_cell_volume 2419.399190
_symmetry_space_group_name_H-M "P C C N"
_symmetry_group_IT_number 56
_symmetry_cell_setting 'orthorhombic'
loop_
_space_group_symop_operation_xyz
x,y,z
1/2-x,1/2-y,z
1/2+x,-y,1/2-z
-x,1/2+y,1/2-z
-x,-y,-z
1/2+x,1/2+y,-z
1/2-x,y,1/2+z
x,1/2-y,1/2+z
loop_
_atom_site_type_symbol
_atom_site_label
_atom_site_fract_x
_atom_site_fract_y
_atom_site_fract_z
Si Si1 0.076661 0.968021 0.570552
Si Si2 0.250000 0.750000 0.414609
Si Si3 0.312500 0.368013 0.503442
Si Si4 0.028684 0.803517 0.951348
Si Si5 0.860748 0.942790 0.111494
Si Si6 0.563130 0.262934 0.800316
Si Si7 0.080145 0.238579 0.766415
O O1 0.146524 0.072435 0.567153
O O2 0.026132 0.174657 0.590544
O O3 0.063816 0.892095 0.496082
O O4 0.073223 0.744512 0.621500
O O5 0.296515 0.601766 0.460353
O O6 0.203206 0.587145 0.370593
O O7 0.250000 0.250000 0.531280
O O8 0.350675 0.183647 0.457784
O O9 0.076822 0.896138 0.896825
O O10 0.000000 0.000000 0.000000
O O11 0.874881 0.755926 0.170364
O O12 0.490731 0.262451 0.787232
O O13 0.594903 0.511781 0.773496
O O14 0.594613 0.013396 0.772586
#
# Coordination Sequence:
#
# PCOD8229018 Si02
#       7
#     8   4   8   8   8   8   8
#     4  11  23  37  62  97 138 169 219 267 348 414
#     4  10  22  40  62  94 124 178 216 286 340 392
#     4  10  22  40  61  97 126 173 218 277 340 399
#     4  11  22  34  61 101 133 171 205 279 343 414
#     4  11  22  38  67  93 135 171 229 278 344 399
#     4  10  24  40  62  94 136 180 214 269 339 401
#     4  10  24  41  62  93 133 178 222 269 327 410
#
# _framework density 21.492940000000001
#
# number of rings (size 3 to 8) (size 9 to 14) (size 15 to 20)
#    0.000    1.538    3.077    0.923   12.923    0.000 
#    0.000    0.000    0.000    3.692    0.000    0.000 
#    0.000    0.000    0.000    0.000    0.000    0.000 
#
# Total GULP energy -644687.384737 kJ/mol
# GULP energy per Si atom -12397.834322 kJ/mol
# Density = 2.144402 g / cm^3
# Si number density = 21.492940 Si / 1000 Ang^3
#
#
#
# Elastic Constant Matrix: (Units=GPa)
#
#
# Indices 1 2 3 4 5 6 
#
# 1 109.3219 49.8082 41.7267 0.0000 0.0000 0.0000
# 2 49.8082 125.9938 37.7783 0.0000 0.0000 0.0000
# 3 41.7267 37.7783 78.6752 0.0000 0.0000 0.0000
# 4 0.0000 0.0000 0.0000 39.8998 0.0000 0.0000
# 5 0.0000 0.0000 0.0000 0.0000 13.9744 0.0000
# 6 0.0000 0.0000 0.0000 0.0000 0.0000 28.0384
#
#
#
# Elastic Compliance Matrix: (Units=1/GPa)
#
#
# Indices 1 2 3 4 5 6 
#
# 1 0.012663 -0.003495 -0.005037 0.000000 0.000000 0.000000
# 2 -0.003495 0.010237 -0.003062 0.000000 0.000000 0.000000
# 3 -0.005037 -0.003062 0.016852 0.000000 0.000000 0.000000
# 4 0.000000 0.000000 0.000000 0.025063 0.000000 0.000000
# 5 0.000000 0.000000 0.000000 0.000000 0.071559 0.000000
# 6 0.000000 0.000000 0.000000 0.000000 0.000000 0.035665
#
#
# Mechanical properties :
#
#
# Convention : Reuss Voigt Hill
#
# Bulk Modulus (GPa) = 60.37644 63.62413 62.00028
# Shear Modulus (GPa) = 24.90678 28.69438 26.80058
#
# Velocity S-wave (km/s) = 3.40786 3.65781 3.53505
# Velocity P-wave (km/s) = 6.60583 6.89246 6.75067
#
# Compressibility (1/GPa) = 0.01656275
#
# Stress axis : x y z
#
# Youngs Moduli (GPa) = 78.97328 97.68777 59.33919
#
# Poissons Ratio (x) = 0.34145 0.29891
# Poissons Ratio (y) = 0.27604 0.18168
# Poissons Ratio (z) = 0.39782 0.29908
#
# Static dielectric constant tensor:
#      x y z
#    x 3.941650 0.000000 0.000000 
#    y 0.000000 3.438790 0.000000 
#    z 0.000000 0.000000 3.600550 
# 
# 
# High freq. dielectric constant tensor:
#      x y z
#    x 1.832230 0.000000 0.000000 
#    y 0.000000 1.855940 0.000000 
#    z 0.000000 0.000000 1.813520 
# 
# From -- ./inp_files/14046.got.cif
#   From: 2010.03.12/outbox.cif.g09.slc.cpg/sg56_8_cif.got.tgz:14046.got - 2010.04.16 15:33:40.
