data_PCOD8229019
_publ_section_title
;
Structure prediction by ZEFSAII (Michael W. Deem and Ramdas Pophale) SiO2 
 PCOD8229019
Probable space group: P C C N
;
_chemical_formula_sum "Si O2"
_cell_formula_units_Z 36
_cell_length_a 7.243712
_cell_length_b 16.053639
_cell_length_c 14.795249
_cell_angle_alpha 90.000000
_cell_angle_beta 90.000000
_cell_angle_gamma 90.000000
_cell_volume 1720.508991
_symmetry_space_group_name_H-M "P C C N"
_symmetry_group_IT_number 56
_symmetry_cell_setting 'orthorhombic'
loop_
_space_group_symop_operation_xyz
x,y,z
1/2-x,1/2-y,z
1/2+x,-y,1/2-z
-x,1/2+y,1/2-z
-x,-y,-z
1/2+x,1/2+y,-z
1/2-x,y,1/2+z
x,1/2-y,1/2+z
loop_
_atom_site_type_symbol
_atom_site_label
_atom_site_fract_x
_atom_site_fract_y
_atom_site_fract_z
Si Si1 0.383333 0.824161 0.398268
Si Si2 0.055933 0.933773 0.725883
Si Si3 0.824344 0.157848 0.900623
Si Si4 0.750000 0.750000 0.857117
Si Si5 0.645772 0.885972 0.721036
O O1 0.250000 0.750000 0.365827
O O2 0.382649 0.893683 0.321008
O O3 0.313632 0.862136 0.492836
O O4 0.592722 0.792993 0.417547
O O5 0.198392 0.910522 0.647800
O O6 0.856262 0.903132 0.692846
O O7 0.048901 0.032674 0.737244
O O8 0.750000 0.250000 0.878858
O O9 0.033706 0.147553 0.865525
O O10 0.637592 0.815391 0.796636
#
# Coordination Sequence:
#
# PCOD8229019 Si02
#       5
#     8   8   8   4   8
#     4  10  23  40  65  93 130 167 212 264 317 383
#     4  11  22  41  65  96 130 169 212 265 323 380
#     4  11  23  41  66  94 127 168 213 259 323 381
#     4  10  22  40  62  90 126 172 214 258 318 380
#     4  11  22  40  66  92 127 172 214 263 319 381
#
# _framework density 20.924039
#
# number of rings (size 3 to 8) (size 9 to 14) (size 15 to 20)
#    0.000    1.333    2.222    4.667    0.000    5.333 
#    0.000    1.111    0.000    0.000    0.000    0.000 
#    0.000    0.000    0.000    0.000    0.000    0.000 
#
# Total GULP energy -446549.392843 kJ/mol
# GULP energy per Si atom -12404.149801 kJ/mol
# Density = 2.087642 g / cm^3
# Si number density = 20.924039 Si / 1000 Ang^3
#
#
#
# Elastic Constant Matrix: (Units=GPa)
#
#
# Indices 1 2 3 4 5 6 
#
# 1 108.2186 23.7985 52.6828 0.0000 0.0000 0.0000
# 2 23.7985 110.0837 48.4095 0.0000 0.0000 0.0000
# 3 52.6828 48.4095 101.8047 0.0000 0.0000 0.0000
# 4 0.0000 0.0000 0.0000 448.1673 0.0000 0.0000
# 5 0.0000 0.0000 0.0000 0.0000 23.7031 0.0000
# 6 0.0000 0.0000 0.0000 0.0000 0.0000 38.9429
#
#
#
# Elastic Compliance Matrix: (Units=1/GPa)
#
#
# Indices 1 2 3 4 5 6 
#
# 1 0.012355 0.000178 -0.006478 0.000000 0.000000 0.000000
# 2 0.000178 0.011488 -0.005555 0.000000 0.000000 0.000000
# 3 -0.006478 -0.005555 0.015817 0.000000 0.000000 0.000000
# 4 0.000000 0.000000 0.000000 0.002231 0.000000 0.000000
# 5 0.000000 0.000000 0.000000 0.000000 0.042189 0.000000
# 6 0.000000 0.000000 0.000000 0.000000 0.000000 0.025679
#
#
# Mechanical properties :
#
#
# Convention : Reuss Voigt Hill
#
# Bulk Modulus (GPa) = 62.69795 63.32097 63.00946
# Shear Modulus (GPa) = 36.02679 115.17707 75.60193
#
# Velocity S-wave (km/s) = 4.15395 7.42730 6.01748
# Velocity P-wave (km/s) = 7.28263 10.19221 8.85770
#
# Compressibility (1/GPa) = 0.01594949
#
# Stress axis : x y z
#
# Youngs Moduli (GPa) = 80.93779 87.04495 63.22495
#
# Poissons Ratio (x) = -0.01548 0.40958
# Poissons Ratio (y) = -0.01439 0.35121
# Poissons Ratio (z) = 0.52433 0.48352
#
# Static dielectric constant tensor:
#      x y z
#    x 4.003470 0.000000 0.000000 
#    y 0.000000 3.906620 0.000000 
#    z 0.000000 0.000000 3.543300 
# 
# 
# High freq. dielectric constant tensor:
#      x y z
#    x 1.841820 0.000000 0.000000 
#    y 0.000000 1.821730 0.000000 
#    z 0.000000 0.000000 1.800240 
# 
# From -- ./inp_files/10493.got.cif
#   From: 2010.03.12/outbox.cif.g09.slc.cpg/sg56_6_cif.got.tgz:10493.got - 2010.04.16 15:33:40.
