data_PCOD8229459
_publ_section_title
;
Structure prediction by ZEFSAII (Michael W. Deem and Ramdas Pophale) SiO2 
 PCOD8229459
Probable space group: P C C N
;
_chemical_formula_sum "Si O2"
_cell_formula_units_Z 40
_cell_length_a 17.592424
_cell_length_b 4.935173
_cell_length_c 19.237365
_cell_angle_alpha 90.000000
_cell_angle_beta 90.000000
_cell_angle_gamma 90.000000
_cell_volume 1670.219885
_symmetry_space_group_name_H-M "P C C N"
_symmetry_group_IT_number 56
_symmetry_cell_setting 'orthorhombic'
loop_
_space_group_symop_operation_xyz
x,y,z
1/2-x,1/2-y,z
1/2+x,-y,1/2-z
-x,1/2+y,1/2-z
-x,-y,-z
1/2+x,1/2+y,-z
1/2-x,y,1/2+z
x,1/2-y,1/2+z
loop_
_atom_site_type_symbol
_atom_site_label
_atom_site_fract_x
_atom_site_fract_y
_atom_site_fract_z
Si Si1 0.134657 0.751930 0.416204
Si Si2 0.975842 0.592810 0.923551
Si Si3 0.538885 0.389946 0.280195
Si Si4 0.334468 0.234412 0.505558
Si Si5 0.799741 0.478305 0.722861
O O1 0.154347 0.572267 0.482238
O O2 0.184696 0.653234 0.352483
O O3 0.044782 0.712931 0.397939
O O4 0.152877 0.062104 0.439597
O O5 0.967976 0.363179 0.864074
O O6 0.893492 0.729573 0.931028
O O7 0.000000 0.500000 0.000000
O O8 0.473554 0.593955 0.251944
O O9 0.620595 0.521472 0.261720
O O10 0.250000 0.250000 0.536789
O O11 0.750000 0.250000 0.763156
O O12 0.750000 0.750000 0.716671
#
# Coordination Sequence:
#
# PCOD8229459 Si02
#       5
#     8   8   8   8   8
#     4  11  22  42  67 100 137 183 238 285 351 431
#     4  10  25  45  73 102 139 188 239 287 354 431
#     4  12  27  48  72 104 146 191 239 294 361 432
#     4  11  23  40  66 100 141 181 229 298 359 416
#     4  12  25  43  72 105 142 186 239 299 360 422
#
# _framework density 23.948941999999999
#
# number of rings (size 3 to 8) (size 9 to 14) (size 15 to 20)
#    0.000    0.800    2.000    5.400    5.600    4.000 
#    0.000    4.000    0.000    0.000    0.000    0.000 
#    0.000    0.000    0.000    0.000    0.000    0.000 
#
# Total GULP energy -495742.890522 kJ/mol
# GULP energy per Si atom -12393.572263 kJ/mol
# Density = 2.389443 g / cm^3
# Si number density = 23.948942 Si / 1000 Ang^3
#
#
#
# Elastic Constant Matrix: (Units=GPa)
#
#
# Indices 1 2 3 4 5 6 
#
# 1 190.8388 27.3427 11.4127 0.0000 0.0000 0.0000
# 2 27.3427 80.5673 6.4200 0.0000 0.0000 0.0000
# 3 11.4127 6.4200 98.5815 0.0000 0.0000 0.0000
# 4 0.0000 0.0000 0.0000 9.1070 0.0000 0.0000
# 5 0.0000 0.0000 0.0000 0.0000 24.1503 0.0000
# 6 0.0000 0.0000 0.0000 0.0000 0.0000 37.7936
#
#
#
# Elastic Compliance Matrix: (Units=1/GPa)
#
#
# Indices 1 2 3 4 5 6 
#
# 1 0.005534 -0.001837 -0.000521 0.000000 0.000000 0.000000
# 2 -0.001837 0.013086 -0.000640 0.000000 0.000000 0.000000
# 3 -0.000521 -0.000640 0.010246 0.000000 0.000000 0.000000
# 4 0.000000 0.000000 0.000000 0.109805 0.000000 0.000000
# 5 0.000000 0.000000 0.000000 0.000000 0.041407 0.000000
# 6 0.000000 0.000000 0.000000 0.000000 0.000000 0.026460
#
#
# Mechanical properties :
#
#
# Convention : Reuss Voigt Hill
#
# Bulk Modulus (GPa) = 43.72212 51.14871 47.43542
# Shear Modulus (GPa) = 22.71101 35.86433 29.28767
#
# Velocity S-wave (km/s) = 3.08280 3.87400 3.50082
# Velocity P-wave (km/s) = 5.56485 6.43539 6.01589
#
# Compressibility (1/GPa) = 0.02287172
#
# Stress axis : x y z
#
# Youngs Moduli (GPa) = 180.68989 76.41588 97.60034
#
# Poissons Ratio (x) = 0.14035 0.05086
# Poissons Ratio (y) = 0.33187 0.06242
# Poissons Ratio (z) = 0.09416 0.04887
#
# Static dielectric constant tensor:
#      x y z
#    x 5.148520 0.000000 0.000000 
#    y 0.000000 4.098740 0.000000 
#    z 0.000000 0.000000 4.131600 
# 
# 
# High freq. dielectric constant tensor:
#      x y z
#    x 1.981760 0.000000 0.000000 
#    y 0.000000 1.935810 0.000000 
#    z 0.000000 0.000000 1.927950 
# 
# From -- ./inp_files/16461.got.cif
#   From: 2010.03.12/outbox.cif.g09.slc.cpg/sg56_9_cif.got.tgz:16461.got - 2010.04.16 15:33:40.
