data_PCOD8229905
_publ_section_title
;
Structure prediction by ZEFSAII (Michael W. Deem and Ramdas Pophale) SiO2 
 PCOD8229905
Probable space group: P B C M
;
_chemical_formula_sum "Si O2"
_cell_formula_units_Z 24
_cell_length_a 11.465899
_cell_length_b 16.342062
_cell_length_c 5.340489
_cell_angle_alpha 90.000000
_cell_angle_beta 90.000000
_cell_angle_gamma 90.000000
_cell_volume 1000.681776
_symmetry_space_group_name_H-M "P B C M"
_symmetry_group_IT_number 57
_symmetry_cell_setting 'orthorhombic'
loop_
_space_group_symop_operation_xyz
x,y,z
-x,-y,1/2+z
x,1/2-y,-z
-x,1/2+y,1/2-z
-x,-y,-z
x,y,1/2-z
-x,1/2+y,z
x,1/2-y,1/2+z
loop_
_atom_site_type_symbol
_atom_site_label
_atom_site_fract_x
_atom_site_fract_y
_atom_site_fract_z
Si Si1 0.205906 0.303691 0.250000
Si Si2 0.953073 0.155013 0.750000
Si Si3 0.377898 0.770245 0.250000
Si Si4 0.857465 0.331195 0.750000
Si Si5 0.639423 0.956136 0.250000
Si Si6 0.361990 0.953410 0.250000
O O1 0.211219 0.250000 0.500000
O O2 0.091350 0.362099 0.250000
O O3 0.316604 0.363634 0.250000
O O4 0.943045 0.253324 0.750000
O O5 0.889295 0.117353 0.501666
O O6 0.453425 0.750000 0.500000
O O7 0.274371 0.702619 0.250000
O O8 0.319996 0.859347 0.250000
O O9 0.501098 0.951425 0.250000
O O10 0.685067 0.003126 0.498386
#
# Coordination Sequence:
#
# PCOD8229905 Si02
#       6
#     4   4   4   4   4   4
#     4  12  21  33  61  94 109 145 198 245 274 329
#     4  10  16  30  49  81 111 148 174 225 281 344
#     4  12  21  33  61  94 109 145 198 245 274 329
#     4  10  16  30  49  81 111 148 174 225 281 344
#     4  10  23  43  60  79 118 161 186 226 299 355
#     4  10  23  43  60  79 118 161 186 226 299 355
#
# _framework density 23.983647999999999
#
# number of rings (size 3 to 8) (size 9 to 14) (size 15 to 20)
#    0.000    1.333    6.667    2.000    0.000    1.333 
#    0.000    0.000    0.000    2.000    0.000    0.000 
#    0.000    0.000    0.000    0.000    0.000    0.000 
#
# Total GULP energy -297401.158608 kJ/mol
# GULP energy per Si atom -12391.714942 kJ/mol
# Density = 2.392906 g / cm^3
# Si number density = 23.983648 Si / 1000 Ang^3
#
#
#
# Elastic Constant Matrix: (Units=GPa)
#
#
# Indices 1 2 3 4 5 6 
#
# 1 15.9727 4.9291 13.3781 0.0000 0.0000 0.0000
# 2 4.9291 59.3928 52.7753 0.0000 0.0000 0.0000
# 3 13.3781 52.7753 302.8781 0.0000 0.0000 0.0000
# 4 0.0000 0.0000 0.0000 24.3432 0.0000 0.0000
# 5 0.0000 0.0000 0.0000 0.0000 2.1407 0.0000
# 6 0.0000 0.0000 0.0000 0.0000 0.0000 12.2123
#
#
#
# Elastic Compliance Matrix: (Units=1/GPa)
#
#
# Indices 1 2 3 4 5 6 
#
# 1 0.065585 -0.003395 -0.002305 0.000000 0.000000 0.000000
# 2 -0.003395 0.020097 -0.003352 0.000000 0.000000 0.000000
# 3 -0.002305 -0.003352 0.003988 0.000000 0.000000 0.000000
# 4 0.000000 0.000000 0.000000 0.041079 0.000000 0.000000
# 5 0.000000 0.000000 0.000000 0.000000 0.467129 0.000000
# 6 0.000000 0.000000 0.000000 0.000000 0.000000 0.081884
#
#
# Mechanical properties :
#
#
# Convention : Reuss Voigt Hill
#
# Bulk Modulus (GPa) = 13.97302 57.82317 35.89809
# Shear Modulus (GPa) = 6.92787 28.21666 17.57227
#
# Velocity S-wave (km/s) = 1.70143 3.43373 2.70974
# Velocity P-wave (km/s) = 3.11424 6.31525 4.97900
#
# Compressibility (1/GPa) = 0.07156650
#
# Stress axis : x y z
#
# Youngs Moduli (GPa) = 15.24728 49.75803 250.78061
#
# Poissons Ratio (x) = 0.16891 0.57815
# Poissons Ratio (y) = 0.05176 0.84060
# Poissons Ratio (z) = 0.03515 0.16679
#
# Static dielectric constant tensor:
#      x y z
#    x 4.009840 0.000000 0.000000 
#    y 0.000000 3.827270 0.000000 
#    z 0.000000 0.000000 6.605880 
# 
# 
# High freq. dielectric constant tensor:
#      x y z
#    x 1.927720 0.000000 0.000000 
#    y 0.000000 1.891460 0.000000 
#    z 0.000000 0.000000 1.998650 
# 
# From -- ./inp_files/292.got.cif
#   From: 2010.03.12/outbox.cif.g09.slc.cpg/sg57_1_cif.got.tgz:292.got - 2010.04.16 15:48:40.
