data_PCOD8229306
_publ_section_title
;
Structure prediction by ZEFSAII (Michael W. Deem and Ramdas Pophale) SiO2 
 PCOD8229306
Probable space group: P C C N
;
_chemical_formula_sum "Si O2"
_cell_formula_units_Z 36
_cell_length_a 10.230044
_cell_length_b 6.493503
_cell_length_c 23.605718
_cell_angle_alpha 90.000000
_cell_angle_beta 90.000000
_cell_angle_gamma 90.000000
_cell_volume 1568.100025
_symmetry_space_group_name_H-M "P C C N"
_symmetry_group_IT_number 56
_symmetry_cell_setting 'orthorhombic'
loop_
_space_group_symop_operation_xyz
x,y,z
1/2-x,1/2-y,z
1/2+x,-y,1/2-z
-x,1/2+y,1/2-z
-x,-y,-z
1/2+x,1/2+y,-z
1/2-x,y,1/2+z
x,1/2-y,1/2+z
loop_
_atom_site_type_symbol
_atom_site_label
_atom_site_fract_x
_atom_site_fract_y
_atom_site_fract_z
Si Si1 0.642465 0.402089 0.451508
Si Si2 0.378538 0.127810 0.809964
Si Si3 0.642278 0.916141 0.067066
Si Si4 0.750000 0.750000 0.878051
Si Si5 0.126911 0.900740 0.197609
O O1 0.750000 0.250000 0.424515
O O2 0.499574 0.310436 0.441079
O O3 0.662206 0.409964 0.519494
O O4 0.654380 0.619912 0.418983
O O5 0.250000 0.250000 0.789958
O O6 0.345945 0.003417 0.868184
O O7 0.499821 0.279198 0.824524
O O8 0.413161 0.966631 0.761244
O O9 0.750000 0.750000 0.053934
O O10 0.658408 0.602675 0.839816
O O11 0.250000 0.750000 0.199018
#
# Coordination Sequence:
#
# PCOD8229306 Si02
#       5
#     8   8   8   4   8
#     4  11  24  45  72  98 135 186 237 284 351 427
#     4  11  24  45  69 103 142 180 233 292 357 409
#     4  10  23  45  64 102 139 173 231 291 354 409
#     4  12  24  46  72 104 134 194 234 292 340 438
#     4  12  26  46  72 103 142 189 239 285 351 433
#
# _framework density 22.957722
#
# number of rings (size 3 to 8) (size 9 to 14) (size 15 to 20)
#    0.000    0.889    2.222    4.667    3.111    1.778 
#   16.000    0.000    0.000    0.000    0.000    0.000 
#    0.000    0.000    0.000    0.000    0.000    0.000 
#
# Total GULP energy -446315.525137 kJ/mol
# GULP energy per Si atom -12397.653476 kJ/mol
# Density = 2.290547 g / cm^3
# Si number density = 22.957722 Si / 1000 Ang^3
#
#
#
# Elastic Constant Matrix: (Units=GPa)
#
#
# Indices 1 2 3 4 5 6 
#
# 1 168.0910 54.1891 11.6452 0.0000 0.0000 0.0000
# 2 54.1891 91.2625 42.5268 0.0000 0.0000 0.0000
# 3 11.6452 42.5268 144.8556 0.0000 0.0000 0.0000
# 4 0.0000 0.0000 0.0000 23.7240 0.0000 0.0000
# 5 0.0000 0.0000 0.0000 0.0000 21.2895 0.0000
# 6 0.0000 0.0000 0.0000 0.0000 0.0000 30.2099
#
#
#
# Elastic Compliance Matrix: (Units=1/GPa)
#
#
# Indices 1 2 3 4 5 6 
#
# 1 0.007439 -0.004794 0.000809 0.000000 0.000000 0.000000
# 2 -0.004794 0.015784 -0.004248 0.000000 0.000000 0.000000
# 3 0.000809 -0.004248 0.008086 0.000000 0.000000 0.000000
# 4 0.000000 0.000000 0.000000 0.042151 0.000000 0.000000
# 5 0.000000 0.000000 0.000000 0.000000 0.046972 0.000000
# 6 0.000000 0.000000 0.000000 0.000000 0.000000 0.033102
#
#
# Mechanical properties :
#
#
# Convention : Reuss Voigt Hill
#
# Bulk Modulus (GPa) = 67.37678 68.99235 68.18457
# Shear Modulus (GPa) = 28.58031 34.76787 31.67409
#
# Velocity S-wave (km/s) = 3.53216 3.89579 3.71842
# Velocity P-wave (km/s) = 6.78578 7.09601 6.94263
#
# Compressibility (1/GPa) = 0.01484191
#
# Stress axis : x y z
#
# Youngs Moduli (GPa) = 134.43446 63.35685 123.67674
#
# Poissons Ratio (x) = 0.30373 -0.10011
# Poissons Ratio (y) = 0.64448 0.52542
# Poissons Ratio (z) = -0.10881 0.26916
#
# Static dielectric constant tensor:
#      x y z
#    x 4.441010 0.000000 0.000000 
#    y 0.000000 3.789790 0.000000 
#    z 0.000000 0.000000 4.519720 
# 
# 
# High freq. dielectric constant tensor:
#      x y z
#    x 1.920630 0.000000 0.000000 
#    y 0.000000 1.868880 0.000000 
#    z 0.000000 0.000000 1.941800 
# 
# From -- ./inp_files/20792.got.cif
#   From: 2010.03.12/outbox.cif.g09.slc.cpg/sg56_11_cif.got.tgz:20792.got - 2010.04.16 15:33:40.
