data_PCOD8229457
_publ_section_title
;
Structure prediction by ZEFSAII (Michael W. Deem and Ramdas Pophale) SiO2 
 PCOD8229457
Probable space group: P C C N
;
_chemical_formula_sum "Si O2"
_cell_formula_units_Z 60
_cell_length_a 17.428762
_cell_length_b 18.089526
_cell_length_c 7.758265
_cell_angle_alpha 90.000000
_cell_angle_beta 90.000000
_cell_angle_gamma 90.000000
_cell_volume 2446.010609
_symmetry_space_group_name_H-M "P C C N"
_symmetry_group_IT_number 56
_symmetry_cell_setting 'orthorhombic'
loop_
_space_group_symop_operation_xyz
x,y,z
1/2-x,1/2-y,z
1/2+x,-y,1/2-z
-x,1/2+y,1/2-z
-x,-y,-z
1/2+x,1/2+y,-z
1/2-x,y,1/2+z
x,1/2-y,1/2+z
loop_
_atom_site_type_symbol
_atom_site_label
_atom_site_fract_x
_atom_site_fract_y
_atom_site_fract_z
Si Si1 0.166295 0.609412 0.952756
Si Si2 0.444773 0.200551 0.225923
Si Si3 0.750000 0.250000 0.956579
Si Si4 0.898462 0.321242 0.357464
Si Si5 0.087815 0.149859 0.346616
Si Si6 0.285428 0.448636 0.490758
Si Si7 0.631289 0.938098 0.650880
Si Si8 0.933069 0.094794 0.203912
O O1 0.111295 0.614260 0.785369
O O2 0.211531 0.533477 0.930602
O O3 0.229705 0.675094 0.938427
O O4 0.117934 0.612037 0.128494
O O5 0.528739 0.226599 0.292598
O O6 0.392374 0.273858 0.245110
O O7 0.421375 0.134486 0.355956
O O8 0.445473 0.170777 0.033573
O O9 0.674078 0.266396 0.844554
O O10 0.908844 0.350937 0.550111
O O11 0.165475 0.102617 0.360482
O O12 0.023292 0.102288 0.246943
O O13 0.317718 0.438001 0.678657
O O14 0.194864 0.429506 0.498904
O O15 0.578736 0.010600 0.639945
#
# Coordination Sequence:
#
# PCOD8229457 Si02
#       8
#     8   8   4   8   8   8   8   8
#     4  11  26  45  66 100 150 183 241 290 350 431
#     4  11  25  46  72 105 141 186 242 309 363 430
#     4  12  28  42  68 104 144 196 228 286 360 424
#     4  12  27  43  70 100 144 191 239 289 354 436
#     4  11  24  47  71 103 143 187 242 308 363 428
#     4  10  25  45  72  98 144 189 235 310 361 430
#     4  10  25  45  71 104 141 187 241 302 370 431
#     4  11  25  45  71 103 141 189 237 289 359 435
#
# _framework density 24.529737999999998
#
# number of rings (size 3 to 8) (size 9 to 14) (size 15 to 20)
#    0.000    1.067    1.333    2.800   13.067    4.800 
#    0.000    2.667    0.000    0.000    0.000    0.000 
#    0.000    0.000    0.000    0.000    0.000    0.000 
#
# Total GULP energy -743991.088230 kJ/mol
# GULP energy per Si atom -12399.851470 kJ/mol
# Density = 2.447391 g / cm^3
# Si number density = 24.529738 Si / 1000 Ang^3
#
#
#
# Elastic Constant Matrix: (Units=GPa)
#
#
# Indices 1 2 3 4 5 6 
#
# 1 66.8673 30.6659 4.9817 0.0000 0.0000 0.0000
# 2 30.6659 129.1146 8.5864 0.0000 0.0000 0.0000
# 3 4.9817 8.5864 85.6352 0.0000 0.0000 0.0000
# 4 0.0000 0.0000 0.0000 24.8988 0.0000 0.0000
# 5 0.0000 0.0000 0.0000 0.0000 31.1583 0.0000
# 6 0.0000 0.0000 0.0000 0.0000 0.0000 40.5153
#
#
#
# Elastic Compliance Matrix: (Units=1/GPa)
#
#
# Indices 1 2 3 4 5 6 
#
# 1 0.016812 -0.003954 -0.000582 0.000000 0.000000 0.000000
# 2 -0.003954 0.008727 -0.000645 0.000000 0.000000 0.000000
# 3 -0.000582 -0.000645 0.011776 0.000000 0.000000 0.000000
# 4 0.000000 0.000000 0.000000 0.040163 0.000000 0.000000
# 5 0.000000 0.000000 0.000000 0.000000 0.032094 0.000000
# 6 0.000000 0.000000 0.000000 0.000000 0.000000 0.024682
#
#
# Mechanical properties :
#
#
# Convention : Reuss Voigt Hill
#
# Bulk Modulus (GPa) = 37.10129 41.12056 39.11092
# Shear Modulus (GPa) = 32.55215 35.14001 33.84608
#
# Velocity S-wave (km/s) = 3.64682 3.78901 3.71859
# Velocity P-wave (km/s) = 5.73500 5.99517 5.86653
#
# Compressibility (1/GPa) = 0.02695324
#
# Stress axis : x y z
#
# Youngs Moduli (GPa) = 59.48212 114.58525 84.91889
#
# Poissons Ratio (x) = 0.45310 0.04938
# Poissons Ratio (y) = 0.23521 0.05477
# Poissons Ratio (z) = 0.03459 0.07391
#
# Static dielectric constant tensor:
#      x y z
#    x 4.606850 0.000000 0.000000 
#    y 0.000000 4.602670 0.000000 
#    z 0.000000 0.000000 4.378500 
# 
# 
# High freq. dielectric constant tensor:
#      x y z
#    x 1.971540 0.000000 0.000000 
#    y 0.000000 1.978420 0.000000 
#    z 0.000000 0.000000 1.984920 
# 
# From -- ./inp_files/4118.got.cif
#   From: 2010.03.12/outbox.cif.g09.slc.cpg/sg56_3_cif.got.tgz:4118.got - 2010.04.16 15:33:40.
