data_PCOD8229300
_publ_section_title
;
Structure prediction by ZEFSAII (Michael W. Deem and Ramdas Pophale) SiO2 
 PCOD8229300
Probable space group: P C C N
;
_chemical_formula_sum "Si O2"
_cell_formula_units_Z 60
_cell_length_a 17.816495
_cell_length_b 15.766115
_cell_length_c 9.033619
_cell_angle_alpha 90.000000
_cell_angle_beta 90.000000
_cell_angle_gamma 90.000000
_cell_volume 2537.515655
_symmetry_space_group_name_H-M "P C C N"
_symmetry_group_IT_number 56
_symmetry_cell_setting 'orthorhombic'
loop_
_space_group_symop_operation_xyz
x,y,z
1/2-x,1/2-y,z
1/2+x,-y,1/2-z
-x,1/2+y,1/2-z
-x,-y,-z
1/2+x,1/2+y,-z
1/2-x,y,1/2+z
x,1/2-y,1/2+z
loop_
_atom_site_type_symbol
_atom_site_label
_atom_site_fract_x
_atom_site_fract_y
_atom_site_fract_z
Si Si1 0.929944 0.415663 0.350612
Si Si2 0.002406 0.844921 0.746766
Si Si3 0.675697 0.100536 0.097491
Si Si4 0.250000 0.250000 0.964452
Si Si5 0.326842 0.145734 0.711773
Si Si6 0.580612 0.510919 0.135968
Si Si7 0.776879 0.489108 0.802256
Si Si8 0.078305 0.755516 0.494229
O O1 0.897194 0.433951 0.188043
O O2 0.905295 0.491126 0.462637
O O3 0.897937 0.326498 0.410677
O O4 0.021114 0.412079 0.347845
O O5 0.915402 0.862683 0.769035
O O6 0.048034 0.928978 0.783001
O O7 0.022806 0.819271 0.580112
O O8 0.032095 0.768427 0.848607
O O9 0.747342 0.093314 0.208937
O O10 0.656617 0.196399 0.046560
O O11 0.691344 0.039615 0.959484
O O12 0.293736 0.183082 0.863368
O O13 0.189455 0.203708 0.069053
O O14 0.291542 0.053693 0.681228
O O15 0.657697 0.537977 0.213106
#
# Coordination Sequence:
#
# PCOD8229300 Si02
#       8
#     8   8   8   4   8   8   8   8
#     4  10  23  45  73 103 140 186 245 303 362 429
#     4  11  22  44  73 103 139 187 244 302 365 430
#     4  12  25  47  71 104 144 190 243 300 365 440
#     4  10  24  44  68 106 148 188 238 288 374 432
#     4  11  24  44  71 106 146 192 234 297 365 446
#     4  10  23  44  72 102 142 190 238 298 367 436
#     4  12  26  45  71 103 152 190 242 296 372 450
#     4  11  23  44  73 104 138 180 248 308 360 426
#
# _framework density 23.645173
#
# number of rings (size 3 to 8) (size 9 to 14) (size 15 to 20)
#    0.000    1.067    2.667    3.200    0.000    8.000 
#    4.800   10.000    0.000    0.000    0.000    0.000 
#    0.000    0.000    0.000    0.000    0.000    0.000 
#
# Total GULP energy -744019.479070 kJ/mol
# GULP energy per Si atom -12400.324651 kJ/mol
# Density = 2.359136 g / cm^3
# Si number density = 23.645173 Si / 1000 Ang^3
#
#
#
# Elastic Constant Matrix: (Units=GPa)
#
#
# Indices 1 2 3 4 5 6 
#
# 1 116.4295 29.7339 48.4844 0.0000 0.0000 0.0000
# 2 29.7339 77.3256 38.9687 0.0000 0.0000 0.0000
# 3 48.4844 38.9687 132.3627 0.0000 0.0000 0.0000
# 4 0.0000 0.0000 0.0000 23.5883 0.0000 0.0000
# 5 0.0000 0.0000 0.0000 0.0000 39.8346 0.0000
# 6 0.0000 0.0000 0.0000 0.0000 0.0000 41.9332
#
#
#
# Elastic Compliance Matrix: (Units=1/GPa)
#
#
# Indices 1 2 3 4 5 6 
#
# 1 0.010522 -0.002470 -0.003127 0.000000 0.000000 0.000000
# 2 -0.002470 0.015765 -0.003737 0.000000 0.000000 0.000000
# 3 -0.003127 -0.003737 0.009800 0.000000 0.000000 0.000000
# 4 0.000000 0.000000 0.000000 0.042394 0.000000 0.000000
# 5 0.000000 0.000000 0.000000 0.000000 0.025104 0.000000
# 6 0.000000 0.000000 0.000000 0.000000 0.000000 0.023847
#
#
# Mechanical properties :
#
#
# Convention : Reuss Voigt Hill
#
# Bulk Modulus (GPa) = 57.40447 62.27689 59.84068
# Shear Modulus (GPa) = 32.91492 34.99994 33.95743
#
# Velocity S-wave (km/s) = 3.73505 3.85153 3.79374
# Velocity P-wave (km/s) = 6.55217 6.79517 6.67478
#
# Compressibility (1/GPa) = 0.01742025
#
# Stress axis : x y z
#
# Youngs Moduli (GPa) = 95.04037 63.43064 102.03580
#
# Poissons Ratio (x) = 0.15668 0.31906
# Poissons Ratio (y) = 0.23476 0.38127
# Poissons Ratio (z) = 0.29718 0.23702
#
# Static dielectric constant tensor:
#      x y z
#    x 4.325560 0.000000 0.000000 
#    y 0.000000 4.183990 0.000000 
#    z 0.000000 0.000000 4.537780 
# 
# 
# High freq. dielectric constant tensor:
#      x y z
#    x 1.935770 0.000000 0.000000 
#    y 0.000000 1.926770 0.000000 
#    z 0.000000 0.000000 1.956050 
# 
# From -- ./inp_files/4142.got.cif
#   From: 2010.03.12/outbox.cif.g09.slc.cpg/sg56_3_cif.got.tgz:4142.got - 2010.04.16 15:33:40.
