data_PCOD8229331
_publ_section_title
;
Structure prediction by ZEFSAII (Michael W. Deem and Ramdas Pophale) SiO2 
 PCOD8229331
Probable space group: P C C N
;
_chemical_formula_sum "Si O2"
_cell_formula_units_Z 48
_cell_length_a 13.369956
_cell_length_b 9.388315
_cell_length_c 18.157498
_cell_angle_alpha 90.000000
_cell_angle_beta 90.000000
_cell_angle_gamma 90.000000
_cell_volume 2279.153815
_symmetry_space_group_name_H-M "P C C N"
_symmetry_group_IT_number 56
_symmetry_cell_setting 'orthorhombic'
loop_
_space_group_symop_operation_xyz
x,y,z
1/2-x,1/2-y,z
1/2+x,-y,1/2-z
-x,1/2+y,1/2-z
-x,-y,-z
1/2+x,1/2+y,-z
1/2-x,y,1/2+z
x,1/2-y,1/2+z
loop_
_atom_site_type_symbol
_atom_site_label
_atom_site_fract_x
_atom_site_fract_y
_atom_site_fract_z
Si Si1 0.783163 0.053059 0.274290
Si Si2 0.561923 0.121613 0.899373
Si Si3 0.750000 0.250000 0.656454
Si Si4 0.250000 0.250000 0.703434
Si Si5 0.417015 0.872578 0.932576
Si Si6 0.034852 0.306874 0.667325
Si Si7 0.054242 0.874238 0.200908
O O1 0.853029 0.057982 0.345944
O O2 0.824432 0.150496 0.206829
O O3 0.674135 0.119929 0.291255
O O4 0.774742 0.889127 0.247186
O O5 0.527806 0.275862 0.869686
O O6 0.466207 0.018535 0.903589
O O7 0.606085 0.132598 0.981141
O O8 0.811315 0.139125 0.607880
O O9 0.154222 0.291774 0.653956
O O10 0.484922 0.736037 0.910369
O O11 0.007955 0.468502 0.690414
O O12 0.998313 0.193155 0.728012
#
# Coordination Sequence:
#
# PCOD8229331 Si02
#       7
#     8   8   4   4   8   8   8
#     4  11  21  41  66  96 124 172 222 273 331 400
#     4  11  23  44  65  93 131 181 217 270 342 403
#     4  12  24  40  66 104 122 174 224 278 332 390
#     4  10  24  36  68  92 134 170 218 274 342 386
#     4  11  25  41  67  93 138 171 222 276 333 406
#     4  11  22  42  62 101 129 174 223 279 328 398
#     4  11  23  37  68  94 131 170 221 277 331 392
#
# _framework density 21.060448000000001
#
# number of rings (size 3 to 8) (size 9 to 14) (size 15 to 20)
#    0.000    1.000    5.000    1.000    7.000    0.667 
#    0.000    0.000    0.000    2.000    0.000    0.000 
#    0.000    0.000    0.000    0.000    0.000    0.000 
#
# Total GULP energy -595015.135245 kJ/mol
# GULP energy per Si atom -12396.148651 kJ/mol
# Density = 2.101251 g / cm^3
# Si number density = 21.060448 Si / 1000 Ang^3
#
#
#
# Elastic Constant Matrix: (Units=GPa)
#
#
# Indices 1 2 3 4 5 6 
#
# 1 78.1401 33.5597 44.2412 0.0000 0.0000 0.0000
# 2 33.5597 160.5026 66.5802 0.0000 0.0000 0.0000
# 3 44.2412 66.5802 131.1628 0.0000 0.0000 0.0000
# 4 0.0000 0.0000 0.0000 27.0358 0.0000 0.0000
# 5 0.0000 0.0000 0.0000 0.0000 24.7032 0.0000
# 6 0.0000 0.0000 0.0000 0.0000 0.0000 37.5629
#
#
#
# Elastic Compliance Matrix: (Units=1/GPa)
#
#
# Indices 1 2 3 4 5 6 
#
# 1 0.016066 -0.001408 -0.004704 0.000000 0.000000 0.000000
# 2 -0.001408 0.008016 -0.003594 0.000000 0.000000 0.000000
# 3 -0.004704 -0.003594 0.011035 0.000000 0.000000 0.000000
# 4 0.000000 0.000000 0.000000 0.036988 0.000000 0.000000
# 5 0.000000 0.000000 0.000000 0.000000 0.040481 0.000000
# 6 0.000000 0.000000 0.000000 0.000000 0.000000 0.026622
#
#
# Mechanical properties :
#
#
# Convention : Reuss Voigt Hill
#
# Bulk Modulus (GPa) = 63.67670 73.17420 68.42545
# Shear Modulus (GPa) = 30.51495 32.88867 31.70181
#
# Velocity S-wave (km/s) = 3.81060 3.95604 3.88400
# Velocity P-wave (km/s) = 7.04711 7.46239 7.25772
#
# Compressibility (1/GPa) = 0.01570433
#
# Stress axis : x y z
#
# Youngs Moduli (GPa) = 62.24476 124.75577 90.61842
#
# Poissons Ratio (x) = 0.17562 0.42630
# Poissons Ratio (y) = 0.08762 0.32569
# Poissons Ratio (z) = 0.29282 0.44838
#
# Static dielectric constant tensor:
#      x y z
#    x 3.941910 0.000000 0.000000 
#    y 0.000000 4.302930 0.000000 
#    z 0.000000 0.000000 3.690000 
# 
# 
# High freq. dielectric constant tensor:
#      x y z
#    x 1.835910 0.000000 0.000000 
#    y 0.000000 1.849160 0.000000 
#    z 0.000000 0.000000 1.791270 
# 
# From -- ./inp_files/16207.got.cif
#   From: 2010.03.12/outbox.cif.g09.slc.cpg/sg56_9_cif.got.tgz:16207.got - 2010.04.16 15:33:40.
