data_PCOD8229726
_publ_section_title
;
Structure prediction by ZEFSAII (Michael W. Deem and Ramdas Pophale) SiO2 
 PCOD8229726
Probable space group: P C C N
;
_chemical_formula_sum "Si O2"
_cell_formula_units_Z 56
_cell_length_a 13.375963
_cell_length_b 20.126704
_cell_length_c 9.464499
_cell_angle_alpha 90.000000
_cell_angle_beta 90.000000
_cell_angle_gamma 90.000000
_cell_volume 2547.976088
_symmetry_space_group_name_H-M "P C C N"
_symmetry_group_IT_number 56
_symmetry_cell_setting 'orthorhombic'
loop_
_space_group_symop_operation_xyz
x,y,z
1/2-x,1/2-y,z
1/2+x,-y,1/2-z
-x,1/2+y,1/2-z
-x,-y,-z
1/2+x,1/2+y,-z
1/2-x,y,1/2+z
x,1/2-y,1/2+z
loop_
_atom_site_type_symbol
_atom_site_label
_atom_site_fract_x
_atom_site_fract_y
_atom_site_fract_z
Si Si1 0.148067 0.783301 0.813148
Si Si2 0.673724 0.803880 0.634443
Si Si3 0.978801 0.229104 0.443932
Si Si4 0.445009 0.408095 0.352353
Si Si5 0.221736 0.001010 0.486318
Si Si6 0.280388 0.124882 0.645932
Si Si7 0.846727 0.067472 0.251687
O O1 0.250000 0.750000 0.861766
O O2 0.168026 0.861589 0.820517
O O3 0.054723 0.758412 0.906471
O O4 0.118731 0.764591 0.654093
O O5 0.750000 0.750000 0.697801
O O6 0.562513 0.777481 0.620457
O O7 0.682878 0.862237 0.753115
O O8 0.718547 0.824692 0.483857
O O9 0.013613 0.151528 0.454092
O O10 0.380676 0.462993 0.435789
O O11 0.380268 0.367989 0.238059
O O12 0.534601 0.446151 0.270547
O O13 0.280872 0.050762 0.586943
O O14 0.292270 0.983659 0.354097
O O15 0.197951 0.938245 0.588325
#
# Coordination Sequence:
#
# PCOD8229726 Si02
#       7
#     8   8   8   8   8   8   8
#     4  11  27  49  73 103 139 184 246 300 355 421
#     4  12  23  37  68 101 149 184 225 288 362 427
#     4  11  25  44  72 107 142 184 235 295 367 426
#     4  11  24  46  70 107 143 183 245 290 356 433
#     4  12  24  49  70 101 144 193 235 298 351 419
#     4  12  23  42  66 104 150 181 233 290 356 431
#     4  11  27  46  74  99 142 188 246 292 353 427
#
# _framework density 21.978228000000001
#
# number of rings (size 3 to 8) (size 9 to 14) (size 15 to 20)
#    0.000    0.571    4.286    3.000   10.000    0.571 
#    0.000    1.429    0.000    0.000    0.000    0.000 
#    0.000    0.000    0.000    0.000    0.000    0.000 
#
# Total GULP energy -694177.679767 kJ/mol
# GULP energy per Si atom -12396.029996 kJ/mol
# Density = 2.192820 g / cm^3
# Si number density = 21.978228 Si / 1000 Ang^3
#
#
#
# Elastic Constant Matrix: (Units=GPa)
#
#
# Indices 1 2 3 4 5 6 
#
# 1 109.2623 51.8128 34.3127 0.0000 0.0000 0.0000
# 2 51.8128 108.0931 53.1703 0.0000 0.0000 0.0000
# 3 34.3127 53.1703 114.1237 0.0000 0.0000 0.0000
# 4 0.0000 0.0000 0.0000 37.6889 0.0000 0.0000
# 5 0.0000 0.0000 0.0000 0.0000 36.2746 0.0000
# 6 0.0000 0.0000 0.0000 0.0000 0.0000 40.1936
#
#
#
# Elastic Compliance Matrix: (Units=1/GPa)
#
#
# Indices 1 2 3 4 5 6 
#
# 1 0.011970 -0.005147 -0.001201 0.000000 0.000000 0.000000
# 2 -0.005147 0.014215 -0.005075 0.000000 0.000000 0.000000
# 3 -0.001201 -0.005075 0.011488 0.000000 0.000000 0.000000
# 4 0.000000 0.000000 0.000000 0.026533 0.000000 0.000000
# 5 0.000000 0.000000 0.000000 0.000000 0.027567 0.000000
# 6 0.000000 0.000000 0.000000 0.000000 0.000000 0.024880
#
#
# Mechanical properties :
#
#
# Convention : Reuss Voigt Hill
#
# Bulk Modulus (GPa) = 67.44574 67.78565 67.61569
# Shear Modulus (GPa) = 34.61603 35.64365 35.12984
#
# Velocity S-wave (km/s) = 3.97295 4.03149 4.00233
# Velocity P-wave (km/s) = 7.19722 7.25119 7.22425
#
# Compressibility (1/GPa) = 0.01482673
#
# Stress axis : x y z
#
# Youngs Moduli (GPa) = 83.54109 70.34893 87.04680
#
# Poissons Ratio (x) = 0.36208 0.10454
# Poissons Ratio (y) = 0.42998 0.44178
# Poissons Ratio (z) = 0.10033 0.35704
#
# Static dielectric constant tensor:
#      x y z
#    x 4.035360 0.000000 0.000000 
#    y 0.000000 4.073060 0.000000 
#    z 0.000000 0.000000 4.044650 
# 
# 
# High freq. dielectric constant tensor:
#      x y z
#    x 1.862500 0.000000 0.000000 
#    y 0.000000 1.861740 0.000000 
#    z 0.000000 0.000000 1.874220 
# 
# From -- ./inp_files/3554.got.cif
#   From: 2010.03.12/outbox.cif.g09.slc.cpg/sg56_2_cif.got.tgz:3554.got - 2010.04.16 15:33:40.
