data_PCOD8229261
_publ_section_title
;
Structure prediction by ZEFSAII (Michael W. Deem and Ramdas Pophale) SiO2 
 PCOD8229261
Probable space group: P C C N
;
_chemical_formula_sum "Si O2"
_cell_formula_units_Z 48
_cell_length_a 12.176736
_cell_length_b 20.834634
_cell_length_c 8.941895
_cell_angle_alpha 90.000000
_cell_angle_beta 90.000000
_cell_angle_gamma 90.000000
_cell_volume 2268.539428
_symmetry_space_group_name_H-M "P C C N"
_symmetry_group_IT_number 56
_symmetry_cell_setting 'orthorhombic'
loop_
_space_group_symop_operation_xyz
x,y,z
1/2-x,1/2-y,z
1/2+x,-y,1/2-z
-x,1/2+y,1/2-z
-x,-y,-z
1/2+x,1/2+y,-z
1/2-x,y,1/2+z
x,1/2-y,1/2+z
loop_
_atom_site_type_symbol
_atom_site_label
_atom_site_fract_x
_atom_site_fract_y
_atom_site_fract_z
Si Si1 0.609608 0.588796 0.651544
Si Si2 0.857207 0.285090 0.269440
Si Si3 0.060865 0.675239 0.022766
Si Si4 0.064617 0.524949 0.357173
Si Si5 0.274320 0.594163 0.054916
Si Si6 0.286845 0.041902 0.153647
O O1 0.557428 0.654350 0.588142
O O2 0.509227 0.550113 0.722120
O O3 0.665269 0.554712 0.509720
O O4 0.699675 0.595414 0.785469
O O5 0.750000 0.250000 0.195439
O O6 0.903582 0.236781 0.388075
O O7 0.832139 0.352356 0.346543
O O8 0.950224 0.299440 0.146335
O O9 0.151214 0.617954 0.016773
O O10 0.151837 0.580809 0.405564
O O11 0.122476 0.462706 0.284134
O O12 0.000000 0.500000 0.500000
O O13 0.272368 0.527470 0.146244
#
# Coordination Sequence:
#
# PCOD8229261 Si02
#       6
#     8   8   8   8   8   8
#     4  12  26  43  67  98 140 189 230 284 353 417
#     4  10  23  42  66 101 135 176 223 291 343 411
#     4  11  25  41  68  97 135 178 229 275 354 410
#     4  12  24  38  64 101 138 181 220 276 353 423
#     4  11  22  38  67  99 144 164 216 285 348 425
#     4  12  24  43  63 101 141 177 233 282 349 421
#
# _framework density 21.158988000000001
#
# number of rings (size 3 to 8) (size 9 to 14) (size 15 to 20)
#    0.000    0.667    5.000    3.000    7.000    0.000 
#    0.000    0.000    0.000    3.000    0.000    0.000 
#    0.000    0.000    0.000    0.000    0.000    0.000 
#
# Total GULP energy -594801.373525 kJ/mol
# GULP energy per Si atom -12391.695282 kJ/mol
# Density = 2.111083 g / cm^3
# Si number density = 21.158988 Si / 1000 Ang^3
#
#
#
# Elastic Constant Matrix: (Units=GPa)
#
#
# Indices 1 2 3 4 5 6 
#
# 1 87.5470 26.7903 57.3741 0.0000 0.0000 0.0000
# 2 26.7903 69.1778 39.3458 0.0000 0.0000 0.0000
# 3 57.3741 39.3458 134.9491 0.0000 0.0000 0.0000
# 4 0.0000 0.0000 0.0000 15.1397 0.0000 0.0000
# 5 0.0000 0.0000 0.0000 0.0000 53.4812 0.0000
# 6 0.0000 0.0000 0.0000 0.0000 0.0000 -77.0032
#
#
#
# Elastic Compliance Matrix: (Units=1/GPa)
#
#
# Indices 1 2 3 4 5 6 
#
# 1 0.016287 -0.002840 -0.006096 0.000000 0.000000 0.000000
# 2 -0.002840 0.017824 -0.003989 0.000000 0.000000 0.000000
# 3 -0.006096 -0.003989 0.011165 0.000000 0.000000 0.000000
# 4 0.000000 0.000000 0.000000 0.066051 0.000000 0.000000
# 5 0.000000 0.000000 0.000000 0.000000 0.018698 0.000000
# 6 0.000000 0.000000 0.000000 0.000000 0.000000 -0.012986
#
#
# Mechanical properties :
#
#
# Convention : Reuss Voigt Hill
#
# Bulk Modulus (GPa) = 51.48044 59.85493 55.66768
# Shear Modulus (GPa) = 33.47482 9.53446 21.50464
#
# Velocity S-wave (km/s) = 3.98183 2.12506 3.19146
# Velocity P-wave (km/s) = 6.74708 5.86266 6.32036
#
# Compressibility (1/GPa) = 0.01942486
#
# Stress axis : x y z
#
# Youngs Moduli (GPa) = 61.39962 56.10287 89.56343
#
# Poissons Ratio (x) = 0.15933 0.54601
# Poissons Ratio (y) = 0.17437 0.35731
# Poissons Ratio (z) = 0.37431 0.22382
#
# Static dielectric constant tensor:
#      x y z
#    x 4.128050 0.000000 0.000000 
#    y 0.000000 3.817620 0.000000 
#    z 0.000000 0.000000 4.049610 
# 
# 
# High freq. dielectric constant tensor:
#      x y z
#    x 1.816830 0.000000 0.000000 
#    y 0.000000 1.799060 0.000000 
#    z 0.000000 0.000000 1.856250 
# 
# From -- ./inp_files/2778.got.cif
#   From: 2010.03.12/outbox.cif.g09.slc.cpg/sg56_2_cif.got.tgz:2778.got - 2010.04.16 15:33:40.
