data_PCOD8229034
_publ_section_title
;
Structure prediction by ZEFSAII (Michael W. Deem and Ramdas Pophale) SiO2 
 PCOD8229034
Probable space group: P C C N
;
_chemical_formula_sum "Si O2"
_cell_formula_units_Z 36
_cell_length_a 7.826602
_cell_length_b 10.898630
_cell_length_c 19.388387
_cell_angle_alpha 90.000000
_cell_angle_beta 90.000000
_cell_angle_gamma 90.000000
_cell_volume 1653.814663
_symmetry_space_group_name_H-M "P C C N"
_symmetry_group_IT_number 56
_symmetry_cell_setting 'orthorhombic'
loop_
_space_group_symop_operation_xyz
x,y,z
1/2-x,1/2-y,z
1/2+x,-y,1/2-z
-x,1/2+y,1/2-z
-x,-y,-z
1/2+x,1/2+y,-z
1/2-x,y,1/2+z
x,1/2-y,1/2+z
loop_
_atom_site_type_symbol
_atom_site_label
_atom_site_fract_x
_atom_site_fract_y
_atom_site_fract_z
Si Si1 0.892135 0.011938 0.583724
Si Si2 0.750391 0.896201 0.458298
Si Si3 0.750000 0.250000 0.130553
Si Si4 0.254643 0.389948 0.792549
Si Si5 0.031125 0.429296 0.667403
O O1 0.829257 0.151327 0.579025
O O2 0.088916 0.018070 0.563468
O O3 0.756759 0.927449 0.539771
O O4 0.883560 0.963105 0.661753
O O5 0.750000 0.750000 0.446188
O O6 0.590072 0.944123 0.412882
O O7 0.602797 0.315844 0.176753
O O8 0.250000 0.250000 0.815603
O O9 0.199241 0.402333 0.712631
O O10 0.442654 0.445781 0.806176
#
# Coordination Sequence:
#
# PCOD8229034 Si02
#       5
#     8   8   4   8   8
#     4  10  23  42  64  99 129 174 226 267 340 392
#     4  11  21  42  69  94 133 175 221 279 328 401
#     4  10  22  40  64  94 130 178 216 270 330 412
#     4  11  25  42  63  95 134 169 222 278 324 402
#     4  11  24  41  69  94 131 179 222 267 347 385
#
# _framework density 21.767858
#
# number of rings (size 3 to 8) (size 9 to 14) (size 15 to 20)
#    0.000    1.333    2.222    2.667    6.222    3.556 
#    8.000    0.000    0.000    0.000    0.000    0.000 
#    0.000    0.000    0.000    0.000    0.000    0.000 
#
# Total GULP energy -446036.411669 kJ/mol
# GULP energy per Si atom -12389.900324 kJ/mol
# Density = 2.171831 g / cm^3
# Si number density = 21.767858 Si / 1000 Ang^3
#
#
#
# Elastic Constant Matrix: (Units=GPa)
#
#
# Indices 1 2 3 4 5 6 
#
# 1 89.3550 38.6903 23.4667 0.0000 0.0000 0.0000
# 2 38.6903 111.6078 15.4879 0.0000 0.0000 0.0000
# 3 23.4667 15.4879 68.3657 0.0000 0.0000 0.0000
# 4 0.0000 0.0000 0.0000 24.1563 0.0000 0.0000
# 5 0.0000 0.0000 0.0000 0.0000 32.5514 0.0000
# 6 0.0000 0.0000 0.0000 0.0000 0.0000 34.3054
#
#
#
# Elastic Compliance Matrix: (Units=1/GPa)
#
#
# Indices 1 2 3 4 5 6 
#
# 1 0.014085 -0.004349 -0.003850 0.000000 0.000000 0.000000
# 2 -0.004349 0.010593 -0.000907 0.000000 0.000000 0.000000
# 3 -0.003850 -0.000907 0.016154 0.000000 0.000000 0.000000
# 4 0.000000 0.000000 0.000000 0.041397 0.000000 0.000000
# 5 0.000000 0.000000 0.000000 0.000000 0.030721 0.000000
# 6 0.000000 0.000000 0.000000 0.000000 0.000000 0.029150
#
#
# Mechanical properties :
#
#
# Convention : Reuss Voigt Hill
#
# Bulk Modulus (GPa) = 44.20508 47.17979 45.69244
# Shear Modulus (GPa) = 29.78816 30.98152 30.38484
#
# Velocity S-wave (km/s) = 3.70327 3.77672 3.74017
# Velocity P-wave (km/s) = 6.21588 6.38273 6.29986
#
# Compressibility (1/GPa) = 0.02262183
#
# Stress axis : x y z
#
# Youngs Moduli (GPa) = 70.99625 94.39892 61.90367
#
# Poissons Ratio (x) = 0.41050 0.23831
# Poissons Ratio (y) = 0.30874 0.05616
# Poissons Ratio (z) = 0.27331 0.08564
#
# Static dielectric constant tensor:
#      x y z
#    x 3.908030 0.000000 0.000000 
#    y 0.000000 3.990910 0.000000 
#    z 0.000000 0.000000 3.983270 
# 
# 
# High freq. dielectric constant tensor:
#      x y z
#    x 1.852090 0.000000 0.000000 
#    y 0.000000 1.855190 0.000000 
#    z 0.000000 0.000000 1.853610 
# 
# From -- ./inp_files/17943.got.cif
#   From: 2010.03.12/outbox.cif.g09.slc.cpg/sg56_9_cif.got.tgz:17943.got - 2010.04.16 15:33:40.
