data_PCOD8229440
_publ_section_title
;
Structure prediction by ZEFSAII (Michael W. Deem and Ramdas Pophale) SiO2 
 PCOD8229440
Probable space group: P C C N
;
_chemical_formula_sum "Si O2"
_cell_formula_units_Z 60
_cell_length_a 10.555014
_cell_length_b 8.230858
_cell_length_c 30.854413
_cell_angle_alpha 90.000000
_cell_angle_beta 90.000000
_cell_angle_gamma 90.000000
_cell_volume 2680.533328
_symmetry_space_group_name_H-M "P C C N"
_symmetry_group_IT_number 56
_symmetry_cell_setting 'orthorhombic'
loop_
_space_group_symop_operation_xyz
x,y,z
1/2-x,1/2-y,z
1/2+x,-y,1/2-z
-x,1/2+y,1/2-z
-x,-y,-z
1/2+x,1/2+y,-z
1/2-x,y,1/2+z
x,1/2-y,1/2+z
loop_
_atom_site_type_symbol
_atom_site_label
_atom_site_fract_x
_atom_site_fract_y
_atom_site_fract_z
Si Si1 0.256686 0.061617 0.308704
Si Si2 0.250000 0.750000 0.024553
Si Si3 0.423341 0.052513 0.387785
Si Si4 0.267871 0.057093 0.963279
Si Si5 0.517406 0.373065 0.421258
Si Si6 0.006049 0.045979 0.661711
Si Si7 0.277797 0.932180 0.214355
Si Si8 0.633579 0.644908 0.854392
O O1 0.250000 0.250000 0.296346
O O2 0.376984 0.023872 0.338700
O O3 0.139413 0.001062 0.337282
O O4 0.260871 0.959290 0.265051
O O5 0.126305 0.722488 0.053571
O O6 0.267565 0.578801 0.999134
O O7 0.321533 0.998450 0.423751
O O8 0.436950 0.243792 0.393883
O O9 0.560914 0.962444 0.391068
O O10 0.250000 0.250000 0.977172
O O11 0.417212 0.034433 0.952524
O O12 0.570217 0.495642 0.384792
O O13 0.076431 0.962392 0.702010
O O14 0.025305 0.238361 0.665354
O O15 0.250000 0.750000 0.201743
O O16 0.184948 0.042523 0.185956
O O17 0.750000 0.750000 0.874877
#
# Coordination Sequence:
#
# PCOD8229440 Si02
#       8
#     8   4   8   8   8   8   8   8
#     4  12  24  43  71 103 137 196 239 301 354 421
#     4  12  28  44  80 104 142 192 234 304 390 436
#     4  11  23  44  74  99 144 191 241 290 370 430
#     4  10  24  49  71 108 147 185 243 301 364 455
#     4  11  24  48  71 107 143 187 241 298 371 440
#     4  11  24  44  71  99 143 187 239 301 349 427
#     4  11  27  43  67 101 150 187 246 301 355 418
#     4  10  25  45  66 106 142 188 245 294 352 429
#
# _framework density 22.383604999999999
#
# number of rings (size 3 to 8) (size 9 to 14) (size 15 to 20)
#    0.000    1.067    2.667    2.800   10.267    2.133 
#    2.400    0.000    0.000    0.000    0.000    0.000 
#    0.000    0.000    0.000    0.000    0.000    0.000 
#
# Total GULP energy -743669.858964 kJ/mol
# GULP energy per Si atom -12394.497649 kJ/mol
# Density = 2.233266 g / cm^3
# Si number density = 22.383605 Si / 1000 Ang^3
#
#
#
# Elastic Constant Matrix: (Units=GPa)
#
#
# Indices 1 2 3 4 5 6 
#
# 1 108.4522 27.9156 47.1487 0.0000 0.0000 0.0000
# 2 27.9156 105.9299 39.5591 0.0000 0.0000 0.0000
# 3 47.1487 39.5591 105.5280 0.0000 0.0000 0.0000
# 4 0.0000 0.0000 0.0000 25.8746 0.0000 0.0000
# 5 0.0000 0.0000 0.0000 0.0000 52.9361 0.0000
# 6 0.0000 0.0000 0.0000 0.0000 0.0000 34.5912
#
#
#
# Elastic Compliance Matrix: (Units=1/GPa)
#
#
# Indices 1 2 3 4 5 6 
#
# 1 0.011596 -0.001304 -0.004692 0.000000 0.000000 0.000000
# 2 -0.001304 0.011123 -0.003587 0.000000 0.000000 0.000000
# 3 -0.004692 -0.003587 0.012917 0.000000 0.000000 0.000000
# 4 0.000000 0.000000 0.000000 0.038648 0.000000 0.000000
# 5 0.000000 0.000000 0.000000 0.000000 0.018891 0.000000
# 6 0.000000 0.000000 0.000000 0.000000 0.000000 0.028909
#
#
# Mechanical properties :
#
#
# Convention : Reuss Voigt Hill
#
# Bulk Modulus (GPa) = 60.71510 61.01744 60.86627
# Shear Modulus (GPa) = 34.07351 36.36616 35.21984
#
# Velocity S-wave (km/s) = 3.90584 4.03510 3.97100
# Velocity P-wave (km/s) = 6.89380 7.00203 6.94813
#
# Compressibility (1/GPa) = 0.01647037
#
# Stress axis : x y z
#
# Youngs Moduli (GPa) = 86.23549 89.90034 77.41469
#
# Poissons Ratio (x) = 0.11719 0.36326
# Poissons Ratio (y) = 0.11241 0.27772
# Poissons Ratio (z) = 0.40465 0.32251
#
# Static dielectric constant tensor:
#      x y z
#    x 4.239130 0.000000 0.000000 
#    y 0.000000 4.245870 0.000000 
#    z 0.000000 0.000000 3.818170 
# 
# 
# High freq. dielectric constant tensor:
#      x y z
#    x 1.891040 0.000000 0.000000 
#    y 0.000000 1.894690 0.000000 
#    z 0.000000 0.000000 1.866230 
# 
# From -- ./inp_files/22318.got.cif
#   From: 2010.03.12/outbox.cif.g09.slc.cpg/sg56_12_cif.got.tgz:22318.got - 2010.04.16 15:33:40.
