data_PCOD8229843
_publ_section_title
;
Structure prediction by ZEFSAII (Michael W. Deem and Ramdas Pophale) SiO2 
 PCOD8229843
Probable space group: P C C N
;
_chemical_formula_sum "Si O2"
_cell_formula_units_Z 24
_cell_length_a 4.794465
_cell_length_b 24.433526
_cell_length_c 8.416126
_cell_angle_alpha 90.000000
_cell_angle_beta 90.000000
_cell_angle_gamma 90.000000
_cell_volume 985.912847
_symmetry_space_group_name_H-M "P C C N"
_symmetry_group_IT_number 56
_symmetry_cell_setting 'orthorhombic'
loop_
_space_group_symop_operation_xyz
x,y,z
1/2-x,1/2-y,z
1/2+x,-y,1/2-z
-x,1/2+y,1/2-z
-x,-y,-z
1/2+x,1/2+y,-z
1/2-x,y,1/2+z
x,1/2-y,1/2+z
loop_
_atom_site_type_symbol
_atom_site_label
_atom_site_fract_x
_atom_site_fract_y
_atom_site_fract_z
Si Si1 0.119270 0.147587 0.192242
Si Si2 0.636530 0.310830 0.871380
Si Si3 0.128731 0.478375 0.661586
O O1 0.398783 0.179431 0.239711
O O2 0.896259 0.148541 0.336847
O O3 0.193411 0.085701 0.147415
O O4 0.983158 0.178834 0.044820
O O5 0.750000 0.250000 0.854809
O O6 0.917647 0.490337 0.806353
O O7 0.000000 0.500000 0.500000
#
# Coordination Sequence:
#
# PCOD8229843 Si02
#       3
#     8   8   8
#     4  12  25  47  72 104 142 185 234 290 349 417
#     4  12  27  47  72 102 139 186 236 291 351 415
#     4  12  25  44  71 106 143 185 232 287 349 418
#
# _framework density 24.342925999999999
#
# number of rings (size 3 to 8) (size 9 to 14) (size 15 to 20)
#    0.000    0.000    0.000   11.000    0.000    2.667 
#    0.000    1.667    0.000    0.000    0.000    0.000 
#    0.000    0.000    0.000    0.000    0.000    0.000 
#
# Total GULP energy -297827.897945 kJ/mol
# GULP energy per Si atom -12409.495748 kJ/mol
# Density = 2.428752 g / cm^3
# Si number density = 24.342926 Si / 1000 Ang^3
#
#
#
# Elastic Constant Matrix: (Units=GPa)
#
#
# Indices 1 2 3 4 5 6 
#
# 1 127.1062 77.6007 14.3325 0.0000 0.0000 0.0000
# 2 77.6007 166.1137 62.0431 0.0000 0.0000 0.0000
# 3 14.3325 62.0431 75.3977 0.0000 0.0000 0.0000
# 4 0.0000 0.0000 0.0000 39.6595 0.0000 0.0000
# 5 0.0000 0.0000 0.0000 0.0000 46.3210 0.0000
# 6 0.0000 0.0000 0.0000 0.0000 0.0000 34.5003
#
#
#
# Elastic Compliance Matrix: (Units=1/GPa)
#
#
# Indices 1 2 3 4 5 6 
#
# 1 0.011528 -0.006593 0.003234 0.000000 0.000000 0.000000
# 2 -0.006593 0.012462 -0.009001 0.000000 0.000000 0.000000
# 3 0.003234 -0.009001 0.020055 0.000000 0.000000 0.000000
# 4 0.000000 0.000000 0.000000 0.025215 0.000000 0.000000
# 5 0.000000 0.000000 0.000000 0.000000 0.021588 0.000000
# 6 0.000000 0.000000 0.000000 0.000000 0.000000 0.028985
#
#
# Mechanical properties :
#
#
# Convention : Reuss Voigt Hill
#
# Bulk Modulus (GPa) = 51.74860 75.17444 63.46152
# Shear Modulus (GPa) = 33.11331 38.40558 35.75945
#
# Velocity S-wave (km/s) = 3.69221 3.97632 3.83689
# Velocity P-wave (km/s) = 6.28338 7.21318 6.76427
#
# Compressibility (1/GPa) = 0.01932420
#
# Stress axis : x y z
#
# Youngs Moduli (GPa) = 86.74445 80.24329 49.86206
#
# Poissons Ratio (x) = 0.52907 -0.16126
# Poissons Ratio (y) = 0.57194 0.44883
# Poissons Ratio (z) = -0.28054 0.72231
#
# Static dielectric constant tensor:
#      x y z
#    x 4.969550 0.000000 0.000000 
#    y 0.000000 2.809890 0.000000 
#    z 0.000000 0.000000 4.657370 
# 
# 
# High freq. dielectric constant tensor:
#      x y z
#    x 1.992550 0.000000 0.000000 
#    y 0.000000 1.971790 0.000000 
#    z 0.000000 0.000000 1.978720 
# 
# From -- ./inp_files/1485.got.cif
#   From: 2010.03.12/outbox.cif.g09.slc.cpg/sg56_1_cif.got.tgz:1485.got - 2010.04.16 15:33:40.
