data_PCOD8229901
_publ_section_title
;
Structure prediction by ZEFSAII (Michael W. Deem and Ramdas Pophale) SiO2 
 PCOD8229901
Probable space group: P B C M
;
_chemical_formula_sum "Si O2"
_cell_formula_units_Z 48
_cell_length_a 27.482522
_cell_length_b 5.185339
_cell_length_c 16.821930
_cell_angle_alpha 90.000000
_cell_angle_beta 90.000000
_cell_angle_gamma 90.000000
_cell_volume 2397.229206
_symmetry_space_group_name_H-M "P B C M"
_symmetry_group_IT_number 57
_symmetry_cell_setting 'orthorhombic'
loop_
_space_group_symop_operation_xyz
x,y,z
-x,-y,1/2+z
x,1/2-y,-z
-x,1/2+y,1/2-z
-x,-y,-z
x,y,1/2-z
-x,1/2+y,z
x,1/2-y,1/2+z
loop_
_atom_site_type_symbol
_atom_site_label
_atom_site_fract_x
_atom_site_fract_y
_atom_site_fract_z
Si Si1 0.870069 0.004978 0.551263
Si Si2 0.718147 0.019448 0.343474
Si Si3 0.469196 0.021057 0.841630
Si Si4 0.624093 0.501579 0.947657
Si Si5 0.222112 0.022197 0.342983
Si Si6 0.021120 0.980147 0.410918
O O1 0.853218 0.250000 0.500000
O O2 0.830173 0.951489 0.617611
O O3 0.876864 0.750000 0.500000
O O4 0.921331 0.067324 0.592525
O O5 0.706806 0.018472 0.250000
O O6 0.743565 0.755782 0.371644
O O7 0.668003 0.058753 0.388664
O O8 0.753032 0.254730 0.367492
O O9 0.452669 0.038363 0.750000
O O10 0.508030 0.243534 0.861215
O O11 0.422974 0.068375 0.896229
O O12 0.613954 0.250000 0.000000
O O13 0.637066 0.750000 0.000000
O O14 0.212985 0.041444 0.250000
O O15 0.005424 0.242360 0.366253
O O16 0.000000 0.000000 0.500000
#
# Coordination Sequence:
#
# PCOD8229901 Si02
#       6
#     8   8   8   8   8   8
#     4  12  21  32  56  86 106 143 184 232 278 327
#     4  10  22  43  62  78 110 158 196 226 278 354
#     4  10  22  41  63  87 119 161 205 238 274 344
#     4  12  25  38  61  92 122 152 187 246 302 335
#     4  10  23  40  58  81 114 149 185 235 289 339
#     4  10  16  30  48  74 107 138 177 223 263 327
#
# _framework density 20.023116999999999
#
# number of rings (size 3 to 8) (size 9 to 14) (size 15 to 20)
#    0.000    1.333    3.333    3.500    0.000    6.000 
#    0.000    6.667    0.000    1.000    0.000    0.000 
#    0.000    0.000    0.000    0.000    0.000    0.000 
#
# Total GULP energy -595327.640950 kJ/mol
# GULP energy per Si atom -12402.659186 kJ/mol
# Density = 1.997754 g / cm^3
# Si number density = 20.023117 Si / 1000 Ang^3
#
#
#
# Elastic Constant Matrix: (Units=GPa)
#
#
# Indices 1 2 3 4 5 6 
#
# 1 104.7104 0.3232 45.4496 0.0000 0.0000 0.0000
# 2 0.3232 125.5010 20.8968 0.0000 0.0000 0.0000
# 3 45.4496 20.8968 41.7941 0.0000 0.0000 0.0000
# 4 0.0000 0.0000 0.0000 15.5562 0.0000 0.0000
# 5 0.0000 0.0000 0.0000 0.0000 -19.6101 0.0000
# 6 0.0000 0.0000 0.0000 0.0000 0.0000 34.1763
#
#
#
# Elastic Compliance Matrix: (Units=1/GPa)
#
#
# Indices 1 2 3 4 5 6 
#
# 1 0.019637 0.003823 -0.023266 0.000000 0.000000 0.000000
# 2 0.003823 0.009436 -0.008876 0.000000 0.000000 0.000000
# 3 -0.023266 -0.008876 0.053666 0.000000 0.000000 0.000000
# 4 0.000000 0.000000 0.000000 0.064283 0.000000 0.000000
# 5 0.000000 0.000000 0.000000 0.000000 -0.050994 0.000000
# 6 0.000000 0.000000 0.000000 0.000000 0.000000 0.029260
#
#
# Mechanical properties :
#
#
# Convention : Reuss Voigt Hill
#
# Bulk Modulus (GPa) = 38.31165 45.03829 41.67497
# Shear Modulus (GPa) = 26.22932 19.71354 22.97143
#
# Velocity S-wave (km/s) = 3.62325 3.14114 3.39078
# Velocity P-wave (km/s) = 6.05633 5.97475 6.01568
#
# Compressibility (1/GPa) = 0.02610172
#
# Stress axis : x y z
#
# Youngs Moduli (GPa) = 50.92399 105.97588 18.63377
#
# Poissons Ratio (x) = -0.40519 0.43354
# Poissons Ratio (y) = -0.19470 0.16539
# Poissons Ratio (z) = 1.18482 0.94063
#
# Static dielectric constant tensor:
#      x y z
#    x 3.595470 0.000000 0.000000 
#    y 0.000000 1.029300 0.000000 
#    z 0.000000 0.000000 3.370210 
# 
# 
# High freq. dielectric constant tensor:
#      x y z
#    x 1.790850 0.000000 0.000000 
#    y 0.000000 1.810580 0.000000 
#    z 0.000000 0.000000 1.753190 
# 
# From -- ./inp_files/19567.got.cif
#   From: 2010.03.12/outbox.cif.g09.slc.cpg/sg57_10_cif.got.tgz:19567.got - 2010.04.16 15:48:40.
