data_PCOD8229892
_publ_section_title
;
Structure prediction by ZEFSAII (Michael W. Deem and Ramdas Pophale) SiO2 
 PCOD8229892
Probable space group: P B C M
;
_chemical_formula_sum "Si O2"
_cell_formula_units_Z 52
_cell_length_a 19.511800
_cell_length_b 9.133035
_cell_length_c 13.709555
_cell_angle_alpha 90.000000
_cell_angle_beta 90.000000
_cell_angle_gamma 90.000000
_cell_volume 2443.069466
_symmetry_space_group_name_H-M "P B C M"
_symmetry_group_IT_number 57
_symmetry_cell_setting 'orthorhombic'
loop_
_space_group_symop_operation_xyz
x,y,z
-x,-y,1/2+z
x,1/2-y,-z
-x,1/2+y,1/2-z
-x,-y,-z
x,y,1/2-z
-x,1/2+y,z
x,1/2-y,1/2+z
loop_
_atom_site_type_symbol
_atom_site_label
_atom_site_fract_x
_atom_site_fract_y
_atom_site_fract_z
Si Si1 0.118253 0.250000 0.000000
Si Si2 0.794348 0.022574 0.982247
Si Si3 0.016743 0.388701 0.862515
Si Si4 0.313144 0.375100 0.638696
Si Si5 0.689014 0.963766 0.363564
Si Si6 0.094253 0.676485 0.865085
Si Si7 0.428897 0.080644 0.505726
O O1 0.161183 0.107052 0.971925
O O2 0.072760 0.219290 0.093964
O O3 0.754354 0.964949 0.887461
O O4 0.840532 0.154078 0.936736
O O5 0.741129 0.064219 0.070614
O O6 0.023608 0.358034 0.750000
O O7 0.034264 0.556467 0.889376
O O8 0.939492 0.334720 0.893310
O O9 0.332026 0.391799 0.750000
O O10 0.296339 0.206632 0.611750
O O11 0.377298 0.447815 0.583545
O O12 0.697719 0.005420 0.250000
O O13 0.609630 0.980498 0.396840
O O14 0.115056 0.667791 0.750000
O O15 0.447494 0.250000 0.500000
O O16 0.500000 0.000000 0.500000
#
# Coordination Sequence:
#
# PCOD8229892 Si02
#       7
#     4   8   8   8   8   8   8
#     4  10  18  28  48  72  98 126 164 206 258 306
#     4  10  16  27  45  73  97 125 168 213 253 292
#     4   9  19  32  46  69  99 128 163 206 255 308
#     4   9  16  28  47  73 103 131 162 207 249 287
#     4   9  17  29  47  74 107 132 163 210 252 288
#     4   9  18  32  50  72  99 128 163 209 259 309
#     4   9  18  32  50  78 109 133 166 202 242 291
#
# _framework density 21.284700999999998
#
# number of rings (size 3 to 8) (size 9 to 14) (size 15 to 20)
#    0.000    2.769    1.538    1.385    0.000    4.308 
#    0.000    0.000    0.000    0.923   24.000    0.000 
#    0.000    0.000    0.000    0.000    0.000    0.000 
#
# Total GULP energy -644206.416635 kJ/mol
# GULP energy per Si atom -12388.584935 kJ/mol
# Density = 2.123626 g / cm^3
# Si number density = 21.284701 Si / 1000 Ang^3
#
#
#
# Elastic Constant Matrix: (Units=GPa)
#
#
# Indices 1 2 3 4 5 6 
#
# 1 122.8813 37.6959 53.2396 0.0000 0.0000 0.0000
# 2 37.6959 37.4195 32.2767 0.0000 0.0000 0.0000
# 3 53.2396 32.2767 87.8998 0.0000 0.0000 0.0000
# 4 0.0000 0.0000 0.0000 19.7959 0.0000 0.0000
# 5 0.0000 0.0000 0.0000 0.0000 25.3732 0.0000
# 6 0.0000 0.0000 0.0000 0.0000 0.0000 17.9385
#
#
#
# Elastic Compliance Matrix: (Units=1/GPa)
#
#
# Indices 1 2 3 4 5 6 
#
# 1 0.012861 -0.009128 -0.004438 0.000000 0.000000 0.000000
# 2 -0.009128 0.045591 -0.011212 0.000000 0.000000 0.000000
# 3 -0.004438 -0.011212 0.018182 0.000000 0.000000 0.000000
# 4 0.000000 0.000000 0.000000 0.050515 0.000000 0.000000
# 5 0.000000 0.000000 0.000000 0.000000 0.039412 0.000000
# 6 0.000000 0.000000 0.000000 0.000000 0.000000 0.055746
#
#
# Mechanical properties :
#
#
# Convention : Reuss Voigt Hill
#
# Bulk Modulus (GPa) = 36.93150 54.95831 45.94490
# Shear Modulus (GPa) = 17.80072 20.95409 19.37740
#
# Velocity S-wave (km/s) = 2.89505 3.14103 3.02054
# Velocity P-wave (km/s) = 5.34452 6.24751 5.81357
#
# Compressibility (1/GPa) = 0.02707716
#
# Stress axis : x y z
#
# Youngs Moduli (GPa) = 77.75565 21.93439 55.00051
#
# Poissons Ratio (x) = 0.20021 0.24408
# Poissons Ratio (y) = 0.70974 0.61668
# Poissons Ratio (z) = 0.34507 0.24593
#
# Static dielectric constant tensor:
#      x y z
#    x 3.879670 0.000000 0.000000 
#    y 0.000000 3.644250 0.000000 
#    z 0.000000 0.000000 3.970630 
# 
# 
# High freq. dielectric constant tensor:
#      x y z
#    x 1.831760 0.000000 0.000000 
#    y 0.000000 1.805480 0.000000 
#    z 0.000000 0.000000 1.843210 
# 
# From -- ./inp_files/19063.got.cif
#   From: 2010.03.12/outbox.cif.g09.slc.cpg/sg57_10_cif.got.tgz:19063.got - 2010.04.16 15:48:40.
