data_PCOD8229085
_publ_section_title
;
Structure prediction by ZEFSAII (Michael W. Deem and Ramdas Pophale) SiO2 
 PCOD8229085
Probable space group: P C C N
;
_chemical_formula_sum "Si O2"
_cell_formula_units_Z 60
_cell_length_a 28.596568
_cell_length_b 11.452597
_cell_length_c 8.747683
_cell_angle_alpha 90.000000
_cell_angle_beta 90.000000
_cell_angle_gamma 90.000000
_cell_volume 2864.909649
_symmetry_space_group_name_H-M "P C C N"
_symmetry_group_IT_number 56
_symmetry_cell_setting 'orthorhombic'
loop_
_space_group_symop_operation_xyz
x,y,z
1/2-x,1/2-y,z
1/2+x,-y,1/2-z
-x,1/2+y,1/2-z
-x,-y,-z
1/2+x,1/2+y,-z
1/2-x,y,1/2+z
x,1/2-y,1/2+z
loop_
_atom_site_type_symbol
_atom_site_label
_atom_site_fract_x
_atom_site_fract_y
_atom_site_fract_z
Si Si1 0.250000 0.750000 0.511033
Si Si2 0.716948 0.084789 0.735510
Si Si3 0.435439 0.153655 0.103737
Si Si4 0.344503 0.276207 0.996355
Si Si5 0.962769 0.095675 0.051359
Si Si6 0.284216 0.142135 0.771948
Si Si7 0.001243 0.284948 0.839123
Si Si8 0.619900 0.516133 0.190095
O O1 0.223215 0.844494 0.610137
O O2 0.283582 0.826972 0.406008
O O3 0.754941 0.979121 0.716518
O O4 0.663363 0.053628 0.750461
O O5 0.464213 0.203363 0.245541
O O6 0.414695 0.031485 0.163906
O O7 0.392419 0.239402 0.073803
O O8 0.467858 0.136213 0.955334
O O9 0.316363 0.164468 0.923920
O O10 0.358453 0.360059 0.858127
O O11 0.314281 0.353536 0.116071
O O12 0.973247 0.132092 0.225799
O O13 0.909863 0.044588 0.052650
O O14 0.965304 0.205172 0.936620
O O15 0.000000 0.000000 0.000000
O O16 0.250000 0.250000 0.764526
#
# Coordination Sequence:
#
# PCOD8229085 Si02
#       8
#     4   8   8   8   8   8   8   8
#     4  10  26  50  66  82 132 190 230 268 318 390
#     4  11  25  45  68  92 129 180 230 274 325 398
#     4  11  19  39  61 100 135 170 209 272 342 407
#     4  12  22  37  63 106 142 167 204 277 352 410
#     4  11  23  44  67  95 132 177 219 277 340 401
#     4  12  24  38  67 105 136 167 216 274 353 407
#     4  10  22  41  68  92 136 175 222 268 335 408
#     4  12  23  38  68  95 134 170 224 281 335 398
#
# _framework density 20.943068
#
# number of rings (size 3 to 8) (size 9 to 14) (size 15 to 20)
#    0.000    0.800    5.333    2.000    3.733    1.600 
#    0.000    0.000    0.000    0.000    0.000    0.000 
#    0.000    0.000    0.000    0.000    0.000    0.000 
#
# Total GULP energy -743613.546885 kJ/mol
# GULP energy per Si atom -12393.559115 kJ/mol
# Density = 2.089540 g / cm^3
# Si number density = 20.943068 Si / 1000 Ang^3
#
#
#
# Elastic Constant Matrix: (Units=GPa)
#
#
# Indices 1 2 3 4 5 6 
#
# 1 69.2766 34.7647 25.3876 0.0000 0.0000 0.0000
# 2 34.7647 99.0170 34.5220 0.0000 0.0000 0.0000
# 3 25.3876 34.5220 107.7018 0.0000 0.0000 0.0000
# 4 0.0000 0.0000 0.0000 36.9656 0.0000 0.0000
# 5 0.0000 0.0000 0.0000 0.0000 11.3038 0.0000
# 6 0.0000 0.0000 0.0000 0.0000 0.0000 30.7072
#
#
#
# Elastic Compliance Matrix: (Units=1/GPa)
#
#
# Indices 1 2 3 4 5 6 
#
# 1 0.018106 -0.005481 -0.002511 0.000000 0.000000 0.000000
# 2 -0.005481 0.013029 -0.002884 0.000000 0.000000 0.000000
# 3 -0.002511 -0.002884 0.010801 0.000000 0.000000 0.000000
# 4 0.000000 0.000000 0.000000 0.027052 0.000000 0.000000
# 5 0.000000 0.000000 0.000000 0.000000 0.088466 0.000000
# 6 0.000000 0.000000 0.000000 0.000000 0.000000 0.032566
#
#
# Mechanical properties :
#
#
# Convention : Reuss Voigt Hill
#
# Bulk Modulus (GPa) = 49.54629 51.70489 50.62559
# Shear Modulus (GPa) = 22.88313 27.88338 25.38325
#
# Velocity S-wave (km/s) = 3.30909 3.65278 3.48517
# Velocity P-wave (km/s) = 6.18943 6.52168 6.35773
#
# Compressibility (1/GPa) = 0.02018315
#
# Stress axis : x y z
#
# Youngs Moduli (GPa) = 55.23096 76.74951 92.58162
#
# Poissons Ratio (x) = 0.42070 0.23247
# Poissons Ratio (y) = 0.30275 0.26703
# Poissons Ratio (z) = 0.13868 0.22137
#
# Static dielectric constant tensor:
#      x y z
#    x 4.273950 0.000000 0.000000 
#    y 0.000000 3.964680 0.000000 
#    z 0.000000 0.000000 4.198240 
# 
# 
# High freq. dielectric constant tensor:
#      x y z
#    x 1.823670 0.000000 0.000000 
#    y 0.000000 1.809150 0.000000 
#    z 0.000000 0.000000 1.835340 
# 
# From -- ./inp_files/2951.got.cif
#   From: 2010.03.12/outbox.cif.g09.slc.cpg/sg56_2_cif.got.tgz:2951.got - 2010.04.16 15:33:40.
