data_PCOD8229147
_publ_section_title
;
Structure prediction by ZEFSAII (Michael W. Deem and Ramdas Pophale) SiO2 
 PCOD8229147
Probable space group: P C C N
;
_chemical_formula_sum "Si O2"
_cell_formula_units_Z 40
_cell_length_a 24.893225
_cell_length_b 5.115700
_cell_length_c 13.710293
_cell_angle_alpha 90.000000
_cell_angle_beta 90.000000
_cell_angle_gamma 90.000000
_cell_volume 1745.954690
_symmetry_space_group_name_H-M "P C C N"
_symmetry_group_IT_number 56
_symmetry_cell_setting 'orthorhombic'
loop_
_space_group_symop_operation_xyz
x,y,z
1/2-x,1/2-y,z
1/2+x,-y,1/2-z
-x,1/2+y,1/2-z
-x,-y,-z
1/2+x,1/2+y,-z
1/2-x,y,1/2+z
x,1/2-y,1/2+z
loop_
_atom_site_type_symbol
_atom_site_label
_atom_site_fract_x
_atom_site_fract_y
_atom_site_fract_z
Si Si1 0.876932 0.089656 0.607198
Si Si2 0.359539 0.674591 0.087694
Si Si3 0.215856 0.512636 0.750188
Si Si4 0.983263 0.253081 0.193542
Si Si5 0.078258 0.165311 0.568019
O O1 0.847984 0.282516 0.528325
O O2 0.833049 0.953586 0.676177
O O3 0.919648 0.246303 0.672788
O O4 0.910525 0.866530 0.547992
O O5 0.304509 0.622783 0.145680
O O6 0.397085 0.430170 0.108030
O O7 0.391987 0.929103 0.127025
O O8 0.250000 0.750000 0.796268
O O9 0.250000 0.250000 0.734870
O O10 0.000100 0.462999 0.274793
O O11 0.015065 0.325687 0.093124
#
# Coordination Sequence:
#
# PCOD8229147 Si02
#       5
#     8   8   8   8   8
#     4  10  27  44  73  99 147 178 238 284 354 418
#     4  10  24  45  70  97 139 178 234 283 349 417
#     4  12  27  47  70 101 136 182 241 300 357 407
#     4  12  25  40  71 105 145 184 226 276 350 426
#     4  10  22  43  68 102 138 179 223 275 351 421
#
# _framework density 22.910098999999999
#
# number of rings (size 3 to 8) (size 9 to 14) (size 15 to 20)
#    1.200    0.000    0.000    5.400    5.600    1.600 
#    0.000    0.000    0.000    0.000    0.000    0.000 
#    0.000    0.000    0.000    0.000    0.000    0.000 
#
# Total GULP energy -495777.859555 kJ/mol
# GULP energy per Si atom -12394.446489 kJ/mol
# Density = 2.285796 g / cm^3
# Si number density = 22.910099 Si / 1000 Ang^3
#
#
#
# Elastic Constant Matrix: (Units=GPa)
#
#
# Indices 1 2 3 4 5 6 
#
# 1 97.0539 17.1342 30.9201 0.0000 0.0000 0.0000
# 2 17.1342 109.5937 8.0674 0.0000 0.0000 0.0000
# 3 30.9201 8.0674 82.0629 0.0000 0.0000 0.0000
# 4 0.0000 0.0000 0.0000 -8.6470 0.0000 0.0000
# 5 0.0000 0.0000 0.0000 0.0000 21.1378 0.0000
# 6 0.0000 0.0000 0.0000 0.0000 0.0000 34.9916
#
#
#
# Elastic Compliance Matrix: (Units=1/GPa)
#
#
# Indices 1 2 3 4 5 6 
#
# 1 0.011965 -0.001550 -0.004356 0.000000 0.000000 0.000000
# 2 -0.001550 0.009392 -0.000339 0.000000 0.000000 0.000000
# 3 -0.004356 -0.000339 0.013860 0.000000 0.000000 0.000000
# 4 0.000000 0.000000 0.000000 -0.115647 0.000000 0.000000
# 5 0.000000 0.000000 0.000000 0.000000 0.047309 0.000000
# 6 0.000000 0.000000 0.000000 0.000000 0.000000 0.028578
#
#
# Mechanical properties :
#
#
# Convention : Reuss Voigt Hill
#
# Bulk Modulus (GPa) = 44.00059 44.55044 44.27551
# Shear Modulus (GPa) = 322.11562 25.00242 173.55902
#
# Velocity S-wave (km/s) = 11.87034 3.30711 8.71327
# Velocity P-wave (km/s) = 14.39169 5.83700 10.98161
#
# Compressibility (1/GPa) = 0.02272697
#
# Stress axis : x y z
#
# Youngs Moduli (GPa) = 83.57780 106.47457 72.14828
#
# Poissons Ratio (x) = 0.16503 0.31427
# Poissons Ratio (y) = 0.12954 0.02448
# Poissons Ratio (z) = 0.36405 0.03613
#
# Static dielectric constant tensor:
#      x y z
#    x 4.089340 0.000000 0.000000 
#    y 0.000000 3.959790 0.000000 
#    z 0.000000 0.000000 4.046810 
# 
# 
# High freq. dielectric constant tensor:
#      x y z
#    x 1.897830 0.000000 0.000000 
#    y 0.000000 1.904780 0.000000 
#    z 0.000000 0.000000 1.897920 
# 
# From -- ./inp_files/13171.got.cif
#   From: 2010.03.12/outbox.cif.g09.slc.cpg/sg56_7_cif.got.tgz:13171.got - 2010.04.16 15:33:40.
