data_PCOD8229753
_publ_section_title
;
Structure prediction by ZEFSAII (Michael W. Deem and Ramdas Pophale) SiO2 
 PCOD8229753
Probable space group: P C C N
;
_chemical_formula_sum "Si O2"
_cell_formula_units_Z 56
_cell_length_a 15.321890
_cell_length_b 8.993792
_cell_length_c 18.997398
_cell_angle_alpha 90.000000
_cell_angle_beta 90.000000
_cell_angle_gamma 90.000000
_cell_volume 2617.877382
_symmetry_space_group_name_H-M "P C C N"
_symmetry_group_IT_number 56
_symmetry_cell_setting 'orthorhombic'
loop_
_space_group_symop_operation_xyz
x,y,z
1/2-x,1/2-y,z
1/2+x,-y,1/2-z
-x,1/2+y,1/2-z
-x,-y,-z
1/2+x,1/2+y,-z
1/2-x,y,1/2+z
x,1/2-y,1/2+z
loop_
_atom_site_type_symbol
_atom_site_label
_atom_site_fract_x
_atom_site_fract_y
_atom_site_fract_z
Si Si1 0.991361 0.574697 0.925623
Si Si2 0.837850 0.309718 0.242844
Si Si3 0.846748 0.231724 0.092046
Si Si4 0.420300 0.572966 0.034766
Si Si5 0.653269 0.802819 0.388665
Si Si6 0.338171 0.162531 0.774331
Si Si7 0.016749 0.788959 0.651696
O O1 0.919640 0.704307 0.927322
O O2 0.963492 0.462260 0.863025
O O3 0.089235 0.628287 0.912113
O O4 0.000000 0.500000 0.000000
O O5 0.750000 0.250000 0.282662
O O6 0.846443 0.197465 0.175698
O O7 0.827970 0.483292 0.220696
O O8 0.923009 0.282389 0.288774
O O9 0.750000 0.250000 0.065092
O O10 0.871196 0.106537 0.037249
O O11 0.360134 0.471568 0.085115
O O12 0.459501 0.709906 0.078529
O O13 0.500000 0.500000 0.000000
O O14 0.750000 0.750000 0.409871
O O15 0.638043 0.794967 0.305503
O O16 0.250000 0.250000 0.797336
O O17 0.415617 0.224850 0.824365
#
# Coordination Sequence:
#
# PCOD8229753 Si02
#       7
#     8   8   8   8   8   8   8
#     4  12  24  46  66 104 141 180 236 292 355 423
#     4  11  26  46  71 106 141 187 240 294 362 424
#     4  11  25  45  71  98 144 183 233 295 349 423
#     4  12  25  47  70 103 139 187 237 285 358 426
#     4  11  26  45  71 103 144 185 237 299 350 421
#     4  11  26  46  70 109 142 183 242 298 358 423
#     4  12  26  43  78  99 141 189 234 293 357 431
#
# _framework density 21.391375
#
# number of rings (size 3 to 8) (size 9 to 14) (size 15 to 20)
#    0.000    0.571    5.714    0.857    6.000    2.857 
#    0.000    0.714    0.000    0.000    0.000    0.000 
#    0.000    0.000    0.000    0.000    0.000    0.000 
#
# Total GULP energy -693736.536224 kJ/mol
# GULP energy per Si atom -12388.152433 kJ/mol
# Density = 2.134269 g / cm^3
# Si number density = 21.391375 Si / 1000 Ang^3
#
#
#
# Elastic Constant Matrix: (Units=GPa)
#
#
# Indices 1 2 3 4 5 6 
#
# 1 154.5040 56.6692 32.7220 0.0000 0.0000 0.0000
# 2 56.6692 99.6104 20.0671 0.0000 0.0000 0.0000
# 3 32.7220 20.0671 68.4329 0.0000 0.0000 0.0000
# 4 0.0000 0.0000 0.0000 29.6556 0.0000 0.0000
# 5 0.0000 0.0000 0.0000 0.0000 -3.0324 0.0000
# 6 0.0000 0.0000 0.0000 0.0000 0.0000 37.6959
#
#
#
# Elastic Compliance Matrix: (Units=1/GPa)
#
#
# Indices 1 2 3 4 5 6 
#
# 1 0.008679 -0.004359 -0.002872 0.000000 0.000000 0.000000
# 2 -0.004359 0.012859 -0.001686 0.000000 0.000000 0.000000
# 3 -0.002872 -0.001686 0.016481 0.000000 0.000000 0.000000
# 4 0.000000 0.000000 0.000000 0.033720 0.000000 0.000000
# 5 0.000000 0.000000 0.000000 0.000000 -0.329772 0.000000
# 6 0.000000 0.000000 0.000000 0.000000 0.000000 0.026528
#
#
# Mechanical properties :
#
#
# Convention : Reuss Voigt Hill
#
# Bulk Modulus (GPa) = 49.54412 60.16265 54.85339
# Shear Modulus (GPa) = -24.16133 27.06975 1.45421
#
# Velocity S-wave (km/s) = -3.36443 3.56118 0.82540
# Velocity P-wave (km/s) = 2.84930 6.71529 5.15818
#
# Compressibility (1/GPa) = 0.02018403
#
# Stress axis : x y z
#
# Youngs Moduli (GPa) = 115.21471 77.76757 60.67758
#
# Poissons Ratio (x) = 0.33901 0.17426
# Poissons Ratio (y) = 0.50225 0.10232
# Poissons Ratio (z) = 0.33088 0.13114
#
# Static dielectric constant tensor:
#      x y z
#    x 3.625490 0.000000 0.000000 
#    y 0.000000 3.794090 0.000000 
#    z 0.000000 0.000000 6.299590 
# 
# 
# High freq. dielectric constant tensor:
#      x y z
#    x 1.855880 0.000000 0.000000 
#    y 0.000000 1.837240 0.000000 
#    z 0.000000 0.000000 1.849890 
# 
# From -- ./inp_files/19118.got.cif
#   From: 2010.03.12/outbox.cif.g09.slc.cpg/sg56_10_cif.got.tgz:19118.got - 2010.04.16 15:33:40.
