data_PCOD8229907
_publ_section_title
;
Structure prediction by ZEFSAII (Michael W. Deem and Ramdas Pophale) SiO2 
 PCOD8229907
Probable space group: P B C M
;
_chemical_formula_sum "Si O2"
_cell_formula_units_Z 60
_cell_length_a 11.143777
_cell_length_b 16.245989
_cell_length_c 17.803280
_cell_angle_alpha 90.000000
_cell_angle_beta 90.000000
_cell_angle_gamma 90.000000
_cell_volume 3223.135695
_symmetry_space_group_name_H-M "P B C M"
_symmetry_group_IT_number 57
_symmetry_cell_setting 'orthorhombic'
loop_
_space_group_symop_operation_xyz
x,y,z
-x,-y,1/2+z
x,1/2-y,-z
-x,1/2+y,1/2-z
-x,-y,-z
x,y,1/2-z
-x,1/2+y,z
x,1/2-y,1/2+z
loop_
_atom_site_type_symbol
_atom_site_label
_atom_site_fract_x
_atom_site_fract_y
_atom_site_fract_z
Si Si1 0.127733 0.250000 0.500000
Si Si2 0.295314 0.105453 0.526045
Si Si3 0.138384 0.516912 0.938694
Si Si4 0.524357 0.693444 0.428571
Si Si5 0.260764 0.709745 0.081708
Si Si6 0.032956 0.619913 0.062020
Si Si7 0.710515 0.127754 0.665833
Si Si8 0.566755 0.846555 0.163987
O O1 0.212333 0.184697 0.541327
O O2 0.044801 0.296629 0.560434
O O3 0.385713 0.120788 0.454404
O O4 0.361335 0.093963 0.606277
O O5 0.215566 0.026984 0.504957
O O6 0.229467 0.553889 0.879448
O O7 0.047231 0.451633 0.898388
O O8 0.059813 0.588590 0.976962
O O9 0.504864 0.750000 0.500000
O O10 0.389119 0.662594 0.409561
O O11 0.575931 0.750047 0.360842
O O12 0.159469 0.641384 0.101347
O O13 0.246940 0.782403 0.141157
O O14 0.239693 0.750000 0.000000
O O15 0.753681 0.115037 0.750000
O O16 0.568270 0.121073 0.657210
O O17 0.613737 0.854496 0.250000
#
# Coordination Sequence:
#
# PCOD8229907 Si02
#       8
#     4   8   8   8   8   8   8   8
#     4  10  16  30  54  72 108 130 176 230 248 304
#     4  10  18  31  53  81 105 135 175 222 269 310
#     4  10  21  33  51  80 111 144 177 218 259 320
#     4   8  15  28  48  78 104 125 168 220 262 304
#     4  10  16  31  58  78 100 132 181 220 250 307
#     4  10  19  32  53  80 102 137 185 216 258 291
#     4  10  20  35  54  79 110 141 171 215 272 328
#     4   9  17  31  52  77 105 134 171 218 275 326
#
# _framework density 18.615411999999999
#
# number of rings (size 3 to 8) (size 9 to 14) (size 15 to 20)
#    0.000    2.400    4.000    0.800    0.000    0.533 
#    0.000    1.333    0.000   13.600    0.000    0.000 
#    0.000    0.000    0.000    0.000    0.000    0.000 
#
# Total GULP energy -743424.244870 kJ/mol
# GULP energy per Si atom -12390.404081 kJ/mol
# Density = 1.857304 g / cm^3
# Si number density = 18.615412 Si / 1000 Ang^3
#
#
#
# Elastic Constant Matrix: (Units=GPa)
#
#
# Indices 1 2 3 4 5 6 
#
# 1 99.7885 37.6697 30.2946 0.0000 0.0000 0.0000
# 2 37.6697 62.7170 28.1077 0.0000 0.0000 0.0000
# 3 30.2946 28.1077 92.5541 0.0000 0.0000 0.0000
# 4 0.0000 0.0000 0.0000 20.5999 0.0000 0.0000
# 5 0.0000 0.0000 0.0000 0.0000 9.5725 0.0000
# 6 0.0000 0.0000 0.0000 0.0000 0.0000 25.6533
#
#
#
# Elastic Compliance Matrix: (Units=1/GPa)
#
#
# Indices 1 2 3 4 5 6 
#
# 1 0.013349 -0.007014 -0.002239 0.000000 0.000000 0.000000
# 2 -0.007014 0.022142 -0.004429 0.000000 0.000000 0.000000
# 3 -0.002239 -0.004429 0.012882 0.000000 0.000000 0.000000
# 4 0.000000 0.000000 0.000000 0.048544 0.000000 0.000000
# 5 0.000000 0.000000 0.000000 0.000000 0.104466 0.000000
# 6 0.000000 0.000000 0.000000 0.000000 0.000000 0.038981
#
#
# Mechanical properties :
#
#
# Convention : Reuss Voigt Hill
#
# Bulk Modulus (GPa) = 47.59710 49.68927 48.64319
# Shear Modulus (GPa) = 18.19960 21.76431 19.98196
#
# Velocity S-wave (km/s) = 3.13015 3.42300 3.27985
# Velocity P-wave (km/s) = 6.21997 6.50946 6.36636
#
# Compressibility (1/GPa) = 0.02100968
#
# Stress axis : x y z
#
# Youngs Moduli (GPa) = 74.91312 45.16247 77.62581
#
# Poissons Ratio (x) = 0.31678 0.17382
# Poissons Ratio (y) = 0.52545 0.34377
# Poissons Ratio (z) = 0.16774 0.20000
#
# Static dielectric constant tensor:
#      x y z
#    x 3.854030 0.000000 0.000000 
#    y 0.000000 3.342380 0.000000 
#    z 0.000000 0.000000 3.306690 
# 
# 
# High freq. dielectric constant tensor:
#      x y z
#    x 1.743230 0.000000 0.000000 
#    y 0.000000 1.706410 0.000000 
#    z 0.000000 0.000000 1.669860 
# 
# From -- ./inp_files/21963.got.cif
#   From: 2010.03.12/outbox.cif.g09.slc.cpg/sg57_11_cif.got.tgz:21963.got - 2010.04.16 15:48:40.
