data_PCOD8229030
_publ_section_title
;
Structure prediction by ZEFSAII (Michael W. Deem and Ramdas Pophale) SiO2 
 PCOD8229030
Probable space group: P C C N
;
_chemical_formula_sum "Si O2"
_cell_formula_units_Z 60
_cell_length_a 15.625681
_cell_length_b 7.637889
_cell_length_c 24.123544
_cell_angle_alpha 90.000000
_cell_angle_beta 90.000000
_cell_angle_gamma 90.000000
_cell_volume 2879.077841
_symmetry_space_group_name_H-M "P C C N"
_symmetry_group_IT_number 56
_symmetry_cell_setting 'orthorhombic'
loop_
_space_group_symop_operation_xyz
x,y,z
1/2-x,1/2-y,z
1/2+x,-y,1/2-z
-x,1/2+y,1/2-z
-x,-y,-z
1/2+x,1/2+y,-z
1/2-x,y,1/2+z
x,1/2-y,1/2+z
loop_
_atom_site_type_symbol
_atom_site_label
_atom_site_fract_x
_atom_site_fract_y
_atom_site_fract_z
Si Si1 0.750000 0.750000 0.065530
Si Si2 0.450684 0.540338 0.891566
Si Si3 0.425476 0.528298 0.695696
Si Si4 0.000365 0.099146 0.583095
Si Si5 0.764686 0.057956 0.136403
Si Si6 0.057869 0.933709 0.208100
Si Si7 0.258108 0.049286 0.745288
Si Si8 0.070909 0.243818 0.471551
O O1 0.786699 0.586271 0.101400
O O2 0.670241 0.701266 0.027272
O O3 0.433289 0.745749 0.904246
O O4 0.361041 0.479596 0.865609
O O5 0.522898 0.536152 0.844876
O O6 0.476124 0.415423 0.944335
O O7 0.439819 0.441212 0.635753
O O8 0.494815 0.451578 0.739075
O O9 0.440184 0.732991 0.691686
O O10 0.326077 0.499692 0.710556
O O11 0.053571 0.194969 0.534652
O O12 0.952459 0.924178 0.565530
O O13 0.750000 0.250000 0.110351
O O14 0.734653 0.066630 0.199617
O O15 0.152905 0.012128 0.214410
O O16 0.250000 0.250000 0.762623
#
# Coordination Sequence:
#
# PCOD8229030 Si02
#       8
#     4   8   8   8   8   8   8   8
#     4  10  22  40  64  92 124 164 218 272 316 374
#     4  11  22  42  65  98 127 171 219 267 332 387
#     4  12  25  44  64 100 134 177 218 270 332 399
#     4  11  23  42  69  91 129 172 218 270 324 393
#     4  11  22  37  62  96 131 163 212 266 322 378
#     4  12  25  41  67  97 136 176 218 267 333 403
#     4  12  25  41  61  96 135 174 216 263 325 397
#     4  10  23  43  67  93 125 170 223 269 329 382
#
# _framework density 20.840005999999999
#
# number of rings (size 3 to 8) (size 9 to 14) (size 15 to 20)
#    0.000    0.800    3.333    4.800    3.733    0.000 
#    3.600    0.000    0.000    0.000    0.000    0.000 
#    0.000    0.000    0.000    0.000    0.000    0.000 
#
# Total GULP energy -743564.978801 kJ/mol
# GULP energy per Si atom -12392.749647 kJ/mol
# Density = 2.079257 g / cm^3
# Si number density = 20.840006 Si / 1000 Ang^3
#
#
#
# Elastic Constant Matrix: (Units=GPa)
#
#
# Indices 1 2 3 4 5 6 
#
# 1 107.8257 -4.0573 35.5491 0.0000 0.0000 0.0000
# 2 -4.0573 114.0117 9.6199 0.0000 0.0000 0.0000
# 3 35.5491 9.6199 99.3310 0.0000 0.0000 0.0000
# 4 0.0000 0.0000 0.0000 27.5314 0.0000 0.0000
# 5 0.0000 0.0000 0.0000 0.0000 10.3108 0.0000
# 6 0.0000 0.0000 0.0000 0.0000 0.0000 27.4539
#
#
#
# Elastic Compliance Matrix: (Units=1/GPa)
#
#
# Indices 1 2 3 4 5 6 
#
# 1 0.010570 0.000701 -0.003851 0.000000 0.000000 0.000000
# 2 0.000701 0.008890 -0.001112 0.000000 0.000000 0.000000
# 3 -0.003851 -0.001112 0.011553 0.000000 0.000000 0.000000
# 4 0.000000 0.000000 0.000000 0.036322 0.000000 0.000000
# 5 0.000000 0.000000 0.000000 0.000000 0.096986 0.000000
# 6 0.000000 0.000000 0.000000 0.000000 0.000000 0.036425
#
#
# Mechanical properties :
#
#
# Convention : Reuss Voigt Hill
#
# Bulk Modulus (GPa) = 44.46423 44.82129 44.64276
# Shear Modulus (GPa) = 23.06638 31.72968 27.39803
#
# Velocity S-wave (km/s) = 3.33052 3.90620 3.62979
# Velocity P-wave (km/s) = 6.01433 6.47291 6.24783
#
# Compressibility (1/GPa) = 0.02248999
#
# Stress axis : x y z
#
# Youngs Moduli (GPa) = 94.60576 112.48853 86.55625
#
# Poissons Ratio (x) = -0.07886 0.33331
# Poissons Ratio (y) = -0.06633 0.09624
# Poissons Ratio (z) = 0.36431 0.12507
#
# Static dielectric constant tensor:
#      x y z
#    x 3.767050 0.000000 0.000000 
#    y 0.000000 4.044840 0.000000 
#    z 0.000000 0.000000 3.702340 
# 
# 
# High freq. dielectric constant tensor:
#      x y z
#    x 1.813130 0.000000 0.000000 
#    y 0.000000 1.844400 0.000000 
#    z 0.000000 0.000000 1.804050 
# 
# From -- ./inp_files/22477.got.cif
#   From: 2010.03.12/outbox.cif.g09.slc.cpg/sg56_12_cif.got.tgz:22477.got - 2010.04.16 15:33:40.
