data_PCOD8229227
_publ_section_title
;
Structure prediction by ZEFSAII (Michael W. Deem and Ramdas Pophale) SiO2 
 PCOD8229227
Probable space group: P C C N
;
_chemical_formula_sum "Si O2"
_cell_formula_units_Z 64
_cell_length_a 22.625791
_cell_length_b 14.862932
_cell_length_c 8.967710
_cell_angle_alpha 90.000000
_cell_angle_beta 90.000000
_cell_angle_gamma 90.000000
_cell_volume 3015.711676
_symmetry_space_group_name_H-M "P C C N"
_symmetry_group_IT_number 56
_symmetry_cell_setting 'orthorhombic'
loop_
_space_group_symop_operation_xyz
x,y,z
1/2-x,1/2-y,z
1/2+x,-y,1/2-z
-x,1/2+y,1/2-z
-x,-y,-z
1/2+x,1/2+y,-z
1/2-x,y,1/2+z
x,1/2-y,1/2+z
loop_
_atom_site_type_symbol
_atom_site_label
_atom_site_fract_x
_atom_site_fract_y
_atom_site_fract_z
Si Si1 0.123311 0.133357 0.128301
Si Si2 0.783155 0.845038 0.662027
Si Si3 0.008405 0.030482 0.169553
Si Si4 0.610819 0.129005 0.653293
Si Si5 0.875010 0.664122 0.905534
Si Si6 0.328512 0.051925 0.352039
Si Si7 0.508264 0.146551 0.153215
Si Si8 0.427485 0.746549 0.603701
O O1 0.186500 0.103252 0.197955
O O2 0.063353 0.096182 0.197778
O O3 0.125231 0.238204 0.166755
O O4 0.122887 0.100208 0.957279
O O5 0.750000 0.750000 0.700091
O O6 0.839396 0.827308 0.557974
O O7 0.736834 0.917424 0.596843
O O8 0.948852 0.081741 0.212828
O O9 0.023042 0.951075 0.283671
O O10 0.000000 0.000000 0.000000
O O11 0.621836 0.202883 0.784491
O O12 0.603157 0.172245 0.488920
O O13 0.663811 0.056263 0.643150
O O14 0.840513 0.589202 0.811962
O O15 0.943535 0.640480 0.918492
O O16 0.518716 0.215556 0.292389
O O17 0.550042 0.173496 0.015683
#
# Coordination Sequence:
#
# PCOD8229227 Si02
#       8
#     8   8   8   8   8   8   8   8
#     4  12  23  39  66  89 136 182 215 263 331 395
#     4  12  26  42  61  96 135 178 228 264 312 400
#     4  12  22  40  62  98 138 173 217 275 339 411
#     4  11  23  43  67  95 135 172 224 281 344 398
#     4  12  24  38  63  94 134 181 219 260 321 395
#     4  12  24  42  64  93 132 179 223 274 321 395
#     4  11  23  38  61  96 136 174 222 271 334 405
#     4  10  23  40  64  94 132 176 220 280 339 398
#
# _framework density 21.222187999999999
#
# number of rings (size 3 to 8) (size 9 to 14) (size 15 to 20)
#    0.000    0.500    6.250    2.250    5.250    1.500 
#    0.000    0.000    0.000    0.000    0.000   29.750 
#    0.000    0.000    0.000    0.000    0.000    0.000 
#
# Total GULP energy -793077.675057 kJ/mol
# GULP energy per Si atom -12391.838673 kJ/mol
# Density = 2.117389 g / cm^3
# Si number density = 21.222188 Si / 1000 Ang^3
#
#
#
# Elastic Constant Matrix: (Units=GPa)
#
#
# Indices 1 2 3 4 5 6 
#
# 1 92.1789 46.4498 21.6381 0.0000 0.0000 0.0000
# 2 46.4498 105.2849 32.2099 0.0000 0.0000 0.0000
# 3 21.6381 32.2099 85.1421 0.0000 0.0000 0.0000
# 4 0.0000 0.0000 0.0000 35.5082 0.0000 0.0000
# 5 0.0000 0.0000 0.0000 0.0000 25.3679 0.0000
# 6 0.0000 0.0000 0.0000 0.0000 0.0000 36.7518
#
#
#
# Elastic Compliance Matrix: (Units=1/GPa)
#
#
# Indices 1 2 3 4 5 6 
#
# 1 0.014094 -0.005793 -0.001390 0.000000 0.000000 0.000000
# 2 -0.005793 0.013122 -0.003492 0.000000 0.000000 0.000000
# 3 -0.001390 -0.003492 0.013419 0.000000 0.000000 0.000000
# 4 0.000000 0.000000 0.000000 0.028163 0.000000 0.000000
# 5 0.000000 0.000000 0.000000 0.000000 0.039420 0.000000
# 6 0.000000 0.000000 0.000000 0.000000 0.000000 0.027210
#
#
# Mechanical properties :
#
#
# Convention : Reuss Voigt Hill
#
# Bulk Modulus (GPa) = 51.85322 53.68908 52.77115
# Shear Modulus (GPa) = 30.63620 31.67943 31.15781
#
# Velocity S-wave (km/s) = 3.80359 3.86780 3.83583
# Velocity P-wave (km/s) = 6.61636 6.73053 6.67369
#
# Compressibility (1/GPa) = 0.01928520
#
# Stress axis : x y z
#
# Youngs Moduli (GPa) = 70.95328 76.20833 74.51846
#
# Poissons Ratio (x) = 0.44144 0.10361
# Poissons Ratio (y) = 0.41100 0.26022
# Poissons Ratio (z) = 0.09866 0.26612
#
# Static dielectric constant tensor:
#      x y z
#    x 3.797650 0.000000 0.000000 
#    y 0.000000 4.002720 0.000000 
#    z 0.000000 0.000000 3.896190 
# 
# 
# High freq. dielectric constant tensor:
#      x y z
#    x 1.804700 0.000000 0.000000 
#    y 0.000000 1.824490 0.000000 
#    z 0.000000 0.000000 1.844810 
# 
# From -- ./inp_files/3699.got.cif
#   From: 2010.03.12/outbox.cif.g09.slc.cpg/sg56_2_cif.got.tgz:3699.got - 2010.04.16 15:33:40.
