data_PCOD8229080
_publ_section_title
;
Structure prediction by ZEFSAII (Michael W. Deem and Ramdas Pophale) SiO2 
 PCOD8229080
Probable space group: P C C N
;
_chemical_formula_sum "Si O2"
_cell_formula_units_Z 64
_cell_length_a 8.660788
_cell_length_b 18.396814
_cell_length_c 17.849078
_cell_angle_alpha 90.000000
_cell_angle_beta 90.000000
_cell_angle_gamma 90.000000
_cell_volume 2843.909768
_symmetry_space_group_name_H-M "P C C N"
_symmetry_group_IT_number 56
_symmetry_cell_setting 'orthorhombic'
loop_
_space_group_symop_operation_xyz
x,y,z
1/2-x,1/2-y,z
1/2+x,-y,1/2-z
-x,1/2+y,1/2-z
-x,-y,-z
1/2+x,1/2+y,-z
1/2-x,y,1/2+z
x,1/2-y,1/2+z
loop_
_atom_site_type_symbol
_atom_site_label
_atom_site_fract_x
_atom_site_fract_y
_atom_site_fract_z
Si Si1 0.200069 0.961554 0.676929
Si Si2 0.665265 0.072150 0.474607
Si Si3 0.081243 0.225490 0.316927
Si Si4 0.362675 0.068671 0.782539
Si Si5 0.378304 0.309076 0.476265
Si Si6 0.844923 0.176283 0.743827
Si Si7 0.343249 0.678842 0.421829
Si Si8 0.667980 0.933126 0.571031
O O1 0.223159 0.961672 0.588014
O O2 0.262005 0.884602 0.707313
O O3 0.018572 0.972836 0.692281
O O4 0.297602 0.029545 0.708784
O O5 0.747189 0.137998 0.515429
O O6 0.504714 0.101006 0.437222
O O7 0.644598 0.013486 0.539714
O O8 0.250000 0.250000 0.339271
O O9 0.088847 0.152802 0.264995
O O10 0.018428 0.203366 0.400111
O O11 0.007281 0.296437 0.278419
O O12 0.225105 0.062880 0.843316
O O13 0.250000 0.250000 0.491719
O O14 0.486886 0.306262 0.548056
O O15 0.294297 0.387324 0.474363
O O16 0.750000 0.250000 0.749034
O O17 0.863206 0.142164 0.660421
O O18 0.250000 0.750000 0.402496
#
# Coordination Sequence:
#
# PCOD8229080 Si02
#       8
#     8   8   8   8   8   8   8   8
#     4  12  26  40  72  97 137 185 232 287 347 417
#     4  11  24  43  67  98 128 182 224 278 344 408
#     4  10  23  42  70  98 135 179 232 289 347 412
#     4  11  24  45  65 102 136 180 231 286 351 415
#     4  10  22  41  67 100 132 176 225 285 332 413
#     4  11  25  45  65 100 138 179 226 287 345 419
#     4  11  25  41  66  98 133 177 222 277 341 410
#     4  10  23  44  66  93 137 171 224 286 340 404
#
# _framework density 22.50423
#
# number of rings (size 3 to 8) (size 9 to 14) (size 15 to 20)
#    0.000    1.250    1.250    3.750    8.750    4.500 
#    2.250    0.000    0.000    0.000    0.000    0.000 
#    0.000    0.000    0.000    0.000    0.000    0.000 
#
# Total GULP energy -793383.032409 kJ/mol
# GULP energy per Si atom -12396.609881 kJ/mol
# Density = 2.245301 g / cm^3
# Si number density = 22.504230 Si / 1000 Ang^3
#
#
#
# Elastic Constant Matrix: (Units=GPa)
#
#
# Indices 1 2 3 4 5 6 
#
# 1 101.0404 3.7573 26.6607 0.0000 0.0000 0.0000
# 2 3.7573 64.7840 13.6158 0.0000 0.0000 0.0000
# 3 26.6607 13.6158 88.4625 0.0000 0.0000 0.0000
# 4 0.0000 0.0000 0.0000 34.7219 0.0000 0.0000
# 5 0.0000 0.0000 0.0000 0.0000 30.9901 0.0000
# 6 0.0000 0.0000 0.0000 0.0000 0.0000 38.1577
#
#
#
# Elastic Compliance Matrix: (Units=1/GPa)
#
#
# Indices 1 2 3 4 5 6 
#
# 1 0.010752 0.000059 -0.003250 0.000000 0.000000 0.000000
# 2 0.000059 0.015952 -0.002473 0.000000 0.000000 0.000000
# 3 -0.003250 -0.002473 0.012664 0.000000 0.000000 0.000000
# 4 0.000000 0.000000 0.000000 0.028800 0.000000 0.000000
# 5 0.000000 0.000000 0.000000 0.000000 0.032268 0.000000
# 6 0.000000 0.000000 0.000000 0.000000 0.000000 0.026207
#
#
# Mechanical properties :
#
#
# Convention : Reuss Voigt Hill
#
# Bulk Modulus (GPa) = 35.66095 38.03938 36.85017
# Shear Modulus (GPa) = 33.94002 34.79082 34.36542
#
# Velocity S-wave (km/s) = 3.88772 3.93615 3.91201
# Velocity P-wave (km/s) = 6.00277 6.13169 6.06757
#
# Compressibility (1/GPa) = 0.02804188
#
# Stress axis : x y z
#
# Youngs Moduli (GPa) = 93.00359 62.68696 78.96233
#
# Poissons Ratio (x) = -0.00372 0.25660
# Poissons Ratio (y) = -0.00552 0.19529
# Poissons Ratio (z) = 0.30223 0.15504
#
# Static dielectric constant tensor:
#      x y z
#    x 4.300900 0.000000 0.000000 
#    y 0.000000 3.506450 0.000000 
#    z 0.000000 0.000000 3.980790 
# 
# 
# High freq. dielectric constant tensor:
#      x y z
#    x 1.895690 0.000000 0.000000 
#    y 0.000000 1.888750 0.000000 
#    z 0.000000 0.000000 1.880480 
# 
# From -- ./inp_files/15226.got.cif
#   From: 2010.03.12/outbox.cif.g09.slc.cpg/sg56_8_cif.got.tgz:15226.got - 2010.04.16 15:33:40.
