data_PCOD8229850
_publ_section_title
;
Structure prediction by ZEFSAII (Michael W. Deem and Ramdas Pophale) SiO2 
 PCOD8229850
Probable space group: P C C N
;
_chemical_formula_sum "Si O2"
_cell_formula_units_Z 48
_cell_length_a 17.333379
_cell_length_b 8.614603
_cell_length_c 14.090251
_cell_angle_alpha 90.000000
_cell_angle_beta 90.000000
_cell_angle_gamma 90.000000
_cell_volume 2103.958798
_symmetry_space_group_name_H-M "P C C N"
_symmetry_group_IT_number 56
_symmetry_cell_setting 'orthorhombic'
loop_
_space_group_symop_operation_xyz
x,y,z
1/2-x,1/2-y,z
1/2+x,-y,1/2-z
-x,1/2+y,1/2-z
-x,-y,-z
1/2+x,1/2+y,-z
1/2-x,y,1/2+z
x,1/2-y,1/2+z
loop_
_atom_site_type_symbol
_atom_site_label
_atom_site_fract_x
_atom_site_fract_y
_atom_site_fract_z
Si Si1 0.153833 0.576851 0.198477
Si Si2 0.765872 0.427369 0.470304
Si Si3 0.401107 0.906391 0.753916
Si Si4 0.565791 0.555339 0.930596
Si Si5 0.475886 0.399822 0.591800
Si Si6 0.259508 0.071102 0.838361
O O1 0.222789 0.535604 0.126959
O O2 0.140452 0.760022 0.205195
O O3 0.075722 0.501052 0.161938
O O4 0.181826 0.513901 0.300432
O O5 0.750000 0.250000 0.500557
O O6 0.854858 0.474848 0.462063
O O7 0.728093 0.532285 0.551714
O O8 0.449033 0.854603 0.846427
O O9 0.453721 0.995625 0.675901
O O10 0.335496 0.025924 0.782063
O O11 0.568863 0.742726 0.937104
O O12 0.500000 0.500000 0.000000
O O13 0.500000 0.500000 0.500000
O O14 0.250000 0.250000 0.821233
#
# Coordination Sequence:
#
# PCOD8229850 Si02
#       6
#     8   8   8   8   8   8
#     4  12  25  50  76 108 149 204 256 324 391 475
#     4  12  26  48  78 107 150 200 265 319 388 473
#     4  12  25  52  74 110 153 205 258 312 404 473
#     4  12  28  47  75 111 152 203 261 323 398 477
#     4  12  29  46  77 112 160 200 258 326 399 481
#     4  12  28  43  75 110 147 193 257 323 389 465
#
# _framework density 22.814135
#
# number of rings (size 3 to 8) (size 9 to 14) (size 15 to 20)
#    0.000    0.000    3.333    5.500   11.667    0.000 
#    0.000    0.000    0.000    0.000    0.000    0.000 
#    0.000    0.000    0.000    0.000    0.000    0.000 
#
# Total GULP energy -595462.545698 kJ/mol
# GULP energy per Si atom -12405.469702 kJ/mol
# Density = 2.276221 g / cm^3
# Si number density = 22.814135 Si / 1000 Ang^3
#
#
#
# Elastic Constant Matrix: (Units=GPa)
#
#
# Indices 1 2 3 4 5 6 
#
# 1 118.0584 55.4088 51.8496 0.0000 0.0000 0.0000
# 2 55.4088 168.4939 43.5992 0.0000 0.0000 0.0000
# 3 51.8496 43.5992 127.8727 0.0000 0.0000 0.0000
# 4 0.0000 0.0000 0.0000 35.8971 0.0000 0.0000
# 5 0.0000 0.0000 0.0000 0.0000 42.7017 0.0000
# 6 0.0000 0.0000 0.0000 0.0000 0.0000 45.2050
#
#
#
# Elastic Compliance Matrix: (Units=1/GPa)
#
#
# Indices 1 2 3 4 5 6 
#
# 1 0.011394 -0.002798 -0.003666 0.000000 0.000000 0.000000
# 2 -0.002798 0.007196 -0.001319 0.000000 0.000000 0.000000
# 3 -0.003666 -0.001319 0.009756 0.000000 0.000000 0.000000
# 4 0.000000 0.000000 0.000000 0.027857 0.000000 0.000000
# 5 0.000000 0.000000 0.000000 0.000000 0.023418 0.000000
# 6 0.000000 0.000000 0.000000 0.000000 0.000000 0.022121
#
#
# Mechanical properties :
#
#
# Convention : Reuss Voigt Hill
#
# Bulk Modulus (GPa) = 78.24517 79.57114 78.90816
# Shear Modulus (GPa) = 41.12859 42.33192 41.73025
#
# Velocity S-wave (km/s) = 4.25051 4.31224 4.28148
# Velocity P-wave (km/s) = 7.64594 7.72966 7.68791
#
# Compressibility (1/GPa) = 0.01278034
#
# Stress axis : x y z
#
# Youngs Moduli (GPa) = 87.76818 138.95762 102.49660
#
# Poissons Ratio (x) = 0.38883 0.37573
# Poissons Ratio (y) = 0.24559 0.13520
# Poissons Ratio (z) = 0.32174 0.18329
#
# Static dielectric constant tensor:
#      x y z
#    x 4.263670 0.000000 0.000000 
#    y 0.000000 5.204290 0.000000 
#    z 0.000000 0.000000 4.421140 
# 
# 
# High freq. dielectric constant tensor:
#      x y z
#    x 1.906700 0.000000 0.000000 
#    y 0.000000 1.909240 0.000000 
#    z 0.000000 0.000000 1.919690 
# 
# From -- ./inp_files/12707.got.cif
#   From: 2010.03.12/outbox.cif.g09.slc.cpg/sg56_7_cif.got.tgz:12707.got - 2010.04.16 15:33:40.
