data_PCOD8229613
_publ_section_title
;
Structure prediction by ZEFSAII (Michael W. Deem and Ramdas Pophale) SiO2 
 PCOD8229613
Probable space group: P C C N
;
_chemical_formula_sum "Si O2"
_cell_formula_units_Z 56
_cell_length_a 22.181401
_cell_length_b 14.908687
_cell_length_c 7.579287
_cell_angle_alpha 90.000000
_cell_angle_beta 90.000000
_cell_angle_gamma 90.000000
_cell_volume 2506.436595
_symmetry_space_group_name_H-M "P C C N"
_symmetry_group_IT_number 56
_symmetry_cell_setting 'orthorhombic'
loop_
_space_group_symop_operation_xyz
x,y,z
1/2-x,1/2-y,z
1/2+x,-y,1/2-z
-x,1/2+y,1/2-z
-x,-y,-z
1/2+x,1/2+y,-z
1/2-x,y,1/2+z
x,1/2-y,1/2+z
loop_
_atom_site_type_symbol
_atom_site_label
_atom_site_fract_x
_atom_site_fract_y
_atom_site_fract_z
Si Si1 0.408589 0.824372 0.775148
Si Si2 0.317759 0.969478 0.868468
Si Si3 0.083825 0.630956 0.382948
Si Si4 0.870803 0.852227 0.645681
Si Si5 0.316970 0.499092 0.776808
Si Si6 0.497261 0.600624 0.563327
Si Si7 0.811948 0.697869 0.803665
O O1 0.347076 0.878318 0.801048
O O2 0.436786 0.847583 0.583226
O O3 0.389661 0.720252 0.789256
O O4 0.457313 0.843740 0.926513
O O5 0.247610 0.962141 0.829065
O O6 0.350222 0.053119 0.766485
O O7 0.332218 0.980575 0.074443
O O8 0.133353 0.551699 0.390847
O O9 0.026871 0.601019 0.264574
O O10 0.867335 0.767548 0.776257
O O11 0.817852 0.833525 0.503730
O O12 0.936594 0.856772 0.561104
O O13 0.317787 0.391818 0.817835
O O14 0.500000 0.500000 0.500000
O O15 0.750000 0.750000 0.771467
#
# Coordination Sequence:
#
# PCOD8229613 Si02
#       7
#     8   8   8   8   8   8   8
#     4  12  25  47  76 104 147 192 244 304 369 433
#     4  11  22  44  67 102 142 183 240 300 362 433
#     4  12  26  47  76 107 145 196 242 307 373 431
#     4  11  25  40  67 101 140 193 233 299 357 432
#     4  11  23  42  70 103 145 189 238 305 365 434
#     4  12  25  51  70 104 154 186 250 303 360 437
#     4  11  23  41  67 100 146 184 240 295 361 437
#
# _framework density 22.342476000000001
#
# number of rings (size 3 to 8) (size 9 to 14) (size 15 to 20)
#    0.000    0.571    5.714    2.143    4.000    2.286 
#    0.000    2.857    0.000    0.000    0.000    0.000 
#    0.000    0.000    0.000    0.000    0.000    0.000 
#
# Total GULP energy -694405.280055 kJ/mol
# GULP energy per Si atom -12400.094287 kJ/mol
# Density = 2.229162 g / cm^3
# Si number density = 22.342476 Si / 1000 Ang^3
#
#
#
# Elastic Constant Matrix: (Units=GPa)
#
#
# Indices 1 2 3 4 5 6 
#
# 1 106.5835 42.2972 17.4539 0.0000 0.0000 0.0000
# 2 42.2972 133.9322 4.5888 0.0000 0.0000 0.0000
# 3 17.4539 4.5888 72.2607 0.0000 0.0000 0.0000
# 4 0.0000 0.0000 0.0000 31.4578 0.0000 0.0000
# 5 0.0000 0.0000 0.0000 0.0000 35.3095 0.0000
# 6 0.0000 0.0000 0.0000 0.0000 0.0000 38.1740
#
#
#
# Elastic Compliance Matrix: (Units=1/GPa)
#
#
# Indices 1 2 3 4 5 6 
#
# 1 0.011152 -0.003437 -0.002475 0.000000 0.000000 0.000000
# 2 -0.003437 0.008542 0.000288 0.000000 0.000000 0.000000
# 3 -0.002475 0.000288 0.014418 0.000000 0.000000 0.000000
# 4 0.000000 0.000000 0.000000 0.031789 0.000000 0.000000
# 5 0.000000 0.000000 0.000000 0.000000 0.028321 0.000000
# 6 0.000000 0.000000 0.000000 0.000000 0.000000 0.026196
#
#
# Mechanical properties :
#
#
# Convention : Reuss Voigt Hill
#
# Bulk Modulus (GPa) = 43.73899 49.05071 46.39485
# Shear Modulus (GPa) = 35.89693 37.55069 36.72381
#
# Velocity S-wave (km/s) = 4.01267 4.10406 4.05863
# Velocity P-wave (km/s) = 6.40998 6.66779 6.54016
#
# Compressibility (1/GPa) = 0.02286290
#
# Stress axis : x y z
#
# Youngs Moduli (GPa) = 89.67300 117.06797 69.35586
#
# Poissons Ratio (x) = 0.40236 0.17168
# Poissons Ratio (y) = 0.30821 -0.01996
# Poissons Ratio (z) = 0.22197 -0.03368
#
# Static dielectric constant tensor:
#      x y z
#    x 4.127050 0.000000 0.000000 
#    y 0.000000 4.648070 0.000000 
#    z 0.000000 0.000000 4.062910 
# 
# 
# High freq. dielectric constant tensor:
#      x y z
#    x 1.868230 0.000000 0.000000 
#    y 0.000000 1.900960 0.000000 
#    z 0.000000 0.000000 1.877980 
# 
# From -- ./inp_files/4469.got.cif
#   From: 2010.03.12/outbox.cif.g09.slc.cpg/sg56_3_cif.got.tgz:4469.got - 2010.04.16 15:33:40.
