data_PCOD8229702
_publ_section_title
;
Structure prediction by ZEFSAII (Michael W. Deem and Ramdas Pophale) SiO2 
 PCOD8229702
Probable space group: P C C N
;
_chemical_formula_sum "Si O2"
_cell_formula_units_Z 40
_cell_length_a 4.993404
_cell_length_b 24.616772
_cell_length_c 13.130622
_cell_angle_alpha 90.000000
_cell_angle_beta 90.000000
_cell_angle_gamma 90.000000
_cell_volume 1614.035592
_symmetry_space_group_name_H-M "P C C N"
_symmetry_group_IT_number 56
_symmetry_cell_setting 'orthorhombic'
loop_
_space_group_symop_operation_xyz
x,y,z
1/2-x,1/2-y,z
1/2+x,-y,1/2-z
-x,1/2+y,1/2-z
-x,-y,-z
1/2+x,1/2+y,-z
1/2-x,y,1/2+z
x,1/2-y,1/2+z
loop_
_atom_site_type_symbol
_atom_site_label
_atom_site_fract_x
_atom_site_fract_y
_atom_site_fract_z
Si Si1 0.655769 0.353124 0.870750
Si Si2 0.750000 0.250000 0.980390
Si Si3 0.182467 0.366973 0.182733
Si Si4 0.070118 0.031303 0.283855
Si Si5 0.656321 0.904027 0.039753
Si Si6 0.750000 0.750000 0.886619
O O1 0.607280 0.292159 0.906003
O O2 0.582297 0.360616 0.752296
O O3 0.466530 0.389697 0.942757
O O4 0.964910 0.365242 0.892910
O O5 0.507419 0.228837 0.050718
O O6 0.386280 0.409166 0.234871
O O7 0.320225 0.306477 0.173399
O O8 0.088165 0.396870 0.078660
O O9 0.107319 0.036481 0.407651
O O10 0.266394 0.985853 0.238607
#
# Coordination Sequence:
#
# PCOD8229702 Si02
#       6
#     8   4   8   8   8   4
#     4  11  24  42  69 103 147 188 237 297 363 437
#     4  12  22  44  68 104 152 192 236 310 350 448
#     4  11  26  47  77 107 150 198 245 304 384 445
#     4  11  26  47  73 109 147 198 258 310 368 439
#     4  11  24  46  72 105 144 186 244 309 360 438
#     4  12  26  44  74 112 144 196 250 292 382 458
#
# _framework density 24.782599999999999
#
# number of rings (size 3 to 8) (size 9 to 14) (size 15 to 20)
#    0.000    0.800    4.000    2.400    0.000   16.000 
#    0.000    0.000    0.000    0.000    0.000    0.000 
#    0.000    0.000    0.000    0.000    0.000    0.000 
#
# Total GULP energy -495592.406123 kJ/mol
# GULP energy per Si atom -12389.810153 kJ/mol
# Density = 2.472619 g / cm^3
# Si number density = 24.782600 Si / 1000 Ang^3
#
#
#
# Elastic Constant Matrix: (Units=GPa)
#
#
# Indices 1 2 3 4 5 6 
#
# 1 74.3974 17.1996 17.6334 0.0000 0.0000 0.0000
# 2 17.1996 85.8829 24.2211 0.0000 0.0000 0.0000
# 3 17.6334 24.2211 141.6074 0.0000 0.0000 0.0000
# 4 0.0000 0.0000 0.0000 -2.4673 0.0000 0.0000
# 5 0.0000 0.0000 0.0000 0.0000 29.2675 0.0000
# 6 0.0000 0.0000 0.0000 0.0000 0.0000 44.8279
#
#
#
# Elastic Compliance Matrix: (Units=1/GPa)
#
#
# Indices 1 2 3 4 5 6 
#
# 1 0.014339 -0.002488 -0.001360 0.000000 0.000000 0.000000
# 2 -0.002488 0.012666 -0.001857 0.000000 0.000000 0.000000
# 3 -0.001360 -0.001857 0.007549 0.000000 0.000000 0.000000
# 4 0.000000 0.000000 0.000000 -0.405297 0.000000 0.000000
# 5 0.000000 0.000000 0.000000 0.000000 0.034168 0.000000
# 6 0.000000 0.000000 0.000000 0.000000 0.000000 0.022308
#
#
# Mechanical properties :
#
#
# Convention : Reuss Voigt Hill
#
# Bulk Modulus (GPa) = 43.20773 46.66622 44.93698
# Shear Modulus (GPa) = -16.94085 30.51451 6.78683
#
# Velocity S-wave (km/s) = -2.61737 3.51278 1.65665
# Velocity P-wave (km/s) = 2.88763 5.94339 4.67238
#
# Compressibility (1/GPa) = 0.02314401
#
# Stress axis : x y z
#
# Youngs Moduli (GPa) = 69.74046 78.95374 132.47356
#
# Poissons Ratio (x) = 0.19644 0.18016
# Poissons Ratio (y) = 0.17352 0.24594
# Poissons Ratio (z) = 0.09484 0.14658
#
# Static dielectric constant tensor:
#      x y z
#    x 4.431980 0.000000 0.000000 
#    y 0.000000 4.589220 0.000000 
#    z 0.000000 0.000000 4.928360 
# 
# 
# High freq. dielectric constant tensor:
#      x y z
#    x 1.984970 0.000000 0.000000 
#    y 0.000000 1.986680 0.000000 
#    z 0.000000 0.000000 1.989660 
# 
# From -- ./inp_files/5650.got.cif
#   From: 2010.03.12/outbox.cif.g09.slc.cpg/sg56_3_cif.got.tgz:5650.got - 2010.04.16 15:33:40.
