data_PCOD8229404
_publ_section_title
;
Structure prediction by ZEFSAII (Michael W. Deem and Ramdas Pophale) SiO2 
 PCOD8229404
Probable space group: P C C N
;
_chemical_formula_sum "Si O2"
_cell_formula_units_Z 64
_cell_length_a 8.293413
_cell_length_b 21.185764
_cell_length_c 15.707779
_cell_angle_alpha 90.000000
_cell_angle_beta 90.000000
_cell_angle_gamma 90.000000
_cell_volume 2759.892750
_symmetry_space_group_name_H-M "P C C N"
_symmetry_group_IT_number 56
_symmetry_cell_setting 'orthorhombic'
loop_
_space_group_symop_operation_xyz
x,y,z
1/2-x,1/2-y,z
1/2+x,-y,1/2-z
-x,1/2+y,1/2-z
-x,-y,-z
1/2+x,1/2+y,-z
1/2-x,y,1/2+z
x,1/2-y,1/2+z
loop_
_atom_site_type_symbol
_atom_site_label
_atom_site_fract_x
_atom_site_fract_y
_atom_site_fract_z
Si Si1 0.578784 0.300053 0.950875
Si Si2 0.739463 0.141697 0.601934
Si Si3 0.194592 0.398256 0.455498
Si Si4 0.386205 0.202277 0.861676
Si Si5 0.459452 0.444552 0.565600
Si Si6 0.079253 0.518330 0.367601
Si Si7 0.729013 0.483453 0.305137
Si Si8 0.291770 0.661186 0.705357
O O1 0.464888 0.358642 0.967476
O O2 0.470565 0.236262 0.944634
O O3 0.675875 0.302405 0.861071
O O4 0.700156 0.302933 0.032479
O O5 0.593357 0.090606 0.601427
O O6 0.768319 0.169941 0.697028
O O7 0.897867 0.104980 0.572902
O O8 0.304439 0.364515 0.383854
O O9 0.302636 0.404132 0.539249
O O10 0.133515 0.469106 0.438589
O O11 0.250000 0.250000 0.823742
O O12 0.525454 0.187688 0.793551
O O13 0.500000 0.500000 0.500000
O O14 0.418517 0.477320 0.654793
O O15 0.213449 0.507190 0.295115
O O16 0.899139 0.508536 0.336681
O O17 0.709846 0.410171 0.328277
#
# Coordination Sequence:
#
# PCOD8229404 Si02
#       8
#     8   8   8   8   8   8   8   8
#     4  11  23  46  68  92 135 179 235 287 338 397
#     4  11  25  41  68 107 138 179 228 281 348 419
#     4  11  23  40  67  95 132 180 225 281 343 410
#     4  10  24  45  68  93 127 186 236 287 343 399
#     4  12  23  37  62  99 142 180 221 267 345 419
#     4  11  23  38  65  99 140 174 217 273 349 420
#     4  11  23  38  61 101 141 173 213 275 345 423
#     4  11  23  42  70  99 134 178 230 282 350 412
#
# _framework density 23.189305999999998
#
# number of rings (size 3 to 8) (size 9 to 14) (size 15 to 20)
#    0.000    1.000    2.500    4.875    3.500    1.000 
#    0.000    6.875    0.000    0.000    0.000    0.000 
#    0.000    0.000    0.000    0.000    0.000    0.000 
#
# Total GULP energy -793232.250756 kJ/mol
# GULP energy per Si atom -12394.253918 kJ/mol
# Density = 2.313653 g / cm^3
# Si number density = 23.189306 Si / 1000 Ang^3
#
#
#
# Elastic Constant Matrix: (Units=GPa)
#
#
# Indices 1 2 3 4 5 6 
#
# 1 134.7539 24.0259 27.0067 0.0000 0.0000 0.0000
# 2 24.0259 64.4160 7.6609 0.0000 0.0000 0.0000
# 3 27.0067 7.6609 86.5726 0.0000 0.0000 0.0000
# 4 0.0000 0.0000 0.0000 -13.0963 0.0000 0.0000
# 5 0.0000 0.0000 0.0000 0.0000 30.4633 0.0000
# 6 0.0000 0.0000 0.0000 0.0000 0.0000 42.8517
#
#
#
# Elastic Compliance Matrix: (Units=1/GPa)
#
#
# Indices 1 2 3 4 5 6 
#
# 1 0.008404 -0.002853 -0.002369 0.000000 0.000000 0.000000
# 2 -0.002853 0.016658 -0.000584 0.000000 0.000000 0.000000
# 3 -0.002369 -0.000584 0.012342 0.000000 0.000000 0.000000
# 4 0.000000 0.000000 0.000000 -0.076357 0.000000 0.000000
# 5 0.000000 0.000000 0.000000 0.000000 0.032826 0.000000
# 6 0.000000 0.000000 0.000000 0.000000 0.000000 0.023336
#
#
# Mechanical properties :
#
#
# Convention : Reuss Voigt Hill
#
# Bulk Modulus (GPa) = 38.77286 44.79217 41.78252
# Shear Modulus (GPa) = 133.62238 27.18035 80.40136
#
# Velocity S-wave (km/s) = 7.59918 3.42732 5.89466
# Velocity P-wave (km/s) = 9.68262 5.91776 8.02412
#
# Compressibility (1/GPa) = 0.02579123
#
# Stress axis : x y z
#
# Youngs Moduli (GPa) = 118.98465 60.03257 81.02535
#
# Poissons Ratio (x) = 0.17127 0.19198
# Poissons Ratio (y) = 0.33945 0.04732
# Poissons Ratio (z) = 0.28192 0.03506
#
# Static dielectric constant tensor:
#      x y z
#    x 4.504750 0.000000 0.000000 
#    y 0.000000 4.476960 0.000000 
#    z 0.000000 0.000000 4.065360 
# 
# 
# High freq. dielectric constant tensor:
#      x y z
#    x 1.937970 0.000000 0.000000 
#    y 0.000000 1.926760 0.000000 
#    z 0.000000 0.000000 1.894110 
# 
# From -- ./inp_files/11033.got.cif
#   From: 2010.03.12/outbox.cif.g09.slc.cpg/sg56_6_cif.got.tgz:11033.got - 2010.04.16 15:33:40.
