data_PCOD8229759
_publ_section_title
;
Structure prediction by ZEFSAII (Michael W. Deem and Ramdas Pophale) SiO2 
 PCOD8229759
Probable space group: P C C N
;
_chemical_formula_sum "Si O2"
_cell_formula_units_Z 28
_cell_length_a 4.726520
_cell_length_b 11.142282
_cell_length_c 20.617855
_cell_angle_alpha 90.000000
_cell_angle_beta 90.000000
_cell_angle_gamma 90.000000
_cell_volume 1085.823225
_symmetry_space_group_name_H-M "P C C N"
_symmetry_group_IT_number 56
_symmetry_cell_setting 'orthorhombic'
loop_
_space_group_symop_operation_xyz
x,y,z
1/2-x,1/2-y,z
1/2+x,-y,1/2-z
-x,1/2+y,1/2-z
-x,-y,-z
1/2+x,1/2+y,-z
1/2-x,y,1/2+z
x,1/2-y,1/2+z
loop_
_atom_site_type_symbol
_atom_site_label
_atom_site_fract_x
_atom_site_fract_y
_atom_site_fract_z
Si Si1 0.750000 0.250000 0.999371
Si Si2 0.250000 0.250000 0.793882
Si Si3 0.250000 0.750000 0.792895
Si Si4 0.968737 0.927440 0.600267
Si Si5 0.483532 0.408869 0.099507
O O1 0.503713 0.307739 0.044059
O O2 0.594409 0.152256 0.956360
O O3 0.498833 0.308382 0.750487
O O4 0.412258 0.149586 0.835665
O O5 0.390316 0.643022 0.833851
O O6 0.667493 0.976782 0.576143
O O7 0.166261 0.044479 0.612712
#
# Coordination Sequence:
#
# PCOD8229759 Si02
#       5
#     4   4   4   8   8
#     4  11  25  46  72 106 143 179 230 292 352 421
#     4  12  26  46  70 100 144 188 236 296 346 418
#     4  11  25  48  72 102 141 185 240 292 348 417
#     4  12  25  45  70 104 141 183 230 287 355 417
#     4  11  26  45  74 104 138 185 233 289 352 418
#
# _framework density 25.786885000000002
#
# number of rings (size 3 to 8) (size 9 to 14) (size 15 to 20)
#    0.000    0.571    0.000    7.714    0.000   12.571 
#    0.000    2.857    0.000    0.000    0.000    0.000 
#    0.000    0.000    0.000    0.000    0.000    0.000 
#
# Total GULP energy -347282.383430 kJ/mol
# GULP energy per Si atom -12402.942265 kJ/mol
# Density = 2.572819 g / cm^3
# Si number density = 25.786885 Si / 1000 Ang^3
#
#
#
# Elastic Constant Matrix: (Units=GPa)
#
#
# Indices 1 2 3 4 5 6 
#
# 1 117.9078 23.6341 51.7179 0.0000 0.0000 0.0000
# 2 23.6341 96.0231 44.3932 0.0000 0.0000 0.0000
# 3 51.7179 44.3932 144.7767 0.0000 0.0000 0.0000
# 4 0.0000 0.0000 0.0000 110.5555 0.0000 0.0000
# 5 0.0000 0.0000 0.0000 0.0000 16.5033 0.0000
# 6 0.0000 0.0000 0.0000 0.0000 0.0000 50.5320
#
#
#
# Elastic Compliance Matrix: (Units=1/GPa)
#
#
# Indices 1 2 3 4 5 6 
#
# 1 0.010132 -0.000956 -0.003326 0.000000 0.000000 0.000000
# 2 -0.000956 0.012225 -0.003407 0.000000 0.000000 0.000000
# 3 -0.003326 -0.003407 0.009140 0.000000 0.000000 0.000000
# 4 0.000000 0.000000 0.000000 0.009045 0.000000 0.000000
# 5 0.000000 0.000000 0.000000 0.000000 0.060594 0.000000
# 6 0.000000 0.000000 0.000000 0.000000 0.000000 0.019789
#
#
# Mechanical properties :
#
#
# Convention : Reuss Voigt Hill
#
# Bulk Modulus (GPa) = 62.04175 66.46646 64.25410
# Shear Modulus (GPa) = 35.29183 51.44900 43.37042
#
# Velocity S-wave (km/s) = 3.70347 4.47157 4.10552
# Velocity P-wave (km/s) = 6.51147 7.24508 6.88805
#
# Compressibility (1/GPa) = 0.01611818
#
# Stress axis : x y z
#
# Youngs Moduli (GPa) = 98.69920 81.80270 109.40840
#
# Poissons Ratio (x) = 0.07820 0.36391
# Poissons Ratio (y) = 0.09435 0.37275
# Poissons Ratio (z) = 0.32829 0.27870
#
# Static dielectric constant tensor:
#      x y z
#    x 5.045610 0.000000 0.000000 
#    y 0.000000 4.640220 0.000000 
#    z 0.000000 0.000000 4.790450 
# 
# 
# High freq. dielectric constant tensor:
#      x y z
#    x 2.052810 0.000000 0.000000 
#    y 0.000000 2.029280 0.000000 
#    z 0.000000 0.000000 2.040190 
# 
# From -- ./inp_files/17235.got.cif
#   From: 2010.03.12/outbox.cif.g09.slc.cpg/sg56_9_cif.got.tgz:17235.got - 2010.04.16 15:33:40.
