data_PCOD8229139
_publ_section_title
;
Structure prediction by ZEFSAII (Michael W. Deem and Ramdas Pophale) SiO2 
 PCOD8229139
Probable space group: P C C N
;
_chemical_formula_sum "Si O2"
_cell_formula_units_Z 60
_cell_length_a 9.100343
_cell_length_b 12.740179
_cell_length_c 23.052586
_cell_angle_alpha 90.000000
_cell_angle_beta 90.000000
_cell_angle_gamma 90.000000
_cell_volume 2672.716793
_symmetry_space_group_name_H-M "P C C N"
_symmetry_group_IT_number 56
_symmetry_cell_setting 'orthorhombic'
loop_
_space_group_symop_operation_xyz
x,y,z
1/2-x,1/2-y,z
1/2+x,-y,1/2-z
-x,1/2+y,1/2-z
-x,-y,-z
1/2+x,1/2+y,-z
1/2-x,y,1/2+z
x,1/2-y,1/2+z
loop_
_atom_site_type_symbol
_atom_site_label
_atom_site_fract_x
_atom_site_fract_y
_atom_site_fract_z
Si Si1 0.431590 0.871071 0.084551
Si Si2 0.909965 0.740133 0.676768
Si Si3 0.250000 0.750000 0.993995
Si Si4 0.277446 0.065008 0.599405
Si Si5 0.784839 0.632387 0.019181
Si Si6 0.382155 0.550515 0.929751
Si Si7 0.861400 0.611637 0.275462
Si Si8 0.364582 0.012271 0.307774
O O1 0.468854 0.806990 0.142895
O O2 0.578451 0.917616 0.054615
O O3 0.311028 0.955746 0.103031
O O4 0.376822 0.793453 0.034825
O O5 0.750000 0.750000 0.645133
O O6 0.885786 0.777148 0.743688
O O7 0.956552 0.618874 0.678135
O O8 0.323943 0.659715 0.955292
O O9 0.192635 0.134892 0.550967
O O10 0.444018 0.047268 0.579901
O O11 0.279444 0.121982 0.662275
O O12 0.750000 0.750000 0.040913
O O13 0.652490 0.549949 0.029705
O O14 0.301978 0.535542 0.867627
O O15 0.771377 0.533389 0.234081
O O16 0.024426 0.567460 0.278931
#
# Coordination Sequence:
#
# PCOD8229139 Si02
#       8
#     8   8   4   8   8   8   8   8
#     4  12  25  42  69 105 135 181 228 285 340 424
#     4  10  22  43  69  94 131 181 228 280 344 404
#     4  12  28  44  70 100 146 170 234 274 356 424
#     4  11  25  43  68  98 146 176 231 283 350 406
#     4  12  24  41  67 101 137 181 230 272 348 417
#     4  11  25  47  67  99 139 188 216 285 351 418
#     4  10  22  43  64  98 126 178 227 282 331 403
#     4  10  22  43  68  92 133 175 229 280 344 400
#
# _framework density 22.449068
#
# number of rings (size 3 to 8) (size 9 to 14) (size 15 to 20)
#    0.000    1.067    1.333    5.200    5.600    1.600 
#    4.800    0.000    0.000    0.000    0.000    0.000 
#    0.000    0.000    0.000    0.000    0.000    0.000 
#
# Total GULP energy -743783.449770 kJ/mol
# GULP energy per Si atom -12396.390830 kJ/mol
# Density = 2.239797 g / cm^3
# Si number density = 22.449068 Si / 1000 Ang^3
#
#
#
# Elastic Constant Matrix: (Units=GPa)
#
#
# Indices 1 2 3 4 5 6 
#
# 1 66.0367 32.8145 36.5329 0.0000 0.0000 0.0000
# 2 32.8145 120.0146 44.1835 0.0000 0.0000 0.0000
# 3 36.5329 44.1835 165.9644 0.0000 0.0000 0.0000
# 4 0.0000 0.0000 0.0000 63.1053 0.0000 0.0000
# 5 0.0000 0.0000 0.0000 0.0000 30.1616 0.0000
# 6 0.0000 0.0000 0.0000 0.0000 0.0000 31.4964
#
#
#
# Elastic Compliance Matrix: (Units=1/GPa)
#
#
# Indices 1 2 3 4 5 6 
#
# 1 0.018843 -0.004019 -0.003078 0.000000 0.000000 0.000000
# 2 -0.004019 0.010095 -0.001803 0.000000 0.000000 0.000000
# 3 -0.003078 -0.001803 0.007183 0.000000 0.000000 0.000000
# 4 0.000000 0.000000 0.000000 0.015847 0.000000 0.000000
# 5 0.000000 0.000000 0.000000 0.000000 0.033155 0.000000
# 6 0.000000 0.000000 0.000000 0.000000 0.000000 0.031750
#
#
# Mechanical properties :
#
#
# Convention : Reuss Voigt Hill
#
# Bulk Modulus (GPa) = 54.58094 64.34194 59.46144
# Shear Modulus (GPa) = 35.51692 40.85163 38.18428
#
# Velocity S-wave (km/s) = 3.98189 4.27048 4.12871
# Velocity P-wave (km/s) = 6.74586 7.28282 7.01948
#
# Compressibility (1/GPa) = 0.01832141
#
# Stress axis : x y z
#
# Youngs Moduli (GPa) = 53.07048 99.06003 139.22040
#
# Poissons Ratio (x) = 0.39811 0.42850
# Poissons Ratio (y) = 0.21329 0.25099
# Poissons Ratio (z) = 0.16334 0.17859
#
# Static dielectric constant tensor:
#      x y z
#    x 4.028310 0.000000 0.000000 
#    y 0.000000 3.945980 0.000000 
#    z 0.000000 0.000000 4.512750 
# 
# 
# High freq. dielectric constant tensor:
#      x y z
#    x 1.879310 0.000000 0.000000 
#    y 0.000000 1.874740 0.000000 
#    z 0.000000 0.000000 1.908310 
# 
# From -- ./inp_files/20632.got.cif
#   From: 2010.03.12/outbox.cif.g09.slc.cpg/sg56_11_cif.got.tgz:20632.got - 2010.04.16 15:33:40.
