data_PCOD8229577
_publ_section_title
;
Structure prediction by ZEFSAII (Michael W. Deem and Ramdas Pophale) SiO2 
 PCOD8229577
Probable space group: P C C N
;
_chemical_formula_sum "Si O2"
_cell_formula_units_Z 56
_cell_length_a 5.015891
_cell_length_b 23.926422
_cell_length_c 24.185779
_cell_angle_alpha 90.000000
_cell_angle_beta 90.000000
_cell_angle_gamma 90.000000
_cell_volume 2902.591564
_symmetry_space_group_name_H-M "P C C N"
_symmetry_group_IT_number 56
_symmetry_cell_setting 'orthorhombic'
loop_
_space_group_symop_operation_xyz
x,y,z
1/2-x,1/2-y,z
1/2+x,-y,1/2-z
-x,1/2+y,1/2-z
-x,-y,-z
1/2+x,1/2+y,-z
1/2-x,y,1/2+z
x,1/2-y,1/2+z
loop_
_atom_site_type_symbol
_atom_site_label
_atom_site_fract_x
_atom_site_fract_y
_atom_site_fract_z
Si Si1 0.768824 0.119644 0.821270
Si Si2 0.741764 0.813589 0.148688
Si Si3 0.207858 0.963540 0.896689
Si Si4 0.308157 0.879347 0.985939
Si Si5 0.282491 0.966190 0.082622
Si Si6 0.340262 0.534221 0.767410
Si Si7 0.313266 0.186999 0.480900
O O1 0.554442 0.163984 0.842649
O O2 0.798230 0.069210 0.863994
O O3 0.692412 0.094113 0.762135
O O4 0.051431 0.150592 0.815248
O O5 0.750000 0.750000 0.169063
O O6 0.820940 0.818929 0.084912
O O7 0.281967 0.904358 0.924440
O O8 0.205628 0.954222 0.831480
O O9 0.417707 0.011709 0.912420
O O10 0.920780 0.982083 0.920068
O O11 0.254373 0.929885 0.027839
O O12 0.602334 0.855285 0.993010
O O13 0.102186 0.829003 0.995803
O O14 0.635514 0.511401 0.756327
O O15 0.250000 0.250000 0.499144
#
# Coordination Sequence:
#
# PCOD8229577 Si02
#       7
#     8   8   8   8   8   8   8
#     4  12  21  37  62  84 119 150 187 239 285 331
#     4  11  22  38  60  88 115 147 190 242 294 339
#     4  12  24  39  55  85 122 156 193 225 273 352
#     4  12  23  37  59  85 120 151 185 236 290 342
#     4  12  21  37  58  87 119 154 184 227 291 339
#     4  12  23  38  59  83 115 155 192 230 274 338
#     4  11  22  38  60  86 113 147 191 239 291 341
#
# _framework density 19.293102000000001
#
# number of rings (size 3 to 8) (size 9 to 14) (size 15 to 20)
#    0.000    0.286    5.714    5.143    0.000    2.286 
#    0.000    0.000    0.000    5.143    0.000    0.000 
#    0.000    0.000    0.000    0.000    0.000    0.000 
#
# Total GULP energy -694895.864422 kJ/mol
# GULP energy per Si atom -12408.854722 kJ/mol
# Density = 1.924919 g / cm^3
# Si number density = 19.293102 Si / 1000 Ang^3
#
#
#
# Elastic Constant Matrix: (Units=GPa)
#
#
# Indices 1 2 3 4 5 6 
#
# 1 66.0646 1.6066 -0.8712 0.0000 0.0000 0.0000
# 2 1.6066 77.2044 28.0059 0.0000 0.0000 0.0000
# 3 -0.8712 28.0059 73.6008 0.0000 0.0000 0.0000
# 4 0.0000 0.0000 0.0000 18.0200 0.0000 0.0000
# 5 0.0000 0.0000 0.0000 0.0000 17.8070 0.0000
# 6 0.0000 0.0000 0.0000 0.0000 0.0000 19.4714
#
#
#
# Elastic Compliance Matrix: (Units=1/GPa)
#
#
# Indices 1 2 3 4 5 6 
#
# 1 0.015152 -0.000441 0.000347 0.000000 0.000000 0.000000
# 2 -0.000441 0.015040 -0.005728 0.000000 0.000000 0.000000
# 3 0.000347 -0.005728 0.015770 0.000000 0.000000 0.000000
# 4 0.000000 0.000000 0.000000 0.055494 0.000000 0.000000
# 5 0.000000 0.000000 0.000000 0.000000 0.056158 0.000000
# 6 0.000000 0.000000 0.000000 0.000000 0.000000 0.051357
#
#
# Mechanical properties :
#
#
# Convention : Reuss Voigt Hill
#
# Bulk Modulus (GPa) = 29.13910 30.48360 29.81135
# Shear Modulus (GPa) = 21.54669 23.60159 22.57414
#
# Velocity S-wave (km/s) = 3.34549 3.50139 3.42433
# Velocity P-wave (km/s) = 5.48263 5.67282 5.57854
#
# Compressibility (1/GPa) = 0.03431815
#
# Stress axis : x y z
#
# Youngs Moduli (GPa) = 65.99785 66.49093 63.40958
#
# Poissons Ratio (x) = 0.02934 -0.02202
# Poissons Ratio (y) = 0.02912 0.36321
# Poissons Ratio (z) = -0.02292 0.38086
#
# Static dielectric constant tensor:
#      x y z
#    x 3.679660 0.000000 0.000000 
#    y 0.000000 3.534370 0.000000 
#    z 0.000000 0.000000 3.477190 
# 
# 
# High freq. dielectric constant tensor:
#      x y z
#    x 1.772500 0.000000 0.000000 
#    y 0.000000 1.746630 0.000000 
#    z 0.000000 0.000000 1.731840 
# 
# From -- ./inp_files/20129.got.cif
#   From: 2010.03.12/outbox.cif.g09.slc.cpg/sg56_11_cif.got.tgz:20129.got - 2010.04.16 15:33:40.
