data_PCOD8229521
_publ_section_title
;
Structure prediction by ZEFSAII (Michael W. Deem and Ramdas Pophale) SiO2 
 PCOD8229521
Probable space group: P C C N
;
_chemical_formula_sum "Si O2"
_cell_formula_units_Z 64
_cell_length_a 9.220878
_cell_length_b 14.676674
_cell_length_c 23.498873
_cell_angle_alpha 90.000000
_cell_angle_beta 90.000000
_cell_angle_gamma 90.000000
_cell_volume 3180.145260
_symmetry_space_group_name_H-M "P C C N"
_symmetry_group_IT_number 56
_symmetry_cell_setting 'orthorhombic'
loop_
_space_group_symop_operation_xyz
x,y,z
1/2-x,1/2-y,z
1/2+x,-y,1/2-z
-x,1/2+y,1/2-z
-x,-y,-z
1/2+x,1/2+y,-z
1/2-x,y,1/2+z
x,1/2-y,1/2+z
loop_
_atom_site_type_symbol
_atom_site_label
_atom_site_fract_x
_atom_site_fract_y
_atom_site_fract_z
Si Si1 0.514462 0.413439 0.615133
Si Si2 0.595583 0.770626 0.352364
Si Si3 0.821235 0.152514 0.293774
Si Si4 0.226289 0.641837 0.980191
Si Si5 0.260866 0.983959 0.308297
Si Si6 0.852130 0.829481 0.725344
Si Si7 0.754844 0.452223 0.905102
Si Si8 0.033458 0.940951 0.906693
O O1 0.491355 0.322988 0.652237
O O2 0.585093 0.386514 0.555211
O O3 0.614430 0.473087 0.655784
O O4 0.366695 0.465476 0.601926
O O5 0.750000 0.750000 0.381321
O O6 0.614425 0.812922 0.290717
O O7 0.511689 0.838931 0.392266
O O8 0.750000 0.250000 0.283613
O O9 0.792111 0.094897 0.236952
O O10 0.743782 0.103894 0.346741
O O11 0.993568 0.162915 0.306926
O O12 0.250000 0.750000 0.973772
O O13 0.357858 0.576755 0.959060
O O14 0.196217 0.617594 0.045815
O O15 0.392543 0.988441 0.352433
O O16 0.244314 0.079516 0.276450
O O17 0.750000 0.750000 0.699044
O O18 0.600398 0.494866 0.922906
#
# Coordination Sequence:
#
# PCOD8229521 Si02
#       8
#     8   8   8   8   8   8   8   8
#     4  11  23  42  71  92 130 166 229 272 326 398
#     4  11  20  38  66  98 123 164 213 277 320 377
#     4  12  26  41  65  97 137 178 221 266 332 419
#     4  11  24  44  67  94 130 170 223 286 335 390
#     4  11  25  42  64 100 131 177 213 273 334 392
#     4  11  25  41  64  95 140 174 214 268 331 393
#     4  12  25  43  66  95 132 178 220 268 343 398
#     4  11  23  41  69  96 129 166 226 277 327 395
#
# _framework density 20.124866999999998
#
# number of rings (size 3 to 8) (size 9 to 14) (size 15 to 20)
#    0.000    0.750    5.000    2.625    3.500    0.000 
#    0.000    0.000    0.000    0.750    0.000    0.000 
#    0.000    0.000    0.000    0.000    0.000    0.000 
#
# Total GULP energy -793678.666022 kJ/mol
# GULP energy per Si atom -12401.229157 kJ/mol
# Density = 2.007906 g / cm^3
# Si number density = 20.124867 Si / 1000 Ang^3
#
#
#
# Elastic Constant Matrix: (Units=GPa)
#
#
# Indices 1 2 3 4 5 6 
#
# 1 91.6404 38.5127 20.0337 0.0000 0.0000 0.0000
# 2 38.5127 127.6739 33.8851 0.0000 0.0000 0.0000
# 3 20.0337 33.8851 95.4074 0.0000 0.0000 0.0000
# 4 0.0000 0.0000 0.0000 86.3941 0.0000 0.0000
# 5 0.0000 0.0000 0.0000 0.0000 15.0403 0.0000
# 6 0.0000 0.0000 0.0000 0.0000 0.0000 36.2810
#
#
#
# Elastic Compliance Matrix: (Units=1/GPa)
#
#
# Indices 1 2 3 4 5 6 
#
# 1 0.012673 -0.003441 -0.001439 0.000000 0.000000 0.000000
# 2 -0.003441 0.009582 -0.002681 0.000000 0.000000 0.000000
# 3 -0.001439 -0.002681 0.011736 0.000000 0.000000 0.000000
# 4 0.000000 0.000000 0.000000 0.011575 0.000000 0.000000
# 5 0.000000 0.000000 0.000000 0.000000 0.066488 0.000000
# 6 0.000000 0.000000 0.000000 0.000000 0.000000 0.027563
#
#
# Mechanical properties :
#
#
# Convention : Reuss Voigt Hill
#
# Bulk Modulus (GPa) = 52.99591 55.50943 54.25267
# Shear Modulus (GPa) = 31.05082 42.36243 36.70662
#
# Velocity S-wave (km/s) = 3.93225 4.59298 4.27540
# Velocity P-wave (km/s) = 6.85620 7.46791 7.16858
#
# Compressibility (1/GPa) = 0.01886938
#
# Stress axis : x y z
#
# Youngs Moduli (GPa) = 78.90893 104.36430 85.21100
#
# Poissons Ratio (x) = 0.35910 0.12262
# Poissons Ratio (y) = 0.27151 0.22842
# Poissons Ratio (z) = 0.11355 0.27976
#
# Static dielectric constant tensor:
#      x y z
#    x 3.275220 0.000000 0.000000 
#    y 0.000000 3.737750 0.000000 
#    z 0.000000 0.000000 3.462530 
# 
# 
# High freq. dielectric constant tensor:
#      x y z
#    x 1.798480 0.000000 0.000000 
#    y 0.000000 1.797290 0.000000 
#    z 0.000000 0.000000 1.775400 
# 
# From -- ./inp_files/20662.got.cif
#   From: 2010.03.12/outbox.cif.g09.slc.cpg/sg56_11_cif.got.tgz:20662.got - 2010.04.16 15:33:40.
