data_PCOD8229533
_publ_section_title
;
Structure prediction by ZEFSAII (Michael W. Deem and Ramdas Pophale) SiO2 
 PCOD8229533
Probable space group: P C C N
;
_chemical_formula_sum "Si O2"
_cell_formula_units_Z 40
_cell_length_a 14.624856
_cell_length_b 25.193760
_cell_length_c 4.901195
_cell_angle_alpha 90.000000
_cell_angle_beta 90.000000
_cell_angle_gamma 90.000000
_cell_volume 1805.870353
_symmetry_space_group_name_H-M "P C C N"
_symmetry_group_IT_number 56
_symmetry_cell_setting 'orthorhombic'
loop_
_space_group_symop_operation_xyz
x,y,z
1/2-x,1/2-y,z
1/2+x,-y,1/2-z
-x,1/2+y,1/2-z
-x,-y,-z
1/2+x,1/2+y,-z
1/2-x,y,1/2+z
x,1/2-y,1/2+z
loop_
_atom_site_type_symbol
_atom_site_label
_atom_site_fract_x
_atom_site_fract_y
_atom_site_fract_z
Si Si1 0.190217 0.319598 0.400807
Si Si2 0.504561 0.282338 0.028485
Si Si3 0.471143 0.896014 0.245756
Si Si4 0.086079 0.421023 0.273303
Si Si5 0.688229 0.472234 0.273228
O O1 0.224136 0.306711 0.096264
O O2 0.105327 0.285191 0.506081
O O3 0.162141 0.381785 0.400384
O O4 0.538237 0.235478 0.230224
O O5 0.546382 0.338048 0.124610
O O6 0.535740 0.892013 0.980041
O O7 0.515311 0.933141 0.481182
O O8 0.374449 0.921327 0.163172
O O9 0.130109 0.475021 0.167119
O O10 0.777180 0.470990 0.463578
#
# Coordination Sequence:
#
# PCOD8229533 Si02
#       5
#     8   8   8   8   8
#     4  11  21  34  54  84 121 153 189 237 284 340
#     4  11  23  39  59  82 112 159 206 246 294 345
#     4  11  23  41  63  87 121 159 203 247 292 360
#     4  11  21  39  61  89 124 163 196 229 292 368
#     4  12  24  39  63  93 124 155 195 248 303 357
#
# _framework density 22.149981
#
# number of rings (size 3 to 8) (size 9 to 14) (size 15 to 20)
#    0.000    0.800    0.000   10.800    0.000    2.400 
#    0.000    0.000    0.000    3.600    0.000    0.000 
#    0.000    0.000    0.000    0.000    0.000    0.000 
#
# Total GULP energy -496082.831989 kJ/mol
# GULP energy per Si atom -12402.070800 kJ/mol
# Density = 2.209957 g / cm^3
# Si number density = 22.149981 Si / 1000 Ang^3
#
#
#
# Elastic Constant Matrix: (Units=GPa)
#
#
# Indices 1 2 3 4 5 6 
#
# 1 43.7170 26.8853 13.7599 0.0000 0.0000 0.0000
# 2 26.8853 102.0226 18.8224 0.0000 0.0000 0.0000
# 3 13.7599 18.8224 112.4516 0.0000 0.0000 0.0000
# 4 0.0000 0.0000 0.0000 32.2428 0.0000 0.0000
# 5 0.0000 0.0000 0.0000 0.0000 27.7043 0.0000
# 6 0.0000 0.0000 0.0000 0.0000 0.0000 26.8913
#
#
#
# Elastic Compliance Matrix: (Units=1/GPa)
#
#
# Indices 1 2 3 4 5 6 
#
# 1 0.027838 -0.006921 -0.002248 0.000000 0.000000 0.000000
# 2 -0.006921 0.011835 -0.001134 0.000000 0.000000 0.000000
# 3 -0.002248 -0.001134 0.009358 0.000000 0.000000 0.000000
# 4 0.000000 0.000000 0.000000 0.031015 0.000000 0.000000
# 5 0.000000 0.000000 0.000000 0.000000 0.036095 0.000000
# 6 0.000000 0.000000 0.000000 0.000000 0.000000 0.037187
#
#
# Mechanical properties :
#
#
# Convention : Reuss Voigt Hill
#
# Bulk Modulus (GPa) = 35.18103 41.90293 38.54198
# Shear Modulus (GPa) = 27.26143 30.61590 28.93867
#
# Velocity S-wave (km/s) = 3.51203 3.72184 3.61846
# Velocity P-wave (km/s) = 5.68888 6.11787 5.90727
#
# Compressibility (1/GPa) = 0.02842441
#
# Stress axis : x y z
#
# Youngs Moduli (GPa) = 35.92152 84.49578 106.86509
#
# Poissons Ratio (x) = 0.58483 0.24022
# Poissons Ratio (y) = 0.24863 0.12119
# Poissons Ratio (z) = 0.08075 0.09582
#
# Static dielectric constant tensor:
#      x y z
#    x 3.620590 0.000000 0.000000 
#    y 0.000000 3.917450 0.000000 
#    z 0.000000 0.000000 4.120930 
# 
# 
# High freq. dielectric constant tensor:
#      x y z
#    x 1.829530 0.000000 0.000000 
#    y 0.000000 1.874740 0.000000 
#    z 0.000000 0.000000 1.893760 
# 
# From -- ./inp_files/463.got.cif
#   From: 2010.03.12/outbox.cif.g09.slc.cpg/sg56_1_cif.got.tgz:463.got - 2010.04.16 15:33:40.
