data_PCOD8229039
_publ_section_title
;
Structure prediction by ZEFSAII (Michael W. Deem and Ramdas Pophale) SiO2 
 PCOD8229039
Probable space group: P C C N
;
_chemical_formula_sum "Si O2"
_cell_formula_units_Z 40
_cell_length_a 27.922018
_cell_length_b 4.854300
_cell_length_c 11.054331
_cell_angle_alpha 90.000000
_cell_angle_beta 90.000000
_cell_angle_gamma 90.000000
_cell_volume 1498.324496
_symmetry_space_group_name_H-M "P C C N"
_symmetry_group_IT_number 56
_symmetry_cell_setting 'orthorhombic'
loop_
_space_group_symop_operation_xyz
x,y,z
1/2-x,1/2-y,z
1/2+x,-y,1/2-z
-x,1/2+y,1/2-z
-x,-y,-z
1/2+x,1/2+y,-z
1/2-x,y,1/2+z
x,1/2-y,1/2+z
loop_
_atom_site_type_symbol
_atom_site_label
_atom_site_fract_x
_atom_site_fract_y
_atom_site_fract_z
Si Si1 0.093694 0.750387 0.382415
Si Si2 0.673339 0.468492 0.948610
Si Si3 0.750000 0.250000 0.291679
Si Si4 0.894972 0.753625 0.281015
Si Si5 0.494196 0.124265 0.670682
Si Si6 0.250000 0.250000 0.381808
O O1 0.130252 0.700047 0.490778
O O2 0.108447 0.564767 0.266488
O O3 0.038213 0.680431 0.423761
O O4 0.098196 0.064480 0.338800
O O5 0.704756 0.231900 0.882611
O O6 0.653117 0.685437 0.851947
O O7 0.704656 0.655418 0.039277
O O8 0.763100 0.503375 0.206841
O O9 0.940962 0.716609 0.371848
O O10 0.506465 0.305346 0.791047
#
# Coordination Sequence:
#
# PCOD8229039 Si02
#       6
#     8   8   4   8   8   4
#     4  10  22  40  65  98 134 172 218 271 327 400
#     4  12  26  45  72  96 128 179 230 278 348 404
#     4  12  28  48  68  96 134 174 226 290 346 404
#     4  10  22  40  65  98 134 172 218 271 327 400
#     4   8  16  35  60  91 134 172 206 262 328 388
#     4  12  28  48  68  96 134 174 226 290 346 404
#
# _framework density 26.696487000000001
#
# number of rings (size 3 to 8) (size 9 to 14) (size 15 to 20)
#    0.000    1.600    0.000    3.600    0.000    8.800 
#    0.000    0.000    0.000   14.400    0.000    0.000 
#    0.000    0.000    0.000    0.000    0.000    0.000 
#
# Total GULP energy -495823.646424 kJ/mol
# GULP energy per Si atom -12395.591161 kJ/mol
# Density = 2.663572 g / cm^3
# Si number density = 26.696487 Si / 1000 Ang^3
#
#
#
# Elastic Constant Matrix: (Units=GPa)
#
#
# Indices 1 2 3 4 5 6 
#
# 1 131.6749 -12.1444 19.8701 0.0000 0.0000 0.0000
# 2 -12.1444 73.4057 4.0451 0.0000 0.0000 0.0000
# 3 19.8701 4.0451 47.5785 0.0000 0.0000 0.0000
# 4 0.0000 0.0000 0.0000 21.1931 0.0000 0.0000
# 5 0.0000 0.0000 0.0000 0.0000 52.5456 0.0000
# 6 0.0000 0.0000 0.0000 0.0000 0.0000 25.7889
#
#
#
# Elastic Compliance Matrix: (Units=1/GPa)
#
#
# Indices 1 2 3 4 5 6 
#
# 1 0.008281 0.001568 -0.003592 0.000000 0.000000 0.000000
# 2 0.001568 0.013984 -0.001844 0.000000 0.000000 0.000000
# 3 -0.003592 -0.001844 0.022675 0.000000 0.000000 0.000000
# 4 0.000000 0.000000 0.000000 0.047185 0.000000 0.000000
# 5 0.000000 0.000000 0.000000 0.000000 0.019031 0.000000
# 6 0.000000 0.000000 0.000000 0.000000 0.000000 0.038776
#
#
# Mechanical properties :
#
#
# Convention : Reuss Voigt Hill
#
# Bulk Modulus (GPa) = 26.87834 30.68898 28.78366
# Shear Modulus (GPa) = 29.39989 35.96476 32.68233
#
# Velocity S-wave (km/s) = 3.32213 3.67437 3.50268
# Velocity P-wave (km/s) = 4.98050 5.43339 5.21187
#
# Compressibility (1/GPa) = 0.03720467
#
# Stress axis : x y z
#
# Youngs Moduli (GPa) = 120.75729 71.51068 44.10210
#
# Poissons Ratio (x) = -0.11213 0.15840
# Poissons Ratio (y) = -0.18934 0.08131
# Poissons Ratio (z) = 0.43373 0.13185
#
# Static dielectric constant tensor:
#      x y z
#    x 5.299430 0.000000 0.000000 
#    y 0.000000 4.622440 0.000000 
#    z 0.000000 0.000000 4.450530 
# 
# 
# High freq. dielectric constant tensor:
#      x y z
#    x 2.099380 0.000000 0.000000 
#    y 0.000000 2.076550 0.000000 
#    z 0.000000 0.000000 2.040530 
# 
# From -- ./inp_files/5644.got.cif
#   From: 2010.03.12/outbox.cif.g09.slc.cpg/sg56_3_cif.got.tgz:5644.got - 2010.04.16 15:33:40.
