data_PCOD8229210
_publ_section_title
;
Structure prediction by ZEFSAII (Michael W. Deem and Ramdas Pophale) SiO2 
 PCOD8229210
Probable space group: P C C N
;
_chemical_formula_sum "Si O2"
_cell_formula_units_Z 32
_cell_length_a 8.226039
_cell_length_b 16.887621
_cell_length_c 7.760874
_cell_angle_alpha 90.000000
_cell_angle_beta 90.000000
_cell_angle_gamma 90.000000
_cell_volume 1078.126871
_symmetry_space_group_name_H-M "P C C N"
_symmetry_group_IT_number 56
_symmetry_cell_setting 'orthorhombic'
loop_
_space_group_symop_operation_xyz
x,y,z
1/2-x,1/2-y,z
1/2+x,-y,1/2-z
-x,1/2+y,1/2-z
-x,-y,-z
1/2+x,1/2+y,-z
1/2-x,y,1/2+z
x,1/2-y,1/2+z
loop_
_atom_site_type_symbol
_atom_site_label
_atom_site_fract_x
_atom_site_fract_y
_atom_site_fract_z
Si Si1 0.881356 0.424427 0.424748
Si Si2 0.293188 0.061746 0.241420
Si Si3 0.532506 0.146560 0.762234
Si Si4 0.968650 0.318641 0.133464
O O1 0.734005 0.484280 0.377734
O O2 0.070571 0.457163 0.393994
O O3 0.855934 0.399717 0.623195
O O4 0.857516 0.350184 0.291380
O O5 0.122553 0.092794 0.313159
O O6 0.363118 0.132641 0.125231
O O7 0.485851 0.227494 0.663457
O O8 0.619105 0.166144 0.946856
#
# Coordination Sequence:
#
# PCOD8229210 Si02
#       4
#     8   8   8   8
#     4  10  24  43  67 104 145 180 232 300 352 427
#     4  10  23  42  65 105 144 181 231 295 358 420
#     4  12  20  42  69 105 132 185 243 298 339 419
#     4  10  23  38  70 104 133 183 244 294 346 415
#
# _framework density 29.681106
#
# number of rings (size 3 to 8) (size 9 to 14) (size 15 to 20)
#    1.500    0.000    2.500    3.000    0.000    3.000 
#    4.500    0.000    0.000    1.500   13.000    0.000 
#    0.000    0.000    0.000    0.000    0.000    0.000 
#
# Total GULP energy -396579.743012 kJ/mol
# GULP energy per Si atom -12393.116969 kJ/mol
# Density = 2.961355 g / cm^3
# Si number density = 29.681106 Si / 1000 Ang^3
#
#
#
# Elastic Constant Matrix: (Units=GPa)
#
#
# Indices 1 2 3 4 5 6 
#
# 1 123.8937 19.4619 65.3387 0.0000 0.0000 0.0000
# 2 19.4619 104.9009 3.3345 0.0000 0.0000 0.0000
# 3 65.3387 3.3345 175.7227 0.0000 0.0000 0.0000
# 4 0.0000 0.0000 0.0000 37.2449 0.0000 0.0000
# 5 0.0000 0.0000 0.0000 0.0000 47.1411 0.0000
# 6 0.0000 0.0000 0.0000 0.0000 0.0000 39.3407
#
#
#
# Elastic Compliance Matrix: (Units=1/GPa)
#
#
# Indices 1 2 3 4 5 6 
#
# 1 0.010370 -0.001802 -0.003822 0.000000 0.000000 0.000000
# 2 -0.001802 0.009852 0.000483 0.000000 0.000000 0.000000
# 3 -0.003822 0.000483 0.007103 0.000000 0.000000 0.000000
# 4 0.000000 0.000000 0.000000 0.026849 0.000000 0.000000
# 5 0.000000 0.000000 0.000000 0.000000 0.021213 0.000000
# 6 0.000000 0.000000 0.000000 0.000000 0.000000 0.025419
#
#
# Mechanical properties :
#
#
# Convention : Reuss Voigt Hill
#
# Bulk Modulus (GPa) = 58.67586 64.53195 61.60391
# Shear Modulus (GPa) = 42.81981 45.83747 44.32864
#
# Velocity S-wave (km/s) = 3.80236 3.93406 3.86877
# Velocity P-wave (km/s) = 6.25211 6.51343 6.38411
#
# Compressibility (1/GPa) = 0.01704278
#
# Stress axis : x y z
#
# Youngs Moduli (GPa) = 96.43171 101.50379 140.79309
#
# Poissons Ratio (x) = 0.18295 0.53806
# Poissons Ratio (y) = 0.17381 -0.06804
# Poissons Ratio (z) = 0.36853 -0.04905
#
# Static dielectric constant tensor:
#      x y z
#    x 5.115020 0.000000 0.000000 
#    y 0.000000 5.602840 0.000000 
#    z 0.000000 0.000000 5.386990 
# 
# 
# High freq. dielectric constant tensor:
#      x y z
#    x 2.214070 0.000000 0.000000 
#    y 0.000000 2.228620 0.000000 
#    z 0.000000 0.000000 2.233720 
# 
# From -- ./inp_files/2421.got.cif
#   From: 2010.03.12/outbox.cif.g09.slc.cpg/sg56_2_cif.got.tgz:2421.got - 2010.04.16 15:33:40.
