data_PCOD8229852
_publ_section_title
;
Structure prediction by ZEFSAII (Michael W. Deem and Ramdas Pophale) SiO2 
 PCOD8229852
Probable space group: P C C N
;
_chemical_formula_sum "Si O2"
_cell_formula_units_Z 36
_cell_length_a 6.342682
_cell_length_b 20.535696
_cell_length_c 11.683725
_cell_angle_alpha 90.000000
_cell_angle_beta 90.000000
_cell_angle_gamma 90.000000
_cell_volume 1521.821414
_symmetry_space_group_name_H-M "P C C N"
_symmetry_group_IT_number 56
_symmetry_cell_setting 'orthorhombic'
loop_
_space_group_symop_operation_xyz
x,y,z
1/2-x,1/2-y,z
1/2+x,-y,1/2-z
-x,1/2+y,1/2-z
-x,-y,-z
1/2+x,1/2+y,-z
1/2-x,y,1/2+z
x,1/2-y,1/2+z
loop_
_atom_site_type_symbol
_atom_site_label
_atom_site_fract_x
_atom_site_fract_y
_atom_site_fract_z
Si Si1 0.390432 0.905823 0.710843
Si Si2 0.782299 0.642174 0.537550
Si Si3 0.250000 0.250000 0.646667
Si Si4 0.344152 0.025374 0.093918
Si Si5 0.082884 0.799047 0.688476
O O1 0.527685 0.859065 0.627684
O O2 0.534498 0.930876 0.813214
O O3 0.203154 0.858306 0.754744
O O4 0.292831 0.969050 0.650285
O O5 0.801921 0.689076 0.430955
O O6 0.801968 0.571423 0.481591
O O7 0.565016 0.663687 0.598225
O O8 0.454923 0.249963 0.728254
O O9 0.500000 0.000000 0.000000
O O10 0.250000 0.750000 0.626955
#
# Coordination Sequence:
#
# PCOD8229852 Si02
#       5
#     8   8   4   8   8
#     4  12  28  47  76 111 158 191 259 312 372 469
#     4  12  26  49  73 109 151 201 248 308 387 452
#     4  12  28  44  78 106 148 202 252 314 384 444
#     4  12  26  47  77 112 150 203 246 311 387 446
#     4  12  26  48  72 109 149 193 256 311 369 456
#
# _framework density 23.655861999999999
#
# number of rings (size 3 to 8) (size 9 to 14) (size 15 to 20)
#    0.000    0.000    2.222    8.000    6.222    4.444 
#    0.000    0.000    0.000    0.000    0.000    0.000 
#    0.000    0.000    0.000    0.000    0.000    0.000 
#
# Total GULP energy -445971.669253 kJ/mol
# GULP energy per Si atom -12388.101924 kJ/mol
# Density = 2.360202 g / cm^3
# Si number density = 23.655862 Si / 1000 Ang^3
#
#
#
# Elastic Constant Matrix: (Units=GPa)
#
#
# Indices 1 2 3 4 5 6 
#
# 1 106.9774 38.8861 38.9570 0.0000 0.0000 0.0000
# 2 38.8861 103.6173 26.2288 0.0000 0.0000 0.0000
# 3 38.9570 26.2288 100.3893 0.0000 0.0000 0.0000
# 4 0.0000 0.0000 0.0000 53.7405 0.0000 0.0000
# 5 0.0000 0.0000 0.0000 0.0000 2.0095 0.0000
# 6 0.0000 0.0000 0.0000 0.0000 0.0000 68.6962
#
#
#
# Elastic Compliance Matrix: (Units=1/GPa)
#
#
# Indices 1 2 3 4 5 6 
#
# 1 0.011999 -0.003560 -0.003726 0.000000 0.000000 0.000000
# 2 -0.003560 0.011390 -0.001595 0.000000 0.000000 0.000000
# 3 -0.003726 -0.001595 0.011824 0.000000 0.000000 0.000000
# 4 0.000000 0.000000 0.000000 0.018608 0.000000 0.000000
# 5 0.000000 0.000000 0.000000 0.000000 0.497627 0.000000
# 6 0.000000 0.000000 0.000000 0.000000 0.000000 0.014557
#
#
# Mechanical properties :
#
#
# Convention : Reuss Voigt Hill
#
# Bulk Modulus (GPa) = 57.30012 57.68089 57.49050
# Shear Modulus (GPa) = 8.48058 38.68339 23.58198
#
# Velocity S-wave (km/s) = 1.89546 4.04822 3.16076
# Velocity P-wave (km/s) = 5.39123 6.80346 6.13809
#
# Compressibility (1/GPa) = 0.01745197
#
# Stress axis : x y z
#
# Youngs Moduli (GPa) = 83.34286 87.79280 84.57514
#
# Poissons Ratio (x) = 0.31252 0.31514
# Poissons Ratio (y) = 0.29668 0.13486
# Poissons Ratio (z) = 0.31055 0.14000
#
# Static dielectric constant tensor:
#      x y z
#    x 4.202400 0.000000 0.000000 
#    y 0.000000 4.555610 0.000000 
#    z 0.000000 0.000000 3.960010 
# 
# 
# High freq. dielectric constant tensor:
#      x y z
#    x 1.945600 0.000000 0.000000 
#    y 0.000000 1.971530 0.000000 
#    z 0.000000 0.000000 1.933270 
# 
# From -- ./inp_files/5535.got.cif
#   From: 2010.03.12/outbox.cif.g09.slc.cpg/sg56_3_cif.got.tgz:5535.got - 2010.04.16 15:33:40.
