data_PCOD8229860
_publ_section_title
;
Structure prediction by ZEFSAII (Michael W. Deem and Ramdas Pophale) SiO2 
 PCOD8229860
Probable space group: P C C N
;
_chemical_formula_sum "Si O2"
_cell_formula_units_Z 28
_cell_length_a 7.282240
_cell_length_b 15.064606
_cell_length_c 8.949169
_cell_angle_alpha 90.000000
_cell_angle_beta 90.000000
_cell_angle_gamma 90.000000
_cell_volume 981.760320
_symmetry_space_group_name_H-M "P C C N"
_symmetry_group_IT_number 56
_symmetry_cell_setting 'orthorhombic'
loop_
_space_group_symop_operation_xyz
x,y,z
1/2-x,1/2-y,z
1/2+x,-y,1/2-z
-x,1/2+y,1/2-z
-x,-y,-z
1/2+x,1/2+y,-z
1/2-x,y,1/2+z
x,1/2-y,1/2+z
loop_
_atom_site_type_symbol
_atom_site_label
_atom_site_fract_x
_atom_site_fract_y
_atom_site_fract_z
Si Si1 0.750000 0.750000 0.892606
Si Si2 0.364903 0.067068 0.584751
Si Si3 0.110032 0.828854 0.337437
Si Si4 0.381984 0.922697 0.143825
O O1 0.843313 0.833089 0.985794
O O2 0.593250 0.796022 0.789458
O O3 0.439889 0.082910 0.752708
O O4 0.500000 0.000000 0.500000
O O5 0.157994 0.023964 0.585039
O O6 0.250000 0.750000 0.312533
O O7 0.189200 0.907704 0.235297
O O8 0.102504 0.852424 0.512308
#
# Coordination Sequence:
#
# PCOD8229860 Si02
#       4
#     4   8   8   8
#     4  12  28  50  82 118 156 218 272 332 410 502
#     4  12  27  50  77 118 158 211 272 335 415 490
#     4  12  26  51  80 118 158 208 271 334 403 491
#     4  12  26  50  79 111 165 205 262 341 404 489
#
# _framework density 28.520198000000001
#
# number of rings (size 3 to 8) (size 9 to 14) (size 15 to 20)
#    0.000    0.000    5.714    2.571    4.000    3.429 
#    0.000    0.000    0.000    0.000    0.000    0.000 
#    0.000    0.000    0.000    0.000    0.000    0.000 
#
# Total GULP energy -347020.062862 kJ/mol
# GULP energy per Si atom -12393.573674 kJ/mol
# Density = 2.845528 g / cm^3
# Si number density = 28.520198 Si / 1000 Ang^3
#
#
#
# Elastic Constant Matrix: (Units=GPa)
#
#
# Indices 1 2 3 4 5 6 
#
# 1 124.1758 22.8170 -15.4561 0.0000 0.0000 0.0000
# 2 22.8170 194.3048 7.7488 0.0000 0.0000 0.0000
# 3 -15.4561 7.7488 82.2879 0.0000 0.0000 0.0000
# 4 0.0000 0.0000 0.0000 23.9774 0.0000 0.0000
# 5 0.0000 0.0000 0.0000 0.0000 8.6780 0.0000
# 6 0.0000 0.0000 0.0000 0.0000 0.0000 76.8641
#
#
#
# Elastic Compliance Matrix: (Units=1/GPa)
#
#
# Indices 1 2 3 4 5 6 
#
# 1 0.008458 -0.001061 0.001689 0.000000 0.000000 0.000000
# 2 -0.001061 0.005299 -0.000698 0.000000 0.000000 0.000000
# 3 0.001689 -0.000698 0.012535 0.000000 0.000000 0.000000
# 4 0.000000 0.000000 0.000000 0.041706 0.000000 0.000000
# 5 0.000000 0.000000 0.000000 0.000000 0.115233 0.000000
# 6 0.000000 0.000000 0.000000 0.000000 0.000000 0.013010
#
#
# Mechanical properties :
#
#
# Convention : Reuss Voigt Hill
#
# Bulk Modulus (GPa) = 38.23791 47.88755 43.06273
# Shear Modulus (GPa) = 24.37840 47.61448 35.99644
#
# Velocity S-wave (km/s) = 2.92683 4.09038 3.55651
# Velocity P-wave (km/s) = 4.98580 6.25584 5.65658
#
# Compressibility (1/GPa) = 0.02615205
#
# Stress axis : x y z
#
# Youngs Moduli (GPa) = 118.22914 188.71705 79.77428
#
# Poissons Ratio (x) = 0.20015 -0.13470
# Poissons Ratio (y) = 0.12539 0.05570
# Poissons Ratio (z) = -0.19964 0.13176
#
# Static dielectric constant tensor:
#      x y z
#    x 5.933920 0.000000 0.000000 
#    y 0.000000 6.285520 0.000000 
#    z 0.000000 0.000000 4.694850 
# 
# 
# High freq. dielectric constant tensor:
#      x y z
#    x 2.176480 0.000000 0.000000 
#    y 0.000000 2.194080 0.000000 
#    z 0.000000 0.000000 2.114430 
# 
# From -- ./inp_files/1828.got.cif
#   From: 2010.03.12/outbox.cif.g09.slc.cpg/sg56_1_cif.got.tgz:1828.got - 2010.04.16 15:33:40.
