data_PCOD8229558
_publ_section_title
;
Structure prediction by ZEFSAII (Michael W. Deem and Ramdas Pophale) SiO2 
 PCOD8229558
Probable space group: P C C N
;
_chemical_formula_sum "Si O2"
_cell_formula_units_Z 48
_cell_length_a 11.536890
_cell_length_b 15.720006
_cell_length_c 11.563881
_cell_angle_alpha 90.000000
_cell_angle_beta 90.000000
_cell_angle_gamma 90.000000
_cell_volume 2097.225227
_symmetry_space_group_name_H-M "P C C N"
_symmetry_group_IT_number 56
_symmetry_cell_setting 'orthorhombic'
loop_
_space_group_symop_operation_xyz
x,y,z
1/2-x,1/2-y,z
1/2+x,-y,1/2-z
-x,1/2+y,1/2-z
-x,-y,-z
1/2+x,1/2+y,-z
1/2-x,y,1/2+z
x,1/2-y,1/2+z
loop_
_atom_site_type_symbol
_atom_site_label
_atom_site_fract_x
_atom_site_fract_y
_atom_site_fract_z
Si Si1 0.967595 0.345221 0.797149
Si Si2 0.599377 0.941369 0.546418
Si Si3 0.405267 0.171140 0.244454
Si Si4 0.743690 0.434576 0.189833
Si Si5 0.319521 0.090761 0.691029
Si Si6 0.534507 0.406912 0.544922
O O1 0.846852 0.361203 0.728865
O O2 0.033178 0.261840 0.749346
O O3 0.060926 0.417921 0.765066
O O4 0.945011 0.345264 0.934449
O O5 0.546936 0.880262 0.644833
O O6 0.652963 0.885736 0.441872
O O7 0.500000 0.000000 0.500000
O O8 0.698671 0.002335 0.592188
O O9 0.263748 0.164503 0.246351
O O10 0.428481 0.126477 0.121345
O O11 0.767362 0.494824 0.301440
O O12 0.856878 0.394328 0.131673
O O13 0.500000 0.500000 0.500000
#
# Coordination Sequence:
#
# PCOD8229558 Si02
#       6
#     8   8   8   8   8   8
#     4  12  26  46  69 109 150 186 242 313 372 437
#     4  11  21  42  73 101 139 186 248 302 352 439
#     4  11  28  43  70 112 145 194 243 307 382 431
#     4  11  23  43  73 108 136 195 249 295 368 446
#     4  11  23  44  73 105 147 188 250 304 371 442
#     4  12  24  48  75 103 149 193 252 302 369 457
#
# _framework density 22.887383
#
# number of rings (size 3 to 8) (size 9 to 14) (size 15 to 20)
#    0.000    0.667    3.333    5.500    4.667    0.667 
#    0.000    1.667    0.000    0.000    0.000    0.000 
#    0.000    0.000    0.000    0.000    0.000    0.000 
#
# Total GULP energy -594988.290469 kJ/mol
# GULP energy per Si atom -12395.589385 kJ/mol
# Density = 2.283529 g / cm^3
# Si number density = 22.887383 Si / 1000 Ang^3
#
#
#
# Elastic Constant Matrix: (Units=GPa)
#
#
# Indices 1 2 3 4 5 6 
#
# 1 111.0151 22.6718 41.3042 0.0000 0.0000 0.0000
# 2 22.6718 68.5207 37.7509 0.0000 0.0000 0.0000
# 3 41.3042 37.7509 153.5307 0.0000 0.0000 0.0000
# 4 0.0000 0.0000 0.0000 32.1092 0.0000 0.0000
# 5 0.0000 0.0000 0.0000 0.0000 45.1846 0.0000
# 6 0.0000 0.0000 0.0000 0.0000 0.0000 35.1022
#
#
#
# Elastic Compliance Matrix: (Units=1/GPa)
#
#
# Indices 1 2 3 4 5 6 
#
# 1 0.010282 -0.002172 -0.002232 0.000000 0.000000 0.000000
# 2 -0.002172 0.017340 -0.003679 0.000000 0.000000 0.000000
# 3 -0.002232 -0.003679 0.008018 0.000000 0.000000 0.000000
# 4 0.000000 0.000000 0.000000 0.031144 0.000000 0.000000
# 5 0.000000 0.000000 0.000000 0.000000 0.022131 0.000000
# 6 0.000000 0.000000 0.000000 0.000000 0.000000 0.028488
#
#
# Mechanical properties :
#
#
# Convention : Reuss Voigt Hill
#
# Bulk Modulus (GPa) = 51.35253 59.61337 55.48295
# Shear Modulus (GPa) = 35.69854 37.90184 36.80019
#
# Velocity S-wave (km/s) = 3.95365 4.07383 4.01419
# Velocity P-wave (km/s) = 6.58237 6.94486 6.76604
#
# Compressibility (1/GPa) = 0.01947324
#
# Stress axis : x y z
#
# Youngs Moduli (GPa) = 97.25877 57.67041 124.71193
#
# Poissons Ratio (x) = 0.12528 0.27835
# Poissons Ratio (y) = 0.21128 0.45884
# Poissons Ratio (z) = 0.21708 0.21218
#
# Static dielectric constant tensor:
#      x y z
#    x 4.082770 0.000000 0.000000 
#    y 0.000000 3.799230 0.000000 
#    z 0.000000 0.000000 4.352810 
# 
# 
# High freq. dielectric constant tensor:
#      x y z
#    x 1.916800 0.000000 0.000000 
#    y 0.000000 1.874940 0.000000 
#    z 0.000000 0.000000 1.916720 
# 
# From -- ./inp_files/7149.got.cif
#   From: 2010.03.12/outbox.cif.g09.slc.cpg/sg56_4_cif.got.tgz:7149.got - 2010.04.16 15:33:40.
