data_PCOD8229174
_publ_section_title
;
Structure prediction by ZEFSAII (Michael W. Deem and Ramdas Pophale) SiO2 
 PCOD8229174
Probable space group: P C C N
;
_chemical_formula_sum "Si O2"
_cell_formula_units_Z 48
_cell_length_a 12.327162
_cell_length_b 7.668721
_cell_length_c 23.152944
_cell_angle_alpha 90.000000
_cell_angle_beta 90.000000
_cell_angle_gamma 90.000000
_cell_volume 2188.730362
_symmetry_space_group_name_H-M "P C C N"
_symmetry_group_IT_number 56
_symmetry_cell_setting 'orthorhombic'
loop_
_space_group_symop_operation_xyz
x,y,z
1/2-x,1/2-y,z
1/2+x,-y,1/2-z
-x,1/2+y,1/2-z
-x,-y,-z
1/2+x,1/2+y,-z
1/2-x,y,1/2+z
x,1/2-y,1/2+z
loop_
_atom_site_type_symbol
_atom_site_label
_atom_site_fract_x
_atom_site_fract_y
_atom_site_fract_z
Si Si1 0.839467 0.900604 0.654226
Si Si2 0.669799 0.909691 0.282053
Si Si3 0.750000 0.250000 0.826343
Si Si4 0.063619 0.651441 0.101095
Si Si5 0.873785 0.773671 0.389443
Si Si6 0.750000 0.250000 0.096435
Si Si7 0.952134 0.182858 0.019551
O O1 0.750000 0.750000 0.650267
O O2 0.887854 0.915556 0.719627
O O3 0.936876 0.832515 0.614810
O O4 0.796537 0.090800 0.634860
O O5 0.750000 0.750000 0.285167
O O6 0.907982 0.638023 0.337381
O O7 0.744861 0.080839 0.285938
O O8 0.858373 0.215351 0.864932
O O9 0.112727 0.474182 0.127550
O O10 0.075666 0.687402 0.033087
O O11 0.750000 0.750000 0.410156
O O12 0.952677 0.763527 0.443330
O O13 0.656582 0.335254 0.057078
O O14 0.000000 0.000000 0.000000
#
# Coordination Sequence:
#
# PCOD8229174 Si02
#       7
#     8   8   4   8   8   4   8
#     4  11  26  48  71 104 147 187 241 297 370 423
#     4  10  22  44  70 101 140 186 236 299 351 434
#     4  12  22  44  72 104 140 185 247 286 366 428
#     4  12  25  46  71 107 140 190 241 296 361 436
#     4  11  23  45  69  98 141 178 240 293 353 422
#     4  12  26  48  72 106 148 187 241 296 360 442
#     4  12  27  43  71 107 144 190 239 295 365 431
#
# _framework density 21.930522
#
# number of rings (size 3 to 8) (size 9 to 14) (size 15 to 20)
#    0.000    0.667    5.000    3.500    2.333    2.000 
#    3.000    0.000    0.000    0.000    0.000    0.000 
#    0.000    0.000    0.000    0.000    0.000    0.000 
#
# Total GULP energy -594701.358152 kJ/mol
# GULP energy per Si atom -12389.611628 kJ/mol
# Density = 2.188061 g / cm^3
# Si number density = 21.930522 Si / 1000 Ang^3
#
#
#
# Elastic Constant Matrix: (Units=GPa)
#
#
# Indices 1 2 3 4 5 6 
#
# 1 105.0779 21.9194 15.1587 0.0000 0.0000 0.0000
# 2 21.9194 125.5674 37.5569 0.0000 0.0000 0.0000
# 3 15.1587 37.5569 86.7102 0.0000 0.0000 0.0000
# 4 0.0000 0.0000 0.0000 -66.5246 0.0000 0.0000
# 5 0.0000 0.0000 0.0000 0.0000 -27.9337 0.0000
# 6 0.0000 0.0000 0.0000 0.0000 0.0000 39.2752
#
#
#
# Elastic Compliance Matrix: (Units=1/GPa)
#
#
# Indices 1 2 3 4 5 6 
#
# 1 0.009973 -0.001401 -0.001137 0.000000 0.000000 0.000000
# 2 -0.001401 0.009346 -0.003803 0.000000 0.000000 0.000000
# 3 -0.001137 -0.003803 0.013379 0.000000 0.000000 0.000000
# 4 0.000000 0.000000 0.000000 -0.015032 0.000000 0.000000
# 5 0.000000 0.000000 0.000000 0.000000 -0.035799 0.000000
# 6 0.000000 0.000000 0.000000 0.000000 0.000000 0.025461
#
#
# Mechanical properties :
#
#
# Convention : Reuss Voigt Hill
#
# Bulk Modulus (GPa) = 49.95987 51.84728 50.90357
# Shear Modulus (GPa) = 187.39766 5.14474 96.27120
#
# Velocity S-wave (km/s) = 9.25398 1.53330 6.63276
# Velocity P-wave (km/s) = 11.70521 5.17954 9.05095
#
# Compressibility (1/GPa) = 0.02001607
#
# Stress axis : x y z
#
# Youngs Moduli (GPa) = 100.27108 106.99880 74.74613
#
# Poissons Ratio (x) = 0.14990 0.08496
# Poissons Ratio (y) = 0.14047 0.28427
# Poissons Ratio (z) = 0.11398 0.40693
#
# Static dielectric constant tensor:
#      x y z
#    x 3.636700 0.000000 0.000000 
#    y 0.000000 3.972000 0.000000 
#    z 0.000000 0.000000 4.606540 
# 
# 
# High freq. dielectric constant tensor:
#      x y z
#    x 1.852790 0.000000 0.000000 
#    y 0.000000 1.881860 0.000000 
#    z 0.000000 0.000000 1.871740 
# 
# From -- ./inp_files/20951.got.cif
#   From: 2010.03.12/outbox.cif.g09.slc.cpg/sg56_11_cif.got.tgz:20951.got - 2010.04.16 15:33:40.
