data_PCOD8229501
_publ_section_title
;
Structure prediction by ZEFSAII (Michael W. Deem and Ramdas Pophale) SiO2 
 PCOD8229501
Probable space group: P C C N
;
_chemical_formula_sum "Si O2"
_cell_formula_units_Z 40
_cell_length_a 15.876211
_cell_length_b 11.335715
_cell_length_c 8.561923
_cell_angle_alpha 90.000000
_cell_angle_beta 90.000000
_cell_angle_gamma 90.000000
_cell_volume 1540.873898
_symmetry_space_group_name_H-M "P C C N"
_symmetry_group_IT_number 56
_symmetry_cell_setting 'orthorhombic'
loop_
_space_group_symop_operation_xyz
x,y,z
1/2-x,1/2-y,z
1/2+x,-y,1/2-z
-x,1/2+y,1/2-z
-x,-y,-z
1/2+x,1/2+y,-z
1/2-x,y,1/2+z
x,1/2-y,1/2+z
loop_
_atom_site_type_symbol
_atom_site_label
_atom_site_fract_x
_atom_site_fract_y
_atom_site_fract_z
Si Si1 0.854456 0.589487 0.196240
Si Si2 0.819155 0.346335 0.257106
Si Si3 0.025367 0.991903 0.817722
Si Si4 0.575534 0.276839 0.037322
Si Si5 0.102989 0.188610 0.614698
O O1 0.788700 0.484245 0.247627
O O2 0.846699 0.700418 0.312949
O O3 0.946114 0.527631 0.204498
O O4 0.838043 0.628808 0.017159
O O5 0.750000 0.250000 0.305889
O O6 0.855368 0.320819 0.083484
O O7 0.898934 0.338182 0.374761
O O8 0.080896 0.871669 0.818204
O O9 0.081368 0.100246 0.756638
O O10 0.000000 0.000000 0.000000
O O11 0.480876 0.228626 0.021905
#
# Coordination Sequence:
#
# PCOD8229501 Si02
#       5
#     8   8   8   8   8
#     4  11  23  38  64 104 140 176 228 286 362 416
#     4  12  26  43  63  94 138 190 237 274 324 420
#     4  11  19  37  64 101 143 171 218 290 363 420
#     4  11  22  40  64  99 136 178 225 281 349 408
#     4  11  22  38  68 107 140 175 219 305 371 410
#
# _framework density 25.959295999999998
#
# number of rings (size 3 to 8) (size 9 to 14) (size 15 to 20)
#    0.000    0.800    4.000    6.000    2.800    0.000 
#    0.000    0.000    0.000    1.200    0.000    0.000 
#    0.000    0.000    0.000    0.000    0.000    0.000 
#
# Total GULP energy -495800.172322 kJ/mol
# GULP energy per Si atom -12395.004308 kJ/mol
# Density = 2.590021 g / cm^3
# Si number density = 25.959296 Si / 1000 Ang^3
#
#
#
# Elastic Constant Matrix: (Units=GPa)
#
#
# Indices 1 2 3 4 5 6 
#
# 1 31.1479 28.5586 14.8406 0.0000 0.0000 0.0000
# 2 28.5586 202.5862 58.5492 0.0000 0.0000 0.0000
# 3 14.8406 58.5492 126.6941 0.0000 0.0000 0.0000
# 4 0.0000 0.0000 0.0000 49.8210 0.0000 0.0000
# 5 0.0000 0.0000 0.0000 0.0000 16.6089 0.0000
# 6 0.0000 0.0000 0.0000 0.0000 0.0000 37.0062
#
#
#
# Elastic Compliance Matrix: (Units=1/GPa)
#
#
# Indices 1 2 3 4 5 6 
#
# 1 0.037416 -0.004626 -0.002245 0.000000 0.000000 0.000000
# 2 -0.004626 0.006269 -0.002355 0.000000 0.000000 0.000000
# 3 -0.002245 -0.002355 0.009244 0.000000 0.000000 0.000000
# 4 0.000000 0.000000 0.000000 0.020072 0.000000 0.000000
# 5 0.000000 0.000000 0.000000 0.000000 0.060209 0.000000
# 6 0.000000 0.000000 0.000000 0.000000 0.000000 0.027022
#
#
# Mechanical properties :
#
#
# Convention : Reuss Voigt Hill
#
# Bulk Modulus (GPa) = 29.00477 62.70276 45.85377
# Shear Modulus (GPa) = 26.29140 37.91922 32.10531
#
# Velocity S-wave (km/s) = 3.18589 3.82608 3.52057
# Velocity P-wave (km/s) = 4.97299 6.61251 5.85046
#
# Compressibility (1/GPa) = 0.03447709
#
# Stress axis : x y z
#
# Youngs Moduli (GPa) = 26.72676 159.51687 108.17314
#
# Poissons Ratio (x) = 0.73787 0.24286
# Poissons Ratio (y) = 0.12363 0.25477
# Poissons Ratio (z) = 0.06000 0.37570
#
# Static dielectric constant tensor:
#      x y z
#    x 4.001200 0.000000 0.000000 
#    y 0.000000 5.830460 0.000000 
#    z 0.000000 0.000000 4.348620 
# 
# 
# High freq. dielectric constant tensor:
#      x y z
#    x 1.978950 0.000000 0.000000 
#    y 0.000000 2.075860 0.000000 
#    z 0.000000 0.000000 2.039020 
# 
# From -- ./inp_files/3893.got.cif
#   From: 2010.03.12/outbox.cif.g09.slc.cpg/sg56_2_cif.got.tgz:3893.got - 2010.04.16 15:33:40.
