data_PCOD8229370
_publ_section_title
;
Structure prediction by ZEFSAII (Michael W. Deem and Ramdas Pophale) SiO2 
 PCOD8229370
Probable space group: P C C N
;
_chemical_formula_sum "Si O2"
_cell_formula_units_Z 36
_cell_length_a 8.941105
_cell_length_b 8.674016
_cell_length_c 22.043094
_cell_angle_alpha 90.000000
_cell_angle_beta 90.000000
_cell_angle_gamma 90.000000
_cell_volume 1709.558500
_symmetry_space_group_name_H-M "P C C N"
_symmetry_group_IT_number 56
_symmetry_cell_setting 'orthorhombic'
loop_
_space_group_symop_operation_xyz
x,y,z
1/2-x,1/2-y,z
1/2+x,-y,1/2-z
-x,1/2+y,1/2-z
-x,-y,-z
1/2+x,1/2+y,-z
1/2-x,y,1/2+z
x,1/2-y,1/2+z
loop_
_atom_site_type_symbol
_atom_site_label
_atom_site_fract_x
_atom_site_fract_y
_atom_site_fract_z
Si Si1 0.045903 0.580691 0.820944
Si Si2 0.250000 0.250000 0.530605
Si Si3 0.733526 0.580359 0.585042
Si Si4 0.733496 0.071398 0.295568
Si Si5 0.481925 0.387670 0.121393
O O1 0.888093 0.518784 0.798500
O O2 0.039704 0.765445 0.828580
O O3 0.092148 0.503231 0.884600
O O4 0.169964 0.539736 0.771237
O O5 0.294612 0.395255 0.487194
O O6 0.106893 0.292059 0.570595
O O7 0.750000 0.750000 0.616112
O O8 0.880515 0.476587 0.591931
O O9 0.750000 0.250000 0.309647
O O10 0.624623 0.010503 0.347369
#
# Coordination Sequence:
#
# PCOD8229370 Si02
#       5
#     8   4   8   8   8
#     4  12  24  44  68 104 133 182 222 291 348 422
#     4  10  24  46  70 100 136 192 226 298 326 418
#     4  10  24  42  70  97 139 177 235 276 343 403
#     4  12  25  41  69  99 139 174 229 281 357 418
#     4  12  23  48  68 101 141 182 232 284 351 414
#
# _framework density 21.058069
#
# number of rings (size 3 to 8) (size 9 to 14) (size 15 to 20)
#    0.667    0.000    2.222    6.667    0.000    2.667 
#    0.000    0.000    0.000    0.000    0.000    0.000 
#    0.000    0.000    0.000    0.000    0.000    0.000 
#
# Total GULP energy -446506.200236 kJ/mol
# GULP energy per Si atom -12402.950007 kJ/mol
# Density = 2.101014 g / cm^3
# Si number density = 21.058069 Si / 1000 Ang^3
#
#
#
# Elastic Constant Matrix: (Units=GPa)
#
#
# Indices 1 2 3 4 5 6 
#
# 1 64.5120 11.9270 52.3454 0.0000 0.0000 0.0000
# 2 11.9270 101.0196 30.3739 0.0000 0.0000 0.0000
# 3 52.3454 30.3739 114.9722 0.0000 0.0000 0.0000
# 4 0.0000 0.0000 0.0000 74.0812 0.0000 0.0000
# 5 0.0000 0.0000 0.0000 0.0000 46.5009 0.0000
# 6 0.0000 0.0000 0.0000 0.0000 0.0000 40.0310
#
#
#
# Elastic Compliance Matrix: (Units=1/GPa)
#
#
# Indices 1 2 3 4 5 6 
#
# 1 0.024606 0.000503 -0.011336 0.000000 0.000000 0.000000
# 2 0.000503 0.010764 -0.003073 0.000000 0.000000 0.000000
# 3 -0.011336 -0.003073 0.014670 0.000000 0.000000 0.000000
# 4 0.000000 0.000000 0.000000 0.013499 0.000000 0.000000
# 5 0.000000 0.000000 0.000000 0.000000 0.021505 0.000000
# 6 0.000000 0.000000 0.000000 0.000000 0.000000 0.024981
#
#
# Mechanical properties :
#
#
# Convention : Reuss Voigt Hill
#
# Bulk Modulus (GPa) = 44.98509 52.19958 48.59234
# Shear Modulus (GPa) = 34.42483 44.51313 39.46898
#
# Velocity S-wave (km/s) = 4.04760 4.60263 4.33401
# Velocity P-wave (km/s) = 6.57669 7.28614 6.94048
#
# Compressibility (1/GPa) = 0.02222959
#
# Stress axis : x y z
#
# Youngs Moduli (GPa) = 40.64095 92.90641 68.16414
#
# Poissons Ratio (x) = -0.04675 0.77268
# Poissons Ratio (y) = -0.02045 0.20945
# Poissons Ratio (z) = 0.46069 0.28547
#
# Static dielectric constant tensor:
#      x y z
#    x 3.871270 0.000000 0.000000 
#    y 0.000000 3.901970 0.000000 
#    z 0.000000 0.000000 3.806120 
# 
# 
# High freq. dielectric constant tensor:
#      x y z
#    x 1.834640 0.000000 0.000000 
#    y 0.000000 1.835920 0.000000 
#    z 0.000000 0.000000 1.826160 
# 
# From -- ./inp_files/17884.got.cif
#   From: 2010.03.12/outbox.cif.g09.slc.cpg/sg56_9_cif.got.tgz:17884.got - 2010.04.16 15:33:40.
