data_PCOD8229741
_publ_section_title
;
Structure prediction by ZEFSAII (Michael W. Deem and Ramdas Pophale) SiO2 
 PCOD8229741
Probable space group: P C C N
;
_chemical_formula_sum "Si O2"
_cell_formula_units_Z 44
_cell_length_a 9.317674
_cell_length_b 15.664612
_cell_length_c 13.159715
_cell_angle_alpha 90.000000
_cell_angle_beta 90.000000
_cell_angle_gamma 90.000000
_cell_volume 1920.762365
_symmetry_space_group_name_H-M "P C C N"
_symmetry_group_IT_number 56
_symmetry_cell_setting 'orthorhombic'
loop_
_space_group_symop_operation_xyz
x,y,z
1/2-x,1/2-y,z
1/2+x,-y,1/2-z
-x,1/2+y,1/2-z
-x,-y,-z
1/2+x,1/2+y,-z
1/2-x,y,1/2+z
x,1/2-y,1/2+z
loop_
_atom_site_type_symbol
_atom_site_label
_atom_site_fract_x
_atom_site_fract_y
_atom_site_fract_z
Si Si1 0.750000 0.250000 0.216995
Si Si2 0.558926 0.347195 0.573101
Si Si3 0.007991 0.980403 0.684340
Si Si4 0.464746 0.446392 0.902867
Si Si5 0.259884 0.622818 0.614255
Si Si6 0.683536 0.658998 0.585382
O O1 0.688240 0.323590 0.288863
O O2 0.892876 0.276676 0.154472
O O3 0.435538 0.560647 0.371702
O O4 0.684626 0.339452 0.490778
O O5 0.404214 0.327966 0.520879
O O6 0.918884 0.891895 0.665105
O O7 0.165363 0.969584 0.632268
O O8 0.035373 0.994654 0.803116
O O9 0.588367 0.376193 0.888483
O O10 0.316672 0.402690 0.929297
O O11 0.500000 0.500000 0.000000
O O12 0.750000 0.750000 0.624059
#
# Coordination Sequence:
#
# PCOD8229741 Si02
#       6
#     4   8   8   8   8   8
#     4  12  26  44  78 106 144 194 254 308 366 458
#     4  11  25  49  74 102 151 198 250 302 377 457
#     4  11  24  48  72 104 147 201 246 306 378 458
#     4  12  25  44  73 107 146 193 252 301 378 447
#     4  11  25  43  74 104 139 193 251 300 366 450
#     4  11  27  46  72 111 151 190 248 327 375 435
#
# _framework density 22.907571000000001
#
# number of rings (size 3 to 8) (size 9 to 14) (size 15 to 20)
#    0.000    0.727    1.818    6.000   10.182    0.000 
#    0.000    3.636    0.000    0.000    0.000    0.000 
#    0.000    0.000    0.000    0.000    0.000    0.000 
#
# Total GULP energy -545240.160015 kJ/mol
# GULP energy per Si atom -12391.821819 kJ/mol
# Density = 2.285543 g / cm^3
# Si number density = 22.907571 Si / 1000 Ang^3
#
#
#
# Elastic Constant Matrix: (Units=GPa)
#
#
# Indices 1 2 3 4 5 6 
#
# 1 120.9482 35.6162 37.9706 0.0000 0.0000 0.0000
# 2 35.6162 98.9992 44.7006 0.0000 0.0000 0.0000
# 3 37.9706 44.7006 141.1245 0.0000 0.0000 0.0000
# 4 0.0000 0.0000 0.0000 17.9088 0.0000 0.0000
# 5 0.0000 0.0000 0.0000 0.0000 13.3892 0.0000
# 6 0.0000 0.0000 0.0000 0.0000 0.0000 44.2577
#
#
#
# Elastic Compliance Matrix: (Units=1/GPa)
#
#
# Indices 1 2 3 4 5 6 
#
# 1 0.009599 -0.002669 -0.001737 0.000000 0.000000 0.000000
# 2 -0.002669 0.012529 -0.003250 0.000000 0.000000 0.000000
# 3 -0.001737 -0.003250 0.008583 0.000000 0.000000 0.000000
# 4 0.000000 0.000000 0.000000 0.055838 0.000000 0.000000
# 5 0.000000 0.000000 0.000000 0.000000 0.074687 0.000000
# 6 0.000000 0.000000 0.000000 0.000000 0.000000 0.022595
#
#
# Mechanical properties :
#
#
# Convention : Reuss Voigt Hill
#
# Bulk Modulus (GPa) = 64.94474 66.40520 65.67497
# Shear Modulus (GPa) = 24.47646 31.29678 27.88662
#
# Velocity S-wave (km/s) = 3.27232 3.70025 3.49284
# Velocity P-wave (km/s) = 6.53374 6.87801 6.70809
#
# Compressibility (1/GPa) = 0.01539770
#
# Stress axis : x y z
#
# Youngs Moduli (GPa) = 104.17315 79.81523 116.51022
#
# Poissons Ratio (x) = 0.21303 0.20242
# Poissons Ratio (y) = 0.27804 0.37870
# Poissons Ratio (z) = 0.18099 0.25943
#
# Static dielectric constant tensor:
#      x y z
#    x 4.077630 0.000000 0.000000 
#    y 0.000000 4.240870 0.000000 
#    z 0.000000 0.000000 3.842820 
# 
# 
# High freq. dielectric constant tensor:
#      x y z
#    x 1.917730 0.000000 0.000000 
#    y 0.000000 1.899680 0.000000 
#    z 0.000000 0.000000 1.911390 
# 
# From -- ./inp_files/10560.got.cif
#   From: 2010.03.12/outbox.cif.g09.slc.cpg/sg56_6_cif.got.tgz:10560.got - 2010.04.16 15:33:40.
