data_PCOD8229181
_publ_section_title
;
Structure prediction by ZEFSAII (Michael W. Deem and Ramdas Pophale) SiO2 
 PCOD8229181
Probable space group: P C C N
;
_chemical_formula_sum "Si O2"
_cell_formula_units_Z 28
_cell_length_a 11.400683
_cell_length_b 6.521444
_cell_length_c 15.425269
_cell_angle_alpha 90.000000
_cell_angle_beta 90.000000
_cell_angle_gamma 90.000000
_cell_volume 1146.852025
_symmetry_space_group_name_H-M "P C C N"
_symmetry_group_IT_number 56
_symmetry_cell_setting 'orthorhombic'
loop_
_space_group_symop_operation_xyz
x,y,z
1/2-x,1/2-y,z
1/2+x,-y,1/2-z
-x,1/2+y,1/2-z
-x,-y,-z
1/2+x,1/2+y,-z
1/2-x,y,1/2+z
x,1/2-y,1/2+z
loop_
_atom_site_type_symbol
_atom_site_label
_atom_site_fract_x
_atom_site_fract_y
_atom_site_fract_z
Si Si1 0.061648 0.062771 0.677793
Si Si2 0.864742 0.880670 0.959764
Si Si3 0.750000 0.250000 0.381737
Si Si4 0.111374 0.265227 0.357281
O O1 0.173253 0.909754 0.673568
O O2 0.941700 0.963472 0.642918
O O3 0.074454 0.268577 0.621121
O O4 0.048825 0.116149 0.778655
O O5 0.750000 0.750000 0.983726
O O6 0.931861 0.877283 0.053206
O O7 0.162155 0.882736 0.059520
O O8 0.250000 0.250000 0.341588
#
# Coordination Sequence:
#
# PCOD8229181 Si02
#       4
#     8   8   4   8
#     4  11  25  43  69 101 143 183 235 297 351 420
#     4   9  21  45  70 101 139 178 230 290 357 430
#     4  10  22  44  72 102 140 186 224 296 356 420
#     4  11  25  45  70 100 139 185 237 293 355 429
#
# _framework density 24.414656999999998
#
# number of rings (size 3 to 8) (size 9 to 14) (size 15 to 20)
#    0.000    1.714    0.000    3.429    8.000    2.286 
#   10.286    0.000    0.000    0.000    0.000    0.000 
#    0.000    0.000    0.000    0.000    0.000    0.000 
#
# Total GULP energy -347212.819467 kJ/mol
# GULP energy per Si atom -12400.457838 kJ/mol
# Density = 2.435909 g / cm^3
# Si number density = 24.414657 Si / 1000 Ang^3
#
#
#
# Elastic Constant Matrix: (Units=GPa)
#
#
# Indices 1 2 3 4 5 6 
#
# 1 83.8263 27.1891 12.8844 0.0000 0.0000 0.0000
# 2 27.1891 155.2570 77.7261 0.0000 0.0000 0.0000
# 3 12.8844 77.7261 201.5042 0.0000 0.0000 0.0000
# 4 0.0000 0.0000 0.0000 14.3189 0.0000 0.0000
# 5 0.0000 0.0000 0.0000 0.0000 27.7028 0.0000
# 6 0.0000 0.0000 0.0000 0.0000 0.0000 49.1386
#
#
#
# Elastic Compliance Matrix: (Units=1/GPa)
#
#
# Indices 1 2 3 4 5 6 
#
# 1 0.012648 -0.002243 0.000057 0.000000 0.000000 0.000000
# 2 -0.002243 0.008380 -0.003089 0.000000 0.000000 0.000000
# 3 0.000057 -0.003089 0.006151 0.000000 0.000000 0.000000
# 4 0.000000 0.000000 0.000000 0.069838 0.000000 0.000000
# 5 0.000000 0.000000 0.000000 0.000000 0.036097 0.000000
# 6 0.000000 0.000000 0.000000 0.000000 0.000000 0.020351
#
#
# Mechanical properties :
#
#
# Convention : Reuss Voigt Hill
#
# Bulk Modulus (GPa) = 60.14114 75.13185 67.63649
# Shear Modulus (GPa) = 29.48820 39.75124 34.61972
#
# Velocity S-wave (km/s) = 3.47912 4.03944 3.76970
# Velocity P-wave (km/s) = 6.38950 7.25232 6.83454
#
# Compressibility (1/GPa) = 0.01662755
#
# Stress axis : x y z
#
# Youngs Moduli (GPa) = 79.06158 119.32786 162.58562
#
# Poissons Ratio (x) = 0.26769 -0.00920
# Poissons Ratio (y) = 0.17736 0.50224
# Poissons Ratio (z) = -0.00447 0.36861
#
# Static dielectric constant tensor:
#      x y z
#    x 4.513130 0.000000 0.000000 
#    y 0.000000 4.398670 0.000000 
#    z 0.000000 0.000000 4.515030 
# 
# 
# High freq. dielectric constant tensor:
#      x y z
#    x 1.979890 0.000000 0.000000 
#    y 0.000000 1.973210 0.000000 
#    z 0.000000 0.000000 1.979820 
# 
# From -- ./inp_files/14300.got.cif
#   From: 2010.03.12/outbox.cif.g09.slc.cpg/sg56_8_cif.got.tgz:14300.got - 2010.04.16 15:33:40.
