data_PCOD8229413
_publ_section_title
;
Structure prediction by ZEFSAII (Michael W. Deem and Ramdas Pophale) SiO2 
 PCOD8229413
Probable space group: P C C N
;
_chemical_formula_sum "Si O2"
_cell_formula_units_Z 48
_cell_length_a 17.761174
_cell_length_b 9.827149
_cell_length_c 13.115643
_cell_angle_alpha 90.000000
_cell_angle_beta 90.000000
_cell_angle_gamma 90.000000
_cell_volume 2289.226669
_symmetry_space_group_name_H-M "P C C N"
_symmetry_group_IT_number 56
_symmetry_cell_setting 'orthorhombic'
loop_
_space_group_symop_operation_xyz
x,y,z
1/2-x,1/2-y,z
1/2+x,-y,1/2-z
-x,1/2+y,1/2-z
-x,-y,-z
1/2+x,1/2+y,-z
1/2-x,y,1/2+z
x,1/2-y,1/2+z
loop_
_atom_site_type_symbol
_atom_site_label
_atom_site_fract_x
_atom_site_fract_y
_atom_site_fract_z
Si Si1 0.493216 0.216122 0.030196
Si Si2 0.250000 0.250000 0.271083
Si Si3 0.750000 0.250000 0.809111
Si Si4 0.389341 0.378785 0.170616
Si Si5 0.755234 0.034068 0.134850
Si Si6 0.589351 0.973688 0.109171
Si Si7 0.138958 0.866070 0.039833
O O1 0.455998 0.290406 0.125079
O O2 0.529832 0.083752 0.076969
O O3 0.429989 0.168963 0.947896
O O4 0.554695 0.314891 0.979985
O O5 0.319365 0.284043 0.198700
O O6 0.224380 0.376928 0.341925
O O7 0.745509 0.113830 0.742040
O O8 0.822652 0.240625 0.882696
O O9 0.419831 0.453841 0.270513
O O10 0.362766 0.485181 0.086949
O O11 0.672642 0.030571 0.082267
O O12 0.813582 0.115326 0.064205
#
# Coordination Sequence:
#
# PCOD8229413 Si02
#       7
#     8   4   4   8   8   8   8
#     4  11  26  43  70  98 143 184 224 292 354 419
#     4  10  24  46  68 102 134 188 226 302 344 420
#     4  12  22  46  70 102 138 178 240 290 344 416
#     4  11  26  43  68  99 137 179 232 278 353 419
#     4  11  25  45  74 100 141 176 235 295 346 410
#     4  10  24  47  66 102 136 183 230 284 354 418
#     4  12  26  41  71 105 132 184 236 285 353 420
#
# _framework density 20.967780000000001
#
# number of rings (size 3 to 8) (size 9 to 14) (size 15 to 20)
#    0.000    1.000    3.333    3.000    9.333    4.000 
#    0.000    0.000    0.000    0.000    0.000    0.000 
#    0.000    0.000    0.000    0.000    0.000    0.000 
#
# Total GULP energy -595303.253613 kJ/mol
# GULP energy per Si atom -12402.151117 kJ/mol
# Density = 2.092006 g / cm^3
# Si number density = 20.967780 Si / 1000 Ang^3
#
#
#
# Elastic Constant Matrix: (Units=GPa)
#
#
# Indices 1 2 3 4 5 6 
#
# 1 112.9951 37.1301 41.6778 0.0000 0.0000 0.0000
# 2 37.1301 84.2592 29.9197 0.0000 0.0000 0.0000
# 3 41.6778 29.9197 95.8768 0.0000 0.0000 0.0000
# 4 0.0000 0.0000 0.0000 17.4534 0.0000 0.0000
# 5 0.0000 0.0000 0.0000 0.0000 -23.7769 0.0000
# 6 0.0000 0.0000 0.0000 0.0000 0.0000 31.0405
#
#
#
# Elastic Compliance Matrix: (Units=1/GPa)
#
#
# Indices 1 2 3 4 5 6 
#
# 1 0.011480 -0.003696 -0.003837 0.000000 0.000000 0.000000
# 2 -0.003696 0.014537 -0.002930 0.000000 0.000000 0.000000
# 3 -0.003837 -0.002930 0.013012 0.000000 0.000000 0.000000
# 4 0.000000 0.000000 0.000000 0.057295 0.000000 0.000000
# 5 0.000000 0.000000 0.000000 0.000000 -0.042058 0.000000
# 6 0.000000 0.000000 0.000000 0.000000 0.000000 0.032216
#
#
# Mechanical properties :
#
#
# Convention : Reuss Voigt Hill
#
# Bulk Modulus (GPa) = 55.23795 56.73182 55.98489
# Shear Modulus (GPa) = 44.07492 17.23697 30.65595
#
# Velocity S-wave (km/s) = 4.58977 2.87029 3.82782
# Velocity P-wave (km/s) = 7.38169 6.17253 6.80402
#
# Compressibility (1/GPa) = 0.01810349
#
# Stress axis : x y z
#
# Youngs Moduli (GPa) = 87.11006 68.78848 76.85105
#
# Poissons Ratio (x) = 0.25426 0.29486
# Poissons Ratio (y) = 0.32199 0.22516
# Poissons Ratio (z) = 0.33422 0.20154
#
# Static dielectric constant tensor:
#      x y z
#    x 3.886410 0.000000 0.000000 
#    y 0.000000 3.934140 0.000000 
#    z 0.000000 0.000000 3.894000 
# 
# 
# High freq. dielectric constant tensor:
#      x y z
#    x 1.822890 0.000000 0.000000 
#    y 0.000000 1.835930 0.000000 
#    z 0.000000 0.000000 1.829100 
# 
# From -- ./inp_files/12715.got.cif
#   From: 2010.03.12/outbox.cif.g09.slc.cpg/sg56_7_cif.got.tgz:12715.got - 2010.04.16 15:33:40.
