data_PCOD8229374
_publ_section_title
;
Structure prediction by ZEFSAII (Michael W. Deem and Ramdas Pophale) SiO2 
 PCOD8229374
Probable space group: P C C N
;
_chemical_formula_sum "Si O2"
_cell_formula_units_Z 44
_cell_length_a 14.137366
_cell_length_b 15.730245
_cell_length_c 8.788610
_cell_angle_alpha 90.000000
_cell_angle_beta 90.000000
_cell_angle_gamma 90.000000
_cell_volume 1954.448275
_symmetry_space_group_name_H-M "P C C N"
_symmetry_group_IT_number 56
_symmetry_cell_setting 'orthorhombic'
loop_
_space_group_symop_operation_xyz
x,y,z
1/2-x,1/2-y,z
1/2+x,-y,1/2-z
-x,1/2+y,1/2-z
-x,-y,-z
1/2+x,1/2+y,-z
1/2-x,y,1/2+z
x,1/2-y,1/2+z
loop_
_atom_site_type_symbol
_atom_site_label
_atom_site_fract_x
_atom_site_fract_y
_atom_site_fract_z
Si Si1 0.343076 0.837797 0.776372
Si Si2 0.250000 0.250000 0.957149
Si Si3 0.311214 0.127682 0.201087
Si Si4 0.073452 0.977554 0.803285
Si Si5 0.633909 0.992441 0.378976
Si Si6 0.360183 0.676614 0.630629
O O1 0.405966 0.765640 0.689308
O O2 0.237505 0.832606 0.717495
O O3 0.378123 0.931429 0.740148
O O4 0.347094 0.819269 0.952861
O O5 0.322501 0.195612 0.063554
O O6 0.193600 0.181675 0.856654
O O7 0.215766 0.072219 0.172502
O O8 0.403635 0.067035 0.215572
O O9 0.081393 0.905456 0.676768
O O10 0.970976 0.954238 0.871165
O O11 0.148800 0.975509 0.945626
#
# Coordination Sequence:
#
# PCOD8229374 Si02
#       6
#     8   4   8   8   8   8
#     4  11  22  39  64  93 127 168 213 264 323 388
#     4  10  24  42  72  94 126 180 228 274 340 378
#     4  11  22  46  67  96 132 176 223 282 326 407
#     4  11  24  43  67  99 135 175 219 276 340 398
#     4  11  24  43  67  99 135 175 219 276 340 398
#     4  11  22  39  64  93 127 168 213 264 323 388
#
# _framework density 22.512747000000001
#
# number of rings (size 3 to 8) (size 9 to 14) (size 15 to 20)
#    0.000    1.091    3.636    4.364    2.545    0.727 
#    6.545    0.000    0.000    0.000    0.000    0.000 
#    0.000    0.000    0.000    0.000    0.000    0.000 
#
# Total GULP energy -545143.419585 kJ/mol
# GULP energy per Si atom -12389.623172 kJ/mol
# Density = 2.246151 g / cm^3
# Si number density = 22.512747 Si / 1000 Ang^3
#
#
#
# Elastic Constant Matrix: (Units=GPa)
#
#
# Indices 1 2 3 4 5 6 
#
# 1 42.7627 8.4053 5.8871 0.0000 0.0000 0.0000
# 2 8.4053 126.5939 50.7005 0.0000 0.0000 0.0000
# 3 5.8871 50.7005 170.1214 0.0000 0.0000 0.0000
# 4 0.0000 0.0000 0.0000 49.8568 0.0000 0.0000
# 5 0.0000 0.0000 0.0000 0.0000 0.3171 0.0000
# 6 0.0000 0.0000 0.0000 0.0000 0.0000 11.4627
#
#
#
# Elastic Compliance Matrix: (Units=1/GPa)
#
#
# Indices 1 2 3 4 5 6 
#
# 1 0.023718 -0.001415 -0.000399 0.000000 0.000000 0.000000
# 2 -0.001415 0.009054 -0.002649 0.000000 0.000000 0.000000
# 3 -0.000399 -0.002649 0.006682 0.000000 0.000000 0.000000
# 4 0.000000 0.000000 0.000000 0.020057 0.000000 0.000000
# 5 0.000000 0.000000 0.000000 0.000000 3.153726 0.000000
# 6 0.000000 0.000000 0.000000 0.000000 0.000000 0.087240
#
#
# Mechanical properties :
#
#
# Convention : Reuss Voigt Hill
#
# Bulk Modulus (GPa) = 32.75805 52.16265 42.46035
# Shear Modulus (GPa) = 1.50622 30.62631 16.06626
#
# Velocity S-wave (km/s) = 0.81884 3.69236 2.67432
# Velocity P-wave (km/s) = 3.93402 6.43417 5.33269
#
# Compressibility (1/GPa) = 0.03052685
#
# Stress axis : x y z
#
# Youngs Moduli (GPa) = 42.16222 110.44448 149.66539
#
# Poissons Ratio (x) = 0.15627 0.05973
# Poissons Ratio (y) = 0.05966 0.39653
# Poissons Ratio (z) = 0.01683 0.29262
#
# Static dielectric constant tensor:
#      x y z
#    x 3.690600 0.000000 0.000000 
#    y 0.000000 4.693260 0.000000 
#    z 0.000000 0.000000 4.315550 
# 
# 
# High freq. dielectric constant tensor:
#      x y z
#    x 1.840270 0.000000 0.000000 
#    y 0.000000 1.909470 0.000000 
#    z 0.000000 0.000000 1.907780 
# 
# From -- ./inp_files/3965.got.cif
#   From: 2010.03.12/outbox.cif.g09.slc.cpg/sg56_2_cif.got.tgz:3965.got - 2010.04.16 15:33:40.
