data_PCOD8229628
_publ_section_title
;
Structure prediction by ZEFSAII (Michael W. Deem and Ramdas Pophale) SiO2 
 PCOD8229628
Probable space group: P C C N
;
_chemical_formula_sum "Si O2"
_cell_formula_units_Z 48
_cell_length_a 10.804499
_cell_length_b 9.112280
_cell_length_c 22.917226
_cell_angle_alpha 90.000000
_cell_angle_beta 90.000000
_cell_angle_gamma 90.000000
_cell_volume 2256.283863
_symmetry_space_group_name_H-M "P C C N"
_symmetry_group_IT_number 56
_symmetry_cell_setting 'orthorhombic'
loop_
_space_group_symop_operation_xyz
x,y,z
1/2-x,1/2-y,z
1/2+x,-y,1/2-z
-x,1/2+y,1/2-z
-x,-y,-z
1/2+x,1/2+y,-z
1/2-x,y,1/2+z
x,1/2-y,1/2+z
loop_
_atom_site_type_symbol
_atom_site_label
_atom_site_fract_x
_atom_site_fract_y
_atom_site_fract_z
Si Si1 0.788974 0.581307 0.223552
Si Si2 0.332430 0.104920 0.647549
Si Si3 0.914491 0.510816 0.637730
Si Si4 0.529569 0.662485 0.638033
Si Si5 0.299097 0.907997 0.063541
Si Si6 0.269061 0.093125 0.956620
O O1 0.750000 0.750000 0.218026
O O2 0.794706 0.530765 0.290683
O O3 0.690228 0.482998 0.187551
O O4 0.929165 0.574389 0.196681
O O5 0.250000 0.250000 0.638518
O O6 0.483293 0.121155 0.643751
O O7 0.310079 0.997071 0.593737
O O8 0.987428 0.664067 0.649490
O O9 0.852888 0.517149 0.572731
O O10 0.409282 0.590878 0.610029
O O11 0.643790 0.636960 0.595877
O O12 0.250000 0.750000 0.046741
O O13 0.334172 0.983958 0.002309
O O14 0.250000 0.250000 0.989547
#
# Coordination Sequence:
#
# PCOD8229628 Si02
#       6
#     8   8   8   8   8   8
#     4   8  18  36  64  86 113 156 200 244 296 356
#     4  11  23  38  57  91 121 157 197 240 295 361
#     4   9  18  39  63  84 115 155 202 241 299 362
#     4   9  18  39  63  86 113 154 197 247 298 351
#     4  12  23  37  56  90 122 152 195 248 300 349
#     4   9  20  40  64  83 111 159 199 243 298 356
#
# _framework density 21.273918999999999
#
# number of rings (size 3 to 8) (size 9 to 14) (size 15 to 20)
#    0.000    2.333    1.667    3.000    2.333    0.667 
#    6.000    0.000    0.000    0.000    0.000    0.000 
#    0.000    0.000    0.000    0.000    0.000    0.000 
#
# Total GULP energy -594725.588778 kJ/mol
# GULP energy per Si atom -12390.116433 kJ/mol
# Density = 2.122550 g / cm^3
# Si number density = 21.273919 Si / 1000 Ang^3
#
#
#
# Elastic Constant Matrix: (Units=GPa)
#
#
# Indices 1 2 3 4 5 6 
#
# 1 94.3940 22.2386 9.5140 0.0000 0.0000 0.0000
# 2 22.2386 67.3169 29.6546 0.0000 0.0000 0.0000
# 3 9.5140 29.6546 80.4664 0.0000 0.0000 0.0000
# 4 0.0000 0.0000 0.0000 20.6930 0.0000 0.0000
# 5 0.0000 0.0000 0.0000 0.0000 -22.6440 0.0000
# 6 0.0000 0.0000 0.0000 0.0000 0.0000 32.8897
#
#
#
# Elastic Compliance Matrix: (Units=1/GPa)
#
#
# Indices 1 2 3 4 5 6 
#
# 1 0.011488 -0.003816 0.000048 0.000000 0.000000 0.000000
# 2 -0.003816 0.019002 -0.006552 0.000000 0.000000 0.000000
# 3 0.000048 -0.006552 0.014836 0.000000 0.000000 0.000000
# 4 0.000000 0.000000 0.000000 0.048326 0.000000 0.000000
# 5 0.000000 0.000000 0.000000 0.000000 -0.044162 0.000000
# 6 0.000000 0.000000 0.000000 0.000000 0.000000 0.030405
#
#
# Mechanical properties :
#
#
# Convention : Reuss Voigt Hill
#
# Bulk Modulus (GPa) = 40.50755 40.55462 40.53109
# Shear Modulus (GPa) = 45.97123 18.23908 32.10516
#
# Velocity S-wave (km/s) = 4.65361 2.93122 3.88897
# Velocity P-wave (km/s) = 6.92511 5.52816 6.26569
#
# Compressibility (1/GPa) = 0.02468676
#
# Stress axis : x y z
#
# Youngs Moduli (GPa) = 87.04612 52.62592 67.40194
#
# Poissons Ratio (x) = 0.20084 -0.00325
# Poissons Ratio (y) = 0.33220 0.44160
# Poissons Ratio (z) = -0.00419 0.34479
#
# Static dielectric constant tensor:
#      x y z
#    x 4.003530 0.000000 0.000000 
#    y 0.000000 3.582870 0.000000 
#    z 0.000000 0.000000 3.903840 
# 
# 
# High freq. dielectric constant tensor:
#      x y z
#    x 1.832620 0.000000 0.000000 
#    y 0.000000 1.795060 0.000000 
#    z 0.000000 0.000000 1.840840 
# 
# From -- ./inp_files/20921.got.cif
#   From: 2010.03.12/outbox.cif.g09.slc.cpg/sg56_11_cif.got.tgz:20921.got - 2010.04.16 15:33:40.
