data_PCOD8229718
_publ_section_title
;
Structure prediction by ZEFSAII (Michael W. Deem and Ramdas Pophale) SiO2 
 PCOD8229718
Probable space group: P C C N
;
_chemical_formula_sum "Si O2"
_cell_formula_units_Z 48
_cell_length_a 8.662102
_cell_length_b 21.135793
_cell_length_c 10.145463
_cell_angle_alpha 90.000000
_cell_angle_beta 90.000000
_cell_angle_gamma 90.000000
_cell_volume 1857.435372
_symmetry_space_group_name_H-M "P C C N"
_symmetry_group_IT_number 56
_symmetry_cell_setting 'orthorhombic'
loop_
_space_group_symop_operation_xyz
x,y,z
1/2-x,1/2-y,z
1/2+x,-y,1/2-z
-x,1/2+y,1/2-z
-x,-y,-z
1/2+x,1/2+y,-z
1/2-x,y,1/2+z
x,1/2-y,1/2+z
loop_
_atom_site_type_symbol
_atom_site_label
_atom_site_fract_x
_atom_site_fract_y
_atom_site_fract_z
Si Si1 0.618161 0.576006 0.191704
Si Si2 0.902858 0.376378 0.989314
Si Si3 0.066915 0.600287 0.425541
Si Si4 0.128344 0.300484 0.176683
Si Si5 0.895082 0.289028 0.748922
Si Si6 0.940917 0.523336 0.184238
O O1 0.701540 0.640337 0.243355
O O2 0.755981 0.525900 0.170075
O O3 0.501340 0.549938 0.307508
O O4 0.520516 0.589237 0.061822
O O5 0.842952 0.334045 0.867335
O O6 0.987724 0.439489 0.938387
O O7 0.753347 0.402904 0.064850
O O8 0.018302 0.329879 0.065497
O O9 0.031212 0.670112 0.370497
O O10 0.001620 0.548011 0.325774
O O11 0.250000 0.250000 0.116635
O O12 0.026817 0.261960 0.284484
O O13 0.750000 0.250000 0.694231
#
# Coordination Sequence:
#
# PCOD8229718 Si02
#       6
#     8   8   8   8   8   8
#     4  12  28  50  79 109 156 202 256 330 381 467
#     4  11  26  45  79 106 158 199 258 318 384 461
#     4  11  25  49  76 112 153 201 255 318 384 460
#     4  12  28  46  74 113 156 203 255 317 389 453
#     4  11  24  44  71 111 145 201 253 309 382 464
#     4  11  28  50  77 112 147 198 262 312 395 457
#
# _framework density 25.842082999999999
#
# number of rings (size 3 to 8) (size 9 to 14) (size 15 to 20)
#    0.000    0.667    1.667    4.500   14.000    1.333 
#    0.000    0.000    0.000    0.000    0.000    0.000 
#    0.000    0.000    0.000    0.000    0.000    0.000 
#
# Total GULP energy -595101.304849 kJ/mol
# GULP energy per Si atom -12397.943851 kJ/mol
# Density = 2.578326 g / cm^3
# Si number density = 25.842083 Si / 1000 Ang^3
#
#
#
# Elastic Constant Matrix: (Units=GPa)
#
#
# Indices 1 2 3 4 5 6 
#
# 1 131.3744 35.5837 9.5275 0.0000 0.0000 0.0000
# 2 35.5837 110.6956 -0.2945 0.0000 0.0000 0.0000
# 3 9.5275 -0.2945 56.7433 0.0000 0.0000 0.0000
# 4 0.0000 0.0000 0.0000 19.5905 0.0000 0.0000
# 5 0.0000 0.0000 0.0000 0.0000 36.1246 0.0000
# 6 0.0000 0.0000 0.0000 0.0000 0.0000 53.6813
#
#
#
# Elastic Compliance Matrix: (Units=1/GPa)
#
#
# Indices 1 2 3 4 5 6 
#
# 1 0.008453 -0.002721 -0.001433 0.000000 0.000000 0.000000
# 2 -0.002721 0.009910 0.000508 0.000000 0.000000 0.000000
# 3 -0.001433 0.000508 0.017867 0.000000 0.000000 0.000000
# 4 0.000000 0.000000 0.000000 0.051045 0.000000 0.000000
# 5 0.000000 0.000000 0.000000 0.000000 0.027682 0.000000
# 6 0.000000 0.000000 0.000000 0.000000 0.000000 0.018628
#
#
# Mechanical properties :
#
#
# Convention : Reuss Voigt Hill
#
# Bulk Modulus (GPa) = 34.55790 43.16076 38.85933
# Shear Modulus (GPa) = 33.21758 38.81237 36.01498
#
# Velocity S-wave (km/s) = 3.58915 3.87965 3.73722
# Velocity P-wave (km/s) = 5.52971 6.06687 5.80451
#
# Compressibility (1/GPa) = 0.02893695
#
# Stress axis : x y z
#
# Youngs Moduli (GPa) = 118.30417 100.91003 55.97055
#
# Poissons Ratio (x) = 0.27458 0.08023
# Poissons Ratio (y) = 0.32191 -0.02845
# Poissons Ratio (z) = 0.16958 -0.05129
#
# Static dielectric constant tensor:
#      x y z
#    x 4.600100 0.000000 0.000000 
#    y 0.000000 5.278150 0.000000 
#    z 0.000000 0.000000 4.456350 
# 
# 
# High freq. dielectric constant tensor:
#      x y z
#    x 2.040140 0.000000 0.000000 
#    y 0.000000 2.066650 0.000000 
#    z 0.000000 0.000000 2.024770 
# 
# From -- ./inp_files/6419.got.cif
#   From: 2010.03.12/outbox.cif.g09.slc.cpg/sg56_4_cif.got.tgz:6419.got - 2010.04.16 15:33:40.
