data_PCOD8229526
_publ_section_title
;
Structure prediction by ZEFSAII (Michael W. Deem and Ramdas Pophale) SiO2 
 PCOD8229526
Probable space group: P C C N
;
_chemical_formula_sum "Si O2"
_cell_formula_units_Z 48
_cell_length_a 20.359170
_cell_length_b 12.839550
_cell_length_c 9.633950
_cell_angle_alpha 90.000000
_cell_angle_beta 90.000000
_cell_angle_gamma 90.000000
_cell_volume 2518.339397
_symmetry_space_group_name_H-M "P C C N"
_symmetry_group_IT_number 56
_symmetry_cell_setting 'orthorhombic'
loop_
_space_group_symop_operation_xyz
x,y,z
1/2-x,1/2-y,z
1/2+x,-y,1/2-z
-x,1/2+y,1/2-z
-x,-y,-z
1/2+x,1/2+y,-z
1/2-x,y,1/2+z
x,1/2-y,1/2+z
loop_
_atom_site_type_symbol
_atom_site_label
_atom_site_fract_x
_atom_site_fract_y
_atom_site_fract_z
Si Si1 0.461412 0.348118 0.818454
Si Si2 0.903015 0.436842 0.716010
Si Si3 0.689696 0.378259 0.989273
Si Si4 0.541025 0.648759 0.857991
Si Si5 0.838278 0.139413 0.491098
Si Si6 0.401507 0.564085 0.241428
O O1 0.426431 0.446999 0.746186
O O2 0.438251 0.249435 0.729920
O O3 0.539665 0.361677 0.808624
O O4 0.441302 0.336190 0.979941
O O5 0.847808 0.450409 0.598786
O O6 0.963514 0.371743 0.653675
O O7 0.873231 0.374307 0.844101
O O8 0.672747 0.259591 0.029126
O O9 0.765861 0.410397 0.991165
O O10 0.664919 0.401857 0.834988
O O11 0.582127 0.555272 0.790979
O O12 0.886957 0.081209 0.596755
#
# Coordination Sequence:
#
# PCOD8229526 Si02
#       6
#     8   8   8   8   8   8
#     4  11  23  39  63  86 117 154 191 242 295 346
#     4  11  22  39  59  88 123 150 190 243 293 341
#     4  11  20  41  57  87 123 155 195 234 292 339
#     4  11  23  39  63  86 117 154 191 242 295 346
#     4  11  24  33  63  91 115 159 195 236 282 357
#     4  11  22  39  59  88 123 150 190 243 293 341
#
# _framework density 19.060179000000002
#
# number of rings (size 3 to 8) (size 9 to 14) (size 15 to 20)
#    0.000    1.000    3.333    5.000    4.667    4.000 
#    0.000    0.000    0.000    6.000    0.000    0.000 
#    0.000    0.000    0.000    0.000    0.000    0.000 
#
# Total GULP energy -595354.712823 kJ/mol
# GULP energy per Si atom -12403.223184 kJ/mol
# Density = 1.901680 g / cm^3
# Si number density = 19.060179 Si / 1000 Ang^3
#
#
#
# Elastic Constant Matrix: (Units=GPa)
#
#
# Indices 1 2 3 4 5 6 
#
# 1 73.5059 16.9234 17.6758 0.0000 0.0000 0.0000
# 2 16.9234 84.2412 19.3815 0.0000 0.0000 0.0000
# 3 17.6758 19.3815 88.2134 0.0000 0.0000 0.0000
# 4 0.0000 0.0000 0.0000 35.0196 0.0000 0.0000
# 5 0.0000 0.0000 0.0000 0.0000 6.7504 0.0000
# 6 0.0000 0.0000 0.0000 0.0000 0.0000 19.9241
#
#
#
# Elastic Compliance Matrix: (Units=1/GPa)
#
#
# Indices 1 2 3 4 5 6 
#
# 1 0.014741 -0.002403 -0.002426 0.000000 0.000000 0.000000
# 2 -0.002403 0.012894 -0.002352 0.000000 0.000000 0.000000
# 3 -0.002426 -0.002352 0.012339 0.000000 0.000000 0.000000
# 4 0.000000 0.000000 0.000000 0.028555 0.000000 0.000000
# 5 0.000000 0.000000 0.000000 0.000000 0.148140 0.000000
# 6 0.000000 0.000000 0.000000 0.000000 0.000000 0.050190
#
#
# Mechanical properties :
#
#
# Convention : Reuss Voigt Hill
#
# Bulk Modulus (GPa) = 39.04212 39.32464 39.18338
# Shear Modulus (GPa) = 17.25575 25.13747 21.19661
#
# Velocity S-wave (km/s) = 3.01213 3.63553 3.33842
# Velocity P-wave (km/s) = 5.71186 6.18865 5.95503
#
# Compressibility (1/GPa) = 0.02561336
#
# Stress axis : x y z
#
# Youngs Moduli (GPa) = 67.83816 77.55248 81.04477
#
# Poissons Ratio (x) = 0.18638 0.19659
# Poissons Ratio (y) = 0.16303 0.19058
# Poissons Ratio (z) = 0.16456 0.18237
#
# Static dielectric constant tensor:
#      x y z
#    x 3.477230 0.000000 0.000000 
#    y 0.000000 3.426150 0.000000 
#    z 0.000000 0.000000 3.493370 
# 
# 
# High freq. dielectric constant tensor:
#      x y z
#    x 1.732110 0.000000 0.000000 
#    y 0.000000 1.730620 0.000000 
#    z 0.000000 0.000000 1.752790 
# 
# From -- ./inp_files/3481.got.cif
#   From: 2010.03.12/outbox.cif.g09.slc.cpg/sg56_2_cif.got.tgz:3481.got - 2010.04.16 15:33:40.
