data_PCOD8229245
_publ_section_title
;
Structure prediction by ZEFSAII (Michael W. Deem and Ramdas Pophale) SiO2 
 PCOD8229245
Probable space group: P C C N
;
_chemical_formula_sum "Si O2"
_cell_formula_units_Z 64
_cell_length_a 10.112136
_cell_length_b 11.189987
_cell_length_c 24.780262
_cell_angle_alpha 90.000000
_cell_angle_beta 90.000000
_cell_angle_gamma 90.000000
_cell_volume 2804.002379
_symmetry_space_group_name_H-M "P C C N"
_symmetry_group_IT_number 56
_symmetry_cell_setting 'orthorhombic'
loop_
_space_group_symop_operation_xyz
x,y,z
1/2-x,1/2-y,z
1/2+x,-y,1/2-z
-x,1/2+y,1/2-z
-x,-y,-z
1/2+x,1/2+y,-z
1/2-x,y,1/2+z
x,1/2-y,1/2+z
loop_
_atom_site_type_symbol
_atom_site_label
_atom_site_fract_x
_atom_site_fract_y
_atom_site_fract_z
Si Si1 0.261857 0.476396 0.844091
Si Si2 0.946086 0.196561 0.978911
Si Si3 0.646509 0.648125 0.256808
Si Si4 0.816794 0.062187 0.463829
Si Si5 0.722506 0.621897 0.049984
Si Si6 0.254452 0.390602 0.626899
Si Si7 0.469857 0.641733 0.896405
Si Si8 0.612090 0.185739 0.191401
O O1 0.352711 0.440693 0.793616
O O2 0.223112 0.374684 0.887588
O O3 0.341930 0.564218 0.883597
O O4 0.135573 0.545449 0.820037
O O5 0.814335 0.139357 0.955250
O O6 0.938881 0.341998 0.968528
O O7 0.061962 0.119884 0.949943
O O8 0.965360 0.178711 0.042086
O O9 0.750000 0.750000 0.241171
O O10 0.691456 0.586030 0.312759
O O11 0.496321 0.697677 0.260895
O O12 0.796297 0.982829 0.517562
O O13 0.841137 0.971829 0.413720
O O14 0.750000 0.750000 0.022191
O O15 0.250000 0.250000 0.611198
O O16 0.101613 0.430377 0.620673
O O17 0.458390 0.762614 0.861544
O O18 0.750000 0.250000 0.207932
#
# Coordination Sequence:
#
# PCOD8229245 Si02
#       8
#     8   8   8   8   8   8   8   8
#     4  11  25  40  69  94 135 179 229 283 343 408
#     4  11  24  41  67  96 136 177 225 278 350 414
#     4  11  24  45  68  96 137 181 229 288 350 404
#     4  11  23  41  66 100 130 178 225 280 340 419
#     4  12  24  41  61  99 138 175 219 283 352 410
#     4  11  22  41  69  97 133 178 225 284 348 410
#     4  11  20  42  68  92 130 178 232 276 339 423
#     4  10  23  41  68 101 123 175 238 281 335 416
#
# _framework density 22.824517
#
# number of rings (size 3 to 8) (size 9 to 14) (size 15 to 20)
#    0.000    1.000    5.000    2.625    5.250    1.500 
#    0.000    2.500    2.750    0.000    0.000    0.000 
#    0.000    0.000    0.000    0.000    0.000    0.000 
#
# Total GULP energy -793180.138183 kJ/mol
# GULP energy per Si atom -12393.439659 kJ/mol
# Density = 2.277257 g / cm^3
# Si number density = 22.824517 Si / 1000 Ang^3
#
#
#
# Elastic Constant Matrix: (Units=GPa)
#
#
# Indices 1 2 3 4 5 6 
#
# 1 53.8980 3.8400 13.7239 0.0000 0.0000 0.0000
# 2 3.8400 89.0000 44.2578 0.0000 0.0000 0.0000
# 3 13.7239 44.2578 131.9013 0.0000 0.0000 0.0000
# 4 0.0000 0.0000 0.0000 25.1073 0.0000 0.0000
# 5 0.0000 0.0000 0.0000 0.0000 17.9050 0.0000
# 6 0.0000 0.0000 0.0000 0.0000 0.0000 32.8501
#
#
#
# Elastic Compliance Matrix: (Units=1/GPa)
#
#
# Indices 1 2 3 4 5 6 
#
# 1 0.019061 0.000197 -0.002049 0.000000 0.000000 0.000000
# 2 0.000197 0.013488 -0.004546 0.000000 0.000000 0.000000
# 3 -0.002049 -0.004546 0.009320 0.000000 0.000000 0.000000
# 4 0.000000 0.000000 0.000000 0.039829 0.000000 0.000000
# 5 0.000000 0.000000 0.000000 0.000000 0.055850 0.000000
# 6 0.000000 0.000000 0.000000 0.000000 0.000000 0.030441
#
#
# Mechanical properties :
#
#
# Convention : Reuss Voigt Hill
#
# Bulk Modulus (GPa) = 34.39748 44.27140 39.33444
# Shear Modulus (GPa) = 26.24966 29.37099 27.81033
#
# Velocity S-wave (km/s) = 3.39494 3.59112 3.49440
# Velocity P-wave (km/s) = 5.52002 6.05255 5.79241
#
# Compressibility (1/GPa) = 0.02907190
#
# Stress axis : x y z
#
# Youngs Moduli (GPa) = 52.46221 74.13873 107.29520
#
# Poissons Ratio (x) = -0.01458 0.21987
# Poissons Ratio (y) = -0.01032 0.48779
# Poissons Ratio (z) = 0.10751 0.33705
#
# Static dielectric constant tensor:
#      x y z
#    x 4.318410 0.000000 0.000000 
#    y 0.000000 4.549110 0.000000 
#    z 0.000000 0.000000 4.052130 
# 
# 
# High freq. dielectric constant tensor:
#      x y z
#    x 1.903620 0.000000 0.000000 
#    y 0.000000 1.901390 0.000000 
#    z 0.000000 0.000000 1.888880 
# 
# From -- ./inp_files/21013.got.cif
#   From: 2010.03.12/outbox.cif.g09.slc.cpg/sg56_11_cif.got.tgz:21013.got - 2010.04.16 15:33:40.
