data_PCOD8229675
_publ_section_title
;
Structure prediction by ZEFSAII (Michael W. Deem and Ramdas Pophale) SiO2 
 PCOD8229675
Probable space group: P C C N
;
_chemical_formula_sum "Si O2"
_cell_formula_units_Z 40
_cell_length_a 7.993138
_cell_length_b 11.484313
_cell_length_c 18.266673
_cell_angle_alpha 90.000000
_cell_angle_beta 90.000000
_cell_angle_gamma 90.000000
_cell_volume 1676.802010
_symmetry_space_group_name_H-M "P C C N"
_symmetry_group_IT_number 56
_symmetry_cell_setting 'orthorhombic'
loop_
_space_group_symop_operation_xyz
x,y,z
1/2-x,1/2-y,z
1/2+x,-y,1/2-z
-x,1/2+y,1/2-z
-x,-y,-z
1/2+x,1/2+y,-z
1/2-x,y,1/2+z
x,1/2-y,1/2+z
loop_
_atom_site_type_symbol
_atom_site_label
_atom_site_fract_x
_atom_site_fract_y
_atom_site_fract_z
Si Si1 0.400142 0.979071 0.672952
Si Si2 0.530597 0.568327 0.324321
Si Si3 0.069833 0.799090 0.879181
Si Si4 0.475365 0.339780 0.960638
Si Si5 0.890385 0.922016 0.554819
O O1 0.207055 0.006849 0.679719
O O2 0.512793 0.095584 0.672210
O O3 0.459991 0.906260 0.743400
O O4 0.415327 0.902784 0.600234
O O5 0.556010 0.690179 0.367871
O O6 0.396992 0.485578 0.366529
O O7 0.250000 0.750000 0.855398
O O8 0.071670 0.844597 0.962419
O O9 0.461149 0.206986 0.935674
O O10 0.300820 0.409090 0.971586
O O11 0.000000 0.000000 0.500000
#
# Coordination Sequence:
#
# PCOD8229675 Si02
#       5
#     8   8   8   8   8
#     4  12  28  47  75 108 147 193 249 300 371 445
#     4  12  27  49  74 105 149 194 240 307 372 439
#     4  12  26  47  75 107 148 191 244 303 367 437
#     4  11  26  45  75 110 144 191 247 300 362 437
#     4  11  23  45  76 106 148 190 244 299 361 430
#
# _framework density 23.854932000000002
#
# number of rings (size 3 to 8) (size 9 to 14) (size 15 to 20)
#    0.000    0.400    2.000    6.000    8.400    0.000 
#    0.000    0.000    0.000    0.000    0.000    0.000 
#    0.000    0.000    0.000    0.000    0.000    0.000 
#
# Total GULP energy -496220.941068 kJ/mol
# GULP energy per Si atom -12405.523527 kJ/mol
# Density = 2.380064 g / cm^3
# Si number density = 23.854932 Si / 1000 Ang^3
#
#
#
# Elastic Constant Matrix: (Units=GPa)
#
#
# Indices 1 2 3 4 5 6 
#
# 1 85.5347 24.5606 30.0698 0.0000 0.0000 0.0000
# 2 24.5606 123.8379 46.3645 0.0000 0.0000 0.0000
# 3 30.0698 46.3645 127.0987 0.0000 0.0000 0.0000
# 4 0.0000 0.0000 0.0000 41.7966 0.0000 0.0000
# 5 0.0000 0.0000 0.0000 0.0000 39.8679 0.0000
# 6 0.0000 0.0000 0.0000 0.0000 0.0000 34.4356
#
#
#
# Elastic Compliance Matrix: (Units=1/GPa)
#
#
# Indices 1 2 3 4 5 6 
#
# 1 0.013039 -0.001657 -0.002480 0.000000 0.000000 0.000000
# 2 -0.001657 0.009563 -0.003096 0.000000 0.000000 0.000000
# 3 -0.002480 -0.003096 0.009584 0.000000 0.000000 0.000000
# 4 0.000000 0.000000 0.000000 0.023925 0.000000 0.000000
# 5 0.000000 0.000000 0.000000 0.000000 0.025083 0.000000
# 6 0.000000 0.000000 0.000000 0.000000 0.000000 0.029040
#
#
# Mechanical properties :
#
#
# Convention : Reuss Voigt Hill
#
# Bulk Modulus (GPa) = 56.43918 59.82902 58.13410
# Shear Modulus (GPa) = 38.28236 38.91843 38.60039
#
# Velocity S-wave (km/s) = 4.01034 4.04352 4.02696
# Velocity P-wave (km/s) = 6.71971 6.85090 6.78562
#
# Compressibility (1/GPa) = 0.01771819
#
# Stress axis : x y z
#
# Youngs Moduli (GPa) = 76.69301 104.56899 104.33809
#
# Poissons Ratio (x) = 0.17331 0.25878
# Poissons Ratio (y) = 0.12711 0.32307
# Poissons Ratio (z) = 0.19022 0.32379
#
# Static dielectric constant tensor:
#      x y z
#    x 4.232010 0.000000 0.000000 
#    y 0.000000 4.696520 0.000000 
#    z 0.000000 0.000000 4.378880 
# 
# 
# High freq. dielectric constant tensor:
#      x y z
#    x 1.949620 0.000000 0.000000 
#    y 0.000000 1.965560 0.000000 
#    z 0.000000 0.000000 1.945970 
# 
# From -- ./inp_files/14428.got.cif
#   From: 2010.03.12/outbox.cif.g09.slc.cpg/sg56_8_cif.got.tgz:14428.got - 2010.04.16 15:33:40.
