data_PCOD8229537
_publ_section_title
;
Structure prediction by ZEFSAII (Michael W. Deem and Ramdas Pophale) SiO2 
 PCOD8229537
Probable space group: P C C N
;
_chemical_formula_sum "Si O2"
_cell_formula_units_Z 48
_cell_length_a 8.805602
_cell_length_b 29.498672
_cell_length_c 9.561157
_cell_angle_alpha 90.000000
_cell_angle_beta 90.000000
_cell_angle_gamma 90.000000
_cell_volume 2483.544618
_symmetry_space_group_name_H-M "P C C N"
_symmetry_group_IT_number 56
_symmetry_cell_setting 'orthorhombic'
loop_
_space_group_symop_operation_xyz
x,y,z
1/2-x,1/2-y,z
1/2+x,-y,1/2-z
-x,1/2+y,1/2-z
-x,-y,-z
1/2+x,1/2+y,-z
1/2-x,y,1/2+z
x,1/2-y,1/2+z
loop_
_atom_site_type_symbol
_atom_site_label
_atom_site_fract_x
_atom_site_fract_y
_atom_site_fract_z
Si Si1 0.408843 0.773937 0.142804
Si Si2 0.911160 0.769497 0.376069
Si Si3 0.323254 0.036140 0.107344
Si Si4 0.560822 0.965870 0.192953
Si Si5 0.698155 0.636960 0.411242
Si Si6 0.947572 0.864388 0.698802
O O1 0.250000 0.750000 0.181214
O O2 0.545983 0.754849 0.234179
O O3 0.414600 0.828599 0.171603
O O4 0.452699 0.761053 0.985433
O O5 0.750000 0.750000 0.431167
O O6 0.902483 0.823129 0.345419
O O7 0.154144 0.027635 0.164185
O O8 0.368572 0.088471 0.138198
O O9 0.432026 0.003509 0.194690
O O10 0.329957 0.026264 0.941806
O O11 0.486166 0.915481 0.187843
O O12 0.685998 0.641530 0.580652
O O13 0.870568 0.642688 0.351957
#
# Coordination Sequence:
#
# PCOD8229537 Si02
#       6
#     8   8   8   8   8   8
#     4  11  23  37  53  80 115 142 175 228 282 319
#     4  11  21  36  59  79 104 144 190 221 262 326
#     4   9  18  34  54  77 108 138 175 220 267 312
#     4   9  18  34  56  78 107 140 175 220 266 316
#     4   9  18  32  55  80 100 135 188 226 254 309
#     4   9  18  34  55  77 106 140 180 223 265 318
#
# _framework density 19.327214999999999
#
# number of rings (size 3 to 8) (size 9 to 14) (size 15 to 20)
#    0.000    2.333    1.667    1.000    2.333    0.667 
#    3.000    0.000    3.667    0.000    0.000    0.000 
#    0.000    0.000    0.000    0.000    0.000    0.000 
#
# Total GULP energy -594804.718003 kJ/mol
# GULP energy per Si atom -12391.764958 kJ/mol
# Density = 1.928323 g / cm^3
# Si number density = 19.327215 Si / 1000 Ang^3
#
#
#
# Elastic Constant Matrix: (Units=GPa)
#
#
# Indices 1 2 3 4 5 6 
#
# 1 70.9813 46.0054 14.9163 0.0000 0.0000 0.0000
# 2 46.0054 116.8255 24.9057 0.0000 0.0000 0.0000
# 3 14.9163 24.9057 37.0985 0.0000 0.0000 0.0000
# 4 0.0000 0.0000 0.0000 24.4979 0.0000 0.0000
# 5 0.0000 0.0000 0.0000 0.0000 26.5933 0.0000
# 6 0.0000 0.0000 0.0000 0.0000 0.0000 34.6041
#
#
#
# Elastic Compliance Matrix: (Units=1/GPa)
#
#
# Indices 1 2 3 4 5 6 
#
# 1 0.019215 -0.006908 -0.003088 0.000000 0.000000 0.000000
# 2 -0.006908 0.012473 -0.005596 0.000000 0.000000 0.000000
# 3 -0.003088 -0.005596 0.031954 0.000000 0.000000 0.000000
# 4 0.000000 0.000000 0.000000 0.040820 0.000000 0.000000
# 5 0.000000 0.000000 0.000000 0.000000 0.037603 0.000000
# 6 0.000000 0.000000 0.000000 0.000000 0.000000 0.028898
#
#
# Mechanical properties :
#
#
# Convention : Reuss Voigt Hill
#
# Bulk Modulus (GPa) = 30.81000 44.06224 37.43612
# Shear Modulus (GPa) = 23.47781 26.41092 24.94436
#
# Velocity S-wave (km/s) = 3.48911 3.70065 3.59644
# Velocity P-wave (km/s) = 5.67519 6.41149 6.05454
#
# Compressibility (1/GPa) = 0.03245699
#
# Stress axis : x y z
#
# Youngs Moduli (GPa) = 52.04362 80.17125 31.29521
#
# Poissons Ratio (x) = 0.55385 0.09663
# Poissons Ratio (y) = 0.35954 0.17513
# Poissons Ratio (z) = 0.16070 0.44865
#
# Static dielectric constant tensor:
#      x y z
#    x 2.985850 0.000000 0.000000 
#    y 0.000000 3.908570 0.000000 
#    z 0.000000 0.000000 3.545620 
# 
# 
# High freq. dielectric constant tensor:
#      x y z
#    x 1.699550 0.000000 0.000000 
#    y 0.000000 1.774550 0.000000 
#    z 0.000000 0.000000 1.753890 
# 
# From -- ./inp_files/2213.got.cif
#   From: 2010.03.12/outbox.cif.g09.slc.cpg/sg56_2_cif.got.tgz:2213.got - 2010.04.16 15:33:40.
