data_PCOD8229429
_publ_section_title
;
Structure prediction by ZEFSAII (Michael W. Deem and Ramdas Pophale) SiO2 
 PCOD8229429
Probable space group: P C C N
;
_chemical_formula_sum "Si O2"
_cell_formula_units_Z 40
_cell_length_a 17.443494
_cell_length_b 4.818086
_cell_length_c 18.594421
_cell_angle_alpha 90.000000
_cell_angle_beta 90.000000
_cell_angle_gamma 90.000000
_cell_volume 1562.754246
_symmetry_space_group_name_H-M "P C C N"
_symmetry_group_IT_number 56
_symmetry_cell_setting 'orthorhombic'
loop_
_space_group_symop_operation_xyz
x,y,z
1/2-x,1/2-y,z
1/2+x,-y,1/2-z
-x,1/2+y,1/2-z
-x,-y,-z
1/2+x,1/2+y,-z
1/2-x,y,1/2+z
x,1/2-y,1/2+z
loop_
_atom_site_type_symbol
_atom_site_label
_atom_site_fract_x
_atom_site_fract_y
_atom_site_fract_z
Si Si1 0.562964 0.447088 0.084813
Si Si2 0.539309 0.032938 0.908133
Si Si3 0.833568 0.177284 0.219724
Si Si4 0.165212 0.281500 0.533930
Si Si5 0.633173 0.808696 0.312200
O O1 0.527554 0.157196 0.055376
O O2 0.612474 0.420490 0.155822
O O3 0.491135 0.655235 0.101429
O O4 0.616411 0.538276 0.020461
O O5 0.619516 0.012301 0.953487
O O6 0.554363 0.863976 0.832072
O O7 0.750000 0.250000 0.188114
O O8 0.877649 0.428266 0.260178
O O9 0.814769 0.922111 0.272821
O O10 0.250000 0.250000 0.500956
O O11 0.171600 0.423160 0.613454
#
# Coordination Sequence:
#
# PCOD8229429 Si02
#       5
#     8   8   8   8   8
#     4  12  25  46  73 107 151 189 237 303 376 437
#     4  10  25  46  73 105 147 192 242 297 367 441
#     4  12  25  45  71 108 148 190 245 308 369 430
#     4  10  24  46  77 110 145 192 251 303 368 440
#     4  10  25  45  75 100 148 190 245 299 362 439
#
# _framework density 25.595832000000001
#
# number of rings (size 3 to 8) (size 9 to 14) (size 15 to 20)
#    1.200    0.000    0.000    5.400    0.000    8.000 
#    0.000    6.000    0.000    0.000    0.000    0.000 
#    0.000    0.000    0.000    0.000    0.000    0.000 
#
# Total GULP energy -495588.810096 kJ/mol
# GULP energy per Si atom -12389.720252 kJ/mol
# Density = 2.553757 g / cm^3
# Si number density = 25.595832 Si / 1000 Ang^3
#
#
#
# Elastic Constant Matrix: (Units=GPa)
#
#
# Indices 1 2 3 4 5 6 
#
# 1 122.6509 16.3792 37.9527 0.0000 0.0000 0.0000
# 2 16.3792 125.2281 32.3139 0.0000 0.0000 0.0000
# 3 37.9527 32.3139 83.3790 0.0000 0.0000 0.0000
# 4 0.0000 0.0000 0.0000 -3.8069 0.0000 0.0000
# 5 0.0000 0.0000 0.0000 0.0000 21.3284 0.0000
# 6 0.0000 0.0000 0.0000 0.0000 0.0000 28.5185
#
#
#
# Elastic Compliance Matrix: (Units=1/GPa)
#
#
# Indices 1 2 3 4 5 6 
#
# 1 0.009492 -0.000141 -0.004266 0.000000 0.000000 0.000000
# 2 -0.000141 0.008875 -0.003375 0.000000 0.000000 0.000000
# 3 -0.004266 -0.003375 0.015243 0.000000 0.000000 0.000000
# 4 0.000000 0.000000 0.000000 -0.262678 0.000000 0.000000
# 5 0.000000 0.000000 0.000000 0.000000 0.046886 0.000000
# 6 0.000000 0.000000 0.000000 0.000000 0.000000 0.035065
#
#
# Mechanical properties :
#
#
# Convention : Reuss Voigt Hill
#
# Bulk Modulus (GPa) = 55.41425 56.06106 55.73766
# Shear Modulus (GPa) = -39.82882 25.51547 -7.15668
#
# Velocity S-wave (km/s) = -3.94898 3.16073 -1.67395
# Velocity P-wave (km/s) = 0.95085 5.93888 4.25291
#
# Compressibility (1/GPa) = 0.01804590
#
# Stress axis : x y z
#
# Youngs Moduli (GPa) = 105.35073 112.67827 65.60197
#
# Poissons Ratio (x) = 0.01585 0.27987
# Poissons Ratio (y) = 0.01482 0.22143
# Poissons Ratio (z) = 0.44944 0.38034
#
# Static dielectric constant tensor:
#      x y z
#    x 4.616860 0.000000 0.000000 
#    y 0.000000 4.518110 0.000000 
#    z 0.000000 0.000000 4.600880 
# 
# 
# High freq. dielectric constant tensor:
#      x y z
#    x 2.020450 0.000000 0.000000 
#    y 0.000000 2.022500 0.000000 
#    z 0.000000 0.000000 2.024900 
# 
# From -- ./inp_files/19243.got.cif
#   From: 2010.03.12/outbox.cif.g09.slc.cpg/sg56_10_cif.got.tgz:19243.got - 2010.04.16 15:33:40.
