data_PCOD8229169
_publ_section_title
;
Structure prediction by ZEFSAII (Michael W. Deem and Ramdas Pophale) SiO2 
 PCOD8229169
Probable space group: P C C N
;
_chemical_formula_sum "Si O2"
_cell_formula_units_Z 44
_cell_length_a 16.156086
_cell_length_b 13.335473
_cell_length_c 8.500942
_cell_angle_alpha 90.000000
_cell_angle_beta 90.000000
_cell_angle_gamma 90.000000
_cell_volume 1831.519866
_symmetry_space_group_name_H-M "P C C N"
_symmetry_group_IT_number 56
_symmetry_cell_setting 'orthorhombic'
loop_
_space_group_symop_operation_xyz
x,y,z
1/2-x,1/2-y,z
1/2+x,-y,1/2-z
-x,1/2+y,1/2-z
-x,-y,-z
1/2+x,1/2+y,-z
1/2-x,y,1/2+z
x,1/2-y,1/2+z
loop_
_atom_site_type_symbol
_atom_site_label
_atom_site_fract_x
_atom_site_fract_y
_atom_site_fract_z
Si Si1 0.370817 0.348525 0.919028
Si Si2 0.507669 0.536910 0.254733
Si Si3 0.326796 0.886167 0.699323
Si Si4 0.564764 0.635516 0.571301
Si Si5 0.216793 0.401493 0.735321
Si Si6 0.250000 0.750000 0.449946
O O1 0.426625 0.448579 0.888510
O O2 0.434389 0.255255 0.904230
O O3 0.300182 0.342521 0.783342
O O4 0.329041 0.348127 0.089695
O O5 0.419769 0.575478 0.197358
O O6 0.542026 0.606711 0.394786
O O7 0.500126 0.420533 0.309763
O O8 0.312087 0.817908 0.548927
O O9 0.310461 0.820653 0.852515
O O10 0.264738 0.982223 0.693648
O O11 0.657581 0.597633 0.610621
#
# Coordination Sequence:
#
# PCOD8229169 Si02
#       6
#     8   8   8   8   8   4
#     4  12  24  43  71 105 141 193 234 298 353 432
#     4  10  24  44  65 104 142 181 237 294 357 409
#     4  10  23  43  67 100 133 184 232 298 347 425
#     4  10  23  43  65  97 143 186 229 292 350 418
#     4  11  24  43  69 102 141 184 243 286 356 417
#     4  10  22  44  68  96 134 182 238 280 358 426
#
# _framework density 24.023762000000001
#
# number of rings (size 3 to 8) (size 9 to 14) (size 15 to 20)
#    0.000    1.455    0.000    3.818    2.545    7.273 
#    6.545    1.818    0.000    0.000    0.000    0.000 
#    0.000    0.000    0.000    0.000    0.000    0.000 
#
# Total GULP energy -545560.751555 kJ/mol
# GULP energy per Si atom -12399.107990 kJ/mol
# Density = 2.396908 g / cm^3
# Si number density = 24.023762 Si / 1000 Ang^3
#
#
#
# Elastic Constant Matrix: (Units=GPa)
#
#
# Indices 1 2 3 4 5 6 
#
# 1 81.4895 16.4309 31.9697 0.0000 0.0000 0.0000
# 2 16.4309 124.6491 34.0811 0.0000 0.0000 0.0000
# 3 31.9697 34.0811 89.1312 0.0000 0.0000 0.0000
# 4 0.0000 0.0000 0.0000 37.6735 0.0000 0.0000
# 5 0.0000 0.0000 0.0000 0.0000 34.5506 0.0000
# 6 0.0000 0.0000 0.0000 0.0000 0.0000 43.2688
#
#
#
# Elastic Compliance Matrix: (Units=1/GPa)
#
#
# Indices 1 2 3 4 5 6 
#
# 1 0.014314 -0.000539 -0.004928 0.000000 0.000000 0.000000
# 2 -0.000539 0.008980 -0.003240 0.000000 0.000000 0.000000
# 3 -0.004928 -0.003240 0.014226 0.000000 0.000000 0.000000
# 4 0.000000 0.000000 0.000000 0.026544 0.000000 0.000000
# 5 0.000000 0.000000 0.000000 0.000000 0.028943 0.000000
# 6 0.000000 0.000000 0.000000 0.000000 0.000000 0.023111
#
#
# Mechanical properties :
#
#
# Convention : Reuss Voigt Hill
#
# Bulk Modulus (GPa) = 49.74024 51.13703 50.43864
# Shear Modulus (GPa) = 35.65495 37.28443 36.46969
#
# Velocity S-wave (km/s) = 3.85665 3.94379 3.90047
# Velocity P-wave (km/s) = 6.37034 6.48616 6.42851
#
# Compressibility (1/GPa) = 0.02010444
#
# Stress axis : x y z
#
# Youngs Moduli (GPa) = 69.86400 111.36475 70.29490
#
# Poissons Ratio (x) = 0.06008 0.34639
# Poissons Ratio (y) = 0.03769 0.22776
# Poissons Ratio (z) = 0.34427 0.36082
#
# Static dielectric constant tensor:
#      x y z
#    x 4.266000 0.000000 0.000000 
#    y 0.000000 4.569940 0.000000 
#    z 0.000000 0.000000 4.375060 
# 
# 
# High freq. dielectric constant tensor:
#      x y z
#    x 1.941250 0.000000 0.000000 
#    y 0.000000 1.960170 0.000000 
#    z 0.000000 0.000000 1.961520 
# 
# From -- ./inp_files/3979.got.cif
#   From: 2010.03.12/outbox.cif.g09.slc.cpg/sg56_2_cif.got.tgz:3979.got - 2010.04.16 15:33:40.
