data_PCOD8229321
_publ_section_title
;
Structure prediction by ZEFSAII (Michael W. Deem and Ramdas Pophale) SiO2 
 PCOD8229321
Probable space group: P C C N
;
_chemical_formula_sum "Si O2"
_cell_formula_units_Z 36
_cell_length_a 7.644543
_cell_length_b 9.449383
_cell_length_c 21.687914
_cell_angle_alpha 90.000000
_cell_angle_beta 90.000000
_cell_angle_gamma 90.000000
_cell_volume 1566.652811
_symmetry_space_group_name_H-M "P C C N"
_symmetry_group_IT_number 56
_symmetry_cell_setting 'orthorhombic'
loop_
_space_group_symop_operation_xyz
x,y,z
1/2-x,1/2-y,z
1/2+x,-y,1/2-z
-x,1/2+y,1/2-z
-x,-y,-z
1/2+x,1/2+y,-z
1/2-x,y,1/2+z
x,1/2-y,1/2+z
loop_
_atom_site_type_symbol
_atom_site_label
_atom_site_fract_x
_atom_site_fract_y
_atom_site_fract_z
Si Si1 0.750000 0.250000 0.785860
Si Si2 0.371231 0.537760 0.616398
Si Si3 0.479151 0.428013 0.081937
Si Si4 0.956099 0.776120 0.313193
Si Si5 0.443176 0.216851 0.460607
O O1 0.769056 0.386137 0.828529
O O2 0.572273 0.275089 0.747839
O O3 0.231308 0.450275 0.575943
O O4 0.494608 0.421969 0.649443
O O5 0.468123 0.647811 0.571451
O O6 0.530493 0.349394 0.144396
O O7 0.565011 0.583746 0.086000
O O8 0.543965 0.336212 0.022565
O O9 0.750000 0.750000 0.297579
O O10 0.250000 0.250000 0.481320
#
# Coordination Sequence:
#
# PCOD8229321 Si02
#       5
#     4   8   8   8   8
#     4  12  26  44  70 100 138 186 236 288 342 408
#     4  11  24  46  65  99 140 179 228 292 344 415
#     4  10  23  47  65 102 140 176 226 286 351 413
#     4  10  26  45  71  97 140 183 234 287 343 414
#     4  11  23  40  74 100 136 175 226 285 352 416
#
# _framework density 22.978926000000001
#
# number of rings (size 3 to 8) (size 9 to 14) (size 15 to 20)
#    0.000    1.333    2.222    2.000    9.333    4.444 
#    4.000    0.000    0.000    0.000    0.000    0.000 
#    0.000    0.000    0.000    0.000    0.000    0.000 
#
# Total GULP energy -446225.305974 kJ/mol
# GULP energy per Si atom -12395.147388 kJ/mol
# Density = 2.292662 g / cm^3
# Si number density = 22.978926 Si / 1000 Ang^3
#
#
#
# Elastic Constant Matrix: (Units=GPa)
#
#
# Indices 1 2 3 4 5 6 
#
# 1 51.6520 23.7499 28.1968 0.0000 0.0000 0.0000
# 2 23.7499 111.8858 38.1914 0.0000 0.0000 0.0000
# 3 28.1968 38.1914 93.5348 0.0000 0.0000 0.0000
# 4 0.0000 0.0000 0.0000 25.1407 0.0000 0.0000
# 5 0.0000 0.0000 0.0000 0.0000 31.2966 0.0000
# 6 0.0000 0.0000 0.0000 0.0000 0.0000 26.7270
#
#
#
# Elastic Compliance Matrix: (Units=1/GPa)
#
#
# Indices 1 2 3 4 5 6 
#
# 1 0.024040 -0.003055 -0.006000 0.000000 0.000000 0.000000
# 2 -0.003055 0.010773 -0.003478 0.000000 0.000000 0.000000
# 3 -0.006000 -0.003478 0.013920 0.000000 0.000000 0.000000
# 4 0.000000 0.000000 0.000000 0.039776 0.000000 0.000000
# 5 0.000000 0.000000 0.000000 0.000000 0.031952 0.000000
# 6 0.000000 0.000000 0.000000 0.000000 0.000000 0.037415
#
#
# Mechanical properties :
#
#
# Convention : Reuss Voigt Hill
#
# Bulk Modulus (GPa) = 42.25078 48.59432 45.42255
# Shear Modulus (GPa) = 26.20103 27.76183 26.98143
#
# Velocity S-wave (km/s) = 3.38038 3.47961 3.43035
# Velocity P-wave (km/s) = 5.80195 6.11038 5.95816
#
# Compressibility (1/GPa) = 0.02366820
#
# Stress axis : x y z
#
# Youngs Moduli (GPa) = 41.59683 92.82173 71.83928
#
# Poissons Ratio (x) = 0.28357 0.43102
# Poissons Ratio (y) = 0.12708 0.24985
# Poissons Ratio (z) = 0.24957 0.32283
#
# Static dielectric constant tensor:
#      x y z
#    x 3.863630 0.000000 0.000000 
#    y 0.000000 4.602970 0.000000 
#    z 0.000000 0.000000 4.075060 
# 
# 
# High freq. dielectric constant tensor:
#      x y z
#    x 1.880970 0.000000 0.000000 
#    y 0.000000 1.933710 0.000000 
#    z 0.000000 0.000000 1.908090 
# 
# From -- ./inp_files/17853.got.cif
#   From: 2010.03.12/outbox.cif.g09.slc.cpg/sg56_9_cif.got.tgz:17853.got - 2010.04.16 15:33:40.
