data_PCOD8229910
_publ_section_title
;
Structure prediction by ZEFSAII (Michael W. Deem and Ramdas Pophale) SiO2 
 PCOD8229910
Probable space group: P B C M
;
_chemical_formula_sum "Si O2"
_cell_formula_units_Z 64
_cell_length_a 12.383026
_cell_length_b 16.756541
_cell_length_c 17.293481
_cell_angle_alpha 90.000000
_cell_angle_beta 90.000000
_cell_angle_gamma 90.000000
_cell_volume 3588.339943
_symmetry_space_group_name_H-M "P B C M"
_symmetry_group_IT_number 57
_symmetry_cell_setting 'orthorhombic'
loop_
_space_group_symop_operation_xyz
x,y,z
-x,-y,1/2+z
x,1/2-y,-z
-x,1/2+y,1/2-z
-x,-y,-z
x,y,1/2-z
-x,1/2+y,z
x,1/2-y,1/2+z
loop_
_atom_site_type_symbol
_atom_site_label
_atom_site_fract_x
_atom_site_fract_y
_atom_site_fract_z
Si Si1 0.310591 0.819597 0.894433
Si Si2 0.750100 0.484668 0.834223
Si Si3 0.463589 0.621775 0.511190
Si Si4 0.656336 0.348862 0.337388
Si Si5 0.329833 0.036487 0.986560
Si Si6 0.915833 0.165698 0.471762
Si Si7 0.162105 0.958199 0.408489
Si Si8 0.009302 0.931759 0.663675
O O1 0.308308 0.898575 0.842041
O O2 0.306641 0.743169 0.839209
O O3 0.208184 0.820433 0.950479
O O4 0.415713 0.813077 0.951288
O O5 0.719625 0.519072 0.750000
O O6 0.711922 0.547045 0.898866
O O7 0.878027 0.477399 0.843374
O O8 0.441425 0.639197 0.601872
O O9 0.592351 0.612058 0.495395
O O10 0.401031 0.542268 0.488326
O O11 0.617985 0.369494 0.250000
O O12 0.758114 0.403516 0.358795
O O13 0.229309 0.025802 0.044321
O O14 0.965477 0.250000 0.500000
O O15 0.913771 0.096225 0.536499
O O16 0.990466 0.139123 0.399562
O O17 0.085759 0.005413 0.350286
O O18 0.995217 0.895446 0.750000
#
# Coordination Sequence:
#
# PCOD8229910 Si02
#       8
#     8   8   8   8   8   8   8   8
#     4  10  16  32  48  73 103 132 170 213 259 309
#     4   9  17  29  47  72 103 134 167 207 260 311
#     4   9  17  30  46  67  99 126 165 204 251 305
#     4  11  20  29  49  77 106 132 164 216 271 308
#     4   9  17  29  48  70  92 132 166 205 250 303
#     4  11  18  33  54  78 104 140 176 219 260 314
#     4  11  19  34  52  78 108 137 177 219 260 314
#     4  10  21  34  51  79 112 140 170 218 272 316
#
# _framework density 17.835546000000001
#
# number of rings (size 3 to 8) (size 9 to 14) (size 15 to 20)
#    0.000    2.000    6.250    1.500    0.000    1.000 
#    0.000    0.000    0.000    3.750    0.000    0.000 
#    0.000    0.000    0.000    0.000    0.000    0.000 
#
# Total GULP energy -793201.056018 kJ/mol
# GULP energy per Si atom -12393.766500 kJ/mol
# Density = 1.779495 g / cm^3
# Si number density = 17.835546 Si / 1000 Ang^3
#
#
#
# Elastic Constant Matrix: (Units=GPa)
#
#
# Indices 1 2 3 4 5 6 
#
# 1 59.8366 33.0163 36.5731 0.0000 0.0000 0.0000
# 2 33.0163 51.0273 27.9295 0.0000 0.0000 0.0000
# 3 36.5731 27.9295 116.0826 0.0000 0.0000 0.0000
# 4 0.0000 0.0000 0.0000 25.7627 0.0000 0.0000
# 5 0.0000 0.0000 0.0000 0.0000 17.1187 0.0000
# 6 0.0000 0.0000 0.0000 0.0000 0.0000 13.0917
#
#
#
# Elastic Compliance Matrix: (Units=1/GPa)
#
#
# Indices 1 2 3 4 5 6 
#
# 1 0.028508 -0.015581 -0.005233 0.000000 0.000000 0.000000
# 2 -0.015581 0.031086 -0.002570 0.000000 0.000000 0.000000
# 3 -0.005233 -0.002570 0.010882 0.000000 0.000000 0.000000
# 4 0.000000 0.000000 0.000000 0.038816 0.000000 0.000000
# 5 0.000000 0.000000 0.000000 0.000000 0.058416 0.000000
# 6 0.000000 0.000000 0.000000 0.000000 0.000000 0.076384
#
#
# Mechanical properties :
#
#
# Convention : Reuss Voigt Hill
#
# Bulk Modulus (GPa) = 42.18247 46.88715 44.53481
# Shear Modulus (GPa) = 16.73572 19.82314 18.27943
#
# Velocity S-wave (km/s) = 3.06655 3.33744 3.20486
# Velocity P-wave (km/s) = 6.02000 6.41849 6.22244
#
# Compressibility (1/GPa) = 0.02370653
#
# Stress axis : x y z
#
# Youngs Moduli (GPa) = 35.07786 32.16903 91.89823
#
# Poissons Ratio (x) = 0.50124 0.48089
# Poissons Ratio (y) = 0.54656 0.23619
# Poissons Ratio (z) = 0.18356 0.08268
#
# Static dielectric constant tensor:
#      x y z
#    x 3.299450 0.000000 0.000000 
#    y 0.000000 3.311820 0.000000 
#    z 0.000000 0.000000 3.448620 
# 
# 
# High freq. dielectric constant tensor:
#      x y z
#    x 1.663240 0.000000 0.000000 
#    y 0.000000 1.659070 0.000000 
#    z 0.000000 0.000000 1.698300 
# 
# From -- ./inp_files/22133.got.cif
#   From: 2010.03.12/outbox.cif.g09.slc.cpg/sg57_12_cif.got.tgz:22133.got - 2010.04.16 15:48:40.
