data_PCOD8229289
_publ_section_title
;
Structure prediction by ZEFSAII (Michael W. Deem and Ramdas Pophale) SiO2 
 PCOD8229289
Probable space group: P C C N
;
_chemical_formula_sum "Si O2"
_cell_formula_units_Z 60
_cell_length_a 8.301546
_cell_length_b 12.099716
_cell_length_c 28.039663
_cell_angle_alpha 90.000000
_cell_angle_beta 90.000000
_cell_angle_gamma 90.000000
_cell_volume 2816.481774
_symmetry_space_group_name_H-M "P C C N"
_symmetry_group_IT_number 56
_symmetry_cell_setting 'orthorhombic'
loop_
_space_group_symop_operation_xyz
x,y,z
1/2-x,1/2-y,z
1/2+x,-y,1/2-z
-x,1/2+y,1/2-z
-x,-y,-z
1/2+x,1/2+y,-z
1/2-x,y,1/2+z
x,1/2-y,1/2+z
loop_
_atom_site_type_symbol
_atom_site_label
_atom_site_fract_x
_atom_site_fract_y
_atom_site_fract_z
Si Si1 0.250000 0.750000 0.933814
Si Si2 0.922972 0.203389 0.340990
Si Si3 0.336909 0.354360 0.418142
Si Si4 0.250936 0.379358 0.109032
Si Si5 0.039930 0.074980 0.796864
Si Si6 0.388655 0.956353 0.387455
Si Si7 0.812837 0.504939 0.796903
Si Si8 0.536010 0.878053 0.982876
O O1 0.179017 0.835897 0.896407
O O2 0.382445 0.805695 0.967731
O O3 0.750000 0.250000 0.359005
O O4 0.004943 0.135586 0.384712
O O5 0.027783 0.303446 0.319741
O O6 0.900598 0.114306 0.298601
O O7 0.250000 0.250000 0.394864
O O8 0.214873 0.459045 0.420307
O O9 0.384964 0.318926 0.471756
O O10 0.250000 0.250000 0.121208
O O11 0.420403 0.444944 0.101514
O O12 0.156388 0.433746 0.153016
O O13 0.157651 0.393629 0.060158
O O14 0.127869 0.081603 0.746237
O O15 0.140380 0.997369 0.833372
O O16 0.873170 0.015200 0.787632
O O17 0.500000 0.000000 0.000000
#
# Coordination Sequence:
#
# PCOD8229289 Si02
#       8
#     4   8   8   8   8   8   8   8
#     4  12  26  46  70 104 142 180 240 296 350 424
#     4  10  23  45  66  99 140 181 232 292 352 423
#     4  12  25  42  70 100 134 184 227 290 346 412
#     4  11  24  47  69 100 146 184 232 295 356 424
#     4  10  23  44  66 102 136 179 232 281 355 424
#     4  11  25  46  67 102 141 181 233 291 351 418
#     4  10  24  41  70  98 135 182 228 288 350 418
#     4  12  26  44  69 105 136 185 237 282 357 419
#
# _framework density 21.303173000000001
#
# number of rings (size 3 to 8) (size 9 to 14) (size 15 to 20)
#    0.000    1.067    4.000    1.200    2.800    3.733 
#    3.600    0.000    0.000    0.000    0.000    0.000 
#    0.000    0.000    0.000    0.000    0.000    0.000 
#
# Total GULP energy -743654.510909 kJ/mol
# GULP energy per Si atom -12394.241848 kJ/mol
# Density = 2.125469 g / cm^3
# Si number density = 21.303173 Si / 1000 Ang^3
#
#
#
# Elastic Constant Matrix: (Units=GPa)
#
#
# Indices 1 2 3 4 5 6 
#
# 1 98.2103 50.1359 70.0815 0.0000 0.0000 0.0000
# 2 50.1359 136.2686 50.9891 0.0000 0.0000 0.0000
# 3 70.0815 50.9891 158.4471 0.0000 0.0000 0.0000
# 4 0.0000 0.0000 0.0000 31.3629 0.0000 0.0000
# 5 0.0000 0.0000 0.0000 0.0000 33.6821 0.0000
# 6 0.0000 0.0000 0.0000 0.0000 0.0000 35.7975
#
#
#
# Elastic Compliance Matrix: (Units=1/GPa)
#
#
# Indices 1 2 3 4 5 6 
#
# 1 0.016430 -0.003781 -0.006050 0.000000 0.000000 0.000000
# 2 -0.003781 0.009213 -0.001293 0.000000 0.000000 0.000000
# 3 -0.006050 -0.001293 0.009403 0.000000 0.000000 0.000000
# 4 0.000000 0.000000 0.000000 0.031885 0.000000 0.000000
# 5 0.000000 0.000000 0.000000 0.000000 0.029689 0.000000
# 6 0.000000 0.000000 0.000000 0.000000 0.000000 0.027935
#
#
# Mechanical properties :
#
#
# Convention : Reuss Voigt Hill
#
# Bulk Modulus (GPa) = 78.13237 81.70431 79.91834
# Shear Modulus (GPa) = 33.09753 34.94981 34.02367
#
# Velocity S-wave (km/s) = 3.94590 4.05482 4.00073
# Velocity P-wave (km/s) = 7.58395 7.76907 7.67707
#
# Compressibility (1/GPa) = 0.01279879
#
# Stress axis : x y z
#
# Youngs Moduli (GPa) = 60.86534 108.54017 106.34686
#
# Poissons Ratio (x) = 0.41039 0.64342
# Poissons Ratio (y) = 0.23013 0.13746
# Poissons Ratio (z) = 0.36825 0.14029
#
# Static dielectric constant tensor:
#      x y z
#    x 4.063450 0.000000 0.000000 
#    y 0.000000 3.972210 0.000000 
#    z 0.000000 0.000000 3.976290 
# 
# 
# High freq. dielectric constant tensor:
#      x y z
#    x 1.842280 0.000000 0.000000 
#    y 0.000000 1.848620 0.000000 
#    z 0.000000 0.000000 1.832930 
# 
# From -- ./inp_files/22122.got.cif
#   From: 2010.03.12/outbox.cif.g09.slc.cpg/sg56_12_cif.got.tgz:22122.got - 2010.04.16 15:33:40.
