data_PCOD8229472
_publ_section_title
;
Structure prediction by ZEFSAII (Michael W. Deem and Ramdas Pophale) SiO2 
 PCOD8229472
Probable space group: P C C N
;
_chemical_formula_sum "Si O2"
_cell_formula_units_Z 60
_cell_length_a 26.356867
_cell_length_b 12.066517
_cell_length_c 8.484173
_cell_angle_alpha 90.000000
_cell_angle_beta 90.000000
_cell_angle_gamma 90.000000
_cell_volume 2698.268912
_symmetry_space_group_name_H-M "P C C N"
_symmetry_group_IT_number 56
_symmetry_cell_setting 'orthorhombic'
loop_
_space_group_symop_operation_xyz
x,y,z
1/2-x,1/2-y,z
1/2+x,-y,1/2-z
-x,1/2+y,1/2-z
-x,-y,-z
1/2+x,1/2+y,-z
1/2-x,y,1/2+z
x,1/2-y,1/2+z
loop_
_atom_site_type_symbol
_atom_site_label
_atom_site_fract_x
_atom_site_fract_y
_atom_site_fract_z
Si Si1 0.488362 0.780620 0.482216
Si Si2 0.492681 0.916497 0.789639
Si Si3 0.185961 0.653797 0.300091
Si Si4 0.707158 0.380566 0.833188
Si Si5 0.420618 0.089638 0.646335
Si Si6 0.084368 0.547241 0.339165
Si Si7 0.685812 0.624269 0.766907
Si Si8 0.750000 0.750000 0.016209
O O1 0.489206 0.815189 0.664237
O O2 0.485898 0.645998 0.458767
O O3 0.540110 0.816714 0.399786
O O4 0.441225 0.839659 0.398097
O O5 0.447032 0.002441 0.765121
O O6 0.546796 0.978712 0.775274
O O7 0.197343 0.635662 0.482979
O O8 0.232351 0.614087 0.191936
O O9 0.179015 0.784283 0.265824
O O10 0.136158 0.582928 0.250491
O O11 0.684449 0.492106 0.763018
O O12 0.373746 0.155380 0.725959
O O13 0.401342 0.026132 0.490682
O O14 0.710731 0.676487 0.613636
O O15 0.716801 0.664886 0.917592
#
# Coordination Sequence:
#
# PCOD8229472 Si02
#       8
#     8   8   8   8   8   8   8   4
#     4   9  19  35  61  85 117 154 204 239 304 377
#     4   9  19  38  62  89 120 159 199 255 306 374
#     4  11  22  39  62  92 123 169 200 260 308 372
#     4  11  23  38  63  89 129 159 213 251 312 363
#     4   9  19  37  60  86 119 164 192 250 313 364
#     4   9  19  36  60  86 122 162 200 240 322 361
#     4  11  22  43  64  89 125 164 212 256 312 361
#     4  10  26  42  64  90 122 170 216 260 300 366
#
# _framework density 22.236478999999999
#
# number of rings (size 3 to 8) (size 9 to 14) (size 15 to 20)
#    0.000    2.133    1.333    4.000    1.867    2.133 
#    2.400    2.667    8.800    0.000    0.000    0.000 
#    0.000    0.000    0.000    0.000    0.000    0.000 
#
# Total GULP energy -743850.884283 kJ/mol
# GULP energy per Si atom -12397.514738 kJ/mol
# Density = 2.218587 g / cm^3
# Si number density = 22.236479 Si / 1000 Ang^3
#
#
#
# Elastic Constant Matrix: (Units=GPa)
#
#
# Indices 1 2 3 4 5 6 
#
# 1 126.6109 11.8144 20.9613 0.0000 0.0000 0.0000
# 2 11.8144 51.9037 11.1499 0.0000 0.0000 0.0000
# 3 20.9613 11.1499 41.0854 0.0000 0.0000 0.0000
# 4 0.0000 0.0000 0.0000 31.7410 0.0000 0.0000
# 5 0.0000 0.0000 0.0000 0.0000 0.9279 0.0000
# 6 0.0000 0.0000 0.0000 0.0000 0.0000 30.0962
#
#
#
# Elastic Compliance Matrix: (Units=1/GPa)
#
#
# Indices 1 2 3 4 5 6 
#
# 1 0.008684 -0.001088 -0.004135 0.000000 0.000000 0.000000
# 2 -0.001088 0.020596 -0.005034 0.000000 0.000000 0.000000
# 3 -0.004135 -0.005034 0.027815 0.000000 0.000000 0.000000
# 4 0.000000 0.000000 0.000000 0.031505 0.000000 0.000000
# 5 0.000000 0.000000 0.000000 0.000000 1.077734 0.000000
# 6 0.000000 0.000000 0.000000 0.000000 0.000000 0.033227
#
#
# Mechanical properties :
#
#
# Convention : Reuss Voigt Hill
#
# Bulk Modulus (GPa) = 27.33730 34.16123 30.74926
# Shear Modulus (GPa) = 4.05755 24.26465 14.16110
#
# Velocity S-wave (km/s) = 1.35229 3.30693 2.52631
# Velocity P-wave (km/s) = 3.84172 5.47513 4.72948
#
# Compressibility (1/GPa) = 0.03658006
#
# Stress axis : x y z
#
# Youngs Moduli (GPa) = 115.14902 48.55407 35.95120
#
# Poissons Ratio (x) = 0.05285 0.14867
# Poissons Ratio (y) = 0.12533 0.18098
# Poissons Ratio (z) = 0.47618 0.24442
#
# Static dielectric constant tensor:
#      x y z
#    x 4.133110 0.000000 0.000000 
#    y 0.000000 4.026660 0.000000 
#    z 0.000000 0.000000 3.811700 
# 
# 
# High freq. dielectric constant tensor:
#      x y z
#    x 1.882050 0.000000 0.000000 
#    y 0.000000 1.879320 0.000000 
#    z 0.000000 0.000000 1.857050 
# 
# From -- ./inp_files/4966.got.cif
#   From: 2010.03.12/outbox.cif.g09.slc.cpg/sg56_3_cif.got.tgz:4966.got - 2010.04.16 15:33:40.
