data_PCOD8229622
_publ_section_title
;
Structure prediction by ZEFSAII (Michael W. Deem and Ramdas Pophale) SiO2 
 PCOD8229622
Probable space group: P C C N
;
_chemical_formula_sum "Si O2"
_cell_formula_units_Z 40
_cell_length_a 11.232232
_cell_length_b 8.997731
_cell_length_c 16.425308
_cell_angle_alpha 90.000000
_cell_angle_beta 90.000000
_cell_angle_gamma 90.000000
_cell_volume 1660.017217
_symmetry_space_group_name_H-M "P C C N"
_symmetry_group_IT_number 56
_symmetry_cell_setting 'orthorhombic'
loop_
_space_group_symop_operation_xyz
x,y,z
1/2-x,1/2-y,z
1/2+x,-y,1/2-z
-x,1/2+y,1/2-z
-x,-y,-z
1/2+x,1/2+y,-z
1/2-x,y,1/2+z
x,1/2-y,1/2+z
loop_
_atom_site_type_symbol
_atom_site_label
_atom_site_fract_x
_atom_site_fract_y
_atom_site_fract_z
Si Si1 0.531358 0.918971 0.416885
Si Si2 0.869677 0.843673 0.495451
Si Si3 0.452545 0.011004 0.258146
Si Si4 0.225890 0.575861 0.117060
Si Si5 0.116613 0.308596 0.821290
O O1 0.542892 0.742824 0.433543
O O2 0.428949 0.941463 0.348901
O O3 0.500000 0.000000 0.500000
O O4 0.651147 0.987628 0.378430
O O5 0.750000 0.750000 0.499300
O O6 0.923833 0.839812 0.586085
O O7 0.848675 0.010036 0.460955
O O8 0.346307 0.957876 0.199669
O O9 0.582633 0.960325 0.224865
O O10 0.463293 0.186923 0.274079
O O11 0.250000 0.750000 0.103647
O O12 0.250000 0.250000 0.811824
#
# Coordination Sequence:
#
# PCOD8229622 Si02
#       5
#     8   8   8   8   8
#     4  11  22  45  73 100 140 202 253 307 386 472
#     4   9  21  44  71  98 143 194 245 305 375 465
#     4  12  24  43  73 103 144 191 245 320 381 459
#     4  11  25  44  68 111 150 183 253 321 384 465
#     4  11  24  45  70 107 144 194 254 309 391 467
#
# _framework density 24.096132999999998
#
# number of rings (size 3 to 8) (size 9 to 14) (size 15 to 20)
#    0.000    1.200    2.000    3.600    0.000    2.400 
#    3.600    1.000    0.000    0.000    0.000    0.000 
#    0.000    0.000    0.000    0.000    0.000    0.000 
#
# Total GULP energy -495682.055288 kJ/mol
# GULP energy per Si atom -12392.051382 kJ/mol
# Density = 2.404129 g / cm^3
# Si number density = 24.096133 Si / 1000 Ang^3
#
#
#
# Elastic Constant Matrix: (Units=GPa)
#
#
# Indices 1 2 3 4 5 6 
#
# 1 75.8792 33.6215 52.1642 0.0000 0.0000 0.0000
# 2 33.6215 145.8799 80.8305 0.0000 0.0000 0.0000
# 3 52.1642 80.8305 187.8630 0.0000 0.0000 0.0000
# 4 0.0000 0.0000 0.0000 29.4268 0.0000 0.0000
# 5 0.0000 0.0000 0.0000 0.0000 42.1571 0.0000
# 6 0.0000 0.0000 0.0000 0.0000 0.0000 38.8978
#
#
#
# Elastic Compliance Matrix: (Units=1/GPa)
#
#
# Indices 1 2 3 4 5 6 
#
# 1 0.016592 -0.001669 -0.003889 0.000000 0.000000 0.000000
# 2 -0.001669 0.009169 -0.003481 0.000000 0.000000 0.000000
# 3 -0.003889 -0.003481 0.007901 0.000000 0.000000 0.000000
# 4 0.000000 0.000000 0.000000 0.033983 0.000000 0.000000
# 5 0.000000 0.000000 0.000000 0.000000 0.023721 0.000000
# 6 0.000000 0.000000 0.000000 0.000000 0.000000 0.025708
#
#
# Mechanical properties :
#
#
# Convention : Reuss Voigt Hill
#
# Bulk Modulus (GPa) = 64.17537 82.53939 73.35738
# Shear Modulus (GPa) = 35.62610 38.29674 36.96142
#
# Velocity S-wave (km/s) = 3.84930 3.99097 3.92077
# Velocity P-wave (km/s) = 6.81520 7.45424 7.14187
#
# Compressibility (1/GPa) = 0.01558230
#
# Stress axis : x y z
#
# Youngs Moduli (GPa) = 60.27023 109.06671 126.56933
#
# Poissons Ratio (x) = 0.18205 0.49222
# Poissons Ratio (y) = 0.10060 0.44065
# Poissons Ratio (z) = 0.23439 0.37971
#
# Static dielectric constant tensor:
#      x y z
#    x 4.329720 0.000000 0.000000 
#    y 0.000000 4.531110 0.000000 
#    z 0.000000 0.000000 4.783180 
# 
# 
# High freq. dielectric constant tensor:
#      x y z
#    x 1.937520 0.000000 0.000000 
#    y 0.000000 1.954060 0.000000 
#    z 0.000000 0.000000 1.981080 
# 
# From -- ./inp_files/15403.got.cif
#   From: 2010.03.12/outbox.cif.g09.slc.cpg/sg56_8_cif.got.tgz:15403.got - 2010.04.16 15:33:40.
