data_PCOD8229770
_publ_section_title
;
Structure prediction by ZEFSAII (Michael W. Deem and Ramdas Pophale) SiO2 
 PCOD8229770
Probable space group: P C C N
;
_chemical_formula_sum "Si O2"
_cell_formula_units_Z 40
_cell_length_a 8.317102
_cell_length_b 10.473338
_cell_length_c 20.339396
_cell_angle_alpha 90.000000
_cell_angle_beta 90.000000
_cell_angle_gamma 90.000000
_cell_volume 1771.720454
_symmetry_space_group_name_H-M "P C C N"
_symmetry_group_IT_number 56
_symmetry_cell_setting 'orthorhombic'
loop_
_space_group_symop_operation_xyz
x,y,z
1/2-x,1/2-y,z
1/2+x,-y,1/2-z
-x,1/2+y,1/2-z
-x,-y,-z
1/2+x,1/2+y,-z
1/2-x,y,1/2+z
x,1/2-y,1/2+z
loop_
_atom_site_type_symbol
_atom_site_label
_atom_site_fract_x
_atom_site_fract_y
_atom_site_fract_z
Si Si1 0.073083 0.297986 0.824983
Si Si2 0.750000 0.750000 0.418934
Si Si3 0.250000 0.750000 0.093551
Si Si4 0.812838 0.494694 0.993526
Si Si5 0.706541 0.445005 0.639479
Si Si6 0.985314 0.203807 0.178360
O O1 0.250000 0.250000 0.850135
O O2 0.087591 0.450418 0.829308
O O3 0.916921 0.247626 0.864785
O O4 0.044568 0.255749 0.750218
O O5 0.712894 0.634865 0.466513
O O6 0.628594 0.822253 0.370601
O O7 0.252933 0.621458 0.050580
O O8 0.736290 0.479149 0.065728
O O9 0.000000 0.500000 0.000000
O O10 0.605809 0.316687 0.641070
O O11 0.869814 0.421901 0.682015
#
# Coordination Sequence:
#
# PCOD8229770 Si02
#       6
#     8   4   4   8   8   8
#     4  12  28  46  76 112 147 194 261 312 377 458
#     4  12  26  44  78 110 140 204 246 304 390 454
#     4  12  26  50  78 108 154 202 248 320 382 440
#     4  12  26  49  74 108 155 190 253 315 373 458
#     4  11  26  48  72 106 148 194 246 312 381 446
#     4  11  25  48  74 103 149 198 245 311 382 451
#
# _framework density 22.576926
#
# number of rings (size 3 to 8) (size 9 to 14) (size 15 to 20)
#    0.000    0.400    5.000    2.400    7.000    2.400 
#    0.000    0.000    0.000    0.000    0.000    0.000 
#    0.000    0.000    0.000    0.000    0.000    0.000 
#
# Total GULP energy -495554.427652 kJ/mol
# GULP energy per Si atom -12388.860691 kJ/mol
# Density = 2.252554 g / cm^3
# Si number density = 22.576926 Si / 1000 Ang^3
#
#
#
# Elastic Constant Matrix: (Units=GPa)
#
#
# Indices 1 2 3 4 5 6 
#
# 1 144.7354 48.5179 36.6213 0.0000 0.0000 0.0000
# 2 48.5179 133.5700 57.2936 0.0000 0.0000 0.0000
# 3 36.6213 57.2936 124.2305 0.0000 0.0000 0.0000
# 4 0.0000 0.0000 0.0000 35.0787 0.0000 0.0000
# 5 0.0000 0.0000 0.0000 0.0000 31.7394 0.0000
# 6 0.0000 0.0000 0.0000 0.0000 0.0000 41.4786
#
#
#
# Elastic Compliance Matrix: (Units=1/GPa)
#
#
# Indices 1 2 3 4 5 6 
#
# 1 0.008025 -0.002369 -0.001273 0.000000 0.000000 0.000000
# 2 -0.002369 0.010032 -0.003928 0.000000 0.000000 0.000000
# 3 -0.001273 -0.003928 0.010237 0.000000 0.000000 0.000000
# 4 0.000000 0.000000 0.000000 0.028507 0.000000 0.000000
# 5 0.000000 0.000000 0.000000 0.000000 0.031507 0.000000
# 6 0.000000 0.000000 0.000000 0.000000 0.000000 0.024109
#
#
# Mechanical properties :
#
#
# Convention : Reuss Voigt Hill
#
# Bulk Modulus (GPa) = 76.02807 76.37795 76.20301
# Shear Modulus (GPa) = 37.89523 38.99955 38.44739
#
# Velocity S-wave (km/s) = 4.10139 4.16072 4.13116
# Velocity P-wave (km/s) = 7.49511 7.54888 7.52205
#
# Compressibility (1/GPa) = 0.01315304
#
# Stress axis : x y z
#
# Youngs Moduli (GPa) = 124.60359 99.67811 97.68847
#
# Poissons Ratio (x) = 0.23614 0.12438
# Poissons Ratio (y) = 0.29519 0.38376
# Poissons Ratio (z) = 0.15865 0.39158
#
# Static dielectric constant tensor:
#      x y z
#    x 4.729130 0.000000 0.000000 
#    y 0.000000 4.197690 0.000000 
#    z 0.000000 0.000000 3.854610 
# 
# 
# High freq. dielectric constant tensor:
#      x y z
#    x 1.903560 0.000000 0.000000 
#    y 0.000000 1.899160 0.000000 
#    z 0.000000 0.000000 1.897960 
# 
# From -- ./inp_files/14513.got.cif
#   From: 2010.03.12/outbox.cif.g09.slc.cpg/sg56_8_cif.got.tgz:14513.got - 2010.04.16 15:33:40.
