data_PCOD8229925
_publ_section_title
;
Structure prediction by ZEFSAII (Michael W. Deem and Ramdas Pophale) SiO2 
 PCOD8229925
Probable space group: P B C M
;
_chemical_formula_sum "Si O2"
_cell_formula_units_Z 56
_cell_length_a 18.350430
_cell_length_b 18.323810
_cell_length_c 8.862155
_cell_angle_alpha 90.000000
_cell_angle_beta 90.000000
_cell_angle_gamma 90.000000
_cell_volume 2979.897782
_symmetry_space_group_name_H-M "P B C M"
_symmetry_group_IT_number 57
_symmetry_cell_setting 'orthorhombic'
loop_
_space_group_symop_operation_xyz
x,y,z
-x,-y,1/2+z
x,1/2-y,-z
-x,1/2+y,1/2-z
-x,-y,-z
x,y,1/2-z
-x,1/2+y,z
x,1/2-y,1/2+z
loop_
_atom_site_type_symbol
_atom_site_label
_atom_site_fract_x
_atom_site_fract_y
_atom_site_fract_z
Si Si1 0.001608 0.673820 0.930478
Si Si2 0.120396 0.562869 0.575743
Si Si3 0.135264 0.397443 0.929624
Si Si4 0.427065 0.090119 0.080610
Si Si5 0.567538 0.415932 0.417818
Si Si6 0.720989 0.440029 0.424762
Si Si7 0.716866 0.907992 0.426132
O O1 0.001611 0.678148 0.750000
O O2 0.058435 0.613705 0.997254
O O3 0.027331 0.750000 0.000000
O O4 0.921749 0.655652 0.991235
O O5 0.101710 0.557940 0.750000
O O6 0.119265 0.480185 0.512305
O O7 0.200894 0.599221 0.549619
O O8 0.130587 0.390313 0.750000
O O9 0.215276 0.371919 0.984919
O O10 0.416492 0.117239 0.250000
O O11 0.427230 0.003061 0.065976
O O12 0.506260 0.118910 0.025079
O O13 0.360686 0.124253 0.983709
O O14 0.544080 0.393731 0.250000
O O15 0.650475 0.387603 0.454526
O O16 0.717356 0.469536 0.250000
O O17 0.717256 0.506175 0.541192
O O18 0.725168 0.892249 0.250000
#
# Coordination Sequence:
#
# PCOD8229925 Si02
#       7
#     8   8   8   8   8   8   8
#     4  11  22  36  52  73  99 127 158 194 238 287
#     4   8  16  31  52  73  95 124 160 199 239 284
#     4  10  19  34  53  72  94 123 159 200 243 285
#     4   9  15  22  32  49  79 118 154 186 225 273
#     4   8  13  20  32  51  78 112 149 187 229 274
#     4   8  14  26  41  59  84 116 153 193 234 276
#     4  10  17  25  39  61  87 116 152 192 232 278
#
# _framework density 18.792591000000002
#
# number of rings (size 3 to 8) (size 9 to 14) (size 15 to 20)
#    0.000    2.857    0.000    4.714    0.000    3.429 
#    0.000    6.429    0.000    0.000    0.000    0.000 
#    0.000    1.143    0.000    8.000    0.000   14.857 
#
# Total GULP energy -693800.974139 kJ/mol
# GULP energy per Si atom -12389.303110 kJ/mol
# Density = 1.874982 g / cm^3
# Si number density = 18.792591 Si / 1000 Ang^3
#
#
#
# Elastic Constant Matrix: (Units=GPa)
#
#
# Indices 1 2 3 4 5 6 
#
# 1 126.1211 10.2481 34.7841 0.0000 0.0000 0.0000
# 2 10.2481 24.1811 9.6264 0.0000 0.0000 0.0000
# 3 34.7841 9.6264 86.6780 0.0000 0.0000 0.0000
# 4 0.0000 0.0000 0.0000 13.4983 0.0000 0.0000
# 5 0.0000 0.0000 0.0000 0.0000 30.4508 0.0000
# 6 0.0000 0.0000 0.0000 0.0000 0.0000 3.6027
#
#
#
# Elastic Compliance Matrix: (Units=1/GPa)
#
#
# Indices 1 2 3 4 5 6 
#
# 1 0.009058 -0.002502 -0.003357 0.000000 0.000000 0.000000
# 2 -0.002502 0.043959 -0.003878 0.000000 0.000000 0.000000
# 3 -0.003357 -0.003878 0.013315 0.000000 0.000000 0.000000
# 4 0.000000 0.000000 0.000000 0.074083 0.000000 0.000000
# 5 0.000000 0.000000 0.000000 0.000000 0.032840 0.000000
# 6 0.000000 0.000000 0.000000 0.000000 0.000000 0.277570
#
#
# Mechanical properties :
#
#
# Convention : Reuss Voigt Hill
#
# Bulk Modulus (GPa) = 21.34148 38.47750 29.90949
# Shear Modulus (GPa) = 10.28978 21.66512 15.97745
#
# Velocity S-wave (km/s) = 2.34250 3.39905 2.91898
# Velocity P-wave (km/s) = 4.32405 5.99367 5.22597
#
# Compressibility (1/GPa) = 0.04685712
#
# Stress axis : x y z
#
# Youngs Moduli (GPa) = 110.39823 22.74852 75.10409
#
# Poissons Ratio (x) = 0.05693 0.25213
# Poissons Ratio (y) = 0.27626 0.29124
# Poissons Ratio (z) = 0.37062 0.08821
#
# Static dielectric constant tensor:
#      x y z
#    x 4.142890 0.000000 0.000000 
#    y 0.000000 2.826160 0.000000 
#    z 0.000000 0.000000 3.314000 
# 
# 
# High freq. dielectric constant tensor:
#      x y z
#    x 1.762720 0.000000 0.000000 
#    y 0.000000 1.641190 0.000000 
#    z 0.000000 0.000000 1.721250 
# 
# From -- ./inp_files/7038.got.cif
#   From: 2010.03.12/outbox.cif.g09.slc.cpg/sg57_4_cif.got.tgz:7038.got - 2010.04.16 15:48:40.
