data_PCOD8229736
_publ_section_title
;
Structure prediction by ZEFSAII (Michael W. Deem and Ramdas Pophale) SiO2 
 PCOD8229736
Probable space group: P C C N
;
_chemical_formula_sum "Si O2"
_cell_formula_units_Z 40
_cell_length_a 12.920320
_cell_length_b 4.902130
_cell_length_c 28.950244
_cell_angle_alpha 90.000000
_cell_angle_beta 90.000000
_cell_angle_gamma 90.000000
_cell_volume 1833.624160
_symmetry_space_group_name_H-M "P C C N"
_symmetry_group_IT_number 56
_symmetry_cell_setting 'orthorhombic'
loop_
_space_group_symop_operation_xyz
x,y,z
1/2-x,1/2-y,z
1/2+x,-y,1/2-z
-x,1/2+y,1/2-z
-x,-y,-z
1/2+x,1/2+y,-z
1/2-x,y,1/2+z
x,1/2-y,1/2+z
loop_
_atom_site_type_symbol
_atom_site_label
_atom_site_fract_x
_atom_site_fract_y
_atom_site_fract_z
Si Si1 0.991066 0.168795 0.068435
Si Si2 0.250000 0.250000 0.729644
Si Si3 0.177716 0.992660 0.003519
Si Si4 0.750000 0.250000 0.335840
Si Si5 0.456608 0.323788 0.273502
Si Si6 0.969099 0.307361 0.873222
O O1 0.009571 0.474403 0.086462
O O2 0.974047 0.969372 0.111830
O O3 0.095053 0.084885 0.041525
O O4 0.886563 0.141910 0.038716
O O5 0.280594 0.495891 0.696180
O O6 0.163985 0.352821 0.764843
O O7 0.250000 0.250000 0.988741
O O8 0.250000 0.750000 0.023237
O O9 0.650935 0.218395 0.368535
O O10 0.511868 0.512667 0.235615
O O11 0.483940 0.414111 0.325217
#
# Coordination Sequence:
#
# PCOD8229736 Si02
#       6
#     8   4   8   4   8   8
#     4  11  26  44  68 103 134 167 221 276 331 398
#     4  12  22  44  64  92 128 190 224 262 336 388
#     4  11  24  47  73  96 133 177 212 264 341 410
#     4  12  24  38  70  96 130 172 228 280 330 376
#     4  12  23  43  65  93 135 179 219 269 329 383
#     4  12  24  42  66 101 135 169 223 286 324 386
#
# _framework density 21.814720999999999
#
# number of rings (size 3 to 8) (size 9 to 14) (size 15 to 20)
#    0.000    0.400    4.000    4.800    4.200    3.200 
#    5.400    0.000    0.000    0.000    0.000    0.000 
#    0.000    0.000    0.000    0.000    0.000    0.000 
#
# Total GULP energy -495997.833326 kJ/mol
# GULP energy per Si atom -12399.945833 kJ/mol
# Density = 2.176507 g / cm^3
# Si number density = 21.814721 Si / 1000 Ang^3
#
#
#
# Elastic Constant Matrix: (Units=GPa)
#
#
# Indices 1 2 3 4 5 6 
#
# 1 69.6622 -6.1659 24.4558 0.0000 0.0000 0.0000
# 2 -6.1659 74.3158 8.1905 0.0000 0.0000 0.0000
# 3 24.4558 8.1905 80.7892 0.0000 0.0000 0.0000
# 4 0.0000 0.0000 0.0000 41.7510 0.0000 0.0000
# 5 0.0000 0.0000 0.0000 0.0000 58.6448 0.0000
# 6 0.0000 0.0000 0.0000 0.0000 0.0000 31.8773
#
#
#
# Elastic Compliance Matrix: (Units=1/GPa)
#
#
# Indices 1 2 3 4 5 6 
#
# 1 0.016329 0.001921 -0.005138 0.000000 0.000000 0.000000
# 2 0.001921 0.013834 -0.001984 0.000000 0.000000 0.000000
# 3 -0.005138 -0.001984 0.014134 0.000000 0.000000 0.000000
# 4 0.000000 0.000000 0.000000 0.023952 0.000000 0.000000
# 5 0.000000 0.000000 0.000000 0.000000 0.017052 0.000000
# 6 0.000000 0.000000 0.000000 0.000000 0.000000 0.031370
#
#
# Mechanical properties :
#
#
# Convention : Reuss Voigt Hill
#
# Bulk Modulus (GPa) = 29.50221 30.85865 30.18043
# Shear Modulus (GPa) = 36.13484 39.67372 37.90428
#
# Velocity S-wave (km/s) = 4.07436 4.26921 4.17292
# Velocity P-wave (km/s) = 5.97388 6.20307 6.08955
#
# Compressibility (1/GPa) = 0.03389576
#
# Stress axis : x y z
#
# Youngs Moduli (GPa) = 61.24204 72.28491 70.75014
#
# Poissons Ratio (x) = -0.13886 0.36349
# Poissons Ratio (y) = -0.11765 0.14037
# Poissons Ratio (z) = 0.31464 0.14342
#
# Static dielectric constant tensor:
#      x y z
#    x 4.030880 0.000000 0.000000 
#    y 0.000000 3.282810 0.000000 
#    z 0.000000 0.000000 3.768840 
# 
# 
# High freq. dielectric constant tensor:
#      x y z
#    x 1.862200 0.000000 0.000000 
#    y 0.000000 1.872530 0.000000 
#    z 0.000000 0.000000 1.853380 
# 
# From -- ./inp_files/22210.got.cif
#   From: 2010.03.12/outbox.cif.g09.slc.cpg/sg56_12_cif.got.tgz:22210.got - 2010.04.16 15:33:40.
