data_PCOD8229246
_publ_section_title
;
Structure prediction by ZEFSAII (Michael W. Deem and Ramdas Pophale) SiO2 
 PCOD8229246
Probable space group: P C C N
;
_chemical_formula_sum "Si O2"
_cell_formula_units_Z 64
_cell_length_a 15.159812
_cell_length_b 8.303658
_cell_length_c 23.381418
_cell_angle_alpha 90.000000
_cell_angle_beta 90.000000
_cell_angle_gamma 90.000000
_cell_volume 2943.297187
_symmetry_space_group_name_H-M "P C C N"
_symmetry_group_IT_number 56
_symmetry_cell_setting 'orthorhombic'
loop_
_space_group_symop_operation_xyz
x,y,z
1/2-x,1/2-y,z
1/2+x,-y,1/2-z
-x,1/2+y,1/2-z
-x,-y,-z
1/2+x,1/2+y,-z
1/2-x,y,1/2+z
x,1/2-y,1/2+z
loop_
_atom_site_type_symbol
_atom_site_label
_atom_site_fract_x
_atom_site_fract_y
_atom_site_fract_z
Si Si1 0.668044 0.139866 0.368633
Si Si2 0.258843 0.064410 0.039049
Si Si3 0.573241 0.568504 0.781608
Si Si4 0.746586 0.439923 0.085171
Si Si5 0.594037 0.459594 0.388145
Si Si6 0.913032 0.435795 0.158606
Si Si7 0.170246 0.373805 0.214926
Si Si8 0.885396 0.431507 0.680282
O O1 0.750000 0.250000 0.352836
O O2 0.586745 0.265034 0.381138
O O3 0.685494 0.034318 0.425255
O O4 0.651738 0.026161 0.313570
O O5 0.250000 0.250000 0.055510
O O6 0.359422 0.003940 0.051557
O O7 0.239651 0.039601 0.972594
O O8 0.571659 0.544966 0.713811
O O9 0.582162 0.761918 0.787495
O O10 0.485056 0.505839 0.812945
O O11 0.750000 0.250000 0.071811
O O12 0.831858 0.498703 0.120589
O O13 0.658767 0.486055 0.120960
O O14 0.500376 0.548043 0.381044
O O15 0.668536 0.524294 0.343123
O O16 0.888070 0.260920 0.182241
O O17 0.250000 0.250000 0.220762
O O18 0.171996 0.498221 0.267560
#
# Coordination Sequence:
#
# PCOD8229246 Si02
#       8
#     8   8   8   8   8   8   8   8
#     4  10  23  41  68  94 128 172 216 270 328 396
#     4  11  24  45  67  94 125 164 222 275 331 389
#     4  12  22  39  63 100 137 171 212 269 327 394
#     4  10  24  45  67  88 127 176 221 270 326 391
#     4  11  21  40  68  96 128 168 220 270 329 394
#     4  11  24  41  67  96 133 177 217 271 328 395
#     4  12  23  37  64 100 139 177 217 267 332 398
#     4  11  23  42  62  95 137 171 218 266 331 391
#
# _framework density 21.744322
#
# number of rings (size 3 to 8) (size 9 to 14) (size 15 to 20)
#    0.000    1.000    2.500    5.250    1.750    3.500 
#    0.000    0.625    0.000    0.000    0.000    0.000 
#    0.000    0.000    0.000    0.000    0.000    0.000 
#
# Total GULP energy -793579.213387 kJ/mol
# GULP energy per Si atom -12399.675209 kJ/mol
# Density = 2.169483 g / cm^3
# Si number density = 21.744322 Si / 1000 Ang^3
#
#
#
# Elastic Constant Matrix: (Units=GPa)
#
#
# Indices 1 2 3 4 5 6 
#
# 1 84.0196 21.9246 41.1001 0.0000 0.0000 0.0000
# 2 21.9246 105.2684 32.2060 0.0000 0.0000 0.0000
# 3 41.1001 32.2060 115.3000 0.0000 0.0000 0.0000
# 4 0.0000 0.0000 0.0000 35.7028 0.0000 0.0000
# 5 0.0000 0.0000 0.0000 0.0000 35.2860 0.0000
# 6 0.0000 0.0000 0.0000 0.0000 0.0000 30.4557
#
#
#
# Elastic Compliance Matrix: (Units=1/GPa)
#
#
# Indices 1 2 3 4 5 6 
#
# 1 0.014655 -0.001590 -0.004780 0.000000 0.000000 0.000000
# 2 -0.001590 0.010560 -0.002383 0.000000 0.000000 0.000000
# 3 -0.004780 -0.002383 0.011042 0.000000 0.000000 0.000000
# 4 0.000000 0.000000 0.000000 0.028009 0.000000 0.000000
# 5 0.000000 0.000000 0.000000 0.000000 0.028340 0.000000
# 6 0.000000 0.000000 0.000000 0.000000 0.000000 0.032835
#
#
# Mechanical properties :
#
#
# Convention : Reuss Voigt Hill
#
# Bulk Modulus (GPa) = 53.32772 55.00549 54.16661
# Shear Modulus (GPa) = 33.51287 34.24606 33.87946
#
# Velocity S-wave (km/s) = 3.93010 3.97286 3.95154
# Velocity P-wave (km/s) = 6.72104 6.81148 6.76641
#
# Compressibility (1/GPa) = 0.01875197
#
# Stress axis : x y z
#
# Youngs Moduli (GPa) = 68.23588 94.69995 90.55964
#
# Poissons Ratio (x) = 0.15056 0.43286
# Poissons Ratio (y) = 0.10849 0.21579
# Poissons Ratio (z) = 0.32616 0.22565
#
# Static dielectric constant tensor:
#      x y z
#    x 4.085850 0.000000 0.000000 
#    y 0.000000 4.193350 0.000000 
#    z 0.000000 0.000000 3.712570 
# 
# 
# High freq. dielectric constant tensor:
#      x y z
#    x 1.853780 0.000000 0.000000 
#    y 0.000000 1.866740 0.000000 
#    z 0.000000 0.000000 1.840940 
# 
# From -- ./inp_files/21177.got.cif
#   From: 2010.03.12/outbox.cif.g09.slc.cpg/sg56_11_cif.got.tgz:21177.got - 2010.04.16 15:33:40.
