data_PCOD8229968
_publ_section_title
;
Structure prediction by ZEFSAII (Michael W. Deem and Ramdas Pophale) SiO2 
 PCOD8229968
Probable space group: P B C M
;
_chemical_formula_sum "Si O2"
_cell_formula_units_Z 48
_cell_length_a 9.138048
_cell_length_b 31.524577
_cell_length_c 8.462560
_cell_angle_alpha 90.000000
_cell_angle_beta 90.000000
_cell_angle_gamma 90.000000
_cell_volume 2437.835875
_symmetry_space_group_name_H-M "P B C M"
_symmetry_group_IT_number 57
_symmetry_cell_setting 'orthorhombic'
loop_
_space_group_symop_operation_xyz
x,y,z
-x,-y,1/2+z
x,1/2-y,-z
-x,1/2+y,1/2-z
-x,-y,-z
x,y,1/2-z
-x,1/2+y,z
x,1/2-y,1/2+z
loop_
_atom_site_type_symbol
_atom_site_label
_atom_site_fract_x
_atom_site_fract_y
_atom_site_fract_z
Si Si1 0.580620 0.041214 0.937371
Si Si2 0.421251 0.206587 0.565940
Si Si3 0.915311 0.459917 0.436184
Si Si4 0.915149 0.878108 0.064285
Si Si5 0.406613 0.119646 0.434569
Si Si6 0.901529 0.708271 0.435454
O O1 0.563617 0.044831 0.750000
O O2 0.748215 0.038170 0.992208
O O3 0.515326 0.082469 0.019241
O O4 0.500000 0.000000 0.000000
O O5 0.495045 0.250000 0.500000
O O6 0.454220 0.203134 0.750000
O O7 0.483884 0.164421 0.480617
O O8 0.248865 0.207814 0.533132
O O9 0.926866 0.460519 0.250000
O O10 0.000000 0.500000 0.500000
O O11 0.990701 0.417292 0.502257
O O12 0.935446 0.872361 0.250000
O O13 0.745414 0.886351 0.026546
O O14 0.980370 0.835990 0.978071
O O15 0.371769 0.118794 0.250000
O O16 0.989341 0.750000 0.500000
O O17 0.871603 0.711576 0.250000
#
# Coordination Sequence:
#
# PCOD8229968 Si02
#       6
#     8   8   8   8   8   8
#     4  11  23  40  58  81 108 140 177 220 268 321
#     4  10  17  28  47  74 107 143 179 222 266 312
#     4  10  23  39  58  80 107 138 175 218 266 318
#     4  10  19  34  54  79 108 142 178 221 268 314
#     4  11  21  34  53  81 111 144 181 222 266 317
#     4  10  17  27  45  73 106 141 177 219 262 310
#
# _framework density 19.689594
#
# number of rings (size 3 to 8) (size 9 to 14) (size 15 to 20)
#    0.000    1.667    0.000    9.500    0.000    5.333 
#    0.000    0.000    0.000    1.000    0.000    4.667 
#    0.000    0.000    0.000    0.000    0.000    0.000 
#
# Total GULP energy -595119.943013 kJ/mol
# GULP energy per Si atom -12398.332146 kJ/mol
# Density = 1.964478 g / cm^3
# Si number density = 19.689594 Si / 1000 Ang^3
#
#
#
# Elastic Constant Matrix: (Units=GPa)
#
#
# Indices 1 2 3 4 5 6 
#
# 1 73.7668 65.1462 15.3777 0.0000 0.0000 0.0000
# 2 65.1462 219.7958 39.4504 0.0000 0.0000 0.0000
# 3 15.3777 39.4504 76.1888 0.0000 0.0000 0.0000
# 4 0.0000 0.0000 0.0000 41.2375 0.0000 0.0000
# 5 0.0000 0.0000 0.0000 0.0000 18.7522 0.0000
# 6 0.0000 0.0000 0.0000 0.0000 0.0000 26.6087
#
#
#
# Elastic Compliance Matrix: (Units=1/GPa)
#
#
# Indices 1 2 3 4 5 6 
#
# 1 0.018429 -0.005286 -0.000983 0.000000 0.000000 0.000000
# 2 -0.005286 0.006532 -0.002315 0.000000 0.000000 0.000000
# 3 -0.000983 -0.002315 0.014522 0.000000 0.000000 0.000000
# 4 0.000000 0.000000 0.000000 0.024250 0.000000 0.000000
# 5 0.000000 0.000000 0.000000 0.000000 0.053327 0.000000
# 6 0.000000 0.000000 0.000000 0.000000 0.000000 0.037582
#
#
# Mechanical properties :
#
#
# Convention : Reuss Voigt Hill
#
# Bulk Modulus (GPa) = 44.81116 67.74444 56.27780
# Shear Modulus (GPa) = 27.89421 33.97152 30.93286
#
# Velocity S-wave (km/s) = 3.76799 4.15824 3.96792
# Velocity P-wave (km/s) = 6.46054 7.58522 7.04536
#
# Compressibility (1/GPa) = 0.02231587
#
# Stress axis : x y z
#
# Youngs Moduli (GPa) = 54.26140 153.09300 68.85869
#
# Poissons Ratio (x) = 0.80924 0.06766
# Poissons Ratio (y) = 0.28682 0.15943
# Poissons Ratio (z) = 0.05332 0.35446
#
# Static dielectric constant tensor:
#      x y z
#    x 3.226210 0.000000 0.000000 
#    y 0.000000 4.451250 0.000000 
#    z 0.000000 0.000000 3.677400 
# 
# 
# High freq. dielectric constant tensor:
#      x y z
#    x 1.711290 0.000000 0.000000 
#    y 0.000000 1.803070 0.000000 
#    z 0.000000 0.000000 1.779110 
# 
# From -- ./inp_files/2074.got.cif
#   From: 2010.03.12/outbox.cif.g09.slc.cpg/sg57_2_cif.got.tgz:2074.got - 2010.04.16 15:48:40.
