data_PCOD8229990
_publ_section_title
;
Structure prediction by ZEFSAII (Michael W. Deem and Ramdas Pophale) SiO2 
 PCOD8229990
Probable space group: P B C M
;
_chemical_formula_sum "Si O2"
_cell_formula_units_Z 40
_cell_length_a 24.838804
_cell_length_b 7.433509
_cell_length_c 10.541380
_cell_angle_alpha 90.000000
_cell_angle_beta 90.000000
_cell_angle_gamma 90.000000
_cell_volume 1946.354849
_symmetry_space_group_name_H-M "P B C M"
_symmetry_group_IT_number 57
_symmetry_cell_setting 'orthorhombic'
loop_
_space_group_symop_operation_xyz
x,y,z
-x,-y,1/2+z
x,1/2-y,-z
-x,1/2+y,1/2-z
-x,-y,-z
x,y,1/2-z
-x,1/2+y,z
x,1/2-y,1/2+z
loop_
_atom_site_type_symbol
_atom_site_label
_atom_site_fract_x
_atom_site_fract_y
_atom_site_fract_z
Si Si1 0.786454 0.250000 0.500000
Si Si2 0.937489 0.541509 0.750000
Si Si3 0.437365 0.539298 1.000000
Si Si4 0.122645 0.465524 0.500000
Si Si5 0.715251 0.250001 0.750000
Si Si6 0.062511 0.041512 0.250000
Si Si7 0.388001 0.949317 0.750000
Si Si8 0.611999 0.449316 0.250000
O O1 0.820653 0.433534 0.499998
O O2 0.750672 0.250002 0.624901
O O3 0.910199 0.463983 0.622925
O O4 0.927160 0.749999 0.750000
O O5 1.000000 0.499997 0.750000
O O6 0.409494 0.449412 0.875987
O O7 0.423978 0.750000 0.000000
O O8 0.500000 0.500000 0.000000
O O9 0.409494 0.449412 0.124013
O O10 0.131795 0.250000 0.500000
O O11 0.089800 0.536015 0.622925
O O12 0.677220 0.428954 0.750000
O O13 0.677221 0.071048 0.750000
O O14 0.414902 0.750000 0.750000
#
# Coordination Sequence:
#
# PCOD8229990 Si02
#       8
#     4   4   8   8   4   4   4   4
#     4  12  22  36  66  82 106 152 200 240 282 342
#     4  10  21  36  57  80 115 154 181 226 287 342
#     4  10  17  29  49  75 102 142 167 209 262 318
#     4  10  23  39  54  85 117 141 188 242 282 334
#     4  10  20  36  58  86  98 148 206 226 288 324
#     4  10  21  36  57  80 115 154 181 226 287 342
#     4   8  17  31  49  72 104 130 177 220 254 322
#     4   8  17  31  49  72 104 130 177 220 254 322
#
# _framework density 20.551238000000001
#
# number of rings (size 3 to 8) (size 9 to 14) (size 15 to 20)
#    0.600    1.600    0.000    3.600    2.800    0.000 
#    0.000    0.000    0.000    7.200    0.000    0.000 
#    0.000    0.000    0.000    0.000    0.000    0.000 
#
# Total GULP energy -495694.042831 kJ/mol
# GULP energy per Si atom -12392.351071 kJ/mol
# Density = 2.050446 g / cm^3
# Si number density = 20.551238 Si / 1000 Ang^3
#
#
#
# Elastic Constant Matrix: (Units=GPa)
#
#
# Indices 1 2 3 4 5 6 
#
# 1 183.1801 20.3487 118.6152 0.0000 0.0000 0.0000
# 2 20.3487 40.0120 19.6809 0.0000 0.0000 0.0000
# 3 118.6152 19.6809 262.3299 0.0000 0.0000 0.0000
# 4 0.0000 0.0000 0.0000 1.1074 0.0000 0.0000
# 5 0.0000 0.0000 0.0000 0.0000 57.2972 0.0000
# 6 0.0000 0.0000 0.0000 0.0000 0.0000 35.1714
#
#
#
# Elastic Compliance Matrix: (Units=1/GPa)
#
#
# Indices 1 2 3 4 5 6 
#
# 1 0.007927 -0.002355 -0.003408 0.000000 0.000000 0.000000
# 2 -0.002355 0.026650 -0.000934 0.000000 0.000000 0.000000
# 3 -0.003408 -0.000934 0.005423 0.000000 0.000000 0.000000
# 4 0.000000 0.000000 0.000000 0.903054 0.000000 0.000000
# 5 0.000000 0.000000 0.000000 0.000000 0.017453 0.000000
# 6 0.000000 0.000000 0.000000 0.000000 0.000000 0.028432
#
#
# Mechanical properties :
#
#
# Convention : Reuss Voigt Hill
#
# Bulk Modulus (GPa) = 37.58654 89.20130 63.39392
# Shear Modulus (GPa) = 4.94461 40.50700 22.72580
#
# Velocity S-wave (km/s) = 1.55281 4.44444 3.32898
# Velocity P-wave (km/s) = 4.64153 8.35679 6.75943
#
# Compressibility (1/GPa) = 0.02660527
#
# Stress axis : x y z
#
# Youngs Moduli (GPa) = 126.14509 37.52353 184.40203
#
# Poissons Ratio (x) = 0.08838 0.62839
# Poissons Ratio (y) = 0.29712 0.17230
# Poissons Ratio (z) = 0.42987 0.03506
#
# Static dielectric constant tensor:
#      x y z
#    x 3.531450 0.000000 0.000000 
#    y 0.000000 5.183890 0.000000 
#    z 0.000000 0.000000 4.564910 
# 
# 
# High freq. dielectric constant tensor:
#      x y z
#    x 1.797120 0.000000 0.000000 
#    y 0.000000 1.766910 0.000000 
#    z 0.000000 0.000000 1.838040 
# 
# From -- ./inp_files/9670.got.cif
#   From: 2010.03.12/outbox.cif.g09.slc.cpg/sg57_5_cif.got.tgz:9670.got - 2010.04.16 15:48:40.
