data_PCOD8229160
_publ_section_title
;
Structure prediction by ZEFSAII (Michael W. Deem and Ramdas Pophale) SiO2 
 PCOD8229160
Probable space group: P C C N
;
_chemical_formula_sum "Si O2"
_cell_formula_units_Z 60
_cell_length_a 10.403601
_cell_length_b 21.229521
_cell_length_c 12.226200
_cell_angle_alpha 90.000000
_cell_angle_beta 90.000000
_cell_angle_gamma 90.000000
_cell_volume 2700.320907
_symmetry_space_group_name_H-M "P C C N"
_symmetry_group_IT_number 56
_symmetry_cell_setting 'orthorhombic'
loop_
_space_group_symop_operation_xyz
x,y,z
1/2-x,1/2-y,z
1/2+x,-y,1/2-z
-x,1/2+y,1/2-z
-x,-y,-z
1/2+x,1/2+y,-z
1/2-x,y,1/2+z
x,1/2-y,1/2+z
loop_
_atom_site_type_symbol
_atom_site_label
_atom_site_fract_x
_atom_site_fract_y
_atom_site_fract_z
Si Si1 0.395356 0.524692 0.084279
Si Si2 0.272429 0.053537 0.762721
Si Si3 0.347537 0.693524 0.816484
Si Si4 0.476852 0.290108 0.591663
Si Si5 0.939032 0.662166 0.150161
Si Si6 0.750000 0.750000 0.280274
Si Si7 0.768410 0.062772 0.602824
Si Si8 0.001672 0.903015 0.278481
O O1 0.358688 0.466143 0.159774
O O2 0.448787 0.582841 0.156094
O O3 0.500000 0.500000 0.000000
O O4 0.267578 0.550101 0.022922
O O5 0.366565 0.094826 0.840225
O O6 0.151625 0.091603 0.714524
O O7 0.206653 0.993992 0.824949
O O8 0.250000 0.750000 0.783941
O O9 0.448429 0.723078 0.906044
O O10 0.425740 0.667024 0.712871
O O11 0.280868 0.632409 0.867847
O O12 0.476160 0.322930 0.474151
O O13 0.331481 0.289311 0.633123
O O14 0.545227 0.333215 0.684828
O O15 0.840506 0.711862 0.199391
O O16 0.920672 0.054212 0.631737
#
# Coordination Sequence:
#
# PCOD8229160 Si02
#       8
#     8   8   8   8   8   4   8   8
#     4  11  24  45  70 100 142 194 229 292 379 433
#     4  11  25  45  71 111 144 177 252 299 363 448
#     4  11  25  49  68 101 148 190 250 295 361 449
#     4  11  24  44  68 104 136 185 239 296 358 432
#     4  11  25  43  76 100 144 188 232 306 369 420
#     4  10  22  44  64 102 138 180 230 294 354 444
#     4  11  25  45  70 102 144 199 236 299 366 438
#     4  11  24  44  69 104 138 179 245 300 350 448
#
# _framework density 22.219581000000002
#
# number of rings (size 3 to 8) (size 9 to 14) (size 15 to 20)
#    0.000    1.067    4.000    1.200    3.733    5.333 
#    4.800    0.000    0.000    0.000    0.000    0.000 
#    0.000    0.000    0.000    0.000    0.000    0.000 
#
# Total GULP energy -743284.641748 kJ/mol
# GULP energy per Si atom -12388.077362 kJ/mol
# Density = 2.216901 g / cm^3
# Si number density = 22.219581 Si / 1000 Ang^3
#
#
#
# Elastic Constant Matrix: (Units=GPa)
#
#
# Indices 1 2 3 4 5 6 
#
# 1 91.1785 28.5475 50.2568 0.0000 0.0000 0.0000
# 2 28.5475 120.4201 54.7890 0.0000 0.0000 0.0000
# 3 50.2568 54.7890 138.1784 0.0000 0.0000 0.0000
# 4 0.0000 0.0000 0.0000 35.4813 0.0000 0.0000
# 5 0.0000 0.0000 0.0000 0.0000 32.4777 0.0000
# 6 0.0000 0.0000 0.0000 0.0000 0.0000 37.7089
#
#
#
# Elastic Compliance Matrix: (Units=1/GPa)
#
#
# Indices 1 2 3 4 5 6 
#
# 1 0.013861 -0.001211 -0.004561 0.000000 0.000000 0.000000
# 2 -0.001211 0.010238 -0.003619 0.000000 0.000000 0.000000
# 3 -0.004561 -0.003619 0.010331 0.000000 0.000000 0.000000
# 4 0.000000 0.000000 0.000000 0.028184 0.000000 0.000000
# 5 0.000000 0.000000 0.000000 0.000000 0.030790 0.000000
# 6 0.000000 0.000000 0.000000 0.000000 0.000000 0.026519
#
#
# Mechanical properties :
#
#
# Convention : Reuss Voigt Hill
#
# Bulk Modulus (GPa) = 63.90744 68.55151 66.22947
# Shear Modulus (GPa) = 34.74142 35.54583 35.14362
#
# Velocity S-wave (km/s) = 3.95846 4.00403 3.98131
# Velocity P-wave (km/s) = 7.05101 7.23154 7.14185
#
# Compressibility (1/GPa) = 0.01564763
#
# Stress axis : x y z
#
# Youngs Moduli (GPa) = 72.14676 97.67646 96.79613
#
# Poissons Ratio (x) = 0.11825 0.44151
# Poissons Ratio (y) = 0.08734 0.35032
# Poissons Ratio (z) = 0.32908 0.35350
#
# Static dielectric constant tensor:
#      x y z
#    x 4.402840 0.000000 0.000000 
#    y 0.000000 4.625600 0.000000 
#    z 0.000000 0.000000 3.875640 
# 
# 
# High freq. dielectric constant tensor:
#      x y z
#    x 1.892460 0.000000 0.000000 
#    y 0.000000 1.882650 0.000000 
#    z 0.000000 0.000000 1.859570 
# 
# From -- ./inp_files/7347.got.cif
#   From: 2010.03.12/outbox.cif.g09.slc.cpg/sg56_4_cif.got.tgz:7347.got - 2010.04.16 15:33:40.
