data_PCOD8229119
_publ_section_title
;
Structure prediction by ZEFSAII (Michael W. Deem and Ramdas Pophale) SiO2 
 PCOD8229119
Probable space group: P C C N
;
_chemical_formula_sum "Si O2"
_cell_formula_units_Z 60
_cell_length_a 8.718683
_cell_length_b 25.039919
_cell_length_c 12.126267
_cell_angle_alpha 90.000000
_cell_angle_beta 90.000000
_cell_angle_gamma 90.000000
_cell_volume 2647.347388
_symmetry_space_group_name_H-M "P C C N"
_symmetry_group_IT_number 56
_symmetry_cell_setting 'orthorhombic'
loop_
_space_group_symop_operation_xyz
x,y,z
1/2-x,1/2-y,z
1/2+x,-y,1/2-z
-x,1/2+y,1/2-z
-x,-y,-z
1/2+x,1/2+y,-z
1/2-x,y,1/2+z
x,1/2-y,1/2+z
loop_
_atom_site_type_symbol
_atom_site_label
_atom_site_fract_x
_atom_site_fract_y
_atom_site_fract_z
Si Si1 0.032169 0.082956 0.243158
Si Si2 0.720088 0.391263 0.814164
Si Si3 0.511834 0.837016 0.845447
Si Si4 0.264512 0.809763 0.017238
Si Si5 0.068793 0.342457 0.548989
Si Si6 0.250000 0.250000 0.628981
Si Si7 0.640697 0.001367 0.419372
Si Si8 0.178678 0.412073 0.981544
O O1 0.846228 0.083518 0.231719
O O2 0.093852 0.132422 0.171136
O O3 0.095963 0.027532 0.195070
O O4 0.085024 0.087318 0.369083
O O5 0.568529 0.366431 0.757359
O O6 0.674175 0.437058 0.899416
O O7 0.816531 0.345225 0.878755
O O8 0.379927 0.807734 0.915199
O O9 0.636546 0.791617 0.804640
O O10 0.587403 0.881527 0.922459
O O11 0.250000 0.750000 0.061912
O O12 0.106605 0.838093 0.982867
O O13 0.141799 0.283799 0.548255
O O14 0.159151 0.380912 0.463071
O O15 0.787078 0.972251 0.476222
O O16 0.500000 0.000000 0.500000
#
# Coordination Sequence:
#
# PCOD8229119 Si02
#       8
#     8   8   8   8   8   4   8   8
#     4  11  24  44  71 104 142 191 244 294 373 443
#     4  12  27  43  73 106 142 192 246 293 369 444
#     4  11  24  46  71 107 149 186 249 298 367 428
#     4  12  24  44  71 102 143 194 239 306 363 430
#     4  10  22  42  68 101 143 184 238 305 354 427
#     4  10  22  42  70 100 138 196 226 302 354 420
#     4  11  28  45  71 104 149 186 236 311 368 431
#     4  10  24  45  73 102 141 187 239 301 366 442
#
# _framework density 22.664197000000001
#
# number of rings (size 3 to 8) (size 9 to 14) (size 15 to 20)
#    0.000    1.067    4.000    1.600    3.733    7.467 
#    0.000    3.333    0.000    0.000    0.000    0.000 
#    0.000    0.000    0.000    0.000    0.000    0.000 
#
# Total GULP energy -743757.028192 kJ/mol
# GULP energy per Si atom -12395.950470 kJ/mol
# Density = 2.261261 g / cm^3
# Si number density = 22.664197 Si / 1000 Ang^3
#
#
#
# Elastic Constant Matrix: (Units=GPa)
#
#
# Indices 1 2 3 4 5 6 
#
# 1 114.0022 35.0241 27.6656 0.0000 0.0000 0.0000
# 2 35.0241 139.0449 43.8405 0.0000 0.0000 0.0000
# 3 27.6656 43.8405 84.7449 0.0000 0.0000 0.0000
# 4 0.0000 0.0000 0.0000 27.0194 0.0000 0.0000
# 5 0.0000 0.0000 0.0000 0.0000 41.6869 0.0000
# 6 0.0000 0.0000 0.0000 0.0000 0.0000 36.0926
#
#
#
# Elastic Compliance Matrix: (Units=1/GPa)
#
#
# Indices 1 2 3 4 5 6 
#
# 1 0.009873 -0.001757 -0.002314 0.000000 0.000000 0.000000
# 2 -0.001757 0.008906 -0.004034 0.000000 0.000000 0.000000
# 3 -0.002314 -0.004034 0.014642 0.000000 0.000000 0.000000
# 4 0.000000 0.000000 0.000000 0.037010 0.000000 0.000000
# 5 0.000000 0.000000 0.000000 0.000000 0.023988 0.000000
# 6 0.000000 0.000000 0.000000 0.000000 0.000000 0.027706
#
#
# Mechanical properties :
#
#
# Convention : Reuss Voigt Hill
#
# Bulk Modulus (GPa) = 58.10048 61.20581 59.65314
# Shear Modulus (GPa) = 34.70415 36.37723 35.54069
#
# Velocity S-wave (km/s) = 3.91734 4.01066 3.96427
# Velocity P-wave (km/s) = 6.79351 6.96500 6.87979
#
# Compressibility (1/GPa) = 0.01721156
#
# Stress axis : x y z
#
# Youngs Moduli (GPa) = 101.28401 112.27850 68.29507
#
# Poissons Ratio (x) = 0.19731 0.15804
# Poissons Ratio (y) = 0.17799 0.27549
# Poissons Ratio (z) = 0.23438 0.45291
#
# Static dielectric constant tensor:
#      x y z
#    x 4.465120 0.000000 0.000000 
#    y 0.000000 4.769900 0.000000 
#    z 0.000000 0.000000 3.957040 
# 
# 
# High freq. dielectric constant tensor:
#      x y z
#    x 1.911760 0.000000 0.000000 
#    y 0.000000 1.907400 0.000000 
#    z 0.000000 0.000000 1.869170 
# 
# From -- ./inp_files/6545.got.cif
#   From: 2010.03.12/outbox.cif.g09.slc.cpg/sg56_4_cif.got.tgz:6545.got - 2010.04.16 15:33:40.
