data_PCOD8229980
_publ_section_title
;
Structure prediction by ZEFSAII (Michael W. Deem and Ramdas Pophale) SiO2 
 PCOD8229980
Probable space group: P B C M
;
_chemical_formula_sum "Si O2"
_cell_formula_units_Z 48
_cell_length_a 11.412507
_cell_length_b 12.433779
_cell_length_c 19.146575
_cell_angle_alpha 90.000000
_cell_angle_beta 90.000000
_cell_angle_gamma 90.000000
_cell_volume 2716.910287
_symmetry_space_group_name_H-M "P B C M"
_symmetry_group_IT_number 57
_symmetry_cell_setting 'orthorhombic'
loop_
_space_group_symop_operation_xyz
x,y,z
-x,-y,1/2+z
x,1/2-y,-z
-x,1/2+y,1/2-z
-x,-y,-z
x,y,1/2-z
-x,1/2+y,z
x,1/2-y,1/2+z
loop_
_atom_site_type_symbol
_atom_site_label
_atom_site_fract_x
_atom_site_fract_y
_atom_site_fract_z
Si Si1 0.425325 0.352262 0.038015
Si Si2 0.178508 0.437629 0.829400
Si Si3 0.652108 0.032318 0.935673
Si Si4 0.971102 0.973138 0.397116
Si Si5 0.811993 0.724911 0.918644
Si Si6 0.860438 0.373739 0.993659
O O1 0.525395 0.415312 0.080602
O O2 0.322420 0.314038 0.089994
O O3 0.483612 0.250000 0.000000
O O4 0.364276 0.422061 0.977448
O O5 0.214176 0.413837 0.750000
O O6 0.281913 0.510516 0.862845
O O7 0.164405 0.328700 0.872713
O O8 0.051138 0.496967 0.830043
O O9 0.724216 0.113788 0.985802
O O10 0.893093 0.867907 0.385926
O O11 0.068638 0.951518 0.455525
O O12 0.889062 0.076390 0.417232
O O13 0.842149 0.750000 0.000000
O O14 0.899868 0.250000 0.000000
#
# Coordination Sequence:
#
# PCOD8229980 Si02
#       6
#     8   8   8   8   8   8
#     4  10  18  32  58  86 108 134 183 242 274 322
#     4  11  23  37  54  78 115 153 187 231 287 348
#     4  10  19  33  53  83 112 138 180 230 286 325
#     4  10  19  31  50  76 108 145 180 222 273 329
#     4  11  18  36  59  85 109 143 193 239 280 331
#     4  10  17  28  49  81 108 136 173 224 276 326
#
# _framework density 17.667128000000002
#
# number of rings (size 3 to 8) (size 9 to 14) (size 15 to 20)
#    0.000    1.667    5.000    4.000    0.000    0.667 
#    0.000    0.833    0.000    0.000    0.000    0.000 
#    0.000    0.000    0.000    0.000    0.000    0.000 
#
# Total GULP energy -594941.815928 kJ/mol
# GULP energy per Si atom -12394.621165 kJ/mol
# Density = 1.762692 g / cm^3
# Si number density = 17.667128 Si / 1000 Ang^3
#
#
#
# Elastic Constant Matrix: (Units=GPa)
#
#
# Indices 1 2 3 4 5 6 
#
# 1 100.2346 39.6132 35.8838 0.0000 0.0000 0.0000
# 2 39.6132 100.7588 29.5028 0.0000 0.0000 0.0000
# 3 35.8838 29.5028 82.2141 0.0000 0.0000 0.0000
# 4 0.0000 0.0000 0.0000 15.2599 0.0000 0.0000
# 5 0.0000 0.0000 0.0000 0.0000 14.4447 0.0000
# 6 0.0000 0.0000 0.0000 0.0000 0.0000 32.4800
#
#
#
# Elastic Compliance Matrix: (Units=1/GPa)
#
#
# Indices 1 2 3 4 5 6 
#
# 1 0.013047 -0.003869 -0.004306 0.000000 0.000000 0.000000
# 2 -0.003869 0.012237 -0.002703 0.000000 0.000000 0.000000
# 3 -0.004306 -0.002703 0.015013 0.000000 0.000000 0.000000
# 4 0.000000 0.000000 0.000000 0.065531 0.000000 0.000000
# 5 0.000000 0.000000 0.000000 0.000000 0.069230 0.000000
# 6 0.000000 0.000000 0.000000 0.000000 0.000000 0.030788
#
#
# Mechanical properties :
#
#
# Convention : Reuss Voigt Hill
#
# Bulk Modulus (GPa) = 53.93299 54.80079 54.36689
# Shear Modulus (GPa) = 21.38744 24.31743 22.85243
#
# Velocity S-wave (km/s) = 3.48311 3.71404 3.60043
# Velocity P-wave (km/s) = 6.83883 7.03406 6.93713
#
# Compressibility (1/GPa) = 0.01854153
#
# Stress axis : x y z
#
# Youngs Moduli (GPa) = 76.64512 81.71942 66.60944
#
# Poissons Ratio (x) = 0.31613 0.28685
# Poissons Ratio (y) = 0.29650 0.18003
# Poissons Ratio (z) = 0.33007 0.22087
#
# Static dielectric constant tensor:
#      x y z
#    x 3.473700 0.000000 0.000000 
#    y 0.000000 3.333760 0.000000 
#    z 0.000000 0.000000 2.919130 
# 
# 
# High freq. dielectric constant tensor:
#      x y z
#    x 1.696280 0.000000 0.000000 
#    y 0.000000 1.698940 0.000000 
#    z 0.000000 0.000000 1.618190 
# 
# From -- ./inp_files/24949.got.cif
#   From: 2010.03.12/outbox.cif.g09.slc.cpg/sg57_13_cif.got.tgz:24949.got - 2010.04.16 15:48:40.
