data_PCOD8229769
_publ_section_title
;
Structure prediction by ZEFSAII (Michael W. Deem and Ramdas Pophale) SiO2 
 PCOD8229769
Probable space group: P C C N
;
_chemical_formula_sum "Si O2"
_cell_formula_units_Z 40
_cell_length_a 8.101920
_cell_length_b 10.411982
_cell_length_c 20.309206
_cell_angle_alpha 90.000000
_cell_angle_beta 90.000000
_cell_angle_gamma 90.000000
_cell_volume 1713.224609
_symmetry_space_group_name_H-M "P C C N"
_symmetry_group_IT_number 56
_symmetry_cell_setting 'orthorhombic'
loop_
_space_group_symop_operation_xyz
x,y,z
1/2-x,1/2-y,z
1/2+x,-y,1/2-z
-x,1/2+y,1/2-z
-x,-y,-z
1/2+x,1/2+y,-z
1/2-x,y,1/2+z
x,1/2-y,1/2+z
loop_
_atom_site_type_symbol
_atom_site_label
_atom_site_fract_x
_atom_site_fract_y
_atom_site_fract_z
Si Si1 0.078871 0.308902 0.820374
Si Si2 0.750000 0.750000 0.435718
Si Si3 0.250000 0.750000 0.106613
Si Si4 0.697069 0.483920 0.991127
Si Si5 0.697967 0.434789 0.634125
Si Si6 0.994582 0.189451 0.173109
O O1 0.250000 0.250000 0.848642
O O2 0.075836 0.453253 0.845482
O O3 0.090049 0.307496 0.741577
O O4 0.913086 0.243152 0.847529
O O5 0.712148 0.623190 0.479673
O O6 0.610188 0.808445 0.389857
O O7 0.256940 0.619268 0.064810
O O8 0.500000 0.500000 0.000000
O O9 0.781709 0.426014 0.055881
O O10 0.618756 0.311592 0.666132
O O11 0.881804 0.440154 0.667293
#
# Coordination Sequence:
#
# PCOD8229769 Si02
#       6
#     8   4   4   8   8   8
#     4  12  28  47  78 111 151 198 261 319 384 463
#     4  12  26  44  76 110 146 202 250 314 386 458
#     4  12  28  50  78 114 154 206 256 320 388 462
#     4  12  27  48  77 112 159 199 262 320 388 467
#     4  11  26  47  74 108 148 197 251 314 381 455
#     4  11  25  48  73 106 150 200 250 312 388 455
#
# _framework density 23.347787
#
# number of rings (size 3 to 8) (size 9 to 14) (size 15 to 20)
#    0.000    0.400    3.000    4.800    7.000    3.200 
#    0.000    0.000    0.000    0.000    0.000    0.000 
#    0.000    0.000    0.000    0.000    0.000    0.000 
#
# Total GULP energy -495728.104780 kJ/mol
# GULP energy per Si atom -12393.202619 kJ/mol
# Density = 2.329465 g / cm^3
# Si number density = 23.347787 Si / 1000 Ang^3
#
#
#
# Elastic Constant Matrix: (Units=GPa)
#
#
# Indices 1 2 3 4 5 6 
#
# 1 106.3856 8.7432 25.2653 0.0000 0.0000 0.0000
# 2 8.7432 83.3996 15.1537 0.0000 0.0000 0.0000
# 3 25.2653 15.1537 93.7229 0.0000 0.0000 0.0000
# 4 0.0000 0.0000 0.0000 36.8916 0.0000 0.0000
# 5 0.0000 0.0000 0.0000 0.0000 49.0285 0.0000
# 6 0.0000 0.0000 0.0000 0.0000 0.0000 33.4173
#
#
#
# Elastic Compliance Matrix: (Units=1/GPa)
#
#
# Indices 1 2 3 4 5 6 
#
# 1 0.010070 -0.000579 -0.002621 0.000000 0.000000 0.000000
# 2 -0.000579 0.012387 -0.001847 0.000000 0.000000 0.000000
# 3 -0.002621 -0.001847 0.011675 0.000000 0.000000 0.000000
# 4 0.000000 0.000000 0.000000 0.027106 0.000000 0.000000
# 5 0.000000 0.000000 0.000000 0.000000 0.020396 0.000000
# 6 0.000000 0.000000 0.000000 0.000000 0.000000 0.029925
#
#
# Mechanical properties :
#
#
# Convention : Reuss Voigt Hill
#
# Bulk Modulus (GPa) = 41.60149 42.42583 42.01366
# Shear Modulus (GPa) = 38.56090 39.49055 39.02572
#
# Velocity S-wave (km/s) = 4.06838 4.11713 4.09283
# Velocity P-wave (km/s) = 6.31869 6.38840 6.35364
#
# Compressibility (1/GPa) = 0.02403760
#
# Stress axis : x y z
#
# Youngs Moduli (GPa) = 99.30669 80.73158 85.65438
#
# Poissons Ratio (x) = 0.04678 0.22449
# Poissons Ratio (y) = 0.05754 0.15817
# Poissons Ratio (z) = 0.26027 0.14908
#
# Static dielectric constant tensor:
#      x y z
#    x 8.701900 0.000000 0.000000 
#    y 0.000000 15.406740 0.000000 
#    z 0.000000 0.000000 4.186260 
# 
# 
# High freq. dielectric constant tensor:
#      x y z
#    x 1.935380 0.000000 0.000000 
#    y 0.000000 1.928100 0.000000 
#    z 0.000000 0.000000 1.929690 
# 
# From -- ./inp_files/14512.got.cif
#   From: 2010.03.12/outbox.cif.g09.slc.cpg/sg56_8_cif.got.tgz:14512.got - 2010.04.16 15:33:40.
