data_PCOD8229387
_publ_section_title
;
Structure prediction by ZEFSAII (Michael W. Deem and Ramdas Pophale) SiO2 
 PCOD8229387
Probable space group: P C C N
;
_chemical_formula_sum "Si O2"
_cell_formula_units_Z 48
_cell_length_a 18.228079
_cell_length_b 9.778143
_cell_length_c 12.025528
_cell_angle_alpha 90.000000
_cell_angle_beta 90.000000
_cell_angle_gamma 90.000000
_cell_volume 2143.391185
_symmetry_space_group_name_H-M "P C C N"
_symmetry_group_IT_number 56
_symmetry_cell_setting 'orthorhombic'
loop_
_space_group_symop_operation_xyz
x,y,z
1/2-x,1/2-y,z
1/2+x,-y,1/2-z
-x,1/2+y,1/2-z
-x,-y,-z
1/2+x,1/2+y,-z
1/2-x,y,1/2+z
x,1/2-y,1/2+z
loop_
_atom_site_type_symbol
_atom_site_label
_atom_site_fract_x
_atom_site_fract_y
_atom_site_fract_z
Si Si1 0.135460 0.432276 0.275087
Si Si2 0.040186 0.697517 0.513447
Si Si3 0.513031 0.960646 0.314582
Si Si4 0.712969 0.604930 0.453535
Si Si5 0.195720 0.632307 0.451802
Si Si6 0.089165 0.160003 0.383378
O O1 0.183022 0.387301 0.170981
O O2 0.175784 0.552716 0.340139
O O3 0.125632 0.306499 0.359794
O O4 0.055247 0.487168 0.240081
O O5 0.036894 0.572510 0.597931
O O6 0.127585 0.717547 0.504645
O O7 0.008552 0.669914 0.389790
O O8 0.992074 0.822951 0.561217
O O9 0.579221 0.922597 0.231791
O O10 0.750000 0.750000 0.481344
O O11 0.769609 0.478603 0.462729
O O12 0.644760 0.578367 0.537361
O O13 0.250000 0.750000 0.415331
#
# Coordination Sequence:
#
# PCOD8229387 Si02
#       6
#     8   8   8   8   8   8
#     4  10  24  44  65 104 137 180 238 284 354 421
#     4   9  21  44  68  95 140 183 228 283 354 411
#     4   9  20  40  70  97 132 178 229 288 342 413
#     4  12  27  43  73 106 140 181 238 299 353 424
#     4  11  26  48  68  99 146 191 228 287 365 431
#     4  11  22  43  72 104 132 184 237 300 342 421
#
# _framework density 22.39442
#
# number of rings (size 3 to 8) (size 9 to 14) (size 15 to 20)
#    0.000    1.667    1.667    2.000    7.000    1.333 
#   15.000    0.000    0.000    0.000    0.000    0.000 
#    0.000    0.000    0.000    0.000    0.000    0.000 
#
# Total GULP energy -595008.435528 kJ/mol
# GULP energy per Si atom -12396.009074 kJ/mol
# Density = 2.234345 g / cm^3
# Si number density = 22.394420 Si / 1000 Ang^3
#
#
#
# Elastic Constant Matrix: (Units=GPa)
#
#
# Indices 1 2 3 4 5 6 
#
# 1 124.2117 22.8354 52.2028 0.0000 0.0000 0.0000
# 2 22.8354 47.4125 8.4019 0.0000 0.0000 0.0000
# 3 52.2028 8.4019 89.7841 0.0000 0.0000 0.0000
# 4 0.0000 0.0000 0.0000 22.7408 0.0000 0.0000
# 5 0.0000 0.0000 0.0000 0.0000 40.4933 0.0000
# 6 0.0000 0.0000 0.0000 0.0000 0.0000 28.0605
#
#
#
# Elastic Compliance Matrix: (Units=1/GPa)
#
#
# Indices 1 2 3 4 5 6 
#
# 1 0.011501 -0.004428 -0.006273 0.000000 0.000000 0.000000
# 2 -0.004428 0.023152 0.000408 0.000000 0.000000 0.000000
# 3 -0.006273 0.000408 0.014747 0.000000 0.000000 0.000000
# 4 0.000000 0.000000 0.000000 0.043974 0.000000 0.000000
# 5 0.000000 0.000000 0.000000 0.000000 0.024695 0.000000
# 6 0.000000 0.000000 0.000000 0.000000 0.000000 0.035637
#
#
# Mechanical properties :
#
#
# Convention : Reuss Voigt Hill
#
# Bulk Modulus (GPa) = 34.70469 47.58760 41.14614
# Shear Modulus (GPa) = 27.18930 30.12346 28.65638
#
# Velocity S-wave (km/s) = 3.48819 3.67158 3.58106
# Velocity P-wave (km/s) = 5.63506 6.26657 5.95919
#
# Compressibility (1/GPa) = 0.02881455
#
# Stress axis : x y z
#
# Youngs Moduli (GPa) = 86.94898 43.19326 67.81158
#
# Poissons Ratio (x) = 0.19125 0.42536
# Poissons Ratio (y) = 0.38498 -0.02766
# Poissons Ratio (z) = 0.54540 -0.01762
#
# Static dielectric constant tensor:
#      x y z
#    x 4.378360 0.000000 0.000000 
#    y 0.000000 3.796430 0.000000 
#    z 0.000000 0.000000 3.861950 
# 
# 
# High freq. dielectric constant tensor:
#      x y z
#    x 1.892920 0.000000 0.000000 
#    y 0.000000 1.866190 0.000000 
#    z 0.000000 0.000000 1.878320 
# 
# From -- ./inp_files/7159.got.cif
#   From: 2010.03.12/outbox.cif.g09.slc.cpg/sg56_4_cif.got.tgz:7159.got - 2010.04.16 15:33:40.
