data_PCOD8229949
_publ_section_title
;
Structure prediction by ZEFSAII (Michael W. Deem and Ramdas Pophale) SiO2 
 PCOD8229949
Probable space group: P B C M
;
_chemical_formula_sum "Si O2"
_cell_formula_units_Z 64
_cell_length_a 20.392760
_cell_length_b 22.793259
_cell_length_c 8.935554
_cell_angle_alpha 90.000000
_cell_angle_beta 90.000000
_cell_angle_gamma 90.000000
_cell_volume 4153.401518
_symmetry_space_group_name_H-M "P B C M"
_symmetry_group_IT_number 57
_symmetry_cell_setting 'orthorhombic'
loop_
_space_group_symop_operation_xyz
x,y,z
-x,-y,1/2+z
x,1/2-y,-z
-x,1/2+y,1/2-z
-x,-y,-z
x,y,1/2-z
-x,1/2+y,z
x,1/2-y,1/2+z
loop_
_atom_site_type_symbol
_atom_site_label
_atom_site_fract_x
_atom_site_fract_y
_atom_site_fract_z
Si Si1 0.390089 0.596453 0.575515
Si Si2 0.473569 0.441530 0.074446
Si Si3 0.349024 0.468589 0.572753
Si Si4 0.714264 0.187113 0.573482
Si Si5 0.909985 0.548130 0.420255
Si Si6 0.184126 0.608854 0.080358
Si Si7 0.950671 0.066211 0.079016
Si Si8 0.215794 0.473562 0.422983
O O1 0.375329 0.593703 0.750000
O O2 0.468169 0.606238 0.545203
O O3 0.364629 0.534160 0.510857
O O4 0.347678 0.649920 0.508355
O O5 0.462632 0.451261 0.250000
O O6 0.500000 0.500000 0.000000
O O7 0.404519 0.424728 0.996517
O O8 0.351970 0.463513 0.750000
O O9 0.278017 0.449556 0.514227
O O10 0.712052 0.250000 0.500000
O O11 0.711264 0.195034 0.750000
O O12 0.780958 0.153479 0.531566
O O13 0.885205 0.550281 0.250000
O O14 0.936554 0.483463 0.457098
O O15 0.847951 0.563892 0.524522
O O16 0.974418 0.590282 0.444127
O O17 0.204832 0.624203 0.250000
O O18 0.105196 0.616192 0.058387
O O19 0.204128 0.542028 0.041557
O O20 0.943605 0.041041 0.250000
O O21 0.228105 0.461427 0.250000
#
# Coordination Sequence:
#
# PCOD8229949 Si02
#       8
#     8   8   8   8   8   8   8   8
#     4   8  16  29  43  56  76 101 131 167 206 247
#     4   9  16  27  41  59  78 102 131 165 203 244
#     4  10  17  27  41  60  81 106 136 168 202 245
#     4  11  21  33  45  60  79 104 137 176 214 250
#     4   9  15  23  36  54  76 104 133 164 197 233
#     4   9  17  29  42  57  75 101 135 172 209 243
#     4   8  15  26  38  53  75 100 132 167 200 237
#     4  10  18  26  38  57  82 109 137 169 200 238
#
# _framework density 15.409057000000001
#
# number of rings (size 3 to 8) (size 9 to 14) (size 15 to 20)
#    0.000    2.750    1.250    3.375    0.000    2.500 
#    0.000    1.875    0.000    0.000    0.000    0.000 
#    0.000    0.000    0.000    1.125    0.000   19.500 
#
# Total GULP energy -792884.850512 kJ/mol
# GULP energy per Si atom -12388.825789 kJ/mol
# Density = 1.537399 g / cm^3
# Si number density = 15.409057 Si / 1000 Ang^3
#
#
#
# Elastic Constant Matrix: (Units=GPa)
#
#
# Indices 1 2 3 4 5 6 
#
# 1 152.8621 31.4837 48.7210 0.0000 0.0000 0.0000
# 2 31.4837 31.8673 17.5431 0.0000 0.0000 0.0000
# 3 48.7210 17.5431 72.1331 0.0000 0.0000 0.0000
# 4 0.0000 0.0000 0.0000 10.9902 0.0000 0.0000
# 5 0.0000 0.0000 0.0000 0.0000 29.3447 0.0000
# 6 0.0000 0.0000 0.0000 0.0000 0.0000 10.0058
#
#
#
# Elastic Compliance Matrix: (Units=1/GPa)
#
#
# Indices 1 2 3 4 5 6 
#
# 1 0.009435 -0.006712 -0.004740 0.000000 0.000000 0.000000
# 2 -0.006712 0.041006 -0.005439 0.000000 0.000000 0.000000
# 3 -0.004740 -0.005439 0.018388 0.000000 0.000000 0.000000
# 4 0.000000 0.000000 0.000000 0.090990 0.000000 0.000000
# 5 0.000000 0.000000 0.000000 0.000000 0.034078 0.000000
# 6 0.000000 0.000000 0.000000 0.000000 0.000000 0.099942
#
#
# Mechanical properties :
#
#
# Convention : Reuss Voigt Hill
#
# Bulk Modulus (GPa) = 28.53442 50.26201 39.39822
# Shear Modulus (GPa) = 14.73608 20.67579 17.70594
#
# Velocity S-wave (km/s) = 3.09581 3.66703 3.39346
# Velocity P-wave (km/s) = 5.59793 7.11468 6.40139
#
# Compressibility (1/GPa) = 0.03504539
#
# Stress axis : x y z
#
# Youngs Moduli (GPa) = 105.98687 24.38689 54.38347
#
# Poissons Ratio (x) = 0.16368 0.25780
# Poissons Ratio (y) = 0.71138 0.29581
# Poissons Ratio (z) = 0.50242 0.13265
#
# Static dielectric constant tensor:
#      x y z
#    x 3.529970 0.000000 0.000000 
#    y 0.000000 2.423510 0.000000 
#    z 0.000000 0.000000 2.978790 
# 
# 
# High freq. dielectric constant tensor:
#      x y z
#    x 1.616440 0.000000 0.000000 
#    y 0.000000 1.497580 0.000000 
#    z 0.000000 0.000000 1.598520 
# 
# From -- ./inp_files/8768.got.cif
#   From: 2010.03.12/outbox.cif.g09.slc.cpg/sg57_5_cif.got.tgz:8768.got - 2010.04.16 15:48:40.
