data_PCOD8229713
_publ_section_title
;
Structure prediction by ZEFSAII (Michael W. Deem and Ramdas Pophale) SiO2 
 PCOD8229713
Probable space group: P C C N
;
_chemical_formula_sum "Si O2"
_cell_formula_units_Z 32
_cell_length_a 18.682590
_cell_length_b 8.656565
_cell_length_c 9.306594
_cell_angle_alpha 90.000000
_cell_angle_beta 90.000000
_cell_angle_gamma 90.000000
_cell_volume 1505.128037
_symmetry_space_group_name_H-M "P C C N"
_symmetry_group_IT_number 56
_symmetry_cell_setting 'orthorhombic'
loop_
_space_group_symop_operation_xyz
x,y,z
1/2-x,1/2-y,z
1/2+x,-y,1/2-z
-x,1/2+y,1/2-z
-x,-y,-z
1/2+x,1/2+y,-z
1/2-x,y,1/2+z
x,1/2-y,1/2+z
loop_
_atom_site_type_symbol
_atom_site_label
_atom_site_fract_x
_atom_site_fract_y
_atom_site_fract_z
Si Si1 0.052735 0.926383 0.112286
Si Si2 0.809945 0.580116 0.463296
Si Si3 0.172932 0.393130 0.201371
Si Si4 0.027089 0.932650 0.645410
O O1 0.035598 0.749356 0.139507
O O2 0.134144 0.941166 0.058322
O O3 0.039500 0.026033 0.253830
O O4 0.000000 0.000000 0.000000
O O5 0.734606 0.524159 0.394831
O O6 0.838535 0.726417 0.371736
O O7 0.802287 0.621967 0.632137
O O8 0.100735 0.491061 0.197370
O O9 0.000000 0.000000 0.500000
#
# Coordination Sequence:
#
# PCOD8229713 Si02
#       4
#     8   8   8   8
#     4  12  25  47  66 103 134 177 224 279 335 404
#     4  11  24  43  70  98 141 174 230 271 343 404
#     4  11  24  44  68 103 134 183 220 279 337 406
#     4  12  27  43  72  99 139 176 224 279 339 397
#
# _framework density 21.260649000000001
#
# number of rings (size 3 to 8) (size 9 to 14) (size 15 to 20)
#    0.000    0.500    2.500    7.500    7.000    1.000 
#    0.000    2.500    0.000    0.000    0.000    0.000 
#    0.000    0.000    0.000    0.000    0.000    0.000 
#
# Total GULP energy -396698.249187 kJ/mol
# GULP energy per Si atom -12396.820287 kJ/mol
# Density = 2.121226 g / cm^3
# Si number density = 21.260649 Si / 1000 Ang^3
#
#
#
# Elastic Constant Matrix: (Units=GPa)
#
#
# Indices 1 2 3 4 5 6 
#
# 1 103.4374 19.4662 33.0867 0.0000 0.0000 0.0000
# 2 19.4662 101.5071 31.1005 0.0000 0.0000 0.0000
# 3 33.0867 31.1005 185.6045 0.0000 0.0000 0.0000
# 4 0.0000 0.0000 0.0000 29.8701 0.0000 0.0000
# 5 0.0000 0.0000 0.0000 0.0000 43.4128 0.0000
# 6 0.0000 0.0000 0.0000 0.0000 0.0000 42.9525
#
#
#
# Elastic Compliance Matrix: (Units=1/GPa)
#
#
# Indices 1 2 3 4 5 6 
#
# 1 0.010468 -0.001513 -0.001613 0.000000 0.000000 0.000000
# 2 -0.001513 0.010603 -0.001507 0.000000 0.000000 0.000000
# 3 -0.001613 -0.001507 0.005928 0.000000 0.000000 0.000000
# 4 0.000000 0.000000 0.000000 0.033478 0.000000 0.000000
# 5 0.000000 0.000000 0.000000 0.000000 0.023035 0.000000
# 6 0.000000 0.000000 0.000000 0.000000 0.000000 0.023282
#
#
# Mechanical properties :
#
#
# Convention : Reuss Voigt Hill
#
# Bulk Modulus (GPa) = 56.38998 61.98400 59.18699
# Shear Modulus (GPa) = 40.99328 43.70679 42.35003
#
# Velocity S-wave (km/s) = 4.39581 4.53897 4.46796
# Velocity P-wave (km/s) = 7.23498 7.52909 7.38350
#
# Compressibility (1/GPa) = 0.01773365
#
# Stress axis : x y z
#
# Youngs Moduli (GPa) = 95.52644 94.30869 168.69761
#
# Poissons Ratio (x) = 0.14273 0.27203
# Poissons Ratio (y) = 0.14458 0.25422
# Poissons Ratio (z) = 0.15404 0.14212
#
# Static dielectric constant tensor:
#      x y z
#    x 3.935280 0.000000 0.000000 
#    y 0.000000 3.804770 0.000000 
#    z 0.000000 0.000000 4.356240 
# 
# 
# High freq. dielectric constant tensor:
#      x y z
#    x 1.848610 0.000000 0.000000 
#    y 0.000000 1.819930 0.000000 
#    z 0.000000 0.000000 1.862080 
# 
# From -- ./inp_files/1916.got.cif
#   From: 2010.03.12/outbox.cif.g09.slc.cpg/sg56_1_cif.got.tgz:1916.got - 2010.04.16 15:33:40.
