data_PCOD8229033
_publ_section_title
;
Structure prediction by ZEFSAII (Michael W. Deem and Ramdas Pophale) SiO2 
 PCOD8229033
Probable space group: P C C N
;
_chemical_formula_sum "Si O2"
_cell_formula_units_Z 56
_cell_length_a 12.911513
_cell_length_b 14.769769
_cell_length_c 13.915400
_cell_angle_alpha 90.000000
_cell_angle_beta 90.000000
_cell_angle_gamma 90.000000
_cell_volume 2653.667677
_symmetry_space_group_name_H-M "P C C N"
_symmetry_group_IT_number 56
_symmetry_cell_setting 'orthorhombic'
loop_
_space_group_symop_operation_xyz
x,y,z
1/2-x,1/2-y,z
1/2+x,-y,1/2-z
-x,1/2+y,1/2-z
-x,-y,-z
1/2+x,1/2+y,-z
1/2-x,y,1/2+z
x,1/2-y,1/2+z
loop_
_atom_site_type_symbol
_atom_site_label
_atom_site_fract_x
_atom_site_fract_y
_atom_site_fract_z
Si Si1 0.313598 0.922248 0.660975
Si Si2 0.546997 0.728241 0.434149
Si Si3 0.640250 0.789149 0.131492
Si Si4 0.122823 0.945259 0.794006
Si Si5 0.331449 0.674832 0.963141
Si Si6 0.895131 0.886424 0.811574
Si Si7 0.974184 0.866238 0.242326
O O1 0.201783 0.917891 0.710266
O O2 0.301908 0.862733 0.566720
O O3 0.404053 0.881409 0.726814
O O4 0.346674 0.025610 0.638068
O O5 0.592674 0.680906 0.529406
O O6 0.442554 0.778524 0.464165
O O7 0.622472 0.804794 0.387317
O O8 0.534984 0.648210 0.356737
O O9 0.750000 0.750000 0.104650
O O10 0.659987 0.870276 0.207967
O O11 0.562099 0.719977 0.182686
O O12 0.172728 0.913017 0.894251
O O13 0.015684 0.891750 0.781961
O O14 0.098253 0.051744 0.793010
O O15 0.250000 0.750000 0.928657
#
# Coordination Sequence:
#
# PCOD8229033 Si02
#       7
#     8   8   8   8   8   8   8
#     4  11  22  41  66  92 130 175 213 265 331 387
#     4  10  22  40  64  94 124 166 216 268 323 389
#     4  11  22  38  62  90 126 167 216 271 328 385
#     4  10  23  41  63  95 130 172 212 269 324 397
#     4  11  24  39  68  97 128 167 222 267 327 396
#     4   9  23  41  60  92 130 166 219 270 319 392
#     4  10  22  42  64  92 132 168 214 275 326 390
#
# _framework density 21.102868000000001
#
# number of rings (size 3 to 8) (size 9 to 14) (size 15 to 20)
#    0.000    1.714    1.429    1.714    4.000    6.857 
#    2.571    1.429    0.000    0.000    0.000    0.000 
#    0.000    0.000    0.000    0.000    0.000    0.000 
#
# Total GULP energy -694301.761097 kJ/mol
# GULP energy per Si atom -12398.245734 kJ/mol
# Density = 2.105484 g / cm^3
# Si number density = 21.102868 Si / 1000 Ang^3
#
#
#
# Elastic Constant Matrix: (Units=GPa)
#
#
# Indices 1 2 3 4 5 6 
#
# 1 64.8564 1.7845 18.2837 0.0000 0.0000 0.0000
# 2 1.7845 70.6284 21.9153 0.0000 0.0000 0.0000
# 3 18.2837 21.9153 115.0674 0.0000 0.0000 0.0000
# 4 0.0000 0.0000 0.0000 35.5925 0.0000 0.0000
# 5 0.0000 0.0000 0.0000 0.0000 16.4587 0.0000
# 6 0.0000 0.0000 0.0000 0.0000 0.0000 25.9218
#
#
#
# Elastic Compliance Matrix: (Units=1/GPa)
#
#
# Indices 1 2 3 4 5 6 
#
# 1 0.016153 0.000413 -0.002645 0.000000 0.000000 0.000000
# 2 0.000413 0.015058 -0.002934 0.000000 0.000000 0.000000
# 3 -0.002645 -0.002934 0.009670 0.000000 0.000000 0.000000
# 4 0.000000 0.000000 0.000000 0.028096 0.000000 0.000000
# 5 0.000000 0.000000 0.000000 0.000000 0.060758 0.000000
# 6 0.000000 0.000000 0.000000 0.000000 0.000000 0.038578
#
#
# Mechanical properties :
#
#
# Convention : Reuss Voigt Hill
#
# Bulk Modulus (GPa) = 32.73449 37.16881 34.95165
# Shear Modulus (GPa) = 26.47913 29.49916 27.98914
#
# Velocity S-wave (km/s) = 3.54611 3.74287 3.64582
# Velocity P-wave (km/s) = 5.68437 6.02745 5.85842
#
# Compressibility (1/GPa) = 0.03054882
#
# Stress axis : x y z
#
# Youngs Moduli (GPa) = 61.90783 66.40798 103.41703
#
# Poissons Ratio (x) = -0.02740 0.27356
# Poissons Ratio (y) = -0.02555 0.30338
# Poissons Ratio (z) = 0.16376 0.19481
#
# Static dielectric constant tensor:
#      x y z
#    x 3.814730 0.000000 0.000000 
#    y 0.000000 3.897310 0.000000 
#    z 0.000000 0.000000 3.887270 
# 
# 
# High freq. dielectric constant tensor:
#      x y z
#    x 1.832640 0.000000 0.000000 
#    y 0.000000 1.820550 0.000000 
#    z 0.000000 0.000000 1.828600 
# 
# From -- ./inp_files/11662.got.cif
#   From: 2010.03.12/outbox.cif.g09.slc.cpg/sg56_6_cif.got.tgz:11662.got - 2010.04.16 15:33:40.
