data_PCOD8229653
_publ_section_title
;
Structure prediction by ZEFSAII (Michael W. Deem and Ramdas Pophale) SiO2 
 PCOD8229653
Probable space group: P C C N
;
_chemical_formula_sum "Si O2"
_cell_formula_units_Z 64
_cell_length_a 17.642913
_cell_length_b 6.404311
_cell_length_c 26.627169
_cell_angle_alpha 90.000000
_cell_angle_beta 90.000000
_cell_angle_gamma 90.000000
_cell_volume 3008.622512
_symmetry_space_group_name_H-M "P C C N"
_symmetry_group_IT_number 56
_symmetry_cell_setting 'orthorhombic'
loop_
_space_group_symop_operation_xyz
x,y,z
1/2-x,1/2-y,z
1/2+x,-y,1/2-z
-x,1/2+y,1/2-z
-x,-y,-z
1/2+x,1/2+y,-z
1/2-x,y,1/2+z
x,1/2-y,1/2+z
loop_
_atom_site_type_symbol
_atom_site_label
_atom_site_fract_x
_atom_site_fract_y
_atom_site_fract_z
Si Si1 0.326007 0.851942 0.044182
Si Si2 0.927791 0.639232 0.014188
Si Si3 0.438994 0.059308 0.795613
Si Si4 0.825378 0.652823 0.867255
Si Si5 0.336956 0.679350 0.822035
Si Si6 0.067473 0.365649 0.383442
Si Si7 0.923927 0.963164 0.930939
Si Si8 0.899555 0.579736 0.766092
O O1 0.250000 0.750000 0.022042
O O2 0.392723 0.691420 0.056645
O O3 0.303567 0.968316 0.095183
O O4 0.353019 0.014045 0.002058
O O5 0.914041 0.701866 0.071986
O O6 0.937184 0.853345 0.984024
O O7 0.000000 0.500000 0.000000
O O8 0.463582 0.229642 0.837149
O O9 0.388542 0.183649 0.754286
O O10 0.390041 0.883170 0.823490
O O11 0.511100 0.971730 0.765611
O O12 0.750000 0.750000 0.843395
O O13 0.868182 0.834049 0.896371
O O14 0.874401 0.556050 0.823134
O O15 0.250000 0.750000 0.830150
O O16 0.361941 0.512743 0.865483
O O17 0.349464 0.577009 0.767392
O O18 0.002155 0.522196 0.400964
#
# Coordination Sequence:
#
# PCOD8229653 Si02
#       8
#     8   8   8   8   8   8   8   8
#     4  11  23  43  65 101 146 175 219 288 350 409
#     4  11  25  42  72 102 131 177 237 284 340 417
#     4  11  24  45  70  97 133 176 238 274 338 407
#     4  11  24  38  65 104 138 174 218 276 349 413
#     4  11  27  47  69  97 144 181 229 293 338 403
#     4  11  25  44  73  98 131 182 235 282 341 408
#     4  11  23  42  71  99 138 174 226 279 345 407
#     4  11  24  41  68 102 131 184 227 280 337 411
#
# _framework density 21.272195
#
# number of rings (size 3 to 8) (size 9 to 14) (size 15 to 20)
#    0.000    1.000    3.750    1.875    7.000    3.000 
#    0.000    3.750    0.000    0.000    0.000    0.000 
#    0.000    0.000    0.000    0.000    0.000    0.000 
#
# Total GULP energy -793654.720191 kJ/mol
# GULP energy per Si atom -12400.855003 kJ/mol
# Density = 2.122378 g / cm^3
# Si number density = 21.272195 Si / 1000 Ang^3
#
#
#
# Elastic Constant Matrix: (Units=GPa)
#
#
# Indices 1 2 3 4 5 6 
#
# 1 93.2455 43.6604 31.1120 0.0000 0.0000 0.0000
# 2 43.6604 110.8696 39.3472 0.0000 0.0000 0.0000
# 3 31.1120 39.3472 100.6451 0.0000 0.0000 0.0000
# 4 0.0000 0.0000 0.0000 19.9837 0.0000 0.0000
# 5 0.0000 0.0000 0.0000 0.0000 22.9702 0.0000
# 6 0.0000 0.0000 0.0000 0.0000 0.0000 39.2463
#
#
#
# Elastic Compliance Matrix: (Units=1/GPa)
#
#
# Indices 1 2 3 4 5 6 
#
# 1 0.013654 -0.004504 -0.002460 0.000000 0.000000 0.000000
# 2 -0.004504 0.011958 -0.003283 0.000000 0.000000 0.000000
# 3 -0.002460 -0.003283 0.011980 0.000000 0.000000 0.000000
# 4 0.000000 0.000000 0.000000 0.050041 0.000000 0.000000
# 5 0.000000 0.000000 0.000000 0.000000 0.043535 0.000000
# 6 0.000000 0.000000 0.000000 0.000000 0.000000 0.025480
#
#
# Mechanical properties :
#
#
# Convention : Reuss Voigt Hill
#
# Bulk Modulus (GPa) = 58.48418 59.22213 58.85315
# Shear Modulus (GPa) = 27.34618 29.14939 28.24779
#
# Velocity S-wave (km/s) = 3.58933 3.70578 3.64802
# Velocity P-wave (km/s) = 6.68810 6.79787 6.74320
#
# Compressibility (1/GPa) = 0.01709864
#
# Stress axis : x y z
#
# Youngs Moduli (GPa) = 73.23837 83.62389 83.47398
#
# Poissons Ratio (x) = 0.37663 0.20535
# Poissons Ratio (y) = 0.32986 0.27403
# Poissons Ratio (z) = 0.18017 0.27452
#
# Static dielectric constant tensor:
#      x y z
#    x 3.691500 0.000000 0.000000 
#    y 0.000000 4.050970 0.000000 
#    z 0.000000 0.000000 3.732580 
# 
# 
# High freq. dielectric constant tensor:
#      x y z
#    x 1.826660 0.000000 0.000000 
#    y 0.000000 1.853610 0.000000 
#    z 0.000000 0.000000 1.835090 
# 
# From -- ./inp_files/23696.got.cif
#   From: 2010.03.12/outbox.cif.g09.slc.cpg/sg56_12_cif.got.tgz:23696.got - 2010.04.16 15:33:40.
