data_PCOD8229315
_publ_section_title
;
Structure prediction by ZEFSAII (Michael W. Deem and Ramdas Pophale) SiO2 
 PCOD8229315
Probable space group: P C C N
;
_chemical_formula_sum "Si O2"
_cell_formula_units_Z 48
_cell_length_a 17.449697
_cell_length_b 8.538264
_cell_length_c 14.584274
_cell_angle_alpha 90.000000
_cell_angle_beta 90.000000
_cell_angle_gamma 90.000000
_cell_volume 2172.912729
_symmetry_space_group_name_H-M "P C C N"
_symmetry_group_IT_number 56
_symmetry_cell_setting 'orthorhombic'
loop_
_space_group_symop_operation_xyz
x,y,z
1/2-x,1/2-y,z
1/2+x,-y,1/2-z
-x,1/2+y,1/2-z
-x,-y,-z
1/2+x,1/2+y,-z
1/2-x,y,1/2+z
x,1/2-y,1/2+z
loop_
_atom_site_type_symbol
_atom_site_label
_atom_site_fract_x
_atom_site_fract_y
_atom_site_fract_z
Si Si1 0.285073 0.409390 0.478468
Si Si2 0.449343 0.353187 0.531005
Si Si3 0.310206 0.888360 0.610458
Si Si4 0.524208 0.311925 0.190430
Si Si5 0.515443 0.158160 0.376525
Si Si6 0.318339 0.861577 0.817911
O O1 0.250000 0.250000 0.439274
O O2 0.360075 0.391603 0.540754
O O3 0.217408 0.477502 0.541912
O O4 0.316156 0.501718 0.391044
O O5 0.500000 0.500000 0.500000
O O6 0.468444 0.298668 0.632942
O O7 0.462317 0.208449 0.461014
O O8 0.250000 0.750000 0.595298
O O9 0.397272 0.842317 0.585138
O O10 0.311497 0.939801 0.717227
O O11 0.505628 0.289931 0.297832
O O12 0.512595 0.492146 0.162872
O O13 0.609293 0.251373 0.171250
O O14 0.250000 0.750000 0.842760
#
# Coordination Sequence:
#
# PCOD8229315 Si02
#       6
#     8   8   8   8   8   8
#     4  12  26  42  67 102 137 174 229 286 342 410
#     4  12  24  43  68 102 137 179 225 287 352 404
#     4  10  23  46  68  95 131 184 225 271 344 420
#     4  11  24  44  68 100 138 177 230 284 344 416
#     4  11  25  43  73 101 135 181 231 283 349 415
#     4  10  24  43  68  96 133 182 224 275 345 410
#
# _framework density 22.090164999999999
#
# number of rings (size 3 to 8) (size 9 to 14) (size 15 to 20)
#    0.000    1.000    1.667    4.000    7.000    3.333 
#    0.000    0.000    0.000    0.000    0.000    0.000 
#    0.000    0.000    0.000    0.000    0.000    0.000 
#
# Total GULP energy -595243.161996 kJ/mol
# GULP energy per Si atom -12400.899208 kJ/mol
# Density = 2.203989 g / cm^3
# Si number density = 22.090165 Si / 1000 Ang^3
#
#
#
# Elastic Constant Matrix: (Units=GPa)
#
#
# Indices 1 2 3 4 5 6 
#
# 1 61.8985 18.6465 34.0733 0.0000 0.0000 0.0000
# 2 18.6465 88.8525 17.2146 0.0000 0.0000 0.0000
# 3 34.0733 17.2146 70.4625 0.0000 0.0000 0.0000
# 4 0.0000 0.0000 0.0000 34.8695 0.0000 0.0000
# 5 0.0000 0.0000 0.0000 0.0000 34.6856 0.0000
# 6 0.0000 0.0000 0.0000 0.0000 0.0000 30.9654
#
#
#
# Elastic Compliance Matrix: (Units=1/GPa)
#
#
# Indices 1 2 3 4 5 6 
#
# 1 0.022643 -0.002761 -0.010275 0.000000 0.000000 0.000000
# 2 -0.002761 0.012150 -0.001633 0.000000 0.000000 0.000000
# 3 -0.010275 -0.001633 0.019560 0.000000 0.000000 0.000000
# 4 0.000000 0.000000 0.000000 0.028678 0.000000 0.000000
# 5 0.000000 0.000000 0.000000 0.000000 0.028830 0.000000
# 6 0.000000 0.000000 0.000000 0.000000 0.000000 0.032294
#
#
# Mechanical properties :
#
#
# Convention : Reuss Voigt Hill
#
# Bulk Modulus (GPa) = 39.97667 40.12026 40.04847
# Shear Modulus (GPa) = 27.49768 30.18937 28.84352
#
# Velocity S-wave (km/s) = 3.53199 3.70082 3.61739
# Velocity P-wave (km/s) = 5.89658 6.03845 5.96794
#
# Compressibility (1/GPa) = 0.02501459
#
# Stress axis : x y z
#
# Youngs Moduli (GPa) = 44.16301 82.30114 51.12575
#
# Poissons Ratio (x) = 0.22725 0.52532
# Poissons Ratio (y) = 0.12194 0.08350
# Poissons Ratio (z) = 0.45378 0.13442
#
# Static dielectric constant tensor:
#      x y z
#    x 4.161110 0.000000 0.000000 
#    y 0.000000 3.900380 0.000000 
#    z 0.000000 0.000000 4.104460 
# 
# 
# High freq. dielectric constant tensor:
#      x y z
#    x 1.883460 0.000000 0.000000 
#    y 0.000000 1.868420 0.000000 
#    z 0.000000 0.000000 1.878630 
# 
# From -- ./inp_files/10658.got.cif
#   From: 2010.03.12/outbox.cif.g09.slc.cpg/sg56_6_cif.got.tgz:10658.got - 2010.04.16 15:33:40.
