data_PCOD8229474
_publ_section_title
;
Structure prediction by ZEFSAII (Michael W. Deem and Ramdas Pophale) SiO2 
 PCOD8229474
Probable space group: P C C N
;
_chemical_formula_sum "Si O2"
_cell_formula_units_Z 36
_cell_length_a 18.574215
_cell_length_b 8.624694
_cell_length_c 9.295572
_cell_angle_alpha 90.000000
_cell_angle_beta 90.000000
_cell_angle_gamma 90.000000
_cell_volume 1489.122010
_symmetry_space_group_name_H-M "P C C N"
_symmetry_group_IT_number 56
_symmetry_cell_setting 'orthorhombic'
loop_
_space_group_symop_operation_xyz
x,y,z
1/2-x,1/2-y,z
1/2+x,-y,1/2-z
-x,1/2+y,1/2-z
-x,-y,-z
1/2+x,1/2+y,-z
1/2-x,y,1/2+z
x,1/2-y,1/2+z
loop_
_atom_site_type_symbol
_atom_site_label
_atom_site_fract_x
_atom_site_fract_y
_atom_site_fract_z
Si Si1 0.830592 0.804600 0.976467
Si Si2 0.469448 0.877195 0.118063
Si Si3 0.911311 0.654973 0.746142
Si Si4 0.750000 0.250000 0.652796
Si Si5 0.656162 0.361660 0.908469
O O1 0.750000 0.750000 0.942306
O O2 0.885703 0.679309 0.910610
O O3 0.862312 0.957597 0.895749
O O4 0.841120 0.823321 0.146716
O O5 0.528528 0.769592 0.188980
O O6 0.407750 0.760639 0.056477
O O7 0.439105 0.977804 0.252364
O O8 0.500000 0.000000 0.000000
O O9 0.690963 0.328234 0.753843
O O10 0.788069 0.368520 0.542684
#
# Coordination Sequence:
#
# PCOD8229474 Si02
#       5
#     8   8   8   4   8
#     4  12  29  47  77 112 153 199 254 318 392 458
#     4  12  28  50  77 113 151 202 261 318 388 460
#     4  12  28  49  78 109 155 200 258 319 385 463
#     4  10  26  44  76 106 144 194 248 312 386 450
#     4  11  27  46  76 108 152 196 255 314 385 460
#
# _framework density 24.175322000000001
#
# number of rings (size 3 to 8) (size 9 to 14) (size 15 to 20)
#    0.000    0.444    2.222    3.333   21.778    1.778 
#    0.000    0.000    0.000    0.000    0.000    0.000 
#    0.000    0.000    0.000    0.000    0.000    0.000 
#
# Total GULP energy -446048.350879 kJ/mol
# GULP energy per Si atom -12390.231969 kJ/mol
# Density = 2.412030 g / cm^3
# Si number density = 24.175322 Si / 1000 Ang^3
#
#
#
# Elastic Constant Matrix: (Units=GPa)
#
#
# Indices 1 2 3 4 5 6 
#
# 1 120.9320 62.9830 32.6415 0.0000 0.0000 0.0000
# 2 62.9830 143.6881 21.0369 0.0000 0.0000 0.0000
# 3 32.6415 21.0369 109.6753 0.0000 0.0000 0.0000
# 4 0.0000 0.0000 0.0000 32.1415 0.0000 0.0000
# 5 0.0000 0.0000 0.0000 0.0000 31.7392 0.0000
# 6 0.0000 0.0000 0.0000 0.0000 0.0000 39.2026
#
#
#
# Elastic Compliance Matrix: (Units=1/GPa)
#
#
# Indices 1 2 3 4 5 6 
#
# 1 0.011341 -0.004606 -0.002492 0.000000 0.000000 0.000000
# 2 -0.004606 0.009031 -0.000361 0.000000 0.000000 0.000000
# 3 -0.002492 -0.000361 0.009929 0.000000 0.000000 0.000000
# 4 0.000000 0.000000 0.000000 0.031112 0.000000 0.000000
# 5 0.000000 0.000000 0.000000 0.000000 0.031507 0.000000
# 6 0.000000 0.000000 0.000000 0.000000 0.000000 0.025509
#
#
# Mechanical properties :
#
#
# Convention : Reuss Voigt Hill
#
# Bulk Modulus (GPa) = 65.01004 67.51313 66.26158
# Shear Modulus (GPa) = 36.10776 37.79227 36.95001
#
# Velocity S-wave (km/s) = 3.86888 3.95810 3.91374
# Velocity P-wave (km/s) = 6.84887 6.99112 6.92036
#
# Compressibility (1/GPa) = 0.01538224
#
# Stress axis : x y z
#
# Youngs Moduli (GPa) = 88.17884 110.72423 100.71786
#
# Poissons Ratio (x) = 0.51001 0.25096
# Poissons Ratio (y) = 0.40616 0.03640
# Poissons Ratio (z) = 0.21971 0.04002
#
# Static dielectric constant tensor:
#      x y z
#    x 4.421820 0.000000 0.000000 
#    y 0.000000 4.592050 0.000000 
#    z 0.000000 0.000000 4.428400 
# 
# 
# High freq. dielectric constant tensor:
#      x y z
#    x 1.963510 0.000000 0.000000 
#    y 0.000000 1.973680 0.000000 
#    z 0.000000 0.000000 1.968100 
# 
# From -- ./inp_files/1975.got.cif
#   From: 2010.03.12/outbox.cif.g09.slc.cpg/sg56_1_cif.got.tgz:1975.got - 2010.04.16 15:33:40.
