data_PCOD8229805
_publ_section_title
;
Structure prediction by ZEFSAII (Michael W. Deem and Ramdas Pophale) SiO2 
 PCOD8229805
Probable space group: P C C N
;
_chemical_formula_sum "Si O2"
_cell_formula_units_Z 48
_cell_length_a 8.270579
_cell_length_b 21.561093
_cell_length_c 12.059707
_cell_angle_alpha 90.000000
_cell_angle_beta 90.000000
_cell_angle_gamma 90.000000
_cell_volume 2150.519791
_symmetry_space_group_name_H-M "P C C N"
_symmetry_group_IT_number 56
_symmetry_cell_setting 'orthorhombic'
loop_
_space_group_symop_operation_xyz
x,y,z
1/2-x,1/2-y,z
1/2+x,-y,1/2-z
-x,1/2+y,1/2-z
-x,-y,-z
1/2+x,1/2+y,-z
1/2-x,y,1/2+z
x,1/2-y,1/2+z
loop_
_atom_site_type_symbol
_atom_site_label
_atom_site_fract_x
_atom_site_fract_y
_atom_site_fract_z
Si Si1 0.485326 0.870289 0.932243
Si Si2 0.848074 0.093989 0.978843
Si Si3 0.175087 0.483002 0.142212
Si Si4 0.083807 0.315908 0.852180
Si Si5 0.014795 0.425628 0.708697
Si Si6 0.041862 0.320669 0.308083
O O1 0.552462 0.941226 0.931249
O O2 0.482366 0.838725 0.813384
O O3 0.305244 0.867198 0.980717
O O4 0.592962 0.830380 0.016836
O O5 0.955095 0.132645 0.892371
O O6 0.786236 0.028940 0.929291
O O7 0.960337 0.081007 0.083080
O O8 0.073360 0.516506 0.236458
O O9 0.292725 0.436403 0.208142
O O10 0.265343 0.321438 0.809652
O O11 0.994763 0.250331 0.834037
O O12 0.976140 0.365534 0.783822
#
# Coordination Sequence:
#
# PCOD8229805 Si02
#       6
#     8   8   8   8   8   8
#     4  12  26  48  74 106 150 189 239 306 361 441
#     4  12  26  45  71 111 146 190 240 302 370 432
#     4  12  25  44  73 105 152 187 244 293 376 432
#     4  11  27  48  75 101 140 194 250 294 365 427
#     4  12  25  44  71 105 142 196 239 304 359 440
#     4  11  27  50  74 105 141 196 246 298 360 436
#
# _framework density 22.320184000000001
#
# number of rings (size 3 to 8) (size 9 to 14) (size 15 to 20)
#    0.000    0.333    3.333    5.000    4.667    2.000 
#    0.000    0.000    0.000    0.000    0.000    0.000 
#    0.000    0.000    0.000    0.000    0.000    0.000 
#
# Total GULP energy -595362.909900 kJ/mol
# GULP energy per Si atom -12403.393956 kJ/mol
# Density = 2.226938 g / cm^3
# Si number density = 22.320184 Si / 1000 Ang^3
#
#
#
# Elastic Constant Matrix: (Units=GPa)
#
#
# Indices 1 2 3 4 5 6 
#
# 1 55.5076 17.4442 12.1344 0.0000 0.0000 0.0000
# 2 17.4442 140.9919 59.1557 0.0000 0.0000 0.0000
# 3 12.1344 59.1557 142.9302 0.0000 0.0000 0.0000
# 4 0.0000 0.0000 0.0000 22.8042 0.0000 0.0000
# 5 0.0000 0.0000 0.0000 0.0000 31.8282 0.0000
# 6 0.0000 0.0000 0.0000 0.0000 0.0000 28.7665
#
#
#
# Elastic Compliance Matrix: (Units=1/GPa)
#
#
# Indices 1 2 3 4 5 6 
#
# 1 0.018814 -0.002006 -0.000767 0.000000 0.000000 0.000000
# 2 -0.002006 0.008797 -0.003471 0.000000 0.000000 0.000000
# 3 -0.000767 -0.003471 0.008498 0.000000 0.000000 0.000000
# 4 0.000000 0.000000 0.000000 0.043851 0.000000 0.000000
# 5 0.000000 0.000000 0.000000 0.000000 0.031419 0.000000
# 6 0.000000 0.000000 0.000000 0.000000 0.000000 0.034763
#
#
# Mechanical properties :
#
#
# Convention : Reuss Voigt Hill
#
# Bulk Modulus (GPa) = 42.33433 57.43315 49.88374
# Shear Modulus (GPa) = 30.02965 33.39281 31.71123
#
# Velocity S-wave (km/s) = 3.67195 3.87212 3.77336
# Velocity P-wave (km/s) = 6.08158 6.76597 6.43289
#
# Compressibility (1/GPa) = 0.02362149
#
# Stress axis : x y z
#
# Youngs Moduli (GPa) = 53.15301 113.67615 117.67568
#
# Poissons Ratio (x) = 0.22802 0.09026
# Poissons Ratio (y) = 0.10662 0.40840
# Poissons Ratio (z) = 0.04077 0.39452
#
# Static dielectric constant tensor:
#      x y z
#    x 4.095460 0.000000 0.000000 
#    y 0.000000 4.281070 0.000000 
#    z 0.000000 0.000000 4.060680 
# 
# 
# High freq. dielectric constant tensor:
#      x y z
#    x 1.887680 0.000000 0.000000 
#    y 0.000000 1.887480 0.000000 
#    z 0.000000 0.000000 1.892830 
# 
# From -- ./inp_files/6401.got.cif
#   From: 2010.03.12/outbox.cif.g09.slc.cpg/sg56_4_cif.got.tgz:6401.got - 2010.04.16 15:33:40.
