data_PCOD8229911
_publ_section_title
;
Structure prediction by ZEFSAII (Michael W. Deem and Ramdas Pophale) SiO2 
 PCOD8229911
Probable space group: P B C M
;
_chemical_formula_sum "Si O2"
_cell_formula_units_Z 52
_cell_length_a 20.536691
_cell_length_b 5.304923
_cell_length_c 25.258866
_cell_angle_alpha 90.000000
_cell_angle_beta 90.000000
_cell_angle_gamma 90.000000
_cell_volume 2751.841413
_symmetry_space_group_name_H-M "P B C M"
_symmetry_group_IT_number 57
_symmetry_cell_setting 'orthorhombic'
loop_
_space_group_symop_operation_xyz
x,y,z
-x,-y,1/2+z
x,1/2-y,-z
-x,1/2+y,1/2-z
-x,-y,-z
x,y,1/2-z
-x,1/2+y,z
x,1/2-y,1/2+z
loop_
_atom_site_type_symbol
_atom_site_label
_atom_site_fract_x
_atom_site_fract_y
_atom_site_fract_z
Si Si1 0.961702 0.236946 0.937910
Si Si2 0.469582 0.937258 0.310678
Si Si3 0.812056 0.750000 0.000000
Si Si4 0.678675 0.446445 0.162322
Si Si5 0.718976 0.144222 0.551936
Si Si6 0.163910 0.949346 0.593936
Si Si7 0.242117 0.054804 0.810031
O O1 0.893725 0.243641 0.904442
O O2 0.005011 0.476523 0.920664
O O3 0.946058 0.250000 0.000000
O O4 0.492598 0.937879 0.250000
O O5 0.499691 0.187779 0.338364
O O6 0.392160 0.934205 0.313049
O O7 0.766589 0.571924 0.033892
O O8 0.858980 0.866816 0.045437
O O9 0.670670 0.445713 0.098147
O O10 0.711718 0.706870 0.179467
O O11 0.719486 0.207894 0.182688
O O12 0.680323 0.250000 0.500000
O O13 0.764941 0.358914 0.576078
O O14 0.178088 0.069782 0.651744
O O15 0.216352 0.067728 0.750000
#
# Coordination Sequence:
#
# PCOD8229911 Si02
#       7
#     8   8   4   8   8   8   8
#     4  10  22  34  51  77 108 143 178 221 269 322
#     4  10  20  34  53  76 105 142 180 220 267 322
#     4  10  16  32  52  78 106 138 174 216 276 330
#     4  11  21  37  56  84 111 144 180 226 276 327
#     4   9  19  32  53  81 108 141 176 226 276 331
#     4  10  21  33  53  78 112 142 179 224 280 330
#     4  11  22  36  57  84 112 143 180 229 283 328
#
# _framework density 18.896439000000001
#
# number of rings (size 3 to 8) (size 9 to 14) (size 15 to 20)
#    0.000    1.846    1.538    3.692    5.385    1.231 
#    0.000    0.000    0.000    1.846    0.000    0.000 
#    0.000    0.000    0.000    0.000    0.000    0.000 
#
# Total GULP energy -644343.961832 kJ/mol
# GULP energy per Si atom -12391.230035 kJ/mol
# Density = 1.885343 g / cm^3
# Si number density = 18.896439 Si / 1000 Ang^3
#
#
#
# Elastic Constant Matrix: (Units=GPa)
#
#
# Indices 1 2 3 4 5 6 
#
# 1 66.6318 24.1692 23.5302 0.0000 0.0000 0.0000
# 2 24.1692 106.1647 33.4143 0.0000 0.0000 0.0000
# 3 23.5302 33.4143 110.5287 0.0000 0.0000 0.0000
# 4 0.0000 0.0000 0.0000 17.4755 0.0000 0.0000
# 5 0.0000 0.0000 0.0000 0.0000 22.6955 0.0000
# 6 0.0000 0.0000 0.0000 0.0000 0.0000 28.0681
#
#
#
# Elastic Compliance Matrix: (Units=1/GPa)
#
#
# Indices 1 2 3 4 5 6 
#
# 1 0.017066 -0.003030 -0.002717 0.000000 0.000000 0.000000
# 2 -0.003030 0.010948 -0.002665 0.000000 0.000000 0.000000
# 3 -0.002717 -0.002665 0.010431 0.000000 0.000000 0.000000
# 4 0.000000 0.000000 0.000000 0.057223 0.000000 0.000000
# 5 0.000000 0.000000 0.000000 0.000000 0.044062 0.000000
# 6 0.000000 0.000000 0.000000 0.000000 0.000000 0.035628
#
#
# Mechanical properties :
#
#
# Convention : Reuss Voigt Hill
#
# Bulk Modulus (GPa) = 46.24937 49.50585 47.87761
# Shear Modulus (GPa) = 25.07661 27.12859 26.10260
#
# Velocity S-wave (km/s) = 3.64683 3.79310 3.72068
# Velocity P-wave (km/s) = 6.50083 6.74084 6.62192
#
# Compressibility (1/GPa) = 0.02162192
#
# Stress axis : x y z
#
# Youngs Moduli (GPa) = 58.59436 91.34251 95.86421
#
# Poissons Ratio (x) = 0.27678 0.26048
# Poissons Ratio (y) = 0.17755 0.25544
# Poissons Ratio (z) = 0.15921 0.24339
#
# Static dielectric constant tensor:
#      x y z
#    x 3.114030 0.000000 0.000000 
#    y 0.000000 3.774470 0.000000 
#    z 0.000000 0.000000 3.731020 
# 
# 
# High freq. dielectric constant tensor:
#      x y z
#    x 1.699910 0.000000 0.000000 
#    y 0.000000 1.755880 0.000000 
#    z 0.000000 0.000000 1.716090 
# 
# From -- ./inp_files/28834.got.cif
#   From: 2010.03.12/outbox.cif.g09.slc.cpg/sg57_15_cif.got.tgz:28834.got - 2010.04.16 15:48:40.
