data_PCOD8229710
_publ_section_title
;
Structure prediction by ZEFSAII (Michael W. Deem and Ramdas Pophale) SiO2 
 PCOD8229710
Probable space group: P C C N
;
_chemical_formula_sum "Si O2"
_cell_formula_units_Z 64
_cell_length_a 13.763833
_cell_length_b 23.548166
_cell_length_c 9.399474
_cell_angle_alpha 90.000000
_cell_angle_beta 90.000000
_cell_angle_gamma 90.000000
_cell_volume 3046.491945
_symmetry_space_group_name_H-M "P C C N"
_symmetry_group_IT_number 56
_symmetry_cell_setting 'orthorhombic'
loop_
_space_group_symop_operation_xyz
x,y,z
1/2-x,1/2-y,z
1/2+x,-y,1/2-z
-x,1/2+y,1/2-z
-x,-y,-z
1/2+x,1/2+y,-z
1/2-x,y,1/2+z
x,1/2-y,1/2+z
loop_
_atom_site_type_symbol
_atom_site_label
_atom_site_fract_x
_atom_site_fract_y
_atom_site_fract_z
Si Si1 0.246603 0.993803 0.893364
Si Si2 0.519034 0.265542 0.086771
Si Si3 0.387575 0.900066 0.782353
Si Si4 0.216804 0.073516 0.642840
Si Si5 0.151254 0.782286 0.175273
Si Si6 0.577928 0.628791 0.805240
Si Si7 0.555620 0.058033 0.506456
Si Si8 0.449993 0.357899 0.524759
O O1 0.322444 0.955183 0.807988
O O2 0.168607 0.951842 0.961894
O O3 0.197865 0.039745 0.788524
O O4 0.300072 0.028676 0.016523
O O5 0.589959 0.256628 0.219153
O O6 0.432437 0.307400 0.135268
O O7 0.464372 0.209228 0.035885
O O8 0.585852 0.292372 0.963867
O O9 0.324956 0.843145 0.748167
O O10 0.455680 0.911518 0.645947
O O11 0.452921 0.889603 0.921870
O O12 0.323422 0.101067 0.637584
O O13 0.138936 0.123905 0.626656
O O14 0.250000 0.750000 0.133317
O O15 0.486312 0.594882 0.865528
O O16 0.574091 0.624948 0.635640
O O17 0.500000 0.000000 0.500000
#
# Coordination Sequence:
#
# PCOD8229710 Si02
#       8
#     8   8   8   8   8   8   8   8
#     4  12  25  44  66 105 143 179 233 279 343 419
#     4  11  24  45  69 101 137 175 231 286 342 409
#     4  11  26  43  68 103 139 184 226 281 348 409
#     4  12  26  46  69 100 138 183 233 284 343 412
#     4  11  24  43  68 101 140 181 222 276 342 415
#     4  12  25  46  71 100 135 184 232 286 348 408
#     4  12  24  43  69 100 140 185 226 284 344 405
#     4  11  27  47  70 101 139 180 231 294 349 409
#
# _framework density 21.007769
#
# number of rings (size 3 to 8) (size 9 to 14) (size 15 to 20)
#    0.000    0.500    6.250    1.125    3.500    3.000 
#    0.000    1.250    0.000    0.000    0.000    0.000 
#    0.000    0.000    0.000    0.000    0.000    0.000 
#
# Total GULP energy -793900.997532 kJ/mol
# GULP energy per Si atom -12404.703086 kJ/mol
# Density = 2.095995 g / cm^3
# Si number density = 21.007769 Si / 1000 Ang^3
#
#
#
# Elastic Constant Matrix: (Units=GPa)
#
#
# Indices 1 2 3 4 5 6 
#
# 1 76.2545 32.2620 15.1658 0.0000 0.0000 0.0000
# 2 32.2620 92.8430 16.0403 0.0000 0.0000 0.0000
# 3 15.1658 16.0403 93.5571 0.0000 0.0000 0.0000
# 4 0.0000 0.0000 0.0000 34.0382 0.0000 0.0000
# 5 0.0000 0.0000 0.0000 0.0000 31.2272 0.0000
# 6 0.0000 0.0000 0.0000 0.0000 0.0000 38.5879
#
#
#
# Elastic Compliance Matrix: (Units=1/GPa)
#
#
# Indices 1 2 3 4 5 6 
#
# 1 0.015618 -0.005142 -0.001650 0.000000 0.000000 0.000000
# 2 -0.005142 0.012793 -0.001360 0.000000 0.000000 0.000000
# 3 -0.001650 -0.001360 0.011189 0.000000 0.000000 0.000000
# 4 0.000000 0.000000 0.000000 0.029379 0.000000 0.000000
# 5 0.000000 0.000000 0.000000 0.000000 0.032023 0.000000
# 6 0.000000 0.000000 0.000000 0.000000 0.000000 0.025915
#
#
# Mechanical properties :
#
#
# Convention : Reuss Voigt Hill
#
# Bulk Modulus (GPa) = 42.92586 43.28787 43.10687
# Shear Modulus (GPa) = 33.11584 34.04976 33.58280
#
# Velocity S-wave (km/s) = 3.97465 4.03031 4.00257
# Velocity P-wave (km/s) = 6.44527 6.50448 6.47494
#
# Compressibility (1/GPa) = 0.02329598
#
# Stress axis : x y z
#
# Youngs Moduli (GPa) = 64.03032 78.17049 89.37132
#
# Poissons Ratio (x) = 0.40194 0.14747
# Poissons Ratio (y) = 0.32924 0.12152
# Poissons Ratio (z) = 0.10565 0.10629
#
# Static dielectric constant tensor:
#      x y z
#    x 3.687710 0.000000 0.000000 
#    y 0.000000 4.047620 0.000000 
#    z 0.000000 0.000000 3.935010 
# 
# 
# High freq. dielectric constant tensor:
#      x y z
#    x 1.810190 0.000000 0.000000 
#    y 0.000000 1.837010 0.000000 
#    z 0.000000 0.000000 1.840350 
# 
# From -- ./inp_files/3708.got.cif
#   From: 2010.03.12/outbox.cif.g09.slc.cpg/sg56_2_cif.got.tgz:3708.got - 2010.04.16 15:33:40.
