data_PCOD8229173
_publ_section_title
;
Structure prediction by ZEFSAII (Michael W. Deem and Ramdas Pophale) SiO2 
 PCOD8229173
Probable space group: P C C N
;
_chemical_formula_sum "Si O2"
_cell_formula_units_Z 48
_cell_length_a 14.642493
_cell_length_b 5.172362
_cell_length_c 28.294720
_cell_angle_alpha 90.000000
_cell_angle_beta 90.000000
_cell_angle_gamma 90.000000
_cell_volume 2142.936677
_symmetry_space_group_name_H-M "P C C N"
_symmetry_group_IT_number 56
_symmetry_cell_setting 'orthorhombic'
loop_
_space_group_symop_operation_xyz
x,y,z
1/2-x,1/2-y,z
1/2+x,-y,1/2-z
-x,1/2+y,1/2-z
-x,-y,-z
1/2+x,1/2+y,-z
1/2-x,y,1/2+z
x,1/2-y,1/2+z
loop_
_atom_site_type_symbol
_atom_site_label
_atom_site_fract_x
_atom_site_fract_y
_atom_site_fract_z
Si Si1 0.858353 0.810522 0.376922
Si Si2 0.031007 0.961742 0.893841
Si Si3 0.940870 0.961771 0.546517
Si Si4 0.809193 0.005287 0.285459
Si Si5 0.188509 0.995129 0.819599
Si Si6 0.308064 0.498362 0.530770
O O1 0.750000 0.750000 0.373161
O O2 0.881576 0.981180 0.424980
O O3 0.924645 0.558457 0.377307
O O4 0.882492 0.966826 0.328324
O O5 0.055408 0.679874 0.914041
O O6 0.099036 0.025734 0.851479
O O7 0.041050 0.176889 0.933855
O O8 0.840436 0.979233 0.523105
O O9 0.000000 0.000000 0.500000
O O10 0.750000 0.250000 0.300743
O O11 0.851861 0.050020 0.233389
O O12 0.750000 0.750000 0.279761
O O13 0.250000 0.750000 0.834861
O O14 0.250000 0.250000 0.825172
O O15 0.250000 0.250000 0.542575
O O16 0.250000 0.750000 0.539099
#
# Coordination Sequence:
#
# PCOD8229173 Si02
#       6
#     8   8   8   8   8   8
#     4  10  23  41  66  94 133 168 219 266 331 398
#     4  12  26  42  69  98 129 178 220 275 336 396
#     4  12  26  43  63  90 133 168 218 272 337 387
#     4   9  19  39  66  93 129 174 211 269 335 391
#     4  10  22  44  69  97 134 174 224 280 336 404
#     4  11  24  40  65  92 122 168 218 267 323 394
#
# _framework density 22.399169000000001
#
# number of rings (size 3 to 8) (size 9 to 14) (size 15 to 20)
#    0.000    1.333    1.667    3.000    4.667    6.667 
#    0.000   10.000    0.000    0.000    0.000    0.000 
#    0.000    0.000    0.000    0.000    0.000    0.000 
#
# Total GULP energy -594669.136231 kJ/mol
# GULP energy per Si atom -12388.940338 kJ/mol
# Density = 2.234819 g / cm^3
# Si number density = 22.399169 Si / 1000 Ang^3
#
#
#
# Elastic Constant Matrix: (Units=GPa)
#
#
# Indices 1 2 3 4 5 6 
#
# 1 87.4603 36.9620 55.7436 0.0000 0.0000 0.0000
# 2 36.9620 139.6156 29.8457 0.0000 0.0000 0.0000
# 3 55.7436 29.8457 140.9544 0.0000 0.0000 0.0000
# 4 0.0000 0.0000 0.0000 31.1266 0.0000 0.0000
# 5 0.0000 0.0000 0.0000 0.0000 32.0486 0.0000
# 6 0.0000 0.0000 0.0000 0.0000 0.0000 28.7284
#
#
#
# Elastic Compliance Matrix: (Units=1/GPa)
#
#
# Indices 1 2 3 4 5 6 
#
# 1 0.016484 -0.003111 -0.005860 0.000000 0.000000 0.000000
# 2 -0.003111 0.008089 -0.000482 0.000000 0.000000 0.000000
# 3 -0.005860 -0.000482 0.009514 0.000000 0.000000 0.000000
# 4 0.000000 0.000000 0.000000 0.032127 0.000000 0.000000
# 5 0.000000 0.000000 0.000000 0.000000 0.031203 0.000000
# 6 0.000000 0.000000 0.000000 0.000000 0.000000 0.034809
#
#
# Mechanical properties :
#
#
# Convention : Reuss Voigt Hill
#
# Bulk Modulus (GPa) = 65.87756 68.12588 67.00172
# Shear Modulus (GPa) = 32.01179 34.74597 33.37888
#
# Velocity S-wave (km/s) = 3.78451 3.94282 3.86448
# Velocity P-wave (km/s) = 6.96931 7.15600 7.06327
#
# Compressibility (1/GPa) = 0.01517968
#
# Stress axis : x y z
#
# Youngs Moduli (GPa) = 60.66669 123.61993 105.10682
#
# Poissons Ratio (x) = 0.38460 0.61593
# Poissons Ratio (y) = 0.18874 0.05071
# Poissons Ratio (z) = 0.35551 0.05964
#
# Static dielectric constant tensor:
#      x y z
#    x 5.367770 0.000000 0.000000 
#    y 0.000000 4.260640 0.000000 
#    z 0.000000 0.000000 7.561860 
# 
# 
# High freq. dielectric constant tensor:
#      x y z
#    x 1.859760 0.000000 0.000000 
#    y 0.000000 1.888830 0.000000 
#    z 0.000000 0.000000 1.910730 
# 
# From -- ./inp_files/23572.got.cif
#   From: 2010.03.12/outbox.cif.g09.slc.cpg/sg56_12_cif.got.tgz:23572.got - 2010.04.16 15:33:40.
