data_PCOD8229783
_publ_section_title
;
Structure prediction by ZEFSAII (Michael W. Deem and Ramdas Pophale) SiO2 
 PCOD8229783
Probable space group: P C C N
;
_chemical_formula_sum "Si O2"
_cell_formula_units_Z 28
_cell_length_a 5.048173
_cell_length_b 11.457281
_cell_length_c 19.580255
_cell_angle_alpha 90.000000
_cell_angle_beta 90.000000
_cell_angle_gamma 90.000000
_cell_volume 1132.489379
_symmetry_space_group_name_H-M "P C C N"
_symmetry_group_IT_number 56
_symmetry_cell_setting 'orthorhombic'
loop_
_space_group_symop_operation_xyz
x,y,z
1/2-x,1/2-y,z
1/2+x,-y,1/2-z
-x,1/2+y,1/2-z
-x,-y,-z
1/2+x,1/2+y,-z
1/2-x,y,1/2+z
x,1/2-y,1/2+z
loop_
_atom_site_type_symbol
_atom_site_label
_atom_site_fract_x
_atom_site_fract_y
_atom_site_fract_z
Si Si1 0.423122 0.574725 0.399677
Si Si2 0.016077 0.826048 0.547344
Si Si3 0.750000 0.750000 0.309189
Si Si4 0.410663 0.560068 0.777909
O O1 0.387838 0.635053 0.472207
O O2 0.502326 0.439358 0.405280
O O3 0.633673 0.645949 0.355173
O O4 0.142610 0.569606 0.359722
O O5 0.750000 0.750000 0.544363
O O6 0.250000 0.750000 0.579581
O O7 0.532774 0.812058 0.259705
O O8 0.629503 0.461290 0.759840
#
# Coordination Sequence:
#
# PCOD8229783 Si02
#       4
#     8   8   4   8
#     4  11  26  47  82 108 156 199 252 303 388 447
#     4  11  26  46  75 117 154 194 248 311 372 452
#     4  12  24  50  78 108 148 204 254 306 384 464
#     4  12  27  48  74 109 145 197 256 310 372 448
#
# _framework density 24.724291999999998
#
# number of rings (size 3 to 8) (size 9 to 14) (size 15 to 20)
#    0.000    0.571    4.286    2.571    4.000    2.286 
#    2.571    5.714    0.000    0.000    0.000    0.000 
#    0.000    0.000    0.000    0.000    0.000    0.000 
#
# Total GULP energy -346989.271222 kJ/mol
# GULP energy per Si atom -12392.473972 kJ/mol
# Density = 2.466802 g / cm^3
# Si number density = 24.724292 Si / 1000 Ang^3
#
#
#
# Elastic Constant Matrix: (Units=GPa)
#
#
# Indices 1 2 3 4 5 6 
#
# 1 178.3205 81.1735 43.6199 0.0000 0.0000 0.0000
# 2 81.1735 183.2050 41.4330 0.0000 0.0000 0.0000
# 3 43.6199 41.4330 39.3792 0.0000 0.0000 0.0000
# 4 0.0000 0.0000 0.0000 32.0815 0.0000 0.0000
# 5 0.0000 0.0000 0.0000 0.0000 6.2519 0.0000
# 6 0.0000 0.0000 0.0000 0.0000 0.0000 44.2081
#
#
#
# Elastic Compliance Matrix: (Units=1/GPa)
#
#
# Indices 1 2 3 4 5 6 
#
# 1 0.008258 -0.002087 -0.006952 0.000000 0.000000 0.000000
# 2 -0.002087 0.007690 -0.005780 0.000000 0.000000 0.000000
# 3 -0.006952 -0.005780 0.039176 0.000000 0.000000 0.000000
# 4 0.000000 0.000000 0.000000 0.031171 0.000000 0.000000
# 5 0.000000 0.000000 0.000000 0.000000 0.159952 0.000000
# 6 0.000000 0.000000 0.000000 0.000000 0.000000 0.022620
#
#
# Mechanical properties :
#
#
# Convention : Reuss Voigt Hill
#
# Bulk Modulus (GPa) = 39.23513 81.48417 60.35965
# Shear Modulus (GPa) = 16.28665 32.15350 24.22008
#
# Velocity S-wave (km/s) = 2.56936 3.61013 3.13326
# Velocity P-wave (km/s) = 4.97048 7.09972 6.12828
#
# Compressibility (1/GPa) = 0.02548736
#
# Stress axis : x y z
#
# Youngs Moduli (GPa) = 121.08857 130.03757 25.52590
#
# Poissons Ratio (x) = 0.27137 0.17746
# Poissons Ratio (y) = 0.25269 0.14753
# Poissons Ratio (z) = 0.84182 0.75157
#
# Static dielectric constant tensor:
#      x y z
#    x 4.604410 0.000000 0.000000 
#    y 0.000000 4.959350 0.000000 
#    z 0.000000 0.000000 4.430490 
# 
# 
# High freq. dielectric constant tensor:
#      x y z
#    x 1.998280 0.000000 0.000000 
#    y 0.000000 2.008200 0.000000 
#    z 0.000000 0.000000 1.964420 
# 
# From -- ./inp_files/17187.got.cif
#   From: 2010.03.12/outbox.cif.g09.slc.cpg/sg56_9_cif.got.tgz:17187.got - 2010.04.16 15:33:40.
