data_PCOD8229541
_publ_section_title
;
Structure prediction by ZEFSAII (Michael W. Deem and Ramdas Pophale) SiO2 
 PCOD8229541
Probable space group: P C C N
;
_chemical_formula_sum "Si O2"
_cell_formula_units_Z 40
_cell_length_a 13.761577
_cell_length_b 8.039501
_cell_length_c 13.080273
_cell_angle_alpha 90.000000
_cell_angle_beta 90.000000
_cell_angle_gamma 90.000000
_cell_volume 1447.151857
_symmetry_space_group_name_H-M "P C C N"
_symmetry_group_IT_number 56
_symmetry_cell_setting 'orthorhombic'
loop_
_space_group_symop_operation_xyz
x,y,z
1/2-x,1/2-y,z
1/2+x,-y,1/2-z
-x,1/2+y,1/2-z
-x,-y,-z
1/2+x,1/2+y,-z
1/2-x,y,1/2+z
x,1/2-y,1/2+z
loop_
_atom_site_type_symbol
_atom_site_label
_atom_site_fract_x
_atom_site_fract_y
_atom_site_fract_z
Si Si1 0.900734 0.238787 0.943078
Si Si2 0.250000 0.750000 0.904991
Si Si3 0.085325 0.972057 0.379081
Si Si4 0.605313 0.647200 0.084419
Si Si5 0.618279 0.505823 0.293793
Si Si6 0.250000 0.250000 0.580234
O O1 0.870182 0.313282 0.831974
O O2 0.991461 0.112650 0.940714
O O3 0.818718 0.147101 0.011804
O O4 0.931631 0.410962 0.003179
O O5 0.182188 0.627267 0.837867
O O6 0.110069 0.165885 0.369494
O O7 0.991996 0.926854 0.310424
O O8 0.638730 0.513682 0.171456
O O9 0.675237 0.641185 0.986970
O O10 0.695335 0.620532 0.349299
#
# Coordination Sequence:
#
# PCOD8229541 Si02
#       6
#     8   4   8   8   8   4
#     4   9  18  42  63  85 123 166 208 258 316 368
#     4   8  16  34  78  82 112 178 196 250 326 366
#     4   9  18  42  63  85 123 166 208 258 316 368
#     4  11  21  36  64  89 121 167 210 259 317 371
#     4  11  21  36  64  89 121 167 210 259 317 371
#     4  12  18  38  56  84 120 162 206 254 308 362
#
# _framework density 27.640499999999999
#
# number of rings (size 3 to 8) (size 9 to 14) (size 15 to 20)
#    1.200    0.800    4.000    1.800    0.000    0.000 
#    0.000   25.000    0.000   14.400    0.000    0.000 
#    0.000    0.000    0.000    0.000    0.000    0.000 
#
# Total GULP energy -495557.729649 kJ/mol
# GULP energy per Si atom -12388.943241 kJ/mol
# Density = 2.757759 g / cm^3
# Si number density = 27.640500 Si / 1000 Ang^3
#
#
#
# Elastic Constant Matrix: (Units=GPa)
#
#
# Indices 1 2 3 4 5 6 
#
# 1 168.6082 8.3205 37.2641 0.0000 0.0000 0.0000
# 2 8.3205 66.6402 20.5713 0.0000 0.0000 0.0000
# 3 37.2641 20.5713 127.7840 0.0000 0.0000 0.0000
# 4 0.0000 0.0000 0.0000 52.1533 0.0000 0.0000
# 5 0.0000 0.0000 0.0000 0.0000 9.9767 0.0000
# 6 0.0000 0.0000 0.0000 0.0000 0.0000 -1.4984
#
#
#
# Elastic Compliance Matrix: (Units=1/GPa)
#
#
# Indices 1 2 3 4 5 6 
#
# 1 0.006343 -0.000233 -0.001812 0.000000 0.000000 0.000000
# 2 -0.000233 0.015799 -0.002476 0.000000 0.000000 0.000000
# 3 -0.001812 -0.002476 0.008753 0.000000 0.000000 0.000000
# 4 0.000000 0.000000 0.000000 0.019174 0.000000 0.000000
# 5 0.000000 0.000000 0.000000 0.000000 0.100234 0.000000
# 6 0.000000 0.000000 0.000000 0.000000 0.000000 -0.667379
#
#
# Mechanical properties :
#
#
# Convention : Reuss Voigt Hill
#
# Bulk Modulus (GPa) = 45.75821 55.03824 50.39823
# Shear Modulus (GPa) = -9.98500 31.91808 10.96654
#
# Velocity S-wave (km/s) = -1.90271 3.40186 1.99403
# Velocity P-wave (km/s) = 3.42982 5.94858 4.85537
#
# Compressibility (1/GPa) = 0.02185400
#
# Stress axis : x y z
#
# Youngs Moduli (GPa) = 157.65618 63.29432 114.24994
#
# Poissons Ratio (x) = 0.01472 0.20705
# Poissons Ratio (y) = 0.03666 0.28284
# Poissons Ratio (z) = 0.28572 0.15669
#
# Static dielectric constant tensor:
#      x y z
#    x 5.569540 0.000000 0.000000 
#    y 0.000000 4.550170 0.000000 
#    z 0.000000 0.000000 4.609750 
# 
# 
# High freq. dielectric constant tensor:
#      x y z
#    x 2.137510 0.000000 0.000000 
#    y 0.000000 2.106580 0.000000 
#    z 0.000000 0.000000 2.092220 
# 
# From -- ./inp_files/12154.got.cif
#   From: 2010.03.12/outbox.cif.g09.slc.cpg/sg56_7_cif.got.tgz:12154.got - 2010.04.16 15:33:40.
