data_PCOD8229749
_publ_section_title
;
Structure prediction by ZEFSAII (Michael W. Deem and Ramdas Pophale) SiO2 
 PCOD8229749
Probable space group: P C C N
;
_chemical_formula_sum "Si O2"
_cell_formula_units_Z 60
_cell_length_a 8.576484
_cell_length_b 18.025631
_cell_length_c 17.013395
_cell_angle_alpha 90.000000
_cell_angle_beta 90.000000
_cell_angle_gamma 90.000000
_cell_volume 2630.211930
_symmetry_space_group_name_H-M "P C C N"
_symmetry_group_IT_number 56
_symmetry_cell_setting 'orthorhombic'
loop_
_space_group_symop_operation_xyz
x,y,z
1/2-x,1/2-y,z
1/2+x,-y,1/2-z
-x,1/2+y,1/2-z
-x,-y,-z
1/2+x,1/2+y,-z
1/2-x,y,1/2+z
x,1/2-y,1/2+z
loop_
_atom_site_type_symbol
_atom_site_label
_atom_site_fract_x
_atom_site_fract_y
_atom_site_fract_z
Si Si1 0.387571 0.149390 0.648861
Si Si2 0.046698 0.575371 0.724310
Si Si3 0.697991 0.515451 0.322448
Si Si4 0.916605 0.210998 0.441803
Si Si5 0.574051 0.252791 0.763886
Si Si6 0.650986 0.044126 0.986709
Si Si7 0.250000 0.250000 0.024097
Si Si8 0.571768 0.021193 0.582850
O O1 0.288965 0.091073 0.700662
O O2 0.455811 0.214699 0.703163
O O3 0.273764 0.179606 0.580549
O O4 0.525607 0.103530 0.609309
O O5 0.979228 0.530783 0.799661
O O6 0.961559 0.542957 0.646531
O O7 0.229997 0.554182 0.726282
O O8 0.019051 0.662512 0.727175
O O9 0.735304 0.494568 0.412252
O O10 0.750000 0.250000 0.466354
O O11 0.933958 0.212699 0.347894
O O12 0.893102 0.128143 0.469874
O O13 0.083653 0.241614 0.476387
O O14 0.750000 0.250000 0.730292
O O15 0.745597 0.032110 0.066679
O O16 0.500000 0.000000 0.000000
O O17 0.500000 0.000000 0.500000
#
# Coordination Sequence:
#
# PCOD8229749 Si02
#       8
#     8   8   8   8   8   8   4   8
#     4  11  25  45  72 108 145 192 251 310 375 453
#     4  11  26  44  73 101 145 189 241 299 373 445
#     4  11  25  44  70 103 141 187 244 302 364 443
#     4  11  27  47  76 107 154 202 256 314 391 463
#     4  11  27  46  74 107 155 197 252 306 385 465
#     4  12  26  45  72 108 143 189 258 309 373 452
#     4  12  26  46  74 106 156 198 256 324 388 454
#     4  11  25  46  75 102 148 193 245 311 381 437
#
# _framework density 22.81185
#
# number of rings (size 3 to 8) (size 9 to 14) (size 15 to 20)
#    0.000    0.800    2.667    4.000   11.200    3.200 
#    0.000    0.000    0.000    0.000    0.000    0.000 
#    0.000    0.000    0.000    0.000    0.000    0.000 
#
# Total GULP energy -743359.193154 kJ/mol
# GULP energy per Si atom -12389.319886 kJ/mol
# Density = 2.275993 g / cm^3
# Si number density = 22.811850 Si / 1000 Ang^3
#
#
#
# Elastic Constant Matrix: (Units=GPa)
#
#
# Indices 1 2 3 4 5 6 
#
# 1 127.1826 44.1449 33.7883 0.0000 0.0000 0.0000
# 2 44.1449 148.5363 33.9162 0.0000 0.0000 0.0000
# 3 33.7883 33.9162 64.7549 0.0000 0.0000 0.0000
# 4 0.0000 0.0000 0.0000 33.9816 0.0000 0.0000
# 5 0.0000 0.0000 0.0000 0.0000 42.9729 0.0000
# 6 0.0000 0.0000 0.0000 0.0000 0.0000 41.6858
#
#
#
# Elastic Compliance Matrix: (Units=1/GPa)
#
#
# Indices 1 2 3 4 5 6 
#
# 1 0.009597 -0.001941 -0.003991 0.000000 0.000000 0.000000
# 2 -0.001941 0.008039 -0.003198 0.000000 0.000000 0.000000
# 3 -0.003991 -0.003198 0.019200 0.000000 0.000000 0.000000
# 4 0.000000 0.000000 0.000000 0.029428 0.000000 0.000000
# 5 0.000000 0.000000 0.000000 0.000000 0.023270 0.000000
# 6 0.000000 0.000000 0.000000 0.000000 0.000000 0.023989
#
#
# Mechanical properties :
#
#
# Convention : Reuss Voigt Hill
#
# Bulk Modulus (GPa) = 53.83061 62.68584 58.25822
# Shear Modulus (GPa) = 36.23844 38.96971 37.60408
#
# Velocity S-wave (km/s) = 3.99002 4.13765 4.06451
# Velocity P-wave (km/s) = 6.69895 7.09691 6.90080
#
# Compressibility (1/GPa) = 0.01857679
#
# Stress axis : x y z
#
# Youngs Moduli (GPa) = 104.20345 124.38736 52.08277
#
# Poissons Ratio (x) = 0.24142 0.20785
# Poissons Ratio (y) = 0.20224 0.16656
# Poissons Ratio (z) = 0.41586 0.39779
#
# Static dielectric constant tensor:
#      x y z
#    x 4.535640 0.000000 0.000000 
#    y 0.000000 4.087270 0.000000 
#    z 0.000000 0.000000 3.311670 
# 
# 
# High freq. dielectric constant tensor:
#      x y z
#    x 1.917910 0.000000 0.000000 
#    y 0.000000 1.911770 0.000000 
#    z 0.000000 0.000000 1.897480 
# 
# From -- ./inp_files/15129.got.cif
#   From: 2010.03.12/outbox.cif.g09.slc.cpg/sg56_8_cif.got.tgz:15129.got - 2010.04.16 15:33:40.
