data_PCOD8229665
_publ_section_title
;
Structure prediction by ZEFSAII (Michael W. Deem and Ramdas Pophale) SiO2 
 PCOD8229665
Probable space group: P C C N
;
_chemical_formula_sum "Si O2"
_cell_formula_units_Z 64
_cell_length_a 14.429944
_cell_length_b 11.969677
_cell_length_c 17.806351
_cell_angle_alpha 90.000000
_cell_angle_beta 90.000000
_cell_angle_gamma 90.000000
_cell_volume 3075.544441
_symmetry_space_group_name_H-M "P C C N"
_symmetry_group_IT_number 56
_symmetry_cell_setting 'orthorhombic'
loop_
_space_group_symop_operation_xyz
x,y,z
1/2-x,1/2-y,z
1/2+x,-y,1/2-z
-x,1/2+y,1/2-z
-x,-y,-z
1/2+x,1/2+y,-z
1/2-x,y,1/2+z
x,1/2-y,1/2+z
loop_
_atom_site_type_symbol
_atom_site_label
_atom_site_fract_x
_atom_site_fract_y
_atom_site_fract_z
Si Si1 0.640949 0.736486 0.250834
Si Si2 0.894061 0.526524 0.189204
Si Si3 0.357888 0.257415 0.581519
Si Si4 0.395305 0.030467 0.986350
Si Si5 0.067400 0.016908 0.067905
Si Si6 0.944043 0.985360 0.213283
Si Si7 0.729238 0.123130 0.751960
Si Si8 0.248466 0.877608 0.573473
O O1 0.750000 0.750000 0.244712
O O2 0.595776 0.848349 0.220018
O O3 0.605096 0.712414 0.335454
O O4 0.608680 0.631828 0.200632
O O5 0.873582 0.528036 0.101471
O O6 0.812272 0.458318 0.229086
O O7 0.994163 0.474878 0.210688
O O8 0.250000 0.250000 0.589182
O O9 0.384294 0.346151 0.518705
O O10 0.393751 0.139145 0.554861
O O11 0.500000 0.000000 0.000000
O O12 0.325841 0.944014 0.024670
O O13 0.014094 0.007609 0.145876
O O14 0.149246 0.926915 0.064180
O O15 0.000000 0.000000 0.000000
O O16 0.867650 0.083806 0.215744
O O17 0.750000 0.250000 0.725722
O O18 0.715883 0.115286 0.840889
O O19 0.250000 0.750000 0.545117
#
# Coordination Sequence:
#
# PCOD8229665 Si02
#       8
#     8   8   8   8   8   8   8   8
#     4  11  23  43  74 101 138 182 236 291 352 418
#     4  12  26  45  70 109 139 183 243 293 359 426
#     4  11  23  47  75  99 143 190 233 290 360 423
#     4  12  28  44  73 105 143 187 238 292 360 430
#     4  12  28  46  71 107 143 192 241 294 362 431
#     4  12  26  45  73 103 145 182 240 300 356 428
#     4  11  25  46  73 102 141 188 237 296 362 426
#     4  11  25  50  73 100 150 193 232 294 367 427
#
# _framework density 20.809322999999999
#
# number of rings (size 3 to 8) (size 9 to 14) (size 15 to 20)
#    0.000    0.500    5.000    2.250    7.000    2.000 
#    0.000    0.000    0.000    0.000    0.000    0.000 
#    0.000    0.000    0.000    0.000    0.000    0.000 
#
# Total GULP energy -793792.369135 kJ/mol
# GULP energy per Si atom -12403.005768 kJ/mol
# Density = 2.076196 g / cm^3
# Si number density = 20.809323 Si / 1000 Ang^3
#
#
#
# Elastic Constant Matrix: (Units=GPa)
#
#
# Indices 1 2 3 4 5 6 
#
# 1 133.8039 71.4732 42.8887 0.0000 0.0000 0.0000
# 2 71.4732 179.0672 63.6635 0.0000 0.0000 0.0000
# 3 42.8887 63.6635 102.9315 0.0000 0.0000 0.0000
# 4 0.0000 0.0000 0.0000 33.3520 0.0000 0.0000
# 5 0.0000 0.0000 0.0000 0.0000 37.0413 0.0000
# 6 0.0000 0.0000 0.0000 0.0000 0.0000 41.1434
#
#
#
# Elastic Compliance Matrix: (Units=1/GPa)
#
#
# Indices 1 2 3 4 5 6 
#
# 1 0.009855 -0.003171 -0.002145 0.000000 0.000000 0.000000
# 2 -0.003171 0.008179 -0.003737 0.000000 0.000000 0.000000
# 3 -0.002145 -0.003737 0.012921 0.000000 0.000000 0.000000
# 4 0.000000 0.000000 0.000000 0.029983 0.000000 0.000000
# 5 0.000000 0.000000 0.000000 0.000000 0.026997 0.000000
# 6 0.000000 0.000000 0.000000 0.000000 0.000000 0.024305
#
#
# Mechanical properties :
#
#
# Convention : Reuss Voigt Hill
#
# Bulk Modulus (GPa) = 77.83535 85.76149 81.79842
# Shear Modulus (GPa) = 37.13902 38.15915 37.64908
#
# Velocity S-wave (km/s) = 4.22919 4.28688 4.25813
# Velocity P-wave (km/s) = 7.83156 8.11206 7.97305
#
# Compressibility (1/GPa) = 0.01284763
#
# Stress axis : x y z
#
# Youngs Moduli (GPa) = 101.47163 122.26575 77.39564
#
# Poissons Ratio (x) = 0.38769 0.16602
# Poissons Ratio (y) = 0.32176 0.28926
# Poissons Ratio (z) = 0.21766 0.45696
#
# Static dielectric constant tensor:
#      x y z
#    x 3.897230 0.000000 0.000000 
#    y 0.000000 3.900540 0.000000 
#    z 0.000000 0.000000 3.734640 
# 
# 
# High freq. dielectric constant tensor:
#      x y z
#    x 1.831380 0.000000 0.000000 
#    y 0.000000 1.831300 0.000000 
#    z 0.000000 0.000000 1.814910 
# 
# From -- ./inp_files/16367.got.cif
#   From: 2010.03.12/outbox.cif.g09.slc.cpg/sg56_9_cif.got.tgz:16367.got - 2010.04.16 15:33:40.
