data_PCOD8229689
_publ_section_title
;
Structure prediction by ZEFSAII (Michael W. Deem and Ramdas Pophale) SiO2 
 PCOD8229689
Probable space group: P C C N
;
_chemical_formula_sum "Si O2"
_cell_formula_units_Z 48
_cell_length_a 17.204702
_cell_length_b 8.796759
_cell_length_c 13.986937
_cell_angle_alpha 90.000000
_cell_angle_beta 90.000000
_cell_angle_gamma 90.000000
_cell_volume 2116.861612
_symmetry_space_group_name_H-M "P C C N"
_symmetry_group_IT_number 56
_symmetry_cell_setting 'orthorhombic'
loop_
_space_group_symop_operation_xyz
x,y,z
1/2-x,1/2-y,z
1/2+x,-y,1/2-z
-x,1/2+y,1/2-z
-x,-y,-z
1/2+x,1/2+y,-z
1/2-x,y,1/2+z
x,1/2-y,1/2+z
loop_
_atom_site_type_symbol
_atom_site_label
_atom_site_fract_x
_atom_site_fract_y
_atom_site_fract_z
Si Si1 0.760959 0.054254 0.054876
Si Si2 0.360087 0.579478 0.127354
Si Si3 0.400940 0.647424 0.522267
Si Si4 0.994053 0.934079 0.360631
Si Si5 0.250000 0.750000 0.275773
Si Si6 0.912111 0.816099 0.747477
Si Si7 0.250000 0.250000 0.843284
O O1 0.795660 0.137071 0.150643
O O2 0.734518 0.889954 0.087485
O O3 0.820726 0.029472 0.970715
O O4 0.688645 0.150458 0.011373
O O5 0.417687 0.715433 0.096828
O O6 0.304827 0.644256 0.211417
O O7 0.403230 0.429075 0.162461
O O8 0.454193 0.670104 0.429749
O O9 0.419634 0.492127 0.579308
O O10 0.966773 0.827606 0.273656
O O11 0.046148 0.080766 0.332441
O O12 0.828576 0.743704 0.719968
#
# Coordination Sequence:
#
# PCOD8229689 Si02
#       7
#     8   8   8   8   4   8   4
#     4  12  25  43  72 112 147 186 238 313 365 426
#     4  12  25  42  77 106 143 191 248 297 370 430
#     4  11  23  47  68 101 144 195 237 296 366 443
#     4  11  27  46  72  98 153 188 240 302 373 437
#     4  12  20  44  68 106 146 186 234 308 362 430
#     4  12  28  48  72 112 141 200 244 303 367 444
#     4  12  28  44  76 112 150 182 258 308 358 428
#
# _framework density 22.675076000000001
#
# number of rings (size 3 to 8) (size 9 to 14) (size 15 to 20)
#    0.000    0.333    6.667    1.000    7.000    2.000 
#    0.000    0.000    0.000    0.000    0.000    0.000 
#    0.000    0.000    0.000    0.000    0.000    0.000 
#
# Total GULP energy -594909.890094 kJ/mol
# GULP energy per Si atom -12393.956044 kJ/mol
# Density = 2.262347 g / cm^3
# Si number density = 22.675076 Si / 1000 Ang^3
#
#
#
# Elastic Constant Matrix: (Units=GPa)
#
#
# Indices 1 2 3 4 5 6 
#
# 1 73.1991 18.7654 26.3440 0.0000 0.0000 0.0000
# 2 18.7654 68.4116 19.8167 0.0000 0.0000 0.0000
# 3 26.3440 19.8167 117.5168 0.0000 0.0000 0.0000
# 4 0.0000 0.0000 0.0000 51.7482 0.0000 0.0000
# 5 0.0000 0.0000 0.0000 0.0000 32.0405 0.0000
# 6 0.0000 0.0000 0.0000 0.0000 0.0000 37.1823
#
#
#
# Elastic Compliance Matrix: (Units=1/GPa)
#
#
# Indices 1 2 3 4 5 6 
#
# 1 0.015591 -0.003432 -0.002916 0.000000 0.000000 0.000000
# 2 -0.003432 0.016123 -0.001950 0.000000 0.000000 0.000000
# 3 -0.002916 -0.001950 0.009492 0.000000 0.000000 0.000000
# 4 0.000000 0.000000 0.000000 0.019324 0.000000 0.000000
# 5 0.000000 0.000000 0.000000 0.000000 0.031211 0.000000
# 6 0.000000 0.000000 0.000000 0.000000 0.000000 0.026895
#
#
# Mechanical properties :
#
#
# Convention : Reuss Voigt Hill
#
# Bulk Modulus (GPa) = 40.63258 43.21996 41.92627
# Shear Modulus (GPa) = 34.85913 37.14095 36.00004
#
# Velocity S-wave (km/s) = 3.92514 4.05157 3.98885
# Velocity P-wave (km/s) = 6.20489 6.40225 6.30434
#
# Compressibility (1/GPa) = 0.02461079
#
# Stress axis : x y z
#
# Youngs Moduli (GPa) = 64.14072 62.02140 105.35269
#
# Poissons Ratio (x) = 0.21284 0.30724
# Poissons Ratio (y) = 0.22012 0.20539
# Poissons Ratio (z) = 0.18705 0.12091
#
# Static dielectric constant tensor:
#      x y z
#    x 4.051320 0.000000 0.000000 
#    y 0.000000 4.278000 0.000000 
#    z 0.000000 0.000000 4.300440 
# 
# 
# High freq. dielectric constant tensor:
#      x y z
#    x 1.874320 0.000000 0.000000 
#    y 0.000000 1.905450 0.000000 
#    z 0.000000 0.000000 1.913000 
# 
# From -- ./inp_files/12719.got.cif
#   From: 2010.03.12/outbox.cif.g09.slc.cpg/sg56_7_cif.got.tgz:12719.got - 2010.04.16 15:33:40.
