data_PCOD8229499
_publ_section_title
;
Structure prediction by ZEFSAII (Michael W. Deem and Ramdas Pophale) SiO2 
 PCOD8229499
Probable space group: P C C N
;
_chemical_formula_sum "Si O2"
_cell_formula_units_Z 48
_cell_length_a 14.847559
_cell_length_b 18.131654
_cell_length_c 8.783131
_cell_angle_alpha 90.000000
_cell_angle_beta 90.000000
_cell_angle_gamma 90.000000
_cell_volume 2364.513745
_symmetry_space_group_name_H-M "P C C N"
_symmetry_group_IT_number 56
_symmetry_cell_setting 'orthorhombic'
loop_
_space_group_symop_operation_xyz
x,y,z
1/2-x,1/2-y,z
1/2+x,-y,1/2-z
-x,1/2+y,1/2-z
-x,-y,-z
1/2+x,1/2+y,-z
1/2-x,y,1/2+z
x,1/2-y,1/2+z
loop_
_atom_site_type_symbol
_atom_site_label
_atom_site_fract_x
_atom_site_fract_y
_atom_site_fract_z
Si Si1 0.041278 0.093409 0.113558
Si Si2 0.708985 0.055708 0.121301
Si Si3 0.933379 0.469198 0.876952
Si Si4 0.294629 0.170916 0.533133
Si Si5 0.122735 0.933372 0.069590
Si Si6 0.696488 0.578718 0.244602
O O1 0.110142 0.162931 0.124543
O O2 0.987793 0.088303 0.273011
O O3 0.101916 0.021100 0.076510
O O4 0.969708 0.107614 0.976416
O O5 0.661816 0.096000 0.267006
O O6 0.723035 0.971582 0.176519
O O7 0.649646 0.065989 0.968839
O O8 0.806792 0.085137 0.067685
O O9 0.896204 0.533138 0.764939
O O10 0.000000 0.500000 0.000000
O O11 0.250000 0.250000 0.548031
O O12 0.317914 0.150614 0.359550
O O13 0.224700 0.109498 0.591666
#
# Coordination Sequence:
#
# PCOD8229499 Si02
#       6
#     8   8   8   8   8   8
#     4  11  20  34  51  79 112 161 206 250 305 365
#     4  12  18  32  53  83 117 153 191 249 331 376
#     4  12  21  31  56  85 116 159 199 264 323 374
#     4  12  25  39  55  77 117 177 215 243 292 374
#     4  11  19  31  52  79 114 155 193 249 320 374
#     4  12  20  39  55  81 120 161 208 249 308 381
#
# _framework density 20.300156999999999
#
# number of rings (size 3 to 8) (size 9 to 14) (size 15 to 20)
#    0.000    0.333   10.000    1.500    0.000    0.000 
#    0.000    0.000    0.000    0.000    0.000    0.000 
#    0.000    1.333   30.000    1.000    0.000    0.000 
#
# Total GULP energy -594729.417231 kJ/mol
# GULP energy per Si atom -12390.196192 kJ/mol
# Density = 2.025395 g / cm^3
# Si number density = 20.300157 Si / 1000 Ang^3
#
#
#
# Elastic Constant Matrix: (Units=GPa)
#
#
# Indices 1 2 3 4 5 6 
#
# 1 130.1629 39.5161 52.0728 0.0000 0.0000 0.0000
# 2 39.5161 53.8831 28.1299 0.0000 0.0000 0.0000
# 3 52.0728 28.1299 120.4577 0.0000 0.0000 0.0000
# 4 0.0000 0.0000 0.0000 13.2646 0.0000 0.0000
# 5 0.0000 0.0000 0.0000 0.0000 53.9020 0.0000
# 6 0.0000 0.0000 0.0000 0.0000 0.0000 32.7089
#
#
#
# Elastic Compliance Matrix: (Units=1/GPa)
#
#
# Indices 1 2 3 4 5 6 
#
# 1 0.010889 -0.006296 -0.003237 0.000000 0.000000 0.000000
# 2 -0.006296 0.024775 -0.003064 0.000000 0.000000 0.000000
# 3 -0.003237 -0.003064 0.010417 0.000000 0.000000 0.000000
# 4 0.000000 0.000000 0.000000 0.075388 0.000000 0.000000
# 5 0.000000 0.000000 0.000000 0.000000 0.018552 0.000000
# 6 0.000000 0.000000 0.000000 0.000000 0.000000 0.030573
#
#
# Mechanical properties :
#
#
# Convention : Reuss Voigt Hill
#
# Bulk Modulus (GPa) = 47.87605 60.43794 54.15699
# Shear Modulus (GPa) = 24.66086 32.29409 28.47747
#
# Velocity S-wave (km/s) = 3.48920 3.99285 3.74949
# Velocity P-wave (km/s) = 6.31411 7.14800 6.74395
#
# Compressibility (1/GPa) = 0.02088727
#
# Stress axis : x y z
#
# Youngs Moduli (GPa) = 91.83582 40.36259 96.00122
#
# Poissons Ratio (x) = 0.25411 0.31076
# Poissons Ratio (y) = 0.57818 0.29416
# Poissons Ratio (z) = 0.29727 0.12367
#
# Static dielectric constant tensor:
#      x y z
#    x 4.567650 0.000000 0.000000 
#    y 0.000000 2.904470 0.000000 
#    z 0.000000 0.000000 4.346690 
# 
# 
# High freq. dielectric constant tensor:
#      x y z
#    x 1.820030 0.000000 0.000000 
#    y 0.000000 1.682340 0.000000 
#    z 0.000000 0.000000 1.824690 
# 
# From -- ./inp_files/3387.got.cif
#   From: 2010.03.12/outbox.cif.g09.slc.cpg/sg56_2_cif.got.tgz:3387.got - 2010.04.16 15:33:40.
