data_PCOD8229889
_publ_section_title
;
Structure prediction by ZEFSAII (Michael W. Deem and Ramdas Pophale) SiO2 
 PCOD8229889
Probable space group: P B C M
;
_chemical_formula_sum "Si O2"
_cell_formula_units_Z 44
_cell_length_a 25.603101
_cell_length_b 5.235531
_cell_length_c 17.857961
_cell_angle_alpha 90.000000
_cell_angle_beta 90.000000
_cell_angle_gamma 90.000000
_cell_volume 2393.785186
_symmetry_space_group_name_H-M "P B C M"
_symmetry_group_IT_number 57
_symmetry_cell_setting 'orthorhombic'
loop_
_space_group_symop_operation_xyz
x,y,z
-x,-y,1/2+z
x,1/2-y,-z
-x,1/2+y,1/2-z
-x,-y,-z
x,y,1/2-z
-x,1/2+y,z
x,1/2-y,1/2+z
loop_
_atom_site_type_symbol
_atom_site_label
_atom_site_fract_x
_atom_site_fract_y
_atom_site_fract_z
Si Si1 0.184779 0.233483 0.839142
Si Si2 0.360266 0.758072 0.913445
Si Si3 0.470729 0.759487 0.338800
Si Si4 0.965906 0.258335 0.750000
Si Si5 0.866001 0.233550 0.833040
Si Si6 0.295034 0.241884 0.086752
O O1 0.178467 0.233136 0.750000
O O2 0.154904 0.479395 0.874428
O O3 0.244764 0.233019 0.861654
O O4 0.155590 0.986163 0.874582
O O5 0.411409 0.731338 0.864226
O O6 0.322197 0.525052 0.893040
O O7 0.333142 0.025143 0.893064
O O8 0.376472 0.750000 0.000000
O O9 0.471821 0.759946 0.250000
O O10 0.498926 0.506623 0.370753
O O11 0.929359 0.235611 0.824488
O O12 0.991673 0.536368 0.750000
O O13 0.840454 0.233639 0.750000
O O14 0.278384 0.250000 0.000000
#
# Coordination Sequence:
#
# PCOD8229889 Si02
#       6
#     8   8   8   4   8   8
#     4  10  17  31  47  67  96 131 157 197 240 283
#     4  10  21  36  51  72  98 124 160 203 240 290
#     4  10  21  36  54  75  99 125 156 200 244 292
#     4  10  16  26  44  68 104 136 158 198 252 286
#     4   8  17  27  42  67  97 127 157 201 232 287
#     4  10  21  34  50  72  99 128 163 203 240 285
#
# _framework density 18.380929999999999
#
# number of rings (size 3 to 8) (size 9 to 14) (size 15 to 20)
#    0.545    1.818    0.000    3.273    0.000    2.182 
#    0.000    0.000    0.000    0.000    0.000    0.000 
#    0.000   14.545    0.000    0.000    0.000    0.000 
#
# Total GULP energy -545421.972851 kJ/mol
# GULP energy per Si atom -12395.953928 kJ/mol
# Density = 1.833909 g / cm^3
# Si number density = 18.380930 Si / 1000 Ang^3
#
#
#
# Elastic Constant Matrix: (Units=GPa)
#
#
# Indices 1 2 3 4 5 6 
#
# 1 82.8168 27.9554 9.9096 0.0000 0.0000 0.0000
# 2 27.9554 137.3736 16.5610 0.0000 0.0000 0.0000
# 3 9.9096 16.5610 6.1709 0.0000 0.0000 0.0000
# 4 0.0000 0.0000 0.0000 9.1645 0.0000 0.0000
# 5 0.0000 0.0000 0.0000 0.0000 -2.5653 0.0000
# 6 0.0000 0.0000 0.0000 0.0000 0.0000 36.8776
#
#
#
# Elastic Compliance Matrix: (Units=1/GPa)
#
#
# Indices 1 2 3 4 5 6 
#
# 1 0.014951 -0.000219 -0.023422 0.000000 0.000000 0.000000
# 2 -0.000219 0.010764 -0.028536 0.000000 0.000000 0.000000
# 3 -0.023422 -0.028536 0.276247 0.000000 0.000000 0.000000
# 4 0.000000 0.000000 0.000000 0.109117 0.000000 0.000000
# 5 0.000000 0.000000 0.000000 0.000000 -0.389822 0.000000
# 6 0.000000 0.000000 0.000000 0.000000 0.000000 0.027117
#
#
# Mechanical properties :
#
#
# Convention : Reuss Voigt Hill
#
# Bulk Modulus (GPa) = 5.06053 37.24591 21.15322
# Shear Modulus (GPa) = 22.87309 20.15772 21.51541
#
# Velocity S-wave (km/s) = 3.53142 3.31519 3.42501
# Velocity P-wave (km/s) = 4.40307 5.91281 5.21288
#
# Compressibility (1/GPa) = 0.19760758
#
# Stress axis : x y z
#
# Youngs Moduli (GPa) = 66.88358 92.90083 3.61995
#
# Poissons Ratio (x) = 0.02034 0.08479
# Poissons Ratio (y) = 0.01464 0.10330
# Poissons Ratio (z) = 1.56655 2.65106
#
# Static dielectric constant tensor:
#      x y z
#    x 3.211830 0.000000 0.000000 
#    y 0.000000 4.008300 0.000000 
#    z 0.000000 0.000000 2.937390 
# 
# 
# High freq. dielectric constant tensor:
#      x y z
#    x 1.713560 0.000000 0.000000 
#    y 0.000000 1.745060 0.000000 
#    z 0.000000 0.000000 1.658060 
# 
# From -- ./inp_files/23096.got.cif
#   From: 2010.03.12/outbox.cif.g09.slc.cpg/sg57_12_cif.got.tgz:23096.got - 2010.04.16 15:48:40.
