data_PCOD8229328
_publ_section_title
;
Structure prediction by ZEFSAII (Michael W. Deem and Ramdas Pophale) SiO2 
 PCOD8229328
Probable space group: P C C N
;
_chemical_formula_sum "Si O2"
_cell_formula_units_Z 44
_cell_length_a 13.577218
_cell_length_b 18.598820
_cell_length_c 9.203996
_cell_angle_alpha 90.000000
_cell_angle_beta 90.000000
_cell_angle_gamma 90.000000
_cell_volume 2324.195221
_symmetry_space_group_name_H-M "P C C N"
_symmetry_group_IT_number 56
_symmetry_cell_setting 'orthorhombic'
loop_
_space_group_symop_operation_xyz
x,y,z
1/2-x,1/2-y,z
1/2+x,-y,1/2-z
-x,1/2+y,1/2-z
-x,-y,-z
1/2+x,1/2+y,-z
1/2-x,y,1/2+z
x,1/2-y,1/2+z
loop_
_atom_site_type_symbol
_atom_site_label
_atom_site_fract_x
_atom_site_fract_y
_atom_site_fract_z
Si Si1 0.321133 0.478881 0.881964
Si Si2 0.383047 0.723048 0.307455
Si Si3 0.250000 0.750000 0.561155
Si Si4 0.127158 0.029481 0.211456
Si Si5 0.498859 0.892425 0.684493
Si Si6 0.553036 0.382161 0.145039
O O1 0.210342 0.463871 0.833040
O O2 0.389689 0.420041 0.801584
O O3 0.360215 0.558650 0.842210
O O4 0.323921 0.466487 0.053494
O O5 0.323639 0.705071 0.455673
O O6 0.481381 0.674880 0.293982
O O7 0.408098 0.807283 0.290865
O O8 0.314849 0.699938 0.168616
O O9 0.044574 0.091647 0.231316
O O10 0.075476 0.953704 0.234645
O O11 0.477658 0.869264 0.520227
#
# Coordination Sequence:
#
# PCOD8229328 Si02
#       6
#     8   8   4   8   8   8
#     4   9  19  36  56  76 103 139 177 213 259 306
#     4  11  20  36  51  80 108 134 177 208 265 306
#     4  10  24  30  52  82 106 142 164 212 264 318
#     4   9  19  36  56  76 103 139 177 213 259 306
#     4   9  19  36  55  76 107 141 170 213 261 312
#     4   9  19  36  55  76 107 141 170 213 261 312
#
# _framework density 18.931283000000001
#
# number of rings (size 3 to 8) (size 9 to 14) (size 15 to 20)
#    0.000    2.545    1.818    2.182    5.091    0.000 
#    3.273    2.727    0.000    4.364    0.000    0.000 
#    0.000    0.000    0.000    0.000    0.000    0.000 
#
# Total GULP energy -545280.214216 kJ/mol
# GULP energy per Si atom -12392.732141 kJ/mol
# Density = 1.888819 g / cm^3
# Si number density = 18.931283 Si / 1000 Ang^3
#
#
#
# Elastic Constant Matrix: (Units=GPa)
#
#
# Indices 1 2 3 4 5 6 
#
# 1 73.4642 18.2608 17.0604 0.0000 0.0000 0.0000
# 2 18.2608 85.9735 14.9082 0.0000 0.0000 0.0000
# 3 17.0604 14.9082 54.3788 0.0000 0.0000 0.0000
# 4 0.0000 0.0000 0.0000 17.7788 0.0000 0.0000
# 5 0.0000 0.0000 0.0000 0.0000 34.3367 0.0000
# 6 0.0000 0.0000 0.0000 0.0000 0.0000 20.4274
#
#
#
# Elastic Compliance Matrix: (Units=1/GPa)
#
#
# Indices 1 2 3 4 5 6 
#
# 1 0.015184 -0.002519 -0.004073 0.000000 0.000000 0.000000
# 2 -0.002519 0.012630 -0.002672 0.000000 0.000000 0.000000
# 3 -0.004073 -0.002672 0.020400 0.000000 0.000000 0.000000
# 4 0.000000 0.000000 0.000000 0.056247 0.000000 0.000000
# 5 0.000000 0.000000 0.000000 0.000000 0.029123 0.000000
# 6 0.000000 0.000000 0.000000 0.000000 0.000000 0.048954
#
#
# Mechanical properties :
#
#
# Convention : Reuss Voigt Hill
#
# Bulk Modulus (GPa) = 33.68661 34.91947 34.30304
# Shear Modulus (GPa) = 23.70100 25.41440 24.55770
#
# Velocity S-wave (km/s) = 3.54213 3.66793 3.60558
# Velocity P-wave (km/s) = 5.87892 6.03520 5.95757
#
# Compressibility (1/GPa) = 0.02968539
#
# Stress axis : x y z
#
# Youngs Moduli (GPa) = 65.85848 79.17737 49.01957
#
# Poissons Ratio (x) = 0.19943 0.19967
# Poissons Ratio (y) = 0.16588 0.13100
# Poissons Ratio (z) = 0.26825 0.21159
#
# Static dielectric constant tensor:
#      x y z
#    x 3.531840 0.000000 0.000000 
#    y 0.000000 3.342940 0.000000 
#    z 0.000000 0.000000 3.319020 
# 
# 
# High freq. dielectric constant tensor:
#      x y z
#    x 1.733300 0.000000 0.000000 
#    y 0.000000 1.715460 0.000000 
#    z 0.000000 0.000000 1.724810 
# 
# From -- ./inp_files/3324.got.cif
#   From: 2010.03.12/outbox.cif.g09.slc.cpg/sg56_2_cif.got.tgz:3324.got - 2010.04.16 15:33:40.
