data_PCOD8229938
_publ_section_title
;
Structure prediction by ZEFSAII (Michael W. Deem and Ramdas Pophale) SiO2 
 PCOD8229938
Probable space group: P B C M
;
_chemical_formula_sum "Si O2"
_cell_formula_units_Z 56
_cell_length_a 17.486380
_cell_length_b 21.725840
_cell_length_c 9.168347
_cell_angle_alpha 90.000000
_cell_angle_beta 90.000000
_cell_angle_gamma 90.000000
_cell_volume 3483.112731
_symmetry_space_group_name_H-M "P B C M"
_symmetry_group_IT_number 57
_symmetry_cell_setting 'orthorhombic'
loop_
_space_group_symop_operation_xyz
x,y,z
-x,-y,1/2+z
x,1/2-y,-z
-x,1/2+y,1/2-z
-x,-y,-z
x,y,1/2-z
-x,1/2+y,z
x,1/2-y,1/2+z
loop_
_atom_site_type_symbol
_atom_site_label
_atom_site_fract_x
_atom_site_fract_y
_atom_site_fract_z
Si Si1 0.950978 0.083051 0.911851
Si Si2 0.091062 0.059908 0.086914
Si Si3 0.233210 0.472586 0.081536
Si Si4 0.596194 0.543727 0.915788
Si Si5 0.785320 0.097674 0.580883
Si Si6 0.459193 0.591593 0.419792
Si Si7 0.647891 0.185316 0.921174
O O1 0.976931 0.102283 0.750000
O O2 0.872708 0.118220 0.957779
O O3 0.930866 0.011209 0.916907
O O4 0.021176 0.099214 0.018386
O O5 0.104241 0.084178 0.250000
O O6 0.169291 0.069269 0.997010
O O7 0.210401 0.479270 0.250000
O O8 0.314921 0.439203 0.062073
O O9 0.240334 0.540537 0.016130
O O10 0.569777 0.556737 0.750000
O O11 0.585261 0.471656 0.951344
O O12 0.546561 0.585284 0.024994
O O13 0.781453 0.076762 0.750000
O O14 0.730041 0.154492 0.548212
O O15 0.459126 0.609301 0.250000
O O16 0.419613 0.644859 0.511798
O O17 0.632674 0.193700 0.750000
O O18 0.648436 0.250000 0.000000
#
# Coordination Sequence:
#
# PCOD8229938 Si02
#       7
#     8   8   8   8   8   8   8
#     4   8  14  25  38  54  78 110 146 179 213 254
#     4   9  16  24  35  56  84 114 146 176 212 255
#     4  10  17  26  42  63  89 118 149 184 221 267
#     4   9  18  30  45  67  92 119 151 188 229 279
#     4   9  18  30  44  61  83 114 151 188 225 265
#     4  10  19  32  48  67  89 117 153 190 232 278
#     4  11  22  35  50  67  91 120 154 195 235 276
#
# _framework density 16.077572
#
# number of rings (size 3 to 8) (size 9 to 14) (size 15 to 20)
#    0.000    2.571    1.429    2.571    0.000    5.714 
#    0.000    0.000    0.000    0.000    0.000    0.000 
#    0.000    1.143    0.000    7.714    0.000    5.714 
#
# Total GULP energy -694263.404420 kJ/mol
# GULP energy per Si atom -12397.560793 kJ/mol
# Density = 1.604098 g / cm^3
# Si number density = 16.077572 Si / 1000 Ang^3
#
#
#
# Elastic Constant Matrix: (Units=GPa)
#
#
# Indices 1 2 3 4 5 6 
#
# 1 127.1771 39.2056 71.7773 0.0000 0.0000 0.0000
# 2 39.2056 47.0678 38.0187 0.0000 0.0000 0.0000
# 3 71.7773 38.0187 116.9904 0.0000 0.0000 0.0000
# 4 0.0000 0.0000 0.0000 18.3710 0.0000 0.0000
# 5 0.0000 0.0000 0.0000 0.0000 30.6532 0.0000
# 6 0.0000 0.0000 0.0000 0.0000 0.0000 12.6113
#
#
#
# Elastic Compliance Matrix: (Units=1/GPa)
#
#
# Indices 1 2 3 4 5 6 
#
# 1 0.013180 -0.006029 -0.006127 0.000000 0.000000 0.000000
# 2 -0.006029 0.031566 -0.006559 0.000000 0.000000 0.000000
# 3 -0.006127 -0.006559 0.014438 0.000000 0.000000 0.000000
# 4 0.000000 0.000000 0.000000 0.054434 0.000000 0.000000
# 5 0.000000 0.000000 0.000000 0.000000 0.032623 0.000000
# 6 0.000000 0.000000 0.000000 0.000000 0.000000 0.079294
#
#
# Mechanical properties :
#
#
# Convention : Reuss Voigt Hill
#
# Bulk Modulus (GPa) = 45.96890 65.47093 55.71991
# Shear Modulus (GPa) = 18.50376 21.80937 20.15656
#
# Velocity S-wave (km/s) = 3.39618 3.68708 3.54461
# Velocity P-wave (km/s) = 6.63572 7.67700 7.17527
#
# Compressibility (1/GPa) = 0.02175384
#
# Stress axis : x y z
#
# Youngs Moduli (GPa) = 75.87498 31.67969 69.26098
#
# Poissons Ratio (x) = 0.19100 0.42434
# Poissons Ratio (y) = 0.45747 0.45428
# Poissons Ratio (z) = 0.46487 0.20779
#
# Static dielectric constant tensor:
#      x y z
#    x 3.322800 0.000000 0.000000 
#    y 0.000000 2.496020 0.000000 
#    z 0.000000 0.000000 3.212350 
# 
# 
# High freq. dielectric constant tensor:
#      x y z
#    x 1.633460 0.000000 0.000000 
#    y 0.000000 1.541530 0.000000 
#    z 0.000000 0.000000 1.633380 
# 
# From -- ./inp_files/6979.got.cif
#   From: 2010.03.12/outbox.cif.g09.slc.cpg/sg57_4_cif.got.tgz:6979.got - 2010.04.16 15:48:40.
