data_PCOD8229012
_publ_section_title
;
Structure prediction by ZEFSAII (Michael W. Deem and Ramdas Pophale) SiO2 
 PCOD8229012
Probable space group: P C C N
;
_chemical_formula_sum "Si O2"
_cell_formula_units_Z 40
_cell_length_a 5.283339
_cell_length_b 31.395329
_cell_length_c 10.657542
_cell_angle_alpha 90.000000
_cell_angle_beta 90.000000
_cell_angle_gamma 90.000000
_cell_volume 1767.789577
_symmetry_space_group_name_H-M "P C C N"
_symmetry_group_IT_number 56
_symmetry_cell_setting 'orthorhombic'
loop_
_space_group_symop_operation_xyz
x,y,z
1/2-x,1/2-y,z
1/2+x,-y,1/2-z
-x,1/2+y,1/2-z
-x,-y,-z
1/2+x,1/2+y,-z
1/2-x,y,1/2+z
x,1/2-y,1/2+z
loop_
_atom_site_type_symbol
_atom_site_label
_atom_site_fract_x
_atom_site_fract_y
_atom_site_fract_z
Si Si1 0.817958 0.203466 0.314356
Si Si2 0.539170 0.527862 0.120546
Si Si3 0.458849 0.948115 0.212335
Si Si4 0.810618 0.668995 0.594359
Si Si5 0.580012 0.864590 0.329940
O O1 0.750000 0.250000 0.259369
O O2 0.583763 0.190816 0.402556
O O3 0.075576 0.202900 0.399574
O O4 0.859479 0.170691 0.197807
O O5 0.799663 0.554995 0.118048
O O6 0.554250 0.496165 0.238497
O O7 0.300550 0.560076 0.134978
O O8 0.500000 0.500000 0.000000
O O9 0.473703 0.912866 0.323301
O O10 0.791432 0.642724 0.464592
O O11 0.785837 0.638636 0.716824
#
# Coordination Sequence:
#
# PCOD8229012 Si02
#       5
#     8   8   8   8   8
#     4  10  24  44  66  99 131 173 223 272 339 400
#     4  10  22  40  60  90 128 168 216 265 326 386
#     4  10  23  38  61  94 123 170 215 267 326 386
#     4  10  25  43  66 100 130 178 217 279 331 403
#     4  10  26  42  71  97 138 172 231 270 343 397
#
# _framework density 22.627127999999999
#
# number of rings (size 3 to 8) (size 9 to 14) (size 15 to 20)
#    1.200    0.800    0.000    1.200    8.400    0.800 
#    3.600    0.000    0.000    0.000    0.000    0.000 
#    0.000    0.000    0.000    0.000    0.000    0.000 
#
# Total GULP energy -495527.058469 kJ/mol
# GULP energy per Si atom -12388.176462 kJ/mol
# Density = 2.257563 g / cm^3
# Si number density = 22.627128 Si / 1000 Ang^3
#
#
#
# Elastic Constant Matrix: (Units=GPa)
#
#
# Indices 1 2 3 4 5 6 
#
# 1 171.2384 17.0728 25.2077 0.0000 0.0000 0.0000
# 2 17.0728 66.2740 -7.2120 0.0000 0.0000 0.0000
# 3 25.2077 -7.2120 95.4486 0.0000 0.0000 0.0000
# 4 0.0000 0.0000 0.0000 23.5322 0.0000 0.0000
# 5 0.0000 0.0000 0.0000 0.0000 20.1256 0.0000
# 6 0.0000 0.0000 0.0000 0.0000 0.0000 28.4749
#
#
#
# Elastic Compliance Matrix: (Units=1/GPa)
#
#
# Indices 1 2 3 4 5 6 
#
# 1 0.006285 -0.001815 -0.001797 0.000000 0.000000 0.000000
# 2 -0.001815 0.015738 0.001668 0.000000 0.000000 0.000000
# 3 -0.001797 0.001668 0.011078 0.000000 0.000000 0.000000
# 4 0.000000 0.000000 0.000000 0.042495 0.000000 0.000000
# 5 0.000000 0.000000 0.000000 0.000000 0.049688 0.000000
# 6 0.000000 0.000000 0.000000 0.000000 0.000000 0.035119
#
#
# Mechanical properties :
#
#
# Convention : Reuss Voigt Hill
#
# Bulk Modulus (GPa) = 34.23015 44.78866 39.50940
# Shear Modulus (GPa) = 28.73115 34.28602 31.50858
#
# Velocity S-wave (km/s) = 3.56724 3.89686 3.73569
# Velocity P-wave (km/s) = 5.66813 6.33124 6.00884
#
# Compressibility (1/GPa) = 0.02921401
#
# Stress axis : x y z
#
# Youngs Moduli (GPa) = 159.10190 63.54078 90.27305
#
# Poissons Ratio (x) = 0.11531 0.16222
# Poissons Ratio (y) = 0.28872 -0.15061
# Poissons Ratio (z) = 0.28591 -0.10601
#
# Static dielectric constant tensor:
#      x y z
#    x 4.527590 0.000000 0.000000 
#    y 0.000000 3.971770 0.000000 
#    z 0.000000 0.000000 3.614130 
# 
# 
# High freq. dielectric constant tensor:
#      x y z
#    x 1.904260 0.000000 0.000000 
#    y 0.000000 1.879070 0.000000 
#    z 0.000000 0.000000 1.862000 
# 
# From -- ./inp_files/5676.got.cif
#   From: 2010.03.12/outbox.cif.g09.slc.cpg/sg56_3_cif.got.tgz:5676.got - 2010.04.16 15:33:40.
