data_PCOD8229771
_publ_section_title
;
Structure prediction by ZEFSAII (Michael W. Deem and Ramdas Pophale) SiO2 
 PCOD8229771
Probable space group: P C C N
;
_chemical_formula_sum "Si O2"
_cell_formula_units_Z 40
_cell_length_a 14.539148
_cell_length_b 10.415839
_cell_length_c 10.985968
_cell_angle_alpha 90.000000
_cell_angle_beta 90.000000
_cell_angle_gamma 90.000000
_cell_volume 1663.686702
_symmetry_space_group_name_H-M "P C C N"
_symmetry_group_IT_number 56
_symmetry_cell_setting 'orthorhombic'
loop_
_space_group_symop_operation_xyz
x,y,z
1/2-x,1/2-y,z
1/2+x,-y,1/2-z
-x,1/2+y,1/2-z
-x,-y,-z
1/2+x,1/2+y,-z
1/2-x,y,1/2+z
x,1/2-y,1/2+z
loop_
_atom_site_type_symbol
_atom_site_label
_atom_site_fract_x
_atom_site_fract_y
_atom_site_fract_z
Si Si1 0.250000 0.250000 0.285000
Si Si2 0.948175 0.302074 0.997117
Si Si3 0.499974 0.007887 0.198914
Si Si4 0.250000 0.750000 0.075169
Si Si5 0.182128 0.012570 0.153922
Si Si6 0.098141 0.381271 0.417168
O O1 0.250301 0.124363 0.199061
O O2 0.160592 0.261930 0.371696
O O3 0.839354 0.274913 0.009610
O O4 0.963565 0.391037 0.880391
O O5 0.002959 0.169658 0.975677
O O6 0.989252 0.363453 0.118852
O O7 0.425337 0.027869 0.303949
O O8 0.597891 0.976542 0.254792
O O9 0.268830 0.626143 0.160866
O O10 0.154083 0.035428 0.014228
#
# Coordination Sequence:
#
# PCOD8229771 Si02
#       6
#     4   8   8   4   8   8
#     4  12  26  48  78 112 152 200 258 316 372 472
#     4  11  26  47  74 110 155 205 253 316 389 457
#     4  11  25  48  74 106 156 201 250 319 383 459
#     4  12  28  46  76 118 156 194 256 324 380 458
#     4  12  27  48  77 113 150 204 255 317 390 454
#     4  12  25  46  79 107 149 205 256 307 385 471
#
# _framework density 24.042988000000001
#
# number of rings (size 3 to 8) (size 9 to 14) (size 15 to 20)
#    0.000    0.400    4.000    3.600    2.800    2.400 
#    0.000    0.000    0.000    0.000    0.000    0.000 
#    0.000    0.000    0.000    0.000    0.000    0.000 
#
# Total GULP energy -496215.451894 kJ/mol
# GULP energy per Si atom -12405.386297 kJ/mol
# Density = 2.398826 g / cm^3
# Si number density = 24.042988 Si / 1000 Ang^3
#
#
#
# Elastic Constant Matrix: (Units=GPa)
#
#
# Indices 1 2 3 4 5 6 
#
# 1 125.8157 31.8127 30.1979 0.0000 0.0000 0.0000
# 2 31.8127 126.0485 37.9499 0.0000 0.0000 0.0000
# 3 30.1979 37.9499 121.4305 0.0000 0.0000 0.0000
# 4 0.0000 0.0000 0.0000 25.4683 0.0000 0.0000
# 5 0.0000 0.0000 0.0000 0.0000 19.3711 0.0000
# 6 0.0000 0.0000 0.0000 0.0000 0.0000 32.3360
#
#
#
# Elastic Compliance Matrix: (Units=1/GPa)
#
#
# Indices 1 2 3 4 5 6 
#
# 1 0.008778 -0.001720 -0.001645 0.000000 0.000000 0.000000
# 2 -0.001720 0.009095 -0.002415 0.000000 0.000000 0.000000
# 3 -0.001645 -0.002415 0.009399 0.000000 0.000000 0.000000
# 4 0.000000 0.000000 0.000000 0.039264 0.000000 0.000000
# 5 0.000000 0.000000 0.000000 0.000000 0.051623 0.000000
# 6 0.000000 0.000000 0.000000 0.000000 0.000000 0.030925
#
#
# Mechanical properties :
#
#
# Convention : Reuss Voigt Hill
#
# Bulk Modulus (GPa) = 63.64744 63.69062 63.66903
# Shear Modulus (GPa) = 30.14199 33.65736 31.89967
#
# Velocity S-wave (km/s) = 3.54456 3.74556 3.64645
# Velocity P-wave (km/s) = 6.57888 6.72707 6.65339
#
# Compressibility (1/GPa) = 0.01571155
#
# Stress axis : x y z
#
# Youngs Moduli (GPa) = 113.92159 109.95642 106.39503
#
# Poissons Ratio (x) = 0.18913 0.17506
# Poissons Ratio (y) = 0.19595 0.25689
# Poissons Ratio (z) = 0.18745 0.26549
#
# Static dielectric constant tensor:
#      x y z
#    x 4.455090 0.000000 0.000000 
#    y 0.000000 4.307460 0.000000 
#    z 0.000000 0.000000 4.260000 
# 
# 
# High freq. dielectric constant tensor:
#      x y z
#    x 1.965100 0.000000 0.000000 
#    y 0.000000 1.960430 0.000000 
#    z 0.000000 0.000000 1.950250 
# 
# From -- ./inp_files/7694.got.cif
#   From: 2010.03.12/outbox.cif.g09.slc.cpg/sg56_4_cif.got.tgz:7694.got - 2010.04.16 15:33:40.
