data_PCOD8229959
_publ_section_title
;
Structure prediction by ZEFSAII (Michael W. Deem and Ramdas Pophale) SiO2 
 PCOD8229959
Probable space group: P B C M
;
_chemical_formula_sum "Si O2"
_cell_formula_units_Z 56
_cell_length_a 17.573701
_cell_length_b 21.749804
_cell_length_c 8.937898
_cell_angle_alpha 90.000000
_cell_angle_beta 90.000000
_cell_angle_gamma 90.000000
_cell_volume 3416.284062
_symmetry_space_group_name_H-M "P B C M"
_symmetry_group_IT_number 57
_symmetry_cell_setting 'orthorhombic'
loop_
_space_group_symop_operation_xyz
x,y,z
-x,-y,1/2+z
x,1/2-y,-z
-x,1/2+y,1/2-z
-x,-y,-z
x,y,1/2-z
-x,1/2+y,z
x,1/2-y,1/2+z
loop_
_atom_site_type_symbol
_atom_site_label
_atom_site_fract_x
_atom_site_fract_y
_atom_site_fract_z
Si Si1 0.396536 0.955983 0.425135
Si Si2 0.203405 0.103817 0.576211
Si Si3 0.908449 0.440243 0.418990
Si Si4 0.542343 0.590045 0.425161
Si Si5 0.241107 0.964725 0.925609
Si Si6 0.945312 0.916331 0.581745
Si Si7 0.653424 0.683850 0.572873
O O1 0.400370 0.941612 0.250000
O O2 0.457408 0.913788 0.510069
O O3 0.314280 0.938272 0.489227
O O4 0.412773 0.027325 0.459591
O O5 0.183683 0.107341 0.750000
O O6 0.126075 0.119906 0.488362
O O7 0.267002 0.152437 0.527459
O O8 0.233826 0.036463 0.534089
O O9 0.895111 0.417573 0.250000
O O10 0.832595 0.428046 0.515283
O O11 0.928684 0.511652 0.423362
O O12 0.978001 0.401651 0.489700
O O13 0.538588 0.604236 0.250000
O O14 0.583685 0.645145 0.509059
O O15 0.250161 0.953588 0.750000
O O16 0.957257 0.892955 0.750000
O O17 0.651561 0.750000 0.500000
O O18 0.644548 0.688435 0.750000
#
# Coordination Sequence:
#
# PCOD8229959 Si02
#       7
#     8   8   8   8   8   8   8
#     4  10  19  30  47  69  94 122 155 194 237 288
#     4   9  18  30  44  61  86 119 154 191 232 276
#     4   9  16  25  37  57  86 118 150 182 221 265
#     4  10  20  33  49  68  91 121 157 195 239 287
#     4  10  17  27  43  64  91 121 155 191 230 277
#     4   9  16  25  39  58  82 114 151 186 220 263
#     4  11  22  36  51  69  93 123 160 201 243 285
#
# _framework density 16.39208
#
# number of rings (size 3 to 8) (size 9 to 14) (size 15 to 20)
#    0.000    2.286    1.429    2.571    0.000    6.286 
#    0.000    0.000    0.000    0.000    0.000    0.000 
#    0.000    1.143    0.000    9.714    0.000    7.143 
#
# Total GULP energy -694491.256973 kJ/mol
# GULP energy per Si atom -12401.629589 kJ/mol
# Density = 1.635477 g / cm^3
# Si number density = 16.392080 Si / 1000 Ang^3
#
#
#
# Elastic Constant Matrix: (Units=GPa)
#
#
# Indices 1 2 3 4 5 6 
#
# 1 143.2384 41.2477 62.0052 0.0000 0.0000 0.0000
# 2 41.2477 50.3731 31.3660 0.0000 0.0000 0.0000
# 3 62.0052 31.3660 93.2712 0.0000 0.0000 0.0000
# 4 0.0000 0.0000 0.0000 17.4926 0.0000 0.0000
# 5 0.0000 0.0000 0.0000 0.0000 37.6393 0.0000
# 6 0.0000 0.0000 0.0000 0.0000 0.0000 15.7968
#
#
#
# Elastic Compliance Matrix: (Units=1/GPa)
#
#
# Indices 1 2 3 4 5 6 
#
# 1 0.010920 -0.005593 -0.005379 0.000000 0.000000 0.000000
# 2 -0.005593 0.027974 -0.005689 0.000000 0.000000 0.000000
# 3 -0.005379 -0.005689 0.016210 0.000000 0.000000 0.000000
# 4 0.000000 0.000000 0.000000 0.057167 0.000000 0.000000
# 5 0.000000 0.000000 0.000000 0.000000 0.026568 0.000000
# 6 0.000000 0.000000 0.000000 0.000000 0.000000 0.063304
#
#
# Mechanical properties :
#
#
# Convention : Reuss Voigt Hill
#
# Bulk Modulus (GPa) = 45.90763 61.79119 53.84941
# Shear Modulus (GPa) = 20.59927 24.33664 22.46795
#
# Velocity S-wave (km/s) = 3.54879 3.85731 3.70626
# Velocity P-wave (km/s) = 6.69766 7.59052 7.15802
#
# Compressibility (1/GPa) = 0.02178287
#
# Stress axis : x y z
#
# Youngs Moduli (GPa) = 91.57257 35.74730 61.68845
#
# Poissons Ratio (x) = 0.19993 0.33181
# Poissons Ratio (y) = 0.51214 0.35097
# Poissons Ratio (z) = 0.49256 0.20338
#
# Static dielectric constant tensor:
#      x y z
#    x 3.252950 0.000000 0.000000 
#    y 0.000000 2.456380 0.000000 
#    z 0.000000 0.000000 3.215550 
# 
# 
# High freq. dielectric constant tensor:
#      x y z
#    x 1.646250 0.000000 0.000000 
#    y 0.000000 1.556460 0.000000 
#    z 0.000000 0.000000 1.649850 
# 
# From -- ./inp_files/7054.got.cif
#   From: 2010.03.12/outbox.cif.g09.slc.cpg/sg57_4_cif.got.tgz:7054.got - 2010.04.16 15:48:40.
