data_PCOD8229916
_publ_section_title
;
Structure prediction by ZEFSAII (Michael W. Deem and Ramdas Pophale) SiO2 
 PCOD8229916
Probable space group: P B C M
;
_chemical_formula_sum "Si O2"
_cell_formula_units_Z 52
_cell_length_a 21.498768
_cell_length_b 5.202582
_cell_length_c 25.268965
_cell_angle_alpha 90.000000
_cell_angle_beta 90.000000
_cell_angle_gamma 90.000000
_cell_volume 2826.311080
_symmetry_space_group_name_H-M "P B C M"
_symmetry_group_IT_number 57
_symmetry_cell_setting 'orthorhombic'
loop_
_space_group_symop_operation_xyz
x,y,z
-x,-y,1/2+z
x,1/2-y,-z
-x,1/2+y,1/2-z
-x,-y,-z
x,y,1/2-z
-x,1/2+y,z
x,1/2-y,1/2+z
loop_
_atom_site_type_symbol
_atom_site_label
_atom_site_fract_x
_atom_site_fract_y
_atom_site_fract_z
Si Si1 0.843396 0.257671 0.938328
Si Si2 0.477044 0.204680 0.842218
Si Si3 0.958862 0.235762 0.363660
Si Si4 0.766443 0.757533 0.561835
Si Si5 0.962128 0.173302 0.750000
Si Si6 0.434492 0.688273 0.943536
Si Si7 0.369845 0.196610 0.911365
O O1 0.907342 0.223206 0.907697
O O2 0.812694 0.527894 0.922703
O O3 0.797371 0.027031 0.922666
O O4 0.860005 0.250000 0.000000
O O5 0.505410 0.445877 0.810109
O O6 0.511681 0.162231 0.899590
O O7 0.403551 0.229844 0.853460
O O8 0.926533 0.263607 0.305121
O O9 0.011316 0.454397 0.370517
O O10 0.748759 0.750000 0.500000
O O11 0.703817 0.724845 0.595879
O O12 0.020937 0.370935 0.750000
O O13 0.395227 0.425176 0.948647
O O14 0.384889 0.912772 0.932082
O O15 0.466928 0.750000 0.000000
#
# Coordination Sequence:
#
# PCOD8229916 Si02
#       7
#     8   8   8   8   4   8   8
#     4  10  21  33  44  63  89 116 147 179 206 240
#     4   8  16  24  31  45  63  82 114 167 220 255
#     4  10  19  33  53  73  93 114 137 171 213 253
#     4  10  19  30  41  54  78 112 149 183 209 242
#     4   8  16  30  50  76  96 110 132 164 206 252
#     4  10  17  23  32  47  64  83 118 172 223 257
#     4  10  18  26  36  47  63  94 131 169 215 250
#
# _framework density 18.398541000000002
#
# number of rings (size 3 to 8) (size 9 to 14) (size 15 to 20)
#    0.000    2.462    0.000    3.231    0.000    8.000 
#    0.000    0.000    0.000    0.000    0.000    0.000 
#    0.000    0.000    0.000    0.000    0.000    0.000 
#
# Total GULP energy -644343.797277 kJ/mol
# GULP energy per Si atom -12391.226871 kJ/mol
# Density = 1.835666 g / cm^3
# Si number density = 18.398541 Si / 1000 Ang^3
#
#
#
# Elastic Constant Matrix: (Units=GPa)
#
#
# Indices 1 2 3 4 5 6 
#
# 1 85.8354 17.4797 32.9625 0.0000 0.0000 0.0000
# 2 17.4797 115.8822 10.7408 0.0000 0.0000 0.0000
# 3 32.9625 10.7408 39.9098 0.0000 0.0000 0.0000
# 4 0.0000 0.0000 0.0000 6.8443 0.0000 0.0000
# 5 0.0000 0.0000 0.0000 0.0000 -3.9409 0.0000
# 6 0.0000 0.0000 0.0000 0.0000 0.0000 25.2333
#
#
#
# Elastic Compliance Matrix: (Units=1/GPa)
#
#
# Indices 1 2 3 4 5 6 
#
# 1 0.017255 -0.001315 -0.013897 0.000000 0.000000 0.000000
# 2 -0.001315 0.008950 -0.001323 0.000000 0.000000 0.000000
# 3 -0.013897 -0.001323 0.036891 0.000000 0.000000 0.000000
# 4 0.000000 0.000000 0.000000 0.146106 0.000000 0.000000
# 5 0.000000 0.000000 0.000000 0.000000 -0.253746 0.000000
# 6 0.000000 0.000000 0.000000 0.000000 0.000000 0.039630
#
#
# Mechanical properties :
#
#
# Convention : Reuss Voigt Hill
#
# Bulk Modulus (GPa) = 33.30457 40.44373 36.87415
# Shear Modulus (GPa) = 131.01120 17.65696 74.33408
#
# Velocity S-wave (km/s) = 8.44760 3.10125 6.36316
# Velocity P-wave (km/s) = 10.64379 5.90368 8.60650
#
# Compressibility (1/GPa) = 0.03002591
#
# Stress axis : x y z
#
# Youngs Moduli (GPa) = 57.95490 111.72713 27.10705
#
# Poissons Ratio (x) = 0.14688 0.37672
# Poissons Ratio (y) = 0.07619 0.03586
# Poissons Ratio (z) = 0.80542 0.14782
#
# Static dielectric constant tensor:
#      x y z
#    x 3.091560 0.000000 0.000000 
#    y 0.000000 4.302560 0.000000 
#    z 0.000000 0.000000 2.986900 
# 
# 
# High freq. dielectric constant tensor:
#      x y z
#    x 1.684130 0.000000 0.000000 
#    y 0.000000 1.756520 0.000000 
#    z 0.000000 0.000000 1.658180 
# 
# From -- ./inp_files/28836.got.cif
#   From: 2010.03.12/outbox.cif.g09.slc.cpg/sg57_15_cif.got.tgz:28836.got - 2010.04.16 15:48:40.
