data_PCOD8229912
_publ_section_title
;
Structure prediction by ZEFSAII (Michael W. Deem and Ramdas Pophale) SiO2 
 PCOD8229912
Probable space group: P B C M
;
_chemical_formula_sum "Si O2"
_cell_formula_units_Z 32
_cell_length_a 20.310516
_cell_length_b 5.102905
_cell_length_c 13.911744
_cell_angle_alpha 90.000000
_cell_angle_beta 90.000000
_cell_angle_gamma 90.000000
_cell_volume 1441.849787
_symmetry_space_group_name_H-M "P B C M"
_symmetry_group_IT_number 57
_symmetry_cell_setting 'orthorhombic'
loop_
_space_group_symop_operation_xyz
x,y,z
-x,-y,1/2+z
x,1/2-y,-z
-x,1/2+y,1/2-z
-x,-y,-z
x,y,1/2-z
-x,1/2+y,z
x,1/2-y,1/2+z
loop_
_atom_site_type_symbol
_atom_site_label
_atom_site_fract_x
_atom_site_fract_y
_atom_site_fract_z
Si Si1 0.470971 0.529809 0.893587
Si Si2 0.039146 0.774612 0.887537
Si Si3 0.849687 0.061285 0.250000
Si Si4 0.676972 0.005752 0.935845
Si Si5 0.235970 0.048843 0.250000
O O1 0.490917 0.263938 0.838628
O O2 0.393439 0.587812 0.892890
O O3 0.500000 0.500000 0.000000
O O4 0.107946 0.868103 0.844136
O O5 0.015410 0.487917 0.853402
O O6 0.049644 0.750000 0.000000
O O7 0.787802 0.250873 0.250000
O O8 0.823625 0.761956 0.250000
O O9 0.723170 0.921585 0.847734
O O10 0.704618 0.250000 0.000000
O O11 0.668676 0.750000 0.000000
#
# Coordination Sequence:
#
# PCOD8229912 Si02
#       5
#     8   8   4   8   4
#     4  10  16  32  62  92 112 154 207 265 353 405
#     4  10  21  39  69 104 128 162 215 271 326 376
#     4  12  24  45  64  89 146 176 216 268 318 388
#     4  12  23  43  68  87 132 170 215 286 334 387
#     4  12  30  43  60 101 128 186 242 250 314 432
#
# _framework density 22.193712000000001
#
# number of rings (size 3 to 8) (size 9 to 14) (size 15 to 20)
#    0.000    1.000    5.000    3.750    0.000    3.000 
#    0.000    1.250    0.000    0.000    0.000    0.000 
#    0.000    0.000    0.000    0.000    0.000    0.000 
#
# Total GULP energy -396564.643279 kJ/mol
# GULP energy per Si atom -12392.645102 kJ/mol
# Density = 2.214320 g / cm^3
# Si number density = 22.193712 Si / 1000 Ang^3
#
#
#
# Elastic Constant Matrix: (Units=GPa)
#
#
# Indices 1 2 3 4 5 6 
#
# 1 100.3325 20.0902 38.5695 0.0000 0.0000 0.0000
# 2 20.0902 159.3161 25.7125 0.0000 0.0000 0.0000
# 3 38.5695 25.7125 96.5053 0.0000 0.0000 0.0000
# 4 0.0000 0.0000 0.0000 10.9466 0.0000 0.0000
# 5 0.0000 0.0000 0.0000 0.0000 91.3952 0.0000
# 6 0.0000 0.0000 0.0000 0.0000 0.0000 47.4664
#
#
#
# Elastic Compliance Matrix: (Units=1/GPa)
#
#
# Indices 1 2 3 4 5 6 
#
# 1 0.011864 -0.000764 -0.004538 0.000000 0.000000 0.000000
# 2 -0.000764 0.006608 -0.001455 0.000000 0.000000 0.000000
# 3 -0.004538 -0.001455 0.012564 0.000000 0.000000 0.000000
# 4 0.000000 0.000000 0.000000 0.091353 0.000000 0.000000
# 5 0.000000 0.000000 0.000000 0.000000 0.010941 0.000000
# 6 0.000000 0.000000 0.000000 0.000000 0.000000 0.021068
#
#
# Mechanical properties :
#
#
# Convention : Reuss Voigt Hill
#
# Bulk Modulus (GPa) = 57.07320 58.32204 57.69762
# Shear Modulus (GPa) = 28.77650 48.08041 38.42845
#
# Velocity S-wave (km/s) = 3.60475 4.65951 4.16565
# Velocity P-wave (km/s) = 6.56486 7.43530 7.01360
#
# Compressibility (1/GPa) = 0.01752136
#
# Stress axis : x y z
#
# Youngs Moduli (GPa) = 84.28602 151.33121 79.59454
#
# Poissons Ratio (x) = 0.11557 0.36122
# Poissons Ratio (y) = 0.06437 0.11584
# Poissons Ratio (z) = 0.38251 0.22025
#
# Static dielectric constant tensor:
#      x y z
#    x 3.851390 0.000000 0.000000 
#    y 0.000000 3.559540 0.000000 
#    z 0.000000 0.000000 3.892130 
# 
# 
# High freq. dielectric constant tensor:
#      x y z
#    x 1.861150 0.000000 0.000000 
#    y 0.000000 1.904570 0.000000 
#    z 0.000000 0.000000 1.870920 
# 
# From -- ./inp_files/18829.got.cif
#   From: 2010.03.12/outbox.cif.g09.slc.cpg/sg57_10_cif.got.tgz:18829.got - 2010.04.16 15:48:40.
