data_PCOD8229082
_publ_section_title
;
Structure prediction by ZEFSAII (Michael W. Deem and Ramdas Pophale) SiO2 
 PCOD8229082
Probable space group: P C C N
;
_chemical_formula_sum "Si O2"
_cell_formula_units_Z 64
_cell_length_a 8.779737
_cell_length_b 17.180896
_cell_length_c 19.944987
_cell_angle_alpha 90.000000
_cell_angle_beta 90.000000
_cell_angle_gamma 90.000000
_cell_volume 3008.576599
_symmetry_space_group_name_H-M "P C C N"
_symmetry_group_IT_number 56
_symmetry_cell_setting 'orthorhombic'
loop_
_space_group_symop_operation_xyz
x,y,z
1/2-x,1/2-y,z
1/2+x,-y,1/2-z
-x,1/2+y,1/2-z
-x,-y,-z
1/2+x,1/2+y,-z
1/2-x,y,1/2+z
x,1/2-y,1/2+z
loop_
_atom_site_type_symbol
_atom_site_label
_atom_site_fract_x
_atom_site_fract_y
_atom_site_fract_z
Si Si1 0.061721 0.838068 0.475443
Si Si2 0.958301 0.412059 0.795134
Si Si3 0.417205 0.572879 0.344013
Si Si4 0.340554 0.830066 0.721888
Si Si5 0.561485 0.056652 0.647294
Si Si6 0.037525 0.389228 0.387926
Si Si7 0.846906 0.829947 0.603359
Si Si8 0.408342 0.660254 0.974507
O O1 0.013157 0.891878 0.412798
O O2 0.066523 0.748842 0.453429
O O3 0.234877 0.861099 0.494609
O O4 0.945014 0.848601 0.536853
O O5 0.984387 0.496973 0.826777
O O6 0.042753 0.340421 0.832608
O O7 0.778960 0.395960 0.800779
O O8 0.007552 0.411389 0.716971
O O9 0.430193 0.641002 0.287999
O O10 0.242773 0.547855 0.349531
O O11 0.250000 0.750000 0.735925
O O12 0.463463 0.824134 0.661511
O O13 0.521203 0.115036 0.588087
O O14 0.479229 0.974762 0.631401
O O15 0.220174 0.395427 0.384233
O O16 0.007233 0.362278 0.462498
O O17 0.750000 0.750000 0.600015
#
# Coordination Sequence:
#
# PCOD8229082 Si02
#       8
#     8   8   8   8   8   8   8   8
#     4  10  23  42  65  94 129 174 222 272 330 401
#     4  11  23  44  68  94 135 172 219 278 334 401
#     4  10  22  43  67  95 132 170 220 274 336 396
#     4  11  25  41  70 101 128 178 226 267 327 409
#     4  10  22  42  65  97 128 170 219 276 332 398
#     4  12  22  41  67  92 136 169 220 274 327 392
#     4  12  24  43  65  95 134 173 215 276 336 394
#     4  10  22  41  67  93 128 172 225 273 328 394
#
# _framework density 21.272518999999999
#
# number of rings (size 3 to 8) (size 9 to 14) (size 15 to 20)
#    0.000    1.250    3.750    1.875    7.000    0.500 
#    4.500    0.000    0.000    0.000    0.000    0.000 
#    0.000    0.000    0.000    0.000    0.000    0.000 
#
# Total GULP energy -793325.249212 kJ/mol
# GULP energy per Si atom -12395.707019 kJ/mol
# Density = 2.122410 g / cm^3
# Si number density = 21.272519 Si / 1000 Ang^3
#
#
#
# Elastic Constant Matrix: (Units=GPa)
#
#
# Indices 1 2 3 4 5 6 
#
# 1 42.3635 15.3350 18.1153 0.0000 0.0000 0.0000
# 2 15.3350 95.8325 50.3971 0.0000 0.0000 0.0000
# 3 18.1153 50.3971 123.3643 0.0000 0.0000 0.0000
# 4 0.0000 0.0000 0.0000 -170.3301 0.0000 0.0000
# 5 0.0000 0.0000 0.0000 0.0000 23.4425 0.0000
# 6 0.0000 0.0000 0.0000 0.0000 0.0000 31.3078
#
#
#
# Elastic Compliance Matrix: (Units=1/GPa)
#
#
# Indices 1 2 3 4 5 6 
#
# 1 0.025729 -0.002713 -0.002670 0.000000 0.000000 0.000000
# 2 -0.002713 0.013576 -0.005148 0.000000 0.000000 0.000000
# 3 -0.002670 -0.005148 0.010601 0.000000 0.000000 0.000000
# 4 0.000000 0.000000 0.000000 -0.005871 0.000000 0.000000
# 5 0.000000 0.000000 0.000000 0.000000 0.042657 0.000000
# 6 0.000000 0.000000 0.000000 0.000000 0.000000 0.031941
#
#
# Mechanical properties :
#
#
# Convention : Reuss Voigt Hill
#
# Bulk Modulus (GPa) = 34.66813 47.69498 41.18155
# Shear Modulus (GPa) = 33.48739 -11.26841 11.10949
#
# Velocity S-wave (km/s) = 3.97193 -2.30405 2.28775
# Velocity P-wave (km/s) = 6.11290 3.92319 5.13609
#
# Compressibility (1/GPa) = 0.02884494
#
# Stress axis : x y z
#
# Youngs Moduli (GPa) = 38.86668 73.65846 94.32993
#
# Poissons Ratio (x) = 0.19984 0.25184
# Poissons Ratio (y) = 0.10545 0.48559
# Poissons Ratio (z) = 0.10376 0.37918
#
# Static dielectric constant tensor:
#      x y z
#    x 3.858740 0.000000 0.000000 
#    y 0.000000 3.894620 0.000000 
#    z 0.000000 0.000000 3.938410 
# 
# 
# High freq. dielectric constant tensor:
#      x y z
#    x 1.821590 0.000000 0.000000 
#    y 0.000000 1.841310 0.000000 
#    z 0.000000 0.000000 1.841450 
# 
# From -- ./inp_files/15212.got.cif
#   From: 2010.03.12/outbox.cif.g09.slc.cpg/sg56_8_cif.got.tgz:15212.got - 2010.04.16 15:33:40.
