data_PCOD8229844
_publ_section_title
;
Structure prediction by ZEFSAII (Michael W. Deem and Ramdas Pophale) SiO2 
 PCOD8229844
Probable space group: P C C N
;
_chemical_formula_sum "Si O2"
_cell_formula_units_Z 24
_cell_length_a 4.826425
_cell_length_b 8.023806
_cell_length_c 25.881151
_cell_angle_alpha 90.000000
_cell_angle_beta 90.000000
_cell_angle_gamma 90.000000
_cell_volume 1002.281163
_symmetry_space_group_name_H-M "P C C N"
_symmetry_group_IT_number 56
_symmetry_cell_setting 'orthorhombic'
loop_
_space_group_symop_operation_xyz
x,y,z
1/2-x,1/2-y,z
1/2+x,-y,1/2-z
-x,1/2+y,1/2-z
-x,-y,-z
1/2+x,1/2+y,-z
1/2-x,y,1/2+z
x,1/2-y,1/2+z
loop_
_atom_site_type_symbol
_atom_site_label
_atom_site_fract_x
_atom_site_fract_y
_atom_site_fract_z
Si Si1 0.860715 0.934583 0.051859
Si Si2 0.147956 0.062320 0.609463
Si Si3 0.654951 0.438469 0.279826
O O1 0.750000 0.750000 0.043748
O O2 0.397286 0.950483 0.931378
O O3 0.097991 0.939062 0.095537
O O4 0.000000 0.000000 0.000000
O O5 0.250000 0.250000 0.607802
O O6 0.042210 0.009981 0.665983
O O7 0.750000 0.250000 0.285440
O O8 0.406635 0.445552 0.238872
#
# Coordination Sequence:
#
# PCOD8229844 Si02
#       3
#     8   8   8
#     4  12  26  47  71 101 138 183 232 286 348 414
#     4  12  26  46  71 103 140 184 232 286 345 412
#     4  12  25  45  71 104 142 185 231 284 343 410
#
# _framework density 23.945378000000002
#
# number of rings (size 3 to 8) (size 9 to 14) (size 15 to 20)
#    0.000    0.000    0.000   11.000    0.000    2.667 
#    0.000    0.000    0.000    0.000    0.000    0.000 
#    0.000    0.000    0.000    0.000    0.000    0.000 
#
# Total GULP energy -297815.936436 kJ/mol
# GULP energy per Si atom -12408.997351 kJ/mol
# Density = 2.389088 g / cm^3
# Si number density = 23.945378 Si / 1000 Ang^3
#
#
#
# Elastic Constant Matrix: (Units=GPa)
#
#
# Indices 1 2 3 4 5 6 
#
# 1 141.5033 48.2771 53.2046 0.0000 0.0000 0.0000
# 2 48.2771 122.7262 84.3764 0.0000 0.0000 0.0000
# 3 53.2046 84.3764 133.5590 0.0000 0.0000 0.0000
# 4 0.0000 0.0000 0.0000 33.5171 0.0000 0.0000
# 5 0.0000 0.0000 0.0000 0.0000 28.8556 0.0000
# 6 0.0000 0.0000 0.0000 0.0000 0.0000 40.5471
#
#
#
# Elastic Compliance Matrix: (Units=1/GPa)
#
#
# Indices 1 2 3 4 5 6 
#
# 1 0.008532 -0.001802 -0.002260 0.000000 0.000000 0.000000
# 2 -0.001802 0.014786 -0.008623 0.000000 0.000000 0.000000
# 3 -0.002260 -0.008623 0.013835 0.000000 0.000000 0.000000
# 4 0.000000 0.000000 0.000000 0.029836 0.000000 0.000000
# 5 0.000000 0.000000 0.000000 0.000000 0.034655 0.000000
# 6 0.000000 0.000000 0.000000 0.000000 0.000000 0.024663
#
#
# Mechanical properties :
#
#
# Convention : Reuss Voigt Hill
#
# Bulk Modulus (GPa) = 84.87567 85.50050 85.18808
# Shear Modulus (GPa) = 32.13291 34.71265 33.42278
#
# Velocity S-wave (km/s) = 3.66720 3.81157 3.74008
# Velocity P-wave (km/s) = 7.31120 7.42662 7.36914
#
# Compressibility (1/GPa) = 0.01178194
#
# Stress axis : x y z
#
# Youngs Moduli (GPa) = 117.21081 67.63349 72.27941
#
# Poissons Ratio (x) = 0.12189 0.16336
# Poissons Ratio (y) = 0.21125 0.62326
# Poissons Ratio (z) = 0.26491 0.58320
#
# Static dielectric constant tensor:
#      x y z
#    x 4.904720 0.000000 0.000000 
#    y 0.000000 4.330090 0.000000 
#    z 0.000000 0.000000 4.524400 
# 
# 
# High freq. dielectric constant tensor:
#      x y z
#    x 1.968110 0.000000 0.000000 
#    y 0.000000 1.959180 0.000000 
#    z 0.000000 0.000000 1.961800 
# 
# From -- ./inp_files/19720.got.cif
#   From: 2010.03.12/outbox.cif.g09.slc.cpg/sg56_10_cif.got.tgz:19720.got - 2010.04.16 15:33:40.
