data_PCOD8229509
_publ_section_title
;
Structure prediction by ZEFSAII (Michael W. Deem and Ramdas Pophale) SiO2 
 PCOD8229509
Probable space group: P C C N
;
_chemical_formula_sum "Si O2"
_cell_formula_units_Z 52
_cell_length_a 12.488072
_cell_length_b 18.557347
_cell_length_c 10.301738
_cell_angle_alpha 90.000000
_cell_angle_beta 90.000000
_cell_angle_gamma 90.000000
_cell_volume 2387.381274
_symmetry_space_group_name_H-M "P C C N"
_symmetry_group_IT_number 56
_symmetry_cell_setting 'orthorhombic'
loop_
_space_group_symop_operation_xyz
x,y,z
1/2-x,1/2-y,z
1/2+x,-y,1/2-z
-x,1/2+y,1/2-z
-x,-y,-z
1/2+x,1/2+y,-z
1/2-x,y,1/2+z
x,1/2-y,1/2+z
loop_
_atom_site_type_symbol
_atom_site_label
_atom_site_fract_x
_atom_site_fract_y
_atom_site_fract_z
Si Si1 0.750000 0.750000 0.337052
Si Si2 0.371919 0.557338 0.223751
Si Si3 0.004907 0.577656 0.351273
Si Si4 0.056338 0.301050 0.821266
Si Si5 0.955127 0.650750 0.620519
Si Si6 0.736425 0.873607 0.037878
Si Si7 0.277331 0.534875 0.957938
O O1 0.860654 0.747893 0.259860
O O2 0.740378 0.823447 0.416553
O O3 0.415268 0.475365 0.209173
O O4 0.472094 0.612315 0.229466
O O5 0.311266 0.569085 0.360870
O O6 0.297417 0.576240 0.095834
O O7 0.023825 0.648579 0.261355
O O8 0.963952 0.605331 0.488576
O O9 0.114253 0.533693 0.372117
O O10 0.000805 0.233799 0.897178
O O11 0.118003 0.355948 0.913444
O O12 0.826409 0.644660 0.648883
O O13 0.738621 0.956556 0.998700
#
# Coordination Sequence:
#
# PCOD8229509 Si02
#       7
#     4   8   8   8   8   8   8
#     4  12  20  30  52  94 126 152 188 254 328 360
#     4  11  22  41  65  87 126 166 212 254 309 367
#     4  11  21  39  63  87 120 171 205 251 314 375
#     4  12  21  34  59  91 127 151 204 256 311 369
#     4  11  20  36  58  92 119 166 199 247 319 378
#     4  12  19  32  56  90 122 155 194 254 313 367
#     4  11  23  40  63  90 123 163 216 252 304 372
#
# _framework density 21.781186999999999
#
# number of rings (size 3 to 8) (size 9 to 14) (size 15 to 20)
#    0.000    0.615    9.231    0.923    0.000    0.000 
#    0.000    4.615    0.000    3.692    0.000    0.000 
#    0.000    0.000    0.000    0.000    0.000    0.000 
#
# Total GULP energy -644214.699392 kJ/mol
# GULP energy per Si atom -12388.744219 kJ/mol
# Density = 2.173161 g / cm^3
# Si number density = 21.781187 Si / 1000 Ang^3
#
#
#
# Elastic Constant Matrix: (Units=GPa)
#
#
# Indices 1 2 3 4 5 6 
#
# 1 32.2115 12.5535 0.7445 0.0000 0.0000 0.0000
# 2 12.5535 84.5051 -2.3970 0.0000 0.0000 0.0000
# 3 0.7445 -2.3970 28.9085 0.0000 0.0000 0.0000
# 4 0.0000 0.0000 0.0000 -38.4608 0.0000 0.0000
# 5 0.0000 0.0000 0.0000 0.0000 41.4190 0.0000
# 6 0.0000 0.0000 0.0000 0.0000 0.0000 35.5099
#
#
#
# Elastic Compliance Matrix: (Units=1/GPa)
#
#
# Indices 1 2 3 4 5 6 
#
# 1 0.032998 -0.004938 -0.001259 0.000000 0.000000 0.000000
# 2 -0.004938 0.012600 0.001172 0.000000 0.000000 0.000000
# 3 -0.001259 0.001172 0.034721 0.000000 0.000000 0.000000
# 4 0.000000 0.000000 0.000000 -0.026000 0.000000 0.000000
# 5 0.000000 0.000000 0.000000 0.000000 0.024143 0.000000
# 6 0.000000 0.000000 0.000000 0.000000 0.000000 0.028161
#
#
# Mechanical properties :
#
#
# Convention : Reuss Voigt Hill
#
# Bulk Modulus (GPa) = 14.23083 18.60302 16.41693
# Shear Modulus (GPa) = 35.68940 16.67524 26.18232
#
# Velocity S-wave (km/s) = 4.05228 2.76991 3.47084
# Velocity P-wave (km/s) = 5.33314 4.33466 4.85961
#
# Compressibility (1/GPa) = 0.07026999
#
# Stress axis : x y z
#
# Youngs Moduli (GPa) = 30.30465 79.36279 28.80062
#
# Poissons Ratio (x) = 0.39187 0.03627
# Poissons Ratio (y) = 0.14964 -0.03375
# Poissons Ratio (z) = 0.03816 -0.09301
#
# Static dielectric constant tensor:
#      x y z
#    x 4.005260 0.000000 0.000000 
#    y 0.000000 4.087090 0.000000 
#    z 0.000000 0.000000 3.896050 
# 
# 
# High freq. dielectric constant tensor:
#      x y z
#    x 1.824820 0.000000 0.000000 
#    y 0.000000 1.861850 0.000000 
#    z 0.000000 0.000000 1.841700 
# 
# From -- ./inp_files/8002.got.cif
#   From: 2010.03.12/outbox.cif.g09.slc.cpg/sg56_5_cif.got.tgz:8002.got - 2010.04.16 15:33:40.
