data_PCOD8229133
_publ_section_title
;
Structure prediction by ZEFSAII (Michael W. Deem and Ramdas Pophale) SiO2 
 PCOD8229133
Probable space group: P C C N
;
_chemical_formula_sum "Si O2"
_cell_formula_units_Z 36
_cell_length_a 12.262368
_cell_length_b 4.946000
_cell_length_c 27.197761
_cell_angle_alpha 90.000000
_cell_angle_beta 90.000000
_cell_angle_gamma 90.000000
_cell_volume 1649.535287
_symmetry_space_group_name_H-M "P C C N"
_symmetry_group_IT_number 56
_symmetry_cell_setting 'orthorhombic'
loop_
_space_group_symop_operation_xyz
x,y,z
1/2-x,1/2-y,z
1/2+x,-y,1/2-z
-x,1/2+y,1/2-z
-x,-y,-z
1/2+x,1/2+y,-z
1/2-x,y,1/2+z
x,1/2-y,1/2+z
loop_
_atom_site_type_symbol
_atom_site_label
_atom_site_fract_x
_atom_site_fract_y
_atom_site_fract_z
Si Si1 0.133901 0.134144 0.141096
Si Si2 0.442328 0.067969 0.229712
Si Si3 0.521005 0.701979 0.954745
Si Si4 0.750000 0.250000 0.288840
Si Si5 0.678360 0.997929 0.019139
O O1 0.250000 0.250000 0.123149
O O2 0.063883 0.353881 0.172012
O O3 0.059485 0.047575 0.094486
O O4 0.156756 0.883992 0.177081
O O5 0.467925 0.333809 0.262142
O O6 0.319772 0.960373 0.244493
O O7 0.413848 0.886378 0.943420
O O8 0.500000 0.500000 0.000000
O O9 0.619842 0.898422 0.969610
O O10 0.750000 0.750000 0.042507
O O11 0.750000 0.250000 0.002150
#
# Coordination Sequence:
#
# PCOD8229133 Si02
#       5
#     8   8   8   4   8
#     4  10  23  41  67 106 136 173 229 288 338 406
#     4  11  22  43  70  98 137 171 215 279 344 411
#     4  11  24  40  69 100 135 185 229 281 342 396
#     4  10  22  42  72 106 134 172 222 284 340 408
#     4  11  23  43  62  89 132 180 229 274 331 398
#
# _framework density 21.824328000000001
#
# number of rings (size 3 to 8) (size 9 to 14) (size 15 to 20)
#    0.000    1.333    4.444    0.667    0.000    8.889 
#    2.000    0.000    7.333    0.000    0.000    0.000 
#    0.000    0.000    0.000    0.000    0.000    0.000 
#
# Total GULP energy -445984.513620 kJ/mol
# GULP energy per Si atom -12388.458712 kJ/mol
# Density = 2.177465 g / cm^3
# Si number density = 21.824328 Si / 1000 Ang^3
#
#
#
# Elastic Constant Matrix: (Units=GPa)
#
#
# Indices 1 2 3 4 5 6 
#
# 1 128.7964 65.1279 70.0931 0.0000 0.0000 0.0000
# 2 65.1279 140.4252 43.9032 0.0000 0.0000 0.0000
# 3 70.0931 43.9032 92.3082 0.0000 0.0000 0.0000
# 4 0.0000 0.0000 0.0000 24.9879 0.0000 0.0000
# 5 0.0000 0.0000 0.0000 0.0000 35.3262 0.0000
# 6 0.0000 0.0000 0.0000 0.0000 0.0000 65.7484
#
#
#
# Elastic Compliance Matrix: (Units=1/GPa)
#
#
# Indices 1 2 3 4 5 6 
#
# 1 0.014899 -0.003962 -0.009429 0.000000 0.000000 0.000000
# 2 -0.003962 0.009419 -0.001471 0.000000 0.000000 0.000000
# 3 -0.009429 -0.001471 0.018693 0.000000 0.000000 0.000000
# 4 0.000000 0.000000 0.000000 0.040019 0.000000 0.000000
# 5 0.000000 0.000000 0.000000 0.000000 0.028308 0.000000
# 6 0.000000 0.000000 0.000000 0.000000 0.000000 0.015209
#
#
# Mechanical properties :
#
#
# Convention : Reuss Voigt Hill
#
# Bulk Modulus (GPa) = 75.26648 79.97538 77.62093
# Shear Modulus (GPa) = 31.11381 37.37288 34.24334
#
# Velocity S-wave (km/s) = 3.77987 4.14265 3.96541
# Velocity P-wave (km/s) = 7.32204 7.72054 7.52393
#
# Compressibility (1/GPa) = 0.01328613
#
# Stress axis : x y z
#
# Youngs Moduli (GPa) = 67.11792 106.17099 53.49664
#
# Poissons Ratio (x) = 0.42067 0.50442
# Poissons Ratio (y) = 0.26593 0.07870
# Poissons Ratio (z) = 0.63286 0.15619
#
# Static dielectric constant tensor:
#      x y z
#    x 4.418940 0.000000 0.000000 
#    y 0.000000 4.323830 0.000000 
#    z 0.000000 0.000000 3.376540 
# 
# 
# High freq. dielectric constant tensor:
#      x y z
#    x 1.870200 0.000000 0.000000 
#    y 0.000000 1.880500 0.000000 
#    z 0.000000 0.000000 1.794030 
# 
# From -- ./inp_files/23426.got.cif
#   From: 2010.03.12/outbox.cif.g09.slc.cpg/sg56_12_cif.got.tgz:23426.got - 2010.04.16 15:33:40.
