data_PCOD8229020
_publ_section_title
;
Structure prediction by ZEFSAII (Michael W. Deem and Ramdas Pophale) SiO2 
 PCOD8229020
Probable space group: P C C N
;
_chemical_formula_sum "Si O2"
_cell_formula_units_Z 60
_cell_length_a 12.319501
_cell_length_b 8.590993
_cell_length_c 25.799330
_cell_angle_alpha 90.000000
_cell_angle_beta 90.000000
_cell_angle_gamma 90.000000
_cell_volume 2730.517158
_symmetry_space_group_name_H-M "P C C N"
_symmetry_group_IT_number 56
_symmetry_cell_setting 'orthorhombic'
loop_
_space_group_symop_operation_xyz
x,y,z
1/2-x,1/2-y,z
1/2+x,-y,1/2-z
-x,1/2+y,1/2-z
-x,-y,-z
1/2+x,1/2+y,-z
1/2-x,y,1/2+z
x,1/2-y,1/2+z
loop_
_atom_site_type_symbol
_atom_site_label
_atom_site_fract_x
_atom_site_fract_y
_atom_site_fract_z
Si Si1 0.266392 0.915457 0.833477
Si Si2 0.875325 0.270764 0.960366
Si Si3 0.031277 0.039560 0.817817
Si Si4 0.096607 0.690772 0.925971
Si Si5 0.537958 0.891946 0.215118
Si Si6 0.551774 0.955551 0.423861
Si Si7 0.750000 0.750000 0.904763
Si Si8 0.590998 0.986647 0.873644
O O1 0.250000 0.750000 0.803205
O O2 0.300400 0.867481 0.892754
O O3 0.151419 0.998201 0.837110
O O4 0.351724 0.025642 0.804437
O O5 0.750000 0.250000 0.949001
O O6 0.920294 0.371858 0.913497
O O7 0.937170 0.104560 0.961811
O O8 0.889879 0.365381 0.014571
O O9 0.041783 0.209115 0.793426
O O10 0.984036 0.921065 0.775244
O O11 0.946279 0.024845 0.865116
O O12 0.066962 0.875235 0.931051
O O13 0.995202 0.635917 0.893232
O O14 0.434631 0.957512 0.183954
O O15 0.651588 0.833479 0.436646
O O16 0.795361 0.605406 0.870884
#
# Coordination Sequence:
#
# PCOD8229020 Si02
#       8
#     8   8   8   8   8   8   4   8
#     4  11  22  45  68 100 134 176 226 276 333 413
#     4  12  22  40  65 100 131 176 228 276 341 400
#     4  12  25  44  69  99 135 179 229 278 347 402
#     4  10  23  41  70  91 135 184 219 276 344 404
#     4  11  26  44  69  99 134 178 224 279 341 407
#     4  11  23  42  67  93 139 172 227 284 332 410
#     4  10  22  40  62  92 124 176 210 266 342 386
#     4  10  22  43  64  92 134 168 222 280 328 401
#
# _framework density 21.973858
#
# number of rings (size 3 to 8) (size 9 to 14) (size 15 to 20)
#    0.000    1.067    4.000    2.400    3.733    1.067 
#    0.000    1.333    0.000    0.000    0.000    0.000 
#    0.000    0.000    0.000    0.000    0.000    0.000 
#
# Total GULP energy -743367.453300 kJ/mol
# GULP energy per Si atom -12389.457555 kJ/mol
# Density = 2.192384 g / cm^3
# Si number density = 21.973858 Si / 1000 Ang^3
#
#
#
# Elastic Constant Matrix: (Units=GPa)
#
#
# Indices 1 2 3 4 5 6 
#
# 1 71.8187 20.0055 16.7022 0.0000 0.0000 0.0000
# 2 20.0055 106.6623 10.5187 0.0000 0.0000 0.0000
# 3 16.7022 10.5187 100.6838 0.0000 0.0000 0.0000
# 4 0.0000 0.0000 0.0000 34.6582 0.0000 0.0000
# 5 0.0000 0.0000 0.0000 0.0000 6.2411 0.0000
# 6 0.0000 0.0000 0.0000 0.0000 0.0000 40.0912
#
#
#
# Elastic Compliance Matrix: (Units=1/GPa)
#
#
# Indices 1 2 3 4 5 6 
#
# 1 0.015177 -0.002625 -0.002243 0.000000 0.000000 0.000000
# 2 -0.002625 0.009927 -0.000602 0.000000 0.000000 0.000000
# 3 -0.002243 -0.000602 0.010367 0.000000 0.000000 0.000000
# 4 0.000000 0.000000 0.000000 0.028853 0.000000 0.000000
# 5 0.000000 0.000000 0.000000 0.000000 0.160229 0.000000
# 6 0.000000 0.000000 0.000000 0.000000 0.000000 0.024943
#
#
# Mechanical properties :
#
#
# Convention : Reuss Voigt Hill
#
# Bulk Modulus (GPa) = 40.76559 41.51308 41.13933
# Shear Modulus (GPa) = 18.61405 31.66067 25.13736
#
# Velocity S-wave (km/s) = 2.91366 3.79995 3.38593
# Velocity P-wave (km/s) = 5.46912 6.17947 5.83512
#
# Compressibility (1/GPa) = 0.02453049
#
# Stress axis : x y z
#
# Youngs Moduli (GPa) = 65.88929 100.73422 96.45910
#
# Poissons Ratio (x) = 0.26446 0.21640
# Poissons Ratio (y) = 0.17298 0.05803
# Poissons Ratio (z) = 0.14782 0.06060
#
# Static dielectric constant tensor:
#      x y z
#    x 4.432190 0.000000 0.000000 
#    y 0.000000 4.429660 0.000000 
#    z 0.000000 0.000000 3.679670 
# 
# 
# High freq. dielectric constant tensor:
#      x y z
#    x 1.869390 0.000000 0.000000 
#    y 0.000000 1.876540 0.000000 
#    z 0.000000 0.000000 1.850260 
# 
# From -- ./inp_files/22328.got.cif
#   From: 2010.03.12/outbox.cif.g09.slc.cpg/sg56_12_cif.got.tgz:22328.got - 2010.04.16 15:33:40.
