data_PCOD8229829
_publ_section_title
;
Structure prediction by ZEFSAII (Michael W. Deem and Ramdas Pophale) SiO2 
 PCOD8229829
Probable space group: P C C N
;
_chemical_formula_sum "Si O2"
_cell_formula_units_Z 56
_cell_length_a 19.330767
_cell_length_b 10.734581
_cell_length_c 11.373767
_cell_angle_alpha 90.000000
_cell_angle_beta 90.000000
_cell_angle_gamma 90.000000
_cell_volume 2360.144050
_symmetry_space_group_name_H-M "P C C N"
_symmetry_group_IT_number 56
_symmetry_cell_setting 'orthorhombic'
loop_
_space_group_symop_operation_xyz
x,y,z
1/2-x,1/2-y,z
1/2+x,-y,1/2-z
-x,1/2+y,1/2-z
-x,-y,-z
1/2+x,1/2+y,-z
1/2-x,y,1/2+z
x,1/2-y,1/2+z
loop_
_atom_site_type_symbol
_atom_site_label
_atom_site_fract_x
_atom_site_fract_y
_atom_site_fract_z
Si Si1 0.956471 0.719611 0.002095
Si Si2 0.921371 0.524612 0.809217
Si Si3 0.427009 0.473588 0.304432
Si Si4 0.891300 0.335814 0.002996
Si Si5 0.203646 0.014227 0.857374
Si Si6 0.647555 0.608684 0.915073
Si Si7 0.250000 0.250000 0.723778
Si Si8 0.750000 0.250000 0.089370
O O1 0.941333 0.649553 0.879100
O O2 0.918101 0.850852 0.993578
O O3 0.038714 0.744445 0.020606
O O4 0.921557 0.646521 0.110753
O O5 0.871685 0.535018 0.698201
O O6 0.993865 0.473524 0.760333
O O7 0.882340 0.431731 0.897421
O O8 0.404215 0.595411 0.374298
O O9 0.377066 0.475110 0.192880
O O10 0.820393 0.257261 0.011381
O O11 0.249956 0.124579 0.802408
O O12 0.239149 0.878123 0.834712
O O13 0.198726 0.031767 0.999026
O O14 0.684513 0.733045 0.862606
#
# Coordination Sequence:
#
# PCOD8229829 Si02
#       8
#     8   8   8   8   8   8   4   4
#     4   9  19  41  72 102 129 186 246 297 353 423
#     4   9  20  44  71  97 138 185 241 291 355 430
#     4   9  20  41  70  99 135 189 231 295 361 425
#     4   9  21  45  69  92 141 196 239 277 365 440
#     4  12  28  46  69 109 144 188 238 299 362 436
#     4  12  24  40  70 107 139 175 244 309 348 414
#     4  12  26  48  74 100 142 198 238 296 360 430
#     4  12  28  46  66 106 156 192 232 290 362 448
#
# _framework density 23.727366
#
# number of rings (size 3 to 8) (size 9 to 14) (size 15 to 20)
#    0.000    1.714    1.429    3.857    4.000    2.286 
#    2.571    0.000    0.000    0.000    0.000    0.000 
#    0.000    0.000    0.000    0.000    0.000    0.000 
#
# Total GULP energy -693944.620102 kJ/mol
# GULP energy per Si atom -12391.868216 kJ/mol
# Density = 2.367336 g / cm^3
# Si number density = 23.727366 Si / 1000 Ang^3
#
#
#
# Elastic Constant Matrix: (Units=GPa)
#
#
# Indices 1 2 3 4 5 6 
#
# 1 119.8246 32.7268 35.4275 0.0000 0.0000 0.0000
# 2 32.7268 96.6287 22.9256 0.0000 0.0000 0.0000
# 3 35.4275 22.9256 98.7689 0.0000 0.0000 0.0000
# 4 0.0000 0.0000 0.0000 21.6777 0.0000 0.0000
# 5 0.0000 0.0000 0.0000 0.0000 22.3992 0.0000
# 6 0.0000 0.0000 0.0000 0.0000 0.0000 36.9408
#
#
#
# Elastic Compliance Matrix: (Units=1/GPa)
#
#
# Indices 1 2 3 4 5 6 
#
# 1 0.009946 -0.002669 -0.002948 0.000000 0.000000 0.000000
# 2 -0.002669 0.011668 -0.001751 0.000000 0.000000 0.000000
# 3 -0.002948 -0.001751 0.011589 0.000000 0.000000 0.000000
# 4 0.000000 0.000000 0.000000 0.046130 0.000000 0.000000
# 5 0.000000 0.000000 0.000000 0.000000 0.044644 0.000000
# 6 0.000000 0.000000 0.000000 0.000000 0.000000 0.027070
#
#
# Mechanical properties :
#
#
# Convention : Reuss Voigt Hill
#
# Bulk Modulus (GPa) = 54.15179 55.26466 54.70823
# Shear Modulus (GPa) = 29.07991 31.14636 30.11314
#
# Velocity S-wave (km/s) = 3.50463 3.62702 3.56635
# Velocity P-wave (km/s) = 6.26488 6.39394 6.32974
#
# Compressibility (1/GPa) = 0.01846661
#
# Stress axis : x y z
#
# Youngs Moduli (GPa) = 100.54117 85.70202 86.29241
#
# Poissons Ratio (x) = 0.22876 0.25439
# Poissons Ratio (y) = 0.26836 0.15109
# Poissons Ratio (z) = 0.29640 0.15006
#
# Static dielectric constant tensor:
#      x y z
#    x 4.536740 0.000000 0.000000 
#    y 0.000000 3.951220 0.000000 
#    z 0.000000 0.000000 4.039920 
# 
# 
# High freq. dielectric constant tensor:
#      x y z
#    x 1.955470 0.000000 0.000000 
#    y 0.000000 1.913740 0.000000 
#    z 0.000000 0.000000 1.929400 
# 
# From -- ./inp_files/8664.got.cif
#   From: 2010.03.12/outbox.cif.g09.slc.cpg/sg56_5_cif.got.tgz:8664.got - 2010.04.16 15:33:40.
