data_PCOD8229377
_publ_section_title
;
Structure prediction by ZEFSAII (Michael W. Deem and Ramdas Pophale) SiO2 
 PCOD8229377
Probable space group: P C C N
;
_chemical_formula_sum "Si O2"
_cell_formula_units_Z 64
_cell_length_a 11.954268
_cell_length_b 13.049042
_cell_length_c 18.568826
_cell_angle_alpha 90.000000
_cell_angle_beta 90.000000
_cell_angle_gamma 90.000000
_cell_volume 2896.583574
_symmetry_space_group_name_H-M "P C C N"
_symmetry_group_IT_number 56
_symmetry_cell_setting 'orthorhombic'
loop_
_space_group_symop_operation_xyz
x,y,z
1/2-x,1/2-y,z
1/2+x,-y,1/2-z
-x,1/2+y,1/2-z
-x,-y,-z
1/2+x,1/2+y,-z
1/2-x,y,1/2+z
x,1/2-y,1/2+z
loop_
_atom_site_type_symbol
_atom_site_label
_atom_site_fract_x
_atom_site_fract_y
_atom_site_fract_z
Si Si1 0.576479 0.298240 0.185188
Si Si2 0.755115 0.613193 0.701622
Si Si3 0.198941 0.142581 0.639077
Si Si4 0.418358 0.409516 0.081453
Si Si5 0.507582 0.475426 0.581249
Si Si6 0.304616 0.901936 0.833961
Si Si7 0.478367 0.182075 0.837055
Si Si8 0.056067 0.116063 0.914997
O O1 0.473764 0.318629 0.130542
O O2 0.608698 0.180137 0.198433
O O3 0.682271 0.357246 0.151041
O O4 0.547611 0.334703 0.264572
O O5 0.818270 0.647125 0.774287
O O6 0.701171 0.501020 0.718057
O O7 0.654807 0.691984 0.681581
O O8 0.833580 0.598776 0.632445
O O9 0.250000 0.250000 0.610102
O O10 0.294892 0.064469 0.611869
O O11 0.081076 0.111580 0.604599
O O12 0.481834 0.515548 0.092744
O O13 0.414396 0.369545 0.999158
O O14 0.500000 0.500000 0.500000
O O15 0.635052 0.436864 0.592170
O O16 0.485690 0.581426 0.621326
O O17 0.508327 0.283147 0.884104
#
# Coordination Sequence:
#
# PCOD8229377 Si02
#       8
#     8   8   8   8   8   8   8   8
#     4  11  22  45  73 105 132 184 241 285 360 417
#     4  11  23  44  70 106 138 184 236 292 353 423
#     4  12  26  42  73 104 138 183 242 292 348 428
#     4  11  26  45  71 105 140 191 237 292 352 431
#     4  11  28  45  67 104 147 188 234 293 362 427
#     4  10  24  42  74  93 143 182 229 292 351 415
#     4  11  25  43  71 105 139 187 235 295 357 424
#     4  11  26  44  70 100 149 186 237 289 360 428
#
# _framework density 22.094995999999998
#
# number of rings (size 3 to 8) (size 9 to 14) (size 15 to 20)
#    0.000    1.000    2.500    2.625   10.500    0.000 
#    0.000    0.000    0.000    0.000    0.000    0.000 
#    0.000    0.000    0.000    0.000    0.000    0.000 
#
# Total GULP energy -793377.130081 kJ/mol
# GULP energy per Si atom -12396.517658 kJ/mol
# Density = 2.204471 g / cm^3
# Si number density = 22.094996 Si / 1000 Ang^3
#
#
#
# Elastic Constant Matrix: (Units=GPa)
#
#
# Indices 1 2 3 4 5 6 
#
# 1 101.5030 23.1795 45.7596 0.0000 0.0000 0.0000
# 2 23.1795 105.0109 48.1588 0.0000 0.0000 0.0000
# 3 45.7596 48.1588 166.6163 0.0000 0.0000 0.0000
# 4 0.0000 0.0000 0.0000 29.1206 0.0000 0.0000
# 5 0.0000 0.0000 0.0000 0.0000 31.4126 0.0000
# 6 0.0000 0.0000 0.0000 0.0000 0.0000 29.3594
#
#
#
# Elastic Compliance Matrix: (Units=1/GPa)
#
#
# Indices 1 2 3 4 5 6 
#
# 1 0.011383 -0.001244 -0.002767 0.000000 0.000000 0.000000
# 2 -0.001244 0.011114 -0.002871 0.000000 0.000000 0.000000
# 3 -0.002767 -0.002871 0.007591 0.000000 0.000000 0.000000
# 4 0.000000 0.000000 0.000000 0.034340 0.000000 0.000000
# 5 0.000000 0.000000 0.000000 0.000000 0.031834 0.000000
# 6 0.000000 0.000000 0.000000 0.000000 0.000000 0.034061
#
#
# Mechanical properties :
#
#
# Convention : Reuss Voigt Hill
#
# Bulk Modulus (GPa) = 61.25230 67.48067 64.36649
# Shear Modulus (GPa) = 33.43847 35.04734 34.24291
#
# Velocity S-wave (km/s) = 3.89446 3.98705 3.94103
# Velocity P-wave (km/s) = 6.92855 7.19742 7.06427
#
# Compressibility (1/GPa) = 0.01632592
#
# Stress axis : x y z
#
# Youngs Moduli (GPa) = 87.84804 89.97712 131.72701
#
# Poissons Ratio (x) = 0.11191 0.36446
# Poissons Ratio (y) = 0.10927 0.37816
# Poissons Ratio (z) = 0.24306 0.25830
#
# Static dielectric constant tensor:
#      x y z
#    x 4.124740 0.000000 0.000000 
#    y 0.000000 4.136310 0.000000 
#    z 0.000000 0.000000 3.863910 
# 
# 
# High freq. dielectric constant tensor:
#      x y z
#    x 1.871900 0.000000 0.000000 
#    y 0.000000 1.894460 0.000000 
#    z 0.000000 0.000000 1.859090 
# 
# From -- ./inp_files/15813.got.cif
#   From: 2010.03.12/outbox.cif.g09.slc.cpg/sg56_8_cif.got.tgz:15813.got - 2010.04.16 15:33:40.
