data_PCOD8229458
_publ_section_title
;
Structure prediction by ZEFSAII (Michael W. Deem and Ramdas Pophale) SiO2 
 PCOD8229458
Probable space group: P C C N
;
_chemical_formula_sum "Si O2"
_cell_formula_units_Z 32
_cell_length_a 5.431234
_cell_length_b 28.142872
_cell_length_c 8.922930
_cell_angle_alpha 90.000000
_cell_angle_beta 90.000000
_cell_angle_gamma 90.000000
_cell_volume 1363.874520
_symmetry_space_group_name_H-M "P C C N"
_symmetry_group_IT_number 56
_symmetry_cell_setting 'orthorhombic'
loop_
_space_group_symop_operation_xyz
x,y,z
1/2-x,1/2-y,z
1/2+x,-y,1/2-z
-x,1/2+y,1/2-z
-x,-y,-z
1/2+x,1/2+y,-z
1/2-x,y,1/2+z
x,1/2-y,1/2+z
loop_
_atom_site_type_symbol
_atom_site_label
_atom_site_fract_x
_atom_site_fract_y
_atom_site_fract_z
Si Si1 0.052357 0.373974 0.154855
Si Si2 0.963268 0.516189 0.829659
Si Si3 0.244231 0.825992 0.588742
Si Si4 0.571618 0.705731 0.843347
O O1 0.110681 0.428806 0.176197
O O2 0.304894 0.345549 0.132634
O O3 0.927220 0.352987 0.301960
O O4 0.889787 0.366982 0.006524
O O5 0.723358 0.490511 0.757797
O O6 0.000000 0.500000 0.000000
O O7 0.377004 0.789270 0.477178
O O8 0.056267 0.793105 0.681459
O O9 0.750000 0.750000 0.852191
#
# Coordination Sequence:
#
# PCOD8229458 Si02
#       4
#     8   8   8   8
#     4  11  25  44  75 102 148 192 248 312 377 455
#     4  12  29  49  79 116 158 207 269 327 402 472
#     4  10  25  45  72 104 145 189 248 303 382 446
#     4  11  26  46  73 108 145 195 247 308 379 457
#
# _framework density 23.462568000000001
#
# number of rings (size 3 to 8) (size 9 to 14) (size 15 to 20)
#    0.000    1.000    0.000    3.750   14.000   10.000 
#    0.000    3.750    0.000    0.000    0.000    0.000 
#    0.000    0.000    0.000    0.000    0.000    0.000 
#
# Total GULP energy -396884.787595 kJ/mol
# GULP energy per Si atom -12402.649612 kJ/mol
# Density = 2.340917 g / cm^3
# Si number density = 23.462568 Si / 1000 Ang^3
#
#
#
# Elastic Constant Matrix: (Units=GPa)
#
#
# Indices 1 2 3 4 5 6 
#
# 1 114.0621 39.1376 35.9526 0.0000 0.0000 0.0000
# 2 39.1376 146.9465 30.3653 0.0000 0.0000 0.0000
# 3 35.9526 30.3653 143.6690 0.0000 0.0000 0.0000
# 4 0.0000 0.0000 0.0000 200.3793 0.0000 0.0000
# 5 0.0000 0.0000 0.0000 0.0000 53.3232 0.0000
# 6 0.0000 0.0000 0.0000 0.0000 0.0000 33.6160
#
#
#
# Elastic Compliance Matrix: (Units=1/GPa)
#
#
# Indices 1 2 3 4 5 6 
#
# 1 0.010205 -0.002290 -0.002070 0.000000 0.000000 0.000000
# 2 -0.002290 0.007630 -0.001039 0.000000 0.000000 0.000000
# 3 -0.002070 -0.001039 0.007698 0.000000 0.000000 0.000000
# 4 0.000000 0.000000 0.000000 0.004991 0.000000 0.000000
# 5 0.000000 0.000000 0.000000 0.000000 0.018754 0.000000
# 6 0.000000 0.000000 0.000000 0.000000 0.000000 0.029748
#
#
# Mechanical properties :
#
#
# Convention : Reuss Voigt Hill
#
# Bulk Modulus (GPa) = 67.86920 68.39873 68.13397
# Shear Modulus (GPa) = 52.77815 77.41185 65.09500
#
# Velocity S-wave (km/s) = 4.74799 5.75025 5.27299
# Velocity P-wave (km/s) = 7.68423 8.56170 8.13480
#
# Compressibility (1/GPa) = 0.01473422
#
# Stress axis : x y z
#
# Youngs Moduli (GPa) = 97.98690 131.06121 129.90220
#
# Poissons Ratio (x) = 0.30018 0.26887
# Poissons Ratio (y) = 0.22443 0.13503
# Poissons Ratio (z) = 0.20281 0.13624
#
# Static dielectric constant tensor:
#      x y z
#    x 4.490360 0.000000 0.000000 
#    y 0.000000 3.715720 0.000000 
#    z 0.000000 0.000000 4.643260 
# 
# 
# High freq. dielectric constant tensor:
#      x y z
#    x 1.944350 0.000000 0.000000 
#    y 0.000000 1.927540 0.000000 
#    z 0.000000 0.000000 1.956500 
# 
# From -- ./inp_files/1562.got.cif
#   From: 2010.03.12/outbox.cif.g09.slc.cpg/sg56_1_cif.got.tgz:1562.got - 2010.04.16 15:33:40.
