data_PCOD8229835
_publ_section_title
;
Structure prediction by ZEFSAII (Michael W. Deem and Ramdas Pophale) SiO2 
 PCOD8229835
Probable space group: P C C N
;
_chemical_formula_sum "Si O2"
_cell_formula_units_Z 40
_cell_length_a 28.420235
_cell_length_b 4.898873
_cell_length_c 10.086212
_cell_angle_alpha 90.000000
_cell_angle_beta 90.000000
_cell_angle_gamma 90.000000
_cell_volume 1404.274268
_symmetry_space_group_name_H-M "P C C N"
_symmetry_group_IT_number 56
_symmetry_cell_setting 'orthorhombic'
loop_
_space_group_symop_operation_xyz
x,y,z
1/2-x,1/2-y,z
1/2+x,-y,1/2-z
-x,1/2+y,1/2-z
-x,-y,-z
1/2+x,1/2+y,-z
1/2-x,y,1/2+z
x,1/2-y,1/2+z
loop_
_atom_site_type_symbol
_atom_site_label
_atom_site_fract_x
_atom_site_fract_y
_atom_site_fract_z
Si Si1 0.353100 0.651921 0.164200
Si Si2 0.651049 0.855409 0.673217
Si Si3 0.250000 0.750000 0.572803
Si Si4 0.409536 0.421223 0.517415
Si Si5 0.250000 0.250000 0.903281
Si Si6 0.530622 0.666979 0.744718
O O1 0.369981 0.353086 0.214521
O O2 0.365625 0.844461 0.289701
O O3 0.296395 0.646625 0.149198
O O4 0.385228 0.781609 0.046269
O O5 0.633890 0.789175 0.522592
O O6 0.707363 0.853422 0.686744
O O7 0.269943 0.500476 0.487635
O O8 0.439969 0.310113 0.638566
O O9 0.440364 0.430471 0.383971
O O10 0.507000 0.393658 0.803924
#
# Coordination Sequence:
#
# PCOD8229835 Si02
#       6
#     8   8   4   8   4   8
#     4  12  27  47  77 115 163 216 271 331 396 482
#     4  12  27  47  77 114 164 215 271 329 395 481
#     4  12  24  44  74 110 166 220 274 332 394 462
#     4  12  28  54  87 119 164 211 272 337 412 498
#     4  12  24  46  72 114 164 224 272 334 390 464
#     4  12  30  55  86 123 162 206 270 348 433 502
#
# _framework density 28.484465
#
# number of rings (size 3 to 8) (size 9 to 14) (size 15 to 20)
#    0.000    0.000    4.000    4.800    2.800    3.200 
#    0.000    0.000    0.000    0.000    0.000    0.000 
#    0.000    0.000    0.000    0.000    0.000    0.000 
#
# Total GULP energy -495749.171998 kJ/mol
# GULP energy per Si atom -12393.729300 kJ/mol
# Density = 2.841963 g / cm^3
# Si number density = 28.484465 Si / 1000 Ang^3
#
#
#
# Elastic Constant Matrix: (Units=GPa)
#
#
# Indices 1 2 3 4 5 6 
#
# 1 128.6953 2.4526 32.1831 0.0000 0.0000 0.0000
# 2 2.4526 72.8207 -10.8939 0.0000 0.0000 0.0000
# 3 32.1831 -10.8939 129.8899 0.0000 0.0000 0.0000
# 4 0.0000 0.0000 0.0000 29.1441 0.0000 0.0000
# 5 0.0000 0.0000 0.0000 0.0000 72.0081 0.0000
# 6 0.0000 0.0000 0.0000 0.0000 0.0000 47.9451
#
#
#
# Elastic Compliance Matrix: (Units=1/GPa)
#
#
# Indices 1 2 3 4 5 6 
#
# 1 0.008309 -0.000595 -0.002109 0.000000 0.000000 0.000000
# 2 -0.000595 0.013949 0.001317 0.000000 0.000000 0.000000
# 3 -0.002109 0.001317 0.008332 0.000000 0.000000 0.000000
# 4 0.000000 0.000000 0.000000 0.034312 0.000000 0.000000
# 5 0.000000 0.000000 0.000000 0.000000 0.013887 0.000000
# 6 0.000000 0.000000 0.000000 0.000000 0.000000 0.020857
#
#
# Mechanical properties :
#
#
# Convention : Reuss Voigt Hill
#
# Bulk Modulus (GPa) = 35.94894 42.09882 39.02388
# Shear Modulus (GPa) = 44.76578 50.33040 47.54809
#
# Velocity S-wave (km/s) = 3.96862 4.20806 4.09009
# Velocity P-wave (km/s) = 5.80068 6.19855 6.00291
#
# Compressibility (1/GPa) = 0.02781723
#
# Stress axis : x y z
#
# Youngs Moduli (GPa) = 120.35216 71.68716 120.02229
#
# Poissons Ratio (x) = 0.04267 0.25309
# Poissons Ratio (y) = 0.07164 -0.15812
# Poissons Ratio (z) = 0.25378 -0.09444
#
# Static dielectric constant tensor:
#      x y z
#    x 5.593040 0.000000 0.000000 
#    y 0.000000 5.401420 0.000000 
#    z 0.000000 0.000000 5.308980 
# 
# 
# High freq. dielectric constant tensor:
#      x y z
#    x 2.173010 0.000000 0.000000 
#    y 0.000000 2.169280 0.000000 
#    z 0.000000 0.000000 2.165000 
# 
# From -- ./inp_files/9013.got.cif
#   From: 2010.03.12/outbox.cif.g09.slc.cpg/sg56_5_cif.got.tgz:9013.got - 2010.04.16 15:33:40.
