data_PCOD8229922
_publ_section_title
;
Structure prediction by ZEFSAII (Michael W. Deem and Ramdas Pophale) SiO2 
 PCOD8229922
Probable space group: P B C M
;
_chemical_formula_sum "Si O2"
_cell_formula_units_Z 48
_cell_length_a 25.980170
_cell_length_b 5.223016
_cell_length_c 17.916948
_cell_angle_alpha 90.000000
_cell_angle_beta 90.000000
_cell_angle_gamma 90.000000
_cell_volume 2431.237457
_symmetry_space_group_name_H-M "P B C M"
_symmetry_group_IT_number 57
_symmetry_cell_setting 'orthorhombic'
loop_
_space_group_symop_operation_xyz
x,y,z
-x,-y,1/2+z
x,1/2-y,-z
-x,1/2+y,1/2-z
-x,-y,-z
x,y,1/2-z
-x,1/2+y,z
x,1/2-y,1/2+z
loop_
_atom_site_type_symbol
_atom_site_label
_atom_site_fract_x
_atom_site_fract_y
_atom_site_fract_z
Si Si1 0.309834 0.727705 0.411195
Si Si2 0.201881 0.730304 0.163453
Si Si3 0.520590 0.561884 0.416523
Si Si4 0.137752 0.273214 0.663613
Si Si5 0.029097 0.254737 0.911501
Si Si6 0.361950 0.274930 0.584522
O O1 0.314043 0.750000 0.500000
O O2 0.251585 0.686809 0.386867
O O3 0.345157 0.495028 0.378581
O O4 0.331956 0.990852 0.375823
O O5 0.218090 0.734340 0.250000
O O6 0.163959 0.496878 0.145880
O O7 0.175183 0.995548 0.139669
O O8 0.500000 0.500000 0.500000
O O9 0.514380 0.284213 0.376808
O O10 0.577746 0.669323 0.412854
O O11 0.122944 0.298675 0.750000
O O12 0.086634 0.292805 0.615874
O O13 0.994824 0.490436 0.880744
O O14 0.029801 0.250000 0.000000
O O15 0.343047 0.250000 0.500000
#
# Coordination Sequence:
#
# PCOD8229922 Si02
#       6
#     8   8   8   8   8   8
#     4  10  21  32  49  72 102 134 162 214 260 303
#     4  10  21  38  55  75 102 134 179 219 259 308
#     4  10  17  24  41  63  95 139 163 190 248 313
#     4  10  21  36  57  79 101 135 177 222 257 301
#     4  10  21  36  54  81 114 143 171 208 257 312
#     4  10  18  29  43  68 103 134 161 204 253 309
#
# _framework density 19.743030999999998
#
# number of rings (size 3 to 8) (size 9 to 14) (size 15 to 20)
#    0.000    2.000    1.667    3.000    4.667    2.000 
#    0.000    0.000    0.000    0.000    0.000    0.000 
#    0.000   13.333    0.000    0.000    0.000    0.000 
#
# Total GULP energy -594923.894301 kJ/mol
# GULP energy per Si atom -12394.247798 kJ/mol
# Density = 1.969810 g / cm^3
# Si number density = 19.743031 Si / 1000 Ang^3
#
#
#
# Elastic Constant Matrix: (Units=GPa)
#
#
# Indices 1 2 3 4 5 6 
#
# 1 113.3307 53.5305 14.6478 0.0000 0.0000 0.0000
# 2 53.5305 181.6302 21.1091 0.0000 0.0000 0.0000
# 3 14.6478 21.1091 6.4597 0.0000 0.0000 0.0000
# 4 0.0000 0.0000 0.0000 9.2030 0.0000 0.0000
# 5 0.0000 0.0000 0.0000 0.0000 -6.0107 0.0000
# 6 0.0000 0.0000 0.0000 0.0000 0.0000 39.1140
#
#
#
# Elastic Compliance Matrix: (Units=1/GPa)
#
#
# Indices 1 2 3 4 5 6 
#
# 1 0.012527 -0.000630 -0.026347 0.000000 0.000000 0.000000
# 2 -0.000630 0.008909 -0.027684 0.000000 0.000000 0.000000
# 3 -0.026347 -0.027684 0.305019 0.000000 0.000000 0.000000
# 4 0.000000 0.000000 0.000000 0.108660 0.000000 0.000000
# 5 0.000000 0.000000 0.000000 0.000000 -0.166370 0.000000
# 6 0.000000 0.000000 0.000000 0.000000 0.000000 0.025566
#
#
# Mechanical properties :
#
#
# Convention : Reuss Voigt Hill
#
# Bulk Modulus (GPa) = 4.60548 53.33283 28.96916
# Shear Modulus (GPa) = 10.50396 22.60347 16.55371
#
# Velocity S-wave (km/s) = 2.30909 3.38728 2.89876
# Velocity P-wave (km/s) = 3.07359 6.50925 5.09006
#
# Compressibility (1/GPa) = 0.21713245
#
# Stress axis : x y z
#
# Youngs Moduli (GPa) = 79.83067 112.24862 3.27848
#
# Poissons Ratio (x) = 0.07069 0.08638
# Poissons Ratio (y) = 0.05028 0.09076
# Poissons Ratio (z) = 2.10329 3.10754
#
# Static dielectric constant tensor:
#      x y z
#    x 3.470930 0.000000 0.000000 
#    y 0.000000 8.762240 0.000000 
#    z 0.000000 0.000000 3.106500 
# 
# 
# High freq. dielectric constant tensor:
#      x y z
#    x 1.776580 0.000000 0.000000 
#    y 0.000000 1.809290 0.000000 
#    z 0.000000 0.000000 1.705070 
# 
# From -- ./inp_files/25700.got.cif
#   From: 2010.03.12/outbox.cif.g09.slc.cpg/sg57_13_cif.got.tgz:25700.got - 2010.04.16 15:48:40.
