data_PCOD8229630
_publ_section_title
;
Structure prediction by ZEFSAII (Michael W. Deem and Ramdas Pophale) SiO2 
 PCOD8229630
Probable space group: P C C N
;
_chemical_formula_sum "Si O2"
_cell_formula_units_Z 32
_cell_length_a 11.440631
_cell_length_b 6.405906
_cell_length_c 21.275759
_cell_angle_alpha 90.000000
_cell_angle_beta 90.000000
_cell_angle_gamma 90.000000
_cell_volume 1559.249459
_symmetry_space_group_name_H-M "P C C N"
_symmetry_group_IT_number 56
_symmetry_cell_setting 'orthorhombic'
loop_
_space_group_symop_operation_xyz
x,y,z
1/2-x,1/2-y,z
1/2+x,-y,1/2-z
-x,1/2+y,1/2-z
-x,-y,-z
1/2+x,1/2+y,-z
1/2-x,y,1/2+z
x,1/2-y,1/2+z
loop_
_atom_site_type_symbol
_atom_site_label
_atom_site_fract_x
_atom_site_fract_y
_atom_site_fract_z
Si Si1 0.750000 0.750000 0.036991
Si Si2 0.717155 0.013435 0.924532
Si Si3 0.911306 0.723601 0.350103
Si Si4 0.750000 0.750000 0.237216
Si Si5 0.330993 0.559391 0.865382
O O1 0.660236 0.618153 0.080590
O O2 0.817133 0.582322 0.992840
O O3 0.750000 0.250000 0.931972
O O4 0.663352 0.589705 0.899459
O O5 0.610701 0.963814 0.875176
O O6 0.862959 0.696591 0.279603
O O7 0.043609 0.654225 0.350341
O O8 0.723539 0.544505 0.196683
O O9 0.250000 0.750000 0.887576
#
# Coordination Sequence:
#
# PCOD8229630 Si02
#       5
#     4   8   8   4   8
#     4   9  21  40  56  96 123 147 210 238 302 363
#     4   9  19  39  66  85 122 162 191 249 298 362
#     4   9  22  40  57  93 117 153 212 240 297 365
#     4   9  23  40  56  88 117 157 208 244 294 369
#     4  11  23  38  60  86 124 159 194 256 299 352
#
# _framework density 20.522694000000001
#
# number of rings (size 3 to 8) (size 9 to 14) (size 15 to 20)
#    0.000    3.000    0.000    0.750    3.500   12.000 
#    0.000    7.500    0.000    0.000    0.000    0.000 
#    0.000    0.000    0.000    0.000    0.000    0.000 
#
# Total GULP energy -396458.133655 kJ/mol
# GULP energy per Si atom -12389.316677 kJ/mol
# Density = 2.047598 g / cm^3
# Si number density = 20.522694 Si / 1000 Ang^3
#
#
#
# Elastic Constant Matrix: (Units=GPa)
#
#
# Indices 1 2 3 4 5 6 
#
# 1 111.6804 47.9567 39.8569 0.0000 0.0000 0.0000
# 2 47.9567 151.2449 63.1576 0.0000 0.0000 0.0000
# 3 39.8569 63.1576 132.9136 0.0000 0.0000 0.0000
# 4 0.0000 0.0000 0.0000 22.8358 0.0000 0.0000
# 5 0.0000 0.0000 0.0000 0.0000 4.8419 0.0000
# 6 0.0000 0.0000 0.0000 0.0000 0.0000 26.9887
#
#
#
# Elastic Compliance Matrix: (Units=1/GPa)
#
#
# Indices 1 2 3 4 5 6 
#
# 1 0.010778 -0.002580 -0.002006 0.000000 0.000000 0.000000
# 2 -0.002580 0.008866 -0.003439 0.000000 0.000000 0.000000
# 3 -0.002006 -0.003439 0.009760 0.000000 0.000000 0.000000
# 4 0.000000 0.000000 0.000000 0.043791 0.000000 0.000000
# 5 0.000000 0.000000 0.000000 0.000000 0.206530 0.000000
# 6 0.000000 0.000000 0.000000 0.000000 0.000000 0.037053
#
#
# Mechanical properties :
#
#
# Convention : Reuss Voigt Hill
#
# Bulk Modulus (GPa) = 74.88945 77.53126 76.21035
# Shear Modulus (GPa) = 14.82456 27.25781 21.04118
#
# Velocity S-wave (km/s) = 2.69057 3.64837 3.20545
# Velocity P-wave (km/s) = 6.79871 7.45706 7.13549
#
# Compressibility (1/GPa) = 0.01335302
#
# Stress axis : x y z
#
# Youngs Moduli (GPa) = 92.78309 112.79078 102.46361
#
# Poissons Ratio (x) = 0.29097 0.20556
# Poissons Ratio (y) = 0.23935 0.35241
# Poissons Ratio (z) = 0.18614 0.38793
#
# Static dielectric constant tensor:
#      x y z
#    x 3.409280 0.000000 0.000000 
#    y 0.000000 4.079640 0.000000 
#    z 0.000000 0.000000 3.960790 
# 
# 
# High freq. dielectric constant tensor:
#      x y z
#    x 1.769810 0.000000 0.000000 
#    y 0.000000 1.809580 0.000000 
#    z 0.000000 0.000000 1.818870 
# 
# From -- ./inp_files/20766.got.cif
#   From: 2010.03.12/outbox.cif.g09.slc.cpg/sg56_11_cif.got.tgz:20766.got - 2010.04.16 15:33:40.
