data_PCOD8229607
_publ_section_title
;
Structure prediction by ZEFSAII (Michael W. Deem and Ramdas Pophale) SiO2 
 PCOD8229607
Probable space group: P C C N
;
_chemical_formula_sum "Si O2"
_cell_formula_units_Z 48
_cell_length_a 11.588130
_cell_length_b 13.358146
_cell_length_c 14.499336
_cell_angle_alpha 90.000000
_cell_angle_beta 90.000000
_cell_angle_gamma 90.000000
_cell_volume 2244.438235
_symmetry_space_group_name_H-M "P C C N"
_symmetry_group_IT_number 56
_symmetry_cell_setting 'orthorhombic'
loop_
_space_group_symop_operation_xyz
x,y,z
1/2-x,1/2-y,z
1/2+x,-y,1/2-z
-x,1/2+y,1/2-z
-x,-y,-z
1/2+x,1/2+y,-z
1/2-x,y,1/2+z
x,1/2-y,1/2+z
loop_
_atom_site_type_symbol
_atom_site_label
_atom_site_fract_x
_atom_site_fract_y
_atom_site_fract_z
Si Si1 0.798552 0.041389 0.923515
Si Si2 0.049566 0.172494 0.307282
Si Si3 0.263977 0.475800 0.384947
Si Si4 0.037237 0.143404 0.936158
Si Si5 0.844672 0.824788 0.881401
Si Si6 0.297821 0.642858 0.742118
O O1 0.744204 0.128277 0.862524
O O2 0.932869 0.065361 0.939801
O O3 0.791737 0.935621 0.870374
O O4 0.724937 0.034150 0.017865
O O5 0.122688 0.091113 0.364972
O O6 0.008535 0.261226 0.373660
O O7 0.119988 0.214481 0.219637
O O8 0.935243 0.127572 0.259742
O O9 0.151148 0.406321 0.392522
O O10 0.256078 0.558121 0.306095
O O11 0.054384 0.176356 0.042314
O O12 0.750000 0.750000 0.921999
O O13 0.250000 0.750000 0.777079
#
# Coordination Sequence:
#
# PCOD8229607 Si02
#       6
#     8   8   8   8   8   8
#     4  11  23  45  67  97 140 180 220 281 348 407
#     4  12  24  43  69 102 134 176 229 281 338 414
#     4  11  24  43  72  98 129 181 234 280 339 407
#     4  11  22  43  71 101 138 178 224 281 349 412
#     4  11  22  42  70 104 131 171 229 288 336 397
#     4  12  26  45  64  97 141 181 227 283 352 413
#
# _framework density 21.386198
#
# number of rings (size 3 to 8) (size 9 to 14) (size 15 to 20)
#    0.000    0.667    3.333    7.500    0.000    1.333 
#    3.000    0.000    0.000    0.000    0.000    0.000 
#    0.000    0.000    0.000    0.000    0.000    0.000 
#
# Total GULP energy -595248.427330 kJ/mol
# GULP energy per Si atom -12401.008903 kJ/mol
# Density = 2.133752 g / cm^3
# Si number density = 21.386198 Si / 1000 Ang^3
#
#
#
# Elastic Constant Matrix: (Units=GPa)
#
#
# Indices 1 2 3 4 5 6 
#
# 1 94.1621 24.3550 13.4015 0.0000 0.0000 0.0000
# 2 24.3550 91.8868 34.2859 0.0000 0.0000 0.0000
# 3 13.4015 34.2859 114.8677 0.0000 0.0000 0.0000
# 4 0.0000 0.0000 0.0000 30.9055 0.0000 0.0000
# 5 0.0000 0.0000 0.0000 0.0000 24.4022 0.0000
# 6 0.0000 0.0000 0.0000 0.0000 0.0000 39.5917
#
#
#
# Elastic Compliance Matrix: (Units=1/GPa)
#
#
# Indices 1 2 3 4 5 6 
#
# 1 0.011425 -0.002848 -0.000483 0.000000 0.000000 0.000000
# 2 -0.002848 0.012957 -0.003535 0.000000 0.000000 0.000000
# 3 -0.000483 -0.003535 0.009817 0.000000 0.000000 0.000000
# 4 0.000000 0.000000 0.000000 0.032357 0.000000 0.000000
# 5 0.000000 0.000000 0.000000 0.000000 0.040980 0.000000
# 6 0.000000 0.000000 0.000000 0.000000 0.000000 0.025258
#
#
# Mechanical properties :
#
#
# Convention : Reuss Voigt Hill
#
# Bulk Modulus (GPa) = 48.85870 49.44461 49.15166
# Shear Modulus (GPa) = 32.60544 34.23816 33.42180
#
# Velocity S-wave (km/s) = 3.90885 4.00552 3.95748
# Velocity P-wave (km/s) = 6.57782 6.67550 6.62684
#
# Compressibility (1/GPa) = 0.02046719
#
# Stress axis : x y z
#
# Youngs Moduli (GPa) = 87.52441 77.17867 101.86232
#
# Poissons Ratio (x) = 0.21982 0.04919
# Poissons Ratio (y) = 0.24929 0.36010
# Poissons Ratio (z) = 0.04226 0.27284
#
# Static dielectric constant tensor:
#      x y z
#    x 3.754550 0.000000 0.000000 
#    y 0.000000 3.792380 0.000000 
#    z 0.000000 0.000000 3.954910 
# 
# 
# High freq. dielectric constant tensor:
#      x y z
#    x 1.831680 0.000000 0.000000 
#    y 0.000000 1.843100 0.000000 
#    z 0.000000 0.000000 1.854440 
# 
# From -- ./inp_files/11604.got.cif
#   From: 2010.03.12/outbox.cif.g09.slc.cpg/sg56_6_cif.got.tgz:11604.got - 2010.04.16 15:33:40.
