data_PCOD8229392
_publ_section_title
;
Structure prediction by ZEFSAII (Michael W. Deem and Ramdas Pophale) SiO2 
 PCOD8229392
Probable space group: P C C N
;
_chemical_formula_sum "Si O2"
_cell_formula_units_Z 40
_cell_length_a 8.793366
_cell_length_b 8.567384
_cell_length_c 23.380507
_cell_angle_alpha 90.000000
_cell_angle_beta 90.000000
_cell_angle_gamma 90.000000
_cell_volume 1761.397223
_symmetry_space_group_name_H-M "P C C N"
_symmetry_group_IT_number 56
_symmetry_cell_setting 'orthorhombic'
loop_
_space_group_symop_operation_xyz
x,y,z
1/2-x,1/2-y,z
1/2+x,-y,1/2-z
-x,1/2+y,1/2-z
-x,-y,-z
1/2+x,1/2+y,-z
1/2-x,y,1/2+z
x,1/2-y,1/2+z
loop_
_atom_site_type_symbol
_atom_site_label
_atom_site_fract_x
_atom_site_fract_y
_atom_site_fract_z
Si Si1 0.114522 0.143278 0.147388
Si Si2 0.566010 0.936520 0.557369
Si Si3 0.783978 0.424589 0.765507
Si Si4 0.052172 0.564539 0.822304
Si Si5 0.577281 0.571889 0.556467
O O1 0.250000 0.250000 0.118013
O O2 0.992179 0.253298 0.179525
O O3 0.192736 0.038379 0.193798
O O4 0.022659 0.032593 0.105021
O O5 0.535332 0.752705 0.561705
O O6 0.745213 0.967199 0.556822
O O7 0.500000 0.000000 0.500000
O O8 0.750000 0.250000 0.785805
O O9 0.726959 0.451145 0.699459
O O10 0.959899 0.467508 0.773849
O O11 0.013866 0.505417 0.885828
O O12 0.500000 0.500000 0.500000
#
# Coordination Sequence:
#
# PCOD8229392 Si02
#       5
#     8   8   8   8   8
#     4  10  24  44  70 103 142 183 232 294 352 417
#     4  11  26  45  75 101 141 184 235 291 349 425
#     4  11  24  43  69  99 139 183 233 281 348 404
#     4  11  25  44  71 102 140 183 231 289 343 418
#     4  11  27  48  72 106 139 184 236 289 359 414
#
# _framework density 22.709246
#
# number of rings (size 3 to 8) (size 9 to 14) (size 15 to 20)
#    0.000    1.200    0.000    3.600   14.000    2.400 
#    7.200    0.000    0.000    0.000    0.000    0.000 
#    0.000    0.000    0.000    0.000    0.000    0.000 
#
# Total GULP energy -495791.995480 kJ/mol
# GULP energy per Si atom -12394.799887 kJ/mol
# Density = 2.265756 g / cm^3
# Si number density = 22.709246 Si / 1000 Ang^3
#
#
#
# Elastic Constant Matrix: (Units=GPa)
#
#
# Indices 1 2 3 4 5 6 
#
# 1 97.7563 46.4634 44.7516 0.0000 0.0000 0.0000
# 2 46.4634 139.2617 39.7573 0.0000 0.0000 0.0000
# 3 44.7516 39.7573 98.6291 0.0000 0.0000 0.0000
# 4 0.0000 0.0000 0.0000 33.6227 0.0000 0.0000
# 5 0.0000 0.0000 0.0000 0.0000 22.6867 0.0000
# 6 0.0000 0.0000 0.0000 0.0000 0.0000 41.3721
#
#
#
# Elastic Compliance Matrix: (Units=1/GPa)
#
#
# Indices 1 2 3 4 5 6 
#
# 1 0.014105 -0.003253 -0.005089 0.000000 0.000000 0.000000
# 2 -0.003253 0.008865 -0.002097 0.000000 0.000000 0.000000
# 3 -0.005089 -0.002097 0.013293 0.000000 0.000000 0.000000
# 4 0.000000 0.000000 0.000000 0.029742 0.000000 0.000000
# 5 0.000000 0.000000 0.000000 0.000000 0.044079 0.000000
# 6 0.000000 0.000000 0.000000 0.000000 0.000000 0.024171
#
#
# Mechanical properties :
#
#
# Convention : Reuss Voigt Hill
#
# Bulk Modulus (GPa) = 64.99857 66.39910 65.69883
# Shear Modulus (GPa) = 31.19892 33.18129 32.19011
#
# Velocity S-wave (km/s) = 3.71056 3.82663 3.76904
# Velocity P-wave (km/s) = 6.85871 6.98759 6.92345
#
# Compressibility (1/GPa) = 0.01538495
#
# Stress axis : x y z
#
# Youngs Moduli (GPa) = 70.89489 112.80408 75.22572
#
# Poissons Ratio (x) = 0.36699 0.38280
# Poissons Ratio (y) = 0.23065 0.15777
# Poissons Ratio (z) = 0.36076 0.23658
#
# Static dielectric constant tensor:
#      x y z
#    x 4.835840 0.000000 0.000000 
#    y 0.000000 4.366490 0.000000 
#    z 0.000000 0.000000 3.843880 
# 
# 
# High freq. dielectric constant tensor:
#      x y z
#    x 1.913630 0.000000 0.000000 
#    y 0.000000 1.916390 0.000000 
#    z 0.000000 0.000000 1.896300 
# 
# From -- ./inp_files/20302.got.cif
#   From: 2010.03.12/outbox.cif.g09.slc.cpg/sg56_11_cif.got.tgz:20302.got - 2010.04.16 15:33:40.
