data_PCOD8229044
_publ_section_title
;
Structure prediction by ZEFSAII (Michael W. Deem and Ramdas Pophale) SiO2 
 PCOD8229044
Probable space group: P C C N
;
_chemical_formula_sum "Si O2"
_cell_formula_units_Z 32
_cell_length_a 4.798705
_cell_length_b 13.128665
_cell_length_c 17.671695
_cell_angle_alpha 90.000000
_cell_angle_beta 90.000000
_cell_angle_gamma 90.000000
_cell_volume 1113.327218
_symmetry_space_group_name_H-M "P C C N"
_symmetry_group_IT_number 56
_symmetry_cell_setting 'orthorhombic'
loop_
_space_group_symop_operation_xyz
x,y,z
1/2-x,1/2-y,z
1/2+x,-y,1/2-z
-x,1/2+y,1/2-z
-x,-y,-z
1/2+x,1/2+y,-z
1/2-x,y,1/2+z
x,1/2-y,1/2+z
loop_
_atom_site_type_symbol
_atom_site_label
_atom_site_fract_x
_atom_site_fract_y
_atom_site_fract_z
Si Si1 0.413864 0.655576 0.461069
Si Si2 0.800070 0.939693 0.073063
Si Si3 0.075297 0.343112 0.208311
Si Si4 0.204089 0.937499 0.676615
O O1 0.250000 0.750000 0.498102
O O2 0.221493 0.553978 0.461017
O O3 0.697725 0.638617 0.508769
O O4 0.491835 0.686469 0.376221
O O5 0.614354 0.926095 0.149645
O O6 0.114460 0.918780 0.100020
O O7 0.250000 0.250000 0.243794
O O8 0.258397 0.447553 0.208024
O O9 0.794578 0.358138 0.258482
#
# Coordination Sequence:
#
# PCOD8229044 Si02
#       4
#     8   8   8   8
#     4  10  22  40  66  98 132 176 230 281 339 410
#     4  10  24  43  66  94 136 180 220 282 348 404
#     4  11  24  42  72 103 139 186 237 290 350 419
#     4  11  24  45  66  98 139 178 227 284 345 412
#
# _framework density 28.742674000000001
#
# number of rings (size 3 to 8) (size 9 to 14) (size 15 to 20)
#    0.000    1.500    0.000    4.500    0.000   15.000 
#    0.000    0.000    0.000    0.000    0.000    0.000 
#    0.000    0.000    0.000    0.000    0.000    0.000 
#
# Total GULP energy -397060.016209 kJ/mol
# GULP energy per Si atom -12408.125507 kJ/mol
# Density = 2.867725 g / cm^3
# Si number density = 28.742674 Si / 1000 Ang^3
#
#
#
# Elastic Constant Matrix: (Units=GPa)
#
#
# Indices 1 2 3 4 5 6 
#
# 1 53.2591 15.7482 -12.5269 0.0000 0.0000 0.0000
# 2 15.7482 120.6316 13.5227 0.0000 0.0000 0.0000
# 3 -12.5269 13.5227 118.7232 0.0000 0.0000 0.0000
# 4 0.0000 0.0000 0.0000 6.7792 0.0000 0.0000
# 5 0.0000 0.0000 0.0000 0.0000 34.1652 0.0000
# 6 0.0000 0.0000 0.0000 0.0000 0.0000 54.8264
#
#
#
# Elastic Compliance Matrix: (Units=1/GPa)
#
#
# Indices 1 2 3 4 5 6 
#
# 1 0.020218 -0.002916 0.002465 0.000000 0.000000 0.000000
# 2 -0.002916 0.008817 -0.001312 0.000000 0.000000 0.000000
# 3 0.002465 -0.001312 0.008833 0.000000 0.000000 0.000000
# 4 0.000000 0.000000 0.000000 0.147510 0.000000 0.000000
# 5 0.000000 0.000000 0.000000 0.000000 0.029270 0.000000
# 6 0.000000 0.000000 0.000000 0.000000 0.000000 0.018239
#
#
# Mechanical properties :
#
#
# Convention : Reuss Voigt Hill
#
# Bulk Modulus (GPa) = 29.11769 36.23354 32.67562
# Shear Modulus (GPa) = 20.17269 37.54549 28.85909
#
# Velocity S-wave (km/s) = 2.65210 3.61815 3.17211
# Velocity P-wave (km/s) = 4.41935 5.48527 4.98090
#
# Compressibility (1/GPa) = 0.03434338
#
# Stress axis : x y z
#
# Youngs Moduli (GPa) = 49.46045 113.41186 113.21794
#
# Poissons Ratio (x) = 0.33069 -0.27913
# Poissons Ratio (y) = 0.14422 0.14854
# Poissons Ratio (z) = -0.12194 0.14879
#
# Static dielectric constant tensor:
#      x y z
#    x 5.035890 0.000000 0.000000 
#    y 0.000000 5.013230 0.000000 
#    z 0.000000 0.000000 5.240050 
# 
# 
# High freq. dielectric constant tensor:
#      x y z
#    x 2.162940 0.000000 0.000000 
#    y 0.000000 2.155110 0.000000 
#    z 0.000000 0.000000 2.189570 
# 
# From -- ./inp_files/13678.got.cif
#   From: 2010.03.12/outbox.cif.g09.slc.cpg/sg56_7_cif.got.tgz:13678.got - 2010.04.16 15:33:40.
