data_PCOD8229295
_publ_section_title
;
Structure prediction by ZEFSAII (Michael W. Deem and Ramdas Pophale) SiO2 
 PCOD8229295
Probable space group: P C C N
;
_chemical_formula_sum "Si O2"
_cell_formula_units_Z 56
_cell_length_a 13.586760
_cell_length_b 19.694743
_cell_length_c 8.974190
_cell_angle_alpha 90.000000
_cell_angle_beta 90.000000
_cell_angle_gamma 90.000000
_cell_volume 2401.383278
_symmetry_space_group_name_H-M "P C C N"
_symmetry_group_IT_number 56
_symmetry_cell_setting 'orthorhombic'
loop_
_space_group_symop_operation_xyz
x,y,z
1/2-x,1/2-y,z
1/2+x,-y,1/2-z
-x,1/2+y,1/2-z
-x,-y,-z
1/2+x,1/2+y,-z
1/2-x,y,1/2+z
x,1/2-y,1/2+z
loop_
_atom_site_type_symbol
_atom_site_label
_atom_site_fract_x
_atom_site_fract_y
_atom_site_fract_z
Si Si1 0.674194 0.687129 0.082796
Si Si2 0.871478 0.545356 0.140062
Si Si3 0.536086 0.147236 0.840323
Si Si4 0.798869 0.180991 0.150375
Si Si5 0.101866 0.890496 0.353140
Si Si6 0.457937 0.704857 0.098481
Si Si7 0.285573 0.401167 0.648262
O O1 0.750000 0.750000 0.091725
O O2 0.565066 0.702262 0.020553
O O3 0.661454 0.655758 0.249555
O O4 0.712799 0.633402 0.966998
O O5 0.914275 0.470724 0.158758
O O6 0.771933 0.549609 0.237290
O O7 0.945315 0.601091 0.215354
O O8 0.858877 0.557084 0.960672
O O9 0.639656 0.130634 0.760230
O O10 0.531551 0.227534 0.800820
O O11 0.533515 0.137823 0.016879
O O12 0.750000 0.250000 0.223314
O O13 0.712517 0.130575 0.100042
O O14 0.868549 0.208127 0.018095
O O15 0.064699 0.860184 0.198723
#
# Coordination Sequence:
#
# PCOD8229295 Si02
#       7
#     8   8   8   8   8   8   8
#     4  11  23  42  73 106 142 182 241 305 362 429
#     4  11  26  46  69 102 142 197 236 299 360 445
#     4  12  24  44  70 100 141 181 244 292 363 427
#     4  12  25  45  71 107 143 184 242 303 364 434
#     4  12  27  44  70 102 146 190 243 297 367 439
#     4  12  24  43  73 105 139 187 243 301 365 432
#     4  10  23  44  67  98 144 182 239 282 370 421
#
# _framework density 23.319893
#
# number of rings (size 3 to 8) (size 9 to 14) (size 15 to 20)
#    0.000    0.571    2.857    5.143    4.000    2.286 
#    2.571    1.429    0.000    0.000    0.000    0.000 
#    0.000    0.000    0.000    0.000    0.000    0.000 
#
# Total GULP energy -693934.785388 kJ/mol
# GULP energy per Si atom -12391.692596 kJ/mol
# Density = 2.326682 g / cm^3
# Si number density = 23.319893 Si / 1000 Ang^3
#
#
#
# Elastic Constant Matrix: (Units=GPa)
#
#
# Indices 1 2 3 4 5 6 
#
# 1 111.3862 21.7804 8.2636 0.0000 0.0000 0.0000
# 2 21.7804 102.7584 22.0711 0.0000 0.0000 0.0000
# 3 8.2636 22.0711 83.7608 0.0000 0.0000 0.0000
# 4 0.0000 0.0000 0.0000 26.6356 0.0000 0.0000
# 5 0.0000 0.0000 0.0000 0.0000 31.9126 0.0000
# 6 0.0000 0.0000 0.0000 0.0000 0.0000 25.4067
#
#
#
# Elastic Compliance Matrix: (Units=1/GPa)
#
#
# Indices 1 2 3 4 5 6 
#
# 1 0.009380 -0.001897 -0.000426 0.000000 0.000000 0.000000
# 2 -0.001897 0.010699 -0.002632 0.000000 0.000000 0.000000
# 3 -0.000426 -0.002632 0.012674 0.000000 0.000000 0.000000
# 4 0.000000 0.000000 0.000000 0.037544 0.000000 0.000000
# 5 0.000000 0.000000 0.000000 0.000000 0.031336 0.000000
# 6 0.000000 0.000000 0.000000 0.000000 0.000000 0.039360
#
#
# Mechanical properties :
#
#
# Convention : Reuss Voigt Hill
#
# Bulk Modulus (GPa) = 43.77413 44.68174 44.22793
# Shear Modulus (GPa) = 31.54253 33.17702 32.35978
#
# Velocity S-wave (km/s) = 3.68176 3.77595 3.72915
# Velocity P-wave (km/s) = 6.07336 6.18161 6.12773
#
# Compressibility (1/GPa) = 0.02284454
#
# Stress axis : x y z
#
# Youngs Moduli (GPa) = 106.60700 93.46723 78.89983
#
# Poissons Ratio (x) = 0.17729 0.03358
# Poissons Ratio (y) = 0.20221 0.20767
# Poissons Ratio (z) = 0.04537 0.24601
#
# Static dielectric constant tensor:
#      x y z
#    x 4.676450 0.000000 0.000000 
#    y 0.000000 4.056880 0.000000 
#    z 0.000000 0.000000 4.229210 
# 
# 
# High freq. dielectric constant tensor:
#      x y z
#    x 1.938240 0.000000 0.000000 
#    y 0.000000 1.909320 0.000000 
#    z 0.000000 0.000000 1.922140 
# 
# From -- ./inp_files/3564.got.cif
#   From: 2010.03.12/outbox.cif.g09.slc.cpg/sg56_2_cif.got.tgz:3564.got - 2010.04.16 15:33:40.
