data_PCOD8229177
_publ_section_title
;
Structure prediction by ZEFSAII (Michael W. Deem and Ramdas Pophale) SiO2 
 PCOD8229177
Probable space group: P C C N
;
_chemical_formula_sum "Si O2"
_cell_formula_units_Z 44
_cell_length_a 13.296654
_cell_length_b 9.230267
_cell_length_c 16.402843
_cell_angle_alpha 90.000000
_cell_angle_beta 90.000000
_cell_angle_gamma 90.000000
_cell_volume 2013.148259
_symmetry_space_group_name_H-M "P C C N"
_symmetry_group_IT_number 56
_symmetry_cell_setting 'orthorhombic'
loop_
_space_group_symop_operation_xyz
x,y,z
1/2-x,1/2-y,z
1/2+x,-y,1/2-z
-x,1/2+y,1/2-z
-x,-y,-z
1/2+x,1/2+y,-z
1/2-x,y,1/2+z
x,1/2-y,1/2+z
loop_
_atom_site_type_symbol
_atom_site_label
_atom_site_fract_x
_atom_site_fract_y
_atom_site_fract_z
Si Si1 0.413066 0.594817 0.957542
Si Si2 0.637840 0.140052 0.937747
Si Si3 0.250000 0.750000 0.706720
Si Si4 0.545276 0.905292 0.162218
Si Si5 0.548090 0.276164 0.700320
Si Si6 0.727253 0.591149 0.555808
O O1 0.457215 0.686702 0.883268
O O2 0.332139 0.483530 0.921191
O O3 0.500000 0.500000 0.000000
O O4 0.350589 0.702868 0.017650
O O5 0.704465 0.128677 0.854852
O O6 0.519909 0.140323 0.916157
O O7 0.663309 0.002698 0.992387
O O8 0.160641 0.698542 0.765228
O O9 0.527354 0.798033 0.237012
O O10 0.662554 0.896480 0.138679
O O11 0.506434 0.064454 0.185401
O O12 0.750000 0.750000 0.519078
#
# Coordination Sequence:
#
# PCOD8229177 Si02
#       6
#     8   8   4   8   8   8
#     4  12  26  45  76 100 139 194 242 290 358 436
#     4  11  23  47  71 101 138 188 236 295 360 430
#     4  10  22  44  70  98 136 188 234 282 358 440
#     4  11  26  45  70 102 145 184 231 299 361 436
#     4  11  26  44  71 100 143 187 231 287 365 425
#     4  12  25  42  72 106 137 178 242 299 355 425
#
# _framework density 21.856314000000001
#
# number of rings (size 3 to 8) (size 9 to 14) (size 15 to 20)
#    0.000    0.727    3.636    2.727   10.182    0.000 
#    0.000    0.000    0.000    0.000    0.000    0.000 
#    0.000    0.000    0.000    0.000    0.000    0.000 
#
# Total GULP energy -545614.016740 kJ/mol
# GULP energy per Si atom -12400.318562 kJ/mol
# Density = 2.180657 g / cm^3
# Si number density = 21.856314 Si / 1000 Ang^3
#
#
#
# Elastic Constant Matrix: (Units=GPa)
#
#
# Indices 1 2 3 4 5 6 
#
# 1 103.9400 36.0692 37.4269 0.0000 0.0000 0.0000
# 2 36.0692 143.1914 34.8694 0.0000 0.0000 0.0000
# 3 37.4269 34.8694 90.2805 0.0000 0.0000 0.0000
# 4 0.0000 0.0000 0.0000 36.7441 0.0000 0.0000
# 5 0.0000 0.0000 0.0000 0.0000 32.9452 0.0000
# 6 0.0000 0.0000 0.0000 0.0000 0.0000 37.4741
#
#
#
# Elastic Compliance Matrix: (Units=1/GPa)
#
#
# Indices 1 2 3 4 5 6 
#
# 1 0.011789 -0.001964 -0.004129 0.000000 0.000000 0.000000
# 2 -0.001964 0.008036 -0.002289 0.000000 0.000000 0.000000
# 3 -0.004129 -0.002289 0.013672 0.000000 0.000000 0.000000
# 4 0.000000 0.000000 0.000000 0.027215 0.000000 0.000000
# 5 0.000000 0.000000 0.000000 0.000000 0.030353 0.000000
# 6 0.000000 0.000000 0.000000 0.000000 0.000000 0.026685
#
#
# Mechanical properties :
#
#
# Convention : Reuss Voigt Hill
#
# Bulk Modulus (GPa) = 59.76275 61.57143 60.66709
# Shear Modulus (GPa) = 35.69033 36.70243 36.19638
#
# Velocity S-wave (km/s) = 4.04536 4.10232 4.07394
# Velocity P-wave (km/s) = 7.01590 7.11835 7.06731
#
# Compressibility (1/GPa) = 0.01673283
#
# Stress axis : x y z
#
# Youngs Moduli (GPa) = 84.82301 124.44057 73.13962
#
# Poissons Ratio (x) = 0.24443 0.30197
# Poissons Ratio (y) = 0.16661 0.16745
# Poissons Ratio (z) = 0.35021 0.28490
#
# Static dielectric constant tensor:
#      x y z
#    x 4.009100 0.000000 0.000000 
#    y 0.000000 4.000380 0.000000 
#    z 0.000000 0.000000 3.960600 
# 
# 
# High freq. dielectric constant tensor:
#      x y z
#    x 1.869610 0.000000 0.000000 
#    y 0.000000 1.862410 0.000000 
#    z 0.000000 0.000000 1.858620 
# 
# From -- ./inp_files/16102.got.cif
#   From: 2010.03.12/outbox.cif.g09.slc.cpg/sg56_9_cif.got.tgz:16102.got - 2010.04.16 15:33:40.
