data_PCOD8229985
_publ_section_title
;
Structure prediction by ZEFSAII (Michael W. Deem and Ramdas Pophale) SiO2 
 PCOD8229985
Probable space group: P B C M
;
_chemical_formula_sum "Si O2"
_cell_formula_units_Z 56
_cell_length_a 13.930401
_cell_length_b 28.025263
_cell_length_c 8.902477
_cell_angle_alpha 90.000000
_cell_angle_beta 90.000000
_cell_angle_gamma 90.000000
_cell_volume 3475.555079
_symmetry_space_group_name_H-M "P B C M"
_symmetry_group_IT_number 57
_symmetry_cell_setting 'orthorhombic'
loop_
_space_group_symop_operation_xyz
x,y,z
-x,-y,1/2+z
x,1/2-y,-z
-x,1/2+y,1/2-z
-x,-y,-z
x,y,1/2-z
-x,1/2+y,z
x,1/2-y,1/2+z
loop_
_atom_site_type_symbol
_atom_site_label
_atom_site_fract_x
_atom_site_fract_y
_atom_site_fract_z
Si Si1 0.477699 0.797789 0.926378
Si Si2 0.740189 0.202483 0.074638
Si Si3 0.618108 0.439926 0.078567
Si Si4 0.281120 0.463390 0.581126
Si Si5 0.439204 0.102917 0.428738
Si Si6 0.098376 0.983271 0.070501
Si Si7 0.799550 0.399244 0.925615
O O1 0.480033 0.790974 0.750000
O O2 0.368763 0.806831 0.984144
O O3 0.544812 0.842135 0.975333
O O4 0.520763 0.750000 0.000000
O O5 0.736476 0.211609 0.250000
O O6 0.808489 0.157283 0.037157
O O7 0.784282 0.250000 0.000000
O O8 0.629543 0.421621 0.250000
O O9 0.637389 0.496225 0.071231
O O10 0.512887 0.430398 0.016953
O O11 0.692194 0.413058 0.970876
O O12 0.249494 0.453283 0.750000
O O13 0.332209 0.415003 0.519114
O O14 0.182148 0.481551 0.503622
O O15 0.452927 0.095603 0.250000
O O16 0.093292 0.983769 0.250000
O O17 0.121875 0.929192 0.018979
O O18 0.000000 0.000000 0.000000
O O19 0.814907 0.409271 0.750000
#
# Coordination Sequence:
#
# PCOD8229985 Si02
#       7
#     8   8   8   8   8   8   8
#     4   9  17  28  41  60  86 121 159 190 223 261
#     4   9  17  28  42  64  91 123 159 190 224 267
#     4  10  18  27  40  64  94 123 153 186 222 264
#     4   8  17  30  45  65  89 115 150 187 222 272
#     4  10  17  29  45  61  87 123 156 187 221 262
#     4  10  20  35  52  73  94 118 151 190 240 288
#     4  10  18  31  48  68  93 125 159 191 229 276
#
# _framework density 16.112534
#
# number of rings (size 3 to 8) (size 9 to 14) (size 15 to 20)
#    0.000    2.571    1.429    2.571    0.000    1.714 
#    0.000    3.571    0.000    0.000    0.000    1.000 
#    0.000    2.286    0.000    0.000    0.000    0.000 
#
# Total GULP energy -693913.681624 kJ/mol
# GULP energy per Si atom -12391.315743 kJ/mol
# Density = 1.607586 g / cm^3
# Si number density = 16.112534 Si / 1000 Ang^3
#
#
#
# Elastic Constant Matrix: (Units=GPa)
#
#
# Indices 1 2 3 4 5 6 
#
# 1 90.2957 64.9927 29.5645 0.0000 0.0000 0.0000
# 2 64.9927 113.1747 37.7413 0.0000 0.0000 0.0000
# 3 29.5645 37.7413 44.5527 0.0000 0.0000 0.0000
# 4 0.0000 0.0000 0.0000 25.5505 0.0000 0.0000
# 5 0.0000 0.0000 0.0000 0.0000 17.5238 0.0000
# 6 0.0000 0.0000 0.0000 0.0000 0.0000 17.3014
#
#
#
# Elastic Compliance Matrix: (Units=1/GPa)
#
#
# Indices 1 2 3 4 5 6 
#
# 1 0.019598 -0.009641 -0.004838 0.000000 0.000000 0.000000
# 2 -0.009641 0.017058 -0.008052 0.000000 0.000000 0.000000
# 3 -0.004838 -0.008052 0.032477 0.000000 0.000000 0.000000
# 4 0.000000 0.000000 0.000000 0.039138 0.000000 0.000000
# 5 0.000000 0.000000 0.000000 0.000000 0.057065 0.000000
# 6 0.000000 0.000000 0.000000 0.000000 0.000000 0.057799
#
#
# Mechanical properties :
#
#
# Convention : Reuss Voigt Hill
#
# Bulk Modulus (GPa) = 41.54494 56.95780 49.25137
# Shear Modulus (GPa) = 18.10143 19.79010 18.94576
#
# Velocity S-wave (km/s) = 3.35541 3.50843 3.43277
# Velocity P-wave (km/s) = 6.39155 7.19992 6.80774
#
# Compressibility (1/GPa) = 0.02407032
#
# Stress axis : x y z
#
# Youngs Moduli (GPa) = 51.02461 58.62393 30.79130
#
# Poissons Ratio (x) = 0.56522 0.14896
# Poissons Ratio (y) = 0.49195 0.24793
# Poissons Ratio (z) = 0.24685 0.47205
#
# Static dielectric constant tensor:
#      x y z
#    x 2.839400 0.000000 0.000000 
#    y 0.000000 3.226240 0.000000 
#    z 0.000000 0.000000 2.976170 
# 
# 
# High freq. dielectric constant tensor:
#      x y z
#    x 1.576630 0.000000 0.000000 
#    y 0.000000 1.619490 0.000000 
#    z 0.000000 0.000000 1.614440 
# 
# From -- ./inp_files/5923.got.cif
#   From: 2010.03.12/outbox.cif.g09.slc.cpg/sg57_3_cif.got.tgz:5923.got - 2010.04.16 15:48:40.
