data_PCOD8229123
_publ_section_title
;
Structure prediction by ZEFSAII (Michael W. Deem and Ramdas Pophale) SiO2 
 PCOD8229123
Probable space group: P C C N
;
_chemical_formula_sum "Si O2"
_cell_formula_units_Z 40
_cell_length_a 13.411696
_cell_length_b 11.233564
_cell_length_c 11.463625
_cell_angle_alpha 90.000000
_cell_angle_beta 90.000000
_cell_angle_gamma 90.000000
_cell_volume 1727.122873
_symmetry_space_group_name_H-M "P C C N"
_symmetry_group_IT_number 56
_symmetry_cell_setting 'orthorhombic'
loop_
_space_group_symop_operation_xyz
x,y,z
1/2-x,1/2-y,z
1/2+x,-y,1/2-z
-x,1/2+y,1/2-z
-x,-y,-z
1/2+x,1/2+y,-z
1/2-x,y,1/2+z
x,1/2-y,1/2+z
loop_
_atom_site_type_symbol
_atom_site_label
_atom_site_fract_x
_atom_site_fract_y
_atom_site_fract_z
Si Si1 0.607915 0.938689 0.314719
Si Si2 0.752383 0.390101 0.440886
Si Si3 0.535890 0.076919 0.890410
Si Si4 0.245535 0.083477 0.388637
Si Si5 0.902052 0.735620 0.521716
O O1 0.516325 0.969597 0.228616
O O2 0.701501 0.895158 0.238397
O O3 0.577089 0.829212 0.398326
O O4 0.646613 0.056944 0.382442
O O5 0.750000 0.250000 0.454495
O O6 0.653955 0.427790 0.367537
O O7 0.744167 0.445669 0.571180
O O8 0.503833 0.213278 0.922109
O O9 0.500000 0.000000 0.000000
O O10 0.178335 0.155753 0.485264
O O11 0.357488 0.135075 0.391218
#
# Coordination Sequence:
#
# PCOD8229123 Si02
#       5
#     8   8   8   8   8
#     4  10  22  42  68  96 127 179 230 267 338 409
#     4  11  24  43  64  95 140 179 219 278 356 401
#     4  11  22  45  65  97 139 172 221 288 332 398
#     4   9  19  40  64  91 131 166 221 284 322 384
#     4   9  19  36  65  95 118 167 221 272 328 387
#
# _framework density 23.159904999999998
#
# number of rings (size 3 to 8) (size 9 to 14) (size 15 to 20)
#    0.000    2.000    4.000    0.000    0.000   15.200 
#    7.200    2.000    0.000    0.000    0.000    0.000 
#    0.000    0.000    0.000    0.000    0.000    0.000 
#
# Total GULP energy -495540.251282 kJ/mol
# GULP energy per Si atom -12388.506282 kJ/mol
# Density = 2.310719 g / cm^3
# Si number density = 23.159905 Si / 1000 Ang^3
#
#
#
# Elastic Constant Matrix: (Units=GPa)
#
#
# Indices 1 2 3 4 5 6 
#
# 1 53.9008 14.0890 -6.3867 0.0000 0.0000 0.0000
# 2 14.0890 136.3495 19.6224 0.0000 0.0000 0.0000
# 3 -6.3867 19.6224 54.4155 0.0000 0.0000 0.0000
# 4 0.0000 0.0000 0.0000 29.4713 0.0000 0.0000
# 5 0.0000 0.0000 0.0000 0.0000 31.0473 0.0000
# 6 0.0000 0.0000 0.0000 0.0000 0.0000 28.6326
#
#
#
# Elastic Compliance Matrix: (Units=1/GPa)
#
#
# Indices 1 2 3 4 5 6 
#
# 1 0.019580 -0.002483 0.003193 0.000000 0.000000 0.000000
# 2 -0.002483 0.008050 -0.003194 0.000000 0.000000 0.000000
# 3 0.003193 -0.003194 0.019904 0.000000 0.000000 0.000000
# 4 0.000000 0.000000 0.000000 0.033931 0.000000 0.000000
# 5 0.000000 0.000000 0.000000 0.000000 0.032209 0.000000
# 6 0.000000 0.000000 0.000000 0.000000 0.000000 0.034925
#
#
# Mechanical properties :
#
#
# Convention : Reuss Voigt Hill
#
# Bulk Modulus (GPa) = 23.49258 33.25722 28.37490
# Shear Modulus (GPa) = 29.80519 32.31964 31.06241
#
# Velocity S-wave (km/s) = 3.59127 3.73969 3.66623
# Velocity P-wave (km/s) = 5.23087 5.74787 5.49545
#
# Compressibility (1/GPa) = 0.04256662
#
# Stress axis : x y z
#
# Youngs Moduli (GPa) = 51.07264 124.21819 50.24155
#
# Poissons Ratio (x) = 0.30840 -0.16044
# Poissons Ratio (y) = 0.12680 0.16049
# Poissons Ratio (z) = -0.16309 0.39680
#
# Static dielectric constant tensor:
#      x y z
#    x 4.439050 0.000000 0.000000 
#    y 0.000000 4.278620 0.000000 
#    z 0.000000 0.000000 3.876020 
# 
# 
# High freq. dielectric constant tensor:
#      x y z
#    x 1.910090 0.000000 0.000000 
#    y 0.000000 1.912490 0.000000 
#    z 0.000000 0.000000 1.893170 
# 
# From -- ./inp_files/7641.got.cif
#   From: 2010.03.12/outbox.cif.g09.slc.cpg/sg56_4_cif.got.tgz:7641.got - 2010.04.16 15:33:40.
