data_PCOD8229708
_publ_section_title
;
Structure prediction by ZEFSAII (Michael W. Deem and Ramdas Pophale) SiO2 
 PCOD8229708
Probable space group: P C C N
;
_chemical_formula_sum "Si O2"
_cell_formula_units_Z 40
_cell_length_a 8.051647
_cell_length_b 8.735651
_cell_length_c 25.319940
_cell_angle_alpha 90.000000
_cell_angle_beta 90.000000
_cell_angle_gamma 90.000000
_cell_volume 1780.912875
_symmetry_space_group_name_H-M "P C C N"
_symmetry_group_IT_number 56
_symmetry_cell_setting 'orthorhombic'
loop_
_space_group_symop_operation_xyz
x,y,z
1/2-x,1/2-y,z
1/2+x,-y,1/2-z
-x,1/2+y,1/2-z
-x,-y,-z
1/2+x,1/2+y,-z
1/2-x,y,1/2+z
x,1/2-y,1/2+z
loop_
_atom_site_type_symbol
_atom_site_label
_atom_site_fract_x
_atom_site_fract_y
_atom_site_fract_z
Si Si1 0.184318 0.582587 0.621166
Si Si2 0.314985 0.414162 0.720031
Si Si3 0.187432 0.929316 0.511020
Si Si4 0.313069 0.586367 0.316382
Si Si5 0.190494 0.085191 0.912139
O O1 0.250000 0.750000 0.636557
O O2 0.209794 0.470343 0.670127
O O3 0.273654 0.509497 0.569723
O O4 0.990025 0.591370 0.612080
O O5 0.250000 0.250000 0.738677
O O6 0.504572 0.403148 0.705507
O O7 0.305033 0.526739 0.769801
O O8 0.250000 0.750000 0.513467
O O9 0.309184 0.988935 0.465828
O O10 0.000000 0.000000 0.500000
O O11 0.250000 0.750000 0.335869
O O12 0.315054 0.479138 0.367856
O O13 0.250000 0.250000 0.929776
#
# Coordination Sequence:
#
# PCOD8229708 Si02
#       5
#     8   8   8   8   8
#     4  11  24  43  64  94 131 172 215 267 325 390
#     4  12  25  43  66  95 127 167 213 267 325 388
#     4  11  24  44  68  99 135 175 222 277 335 399
#     4  12  25  44  66  94 129 169 215 267 325 392
#     4  12  24  42  68  98 131 173 220 272 328 391
#
# _framework density 22.46039
#
# number of rings (size 3 to 8) (size 9 to 14) (size 15 to 20)
#    0.000    0.400    0.000   10.800    0.000    2.400 
#    0.000    0.000    0.000    0.000    0.000    0.000 
#    0.000    0.000    0.000    0.000    0.000    0.000 
#
# Total GULP energy -495873.583293 kJ/mol
# GULP energy per Si atom -12396.839582 kJ/mol
# Density = 2.240927 g / cm^3
# Si number density = 22.460390 Si / 1000 Ang^3
#
#
#
# Elastic Constant Matrix: (Units=GPa)
#
#
# Indices 1 2 3 4 5 6 
#
# 1 85.5051 28.7449 -17.4536 0.0000 0.0000 0.0000
# 2 28.7449 90.9267 36.5811 0.0000 0.0000 0.0000
# 3 -17.4536 36.5811 117.1481 0.0000 0.0000 0.0000
# 4 0.0000 0.0000 0.0000 22.1683 0.0000 0.0000
# 5 0.0000 0.0000 0.0000 0.0000 -557.6398 0.0000
# 6 0.0000 0.0000 0.0000 0.0000 0.0000 39.2568
#
#
#
# Elastic Compliance Matrix: (Units=1/GPa)
#
#
# Indices 1 2 3 4 5 6 
#
# 1 0.014663 -0.006307 0.004154 0.000000 0.000000 0.000000
# 2 -0.006307 0.015291 -0.005714 0.000000 0.000000 0.000000
# 3 0.004154 -0.005714 0.010939 0.000000 0.000000 0.000000
# 4 0.000000 0.000000 0.000000 0.045109 0.000000 0.000000
# 5 0.000000 0.000000 0.000000 0.000000 -0.001793 0.000000
# 6 0.000000 0.000000 0.000000 0.000000 0.000000 0.025473
#
#
# Mechanical properties :
#
#
# Convention : Reuss Voigt Hill
#
# Bulk Modulus (GPa) = 39.74680 43.25831 41.50255
# Shear Modulus (GPa) = 37.36822 -82.86245 -22.74711
#
# Velocity S-wave (km/s) = 4.08332 -6.08053 -3.18585
# Velocity P-wave (km/s) = 6.32188 5.47681 2.23279
#
# Compressibility (1/GPa) = 0.02515926
#
# Stress axis : x y z
#
# Youngs Moduli (GPa) = 68.19726 65.39964 91.41201
#
# Poissons Ratio (x) = 0.41246 -0.37973
# Poissons Ratio (y) = 0.43011 0.52236
# Poissons Ratio (z) = -0.28329 0.37372
#
# Static dielectric constant tensor:
#      x y z
#    x 4.108450 0.000000 0.000000 
#    y 0.000000 3.889060 0.000000 
#    z 0.000000 0.000000 4.447390 
# 
# 
# High freq. dielectric constant tensor:
#      x y z
#    x 1.899650 0.000000 0.000000 
#    y 0.000000 1.887990 0.000000 
#    z 0.000000 0.000000 1.907440 
# 
# From -- ./inp_files/20331.got.cif
#   From: 2010.03.12/outbox.cif.g09.slc.cpg/sg56_11_cif.got.tgz:20331.got - 2010.04.16 15:33:40.
