data_PCOD8229124
_publ_section_title
;
Structure prediction by ZEFSAII (Michael W. Deem and Ramdas Pophale) SiO2 
 PCOD8229124
Probable space group: P C C N
;
_chemical_formula_sum "Si O2"
_cell_formula_units_Z 28
_cell_length_a 11.078911
_cell_length_b 7.906225
_cell_length_c 13.659315
_cell_angle_alpha 90.000000
_cell_angle_beta 90.000000
_cell_angle_gamma 90.000000
_cell_volume 1196.451679
_symmetry_space_group_name_H-M "P C C N"
_symmetry_group_IT_number 56
_symmetry_cell_setting 'orthorhombic'
loop_
_space_group_symop_operation_xyz
x,y,z
1/2-x,1/2-y,z
1/2+x,-y,1/2-z
-x,1/2+y,1/2-z
-x,-y,-z
1/2+x,1/2+y,-z
1/2-x,y,1/2+z
x,1/2-y,1/2+z
loop_
_atom_site_type_symbol
_atom_site_label
_atom_site_fract_x
_atom_site_fract_y
_atom_site_fract_z
Si Si1 0.750000 0.250000 0.465478
Si Si2 0.662010 0.893879 0.534513
Si Si3 0.631443 0.656704 0.812979
Si Si4 0.948784 0.312427 0.328620
O O1 0.778289 0.418441 0.528864
O O2 0.864975 0.194862 0.397540
O O3 0.750000 0.750000 0.580146
O O4 0.620839 0.820458 0.429450
O O5 0.546799 0.907994 0.603912
O O6 0.750000 0.750000 0.771335
O O7 0.508709 0.719212 0.762028
O O8 0.640743 0.458019 0.786980
#
# Coordination Sequence:
#
# PCOD8229124 Si02
#       4
#     4   8   8   8
#     4  10  22  42  68  96 136 180 222 280 330 402
#     4  10  23  46  69 100 138 173 231 281 333 406
#     4  10  23  42  65  96 137 170 224 282 327 405
#     4  11  24  44  67 101 132 182 225 275 347 395
#
# _framework density 23.402532999999998
#
# number of rings (size 3 to 8) (size 9 to 14) (size 15 to 20)
#    0.000    1.714    0.000    4.286   12.000    1.143 
#   15.429    1.429    0.000    0.000    0.000    0.000 
#    0.000    0.000    0.000    0.000    0.000    0.000 
#
# Total GULP energy -347020.625792 kJ/mol
# GULP energy per Si atom -12393.593778 kJ/mol
# Density = 2.334927 g / cm^3
# Si number density = 23.402533 Si / 1000 Ang^3
#
#
#
# Elastic Constant Matrix: (Units=GPa)
#
#
# Indices 1 2 3 4 5 6 
#
# 1 97.7561 46.1788 13.8901 0.0000 0.0000 0.0000
# 2 46.1788 112.4174 27.3119 0.0000 0.0000 0.0000
# 3 13.8901 27.3119 58.3218 0.0000 0.0000 0.0000
# 4 0.0000 0.0000 0.0000 16.2061 0.0000 0.0000
# 5 0.0000 0.0000 0.0000 0.0000 7.2711 0.0000
# 6 0.0000 0.0000 0.0000 0.0000 0.0000 50.3240
#
#
#
# Elastic Compliance Matrix: (Units=1/GPa)
#
#
# Indices 1 2 3 4 5 6 
#
# 1 0.012715 -0.005063 -0.000657 0.000000 0.000000 0.000000
# 2 -0.005063 0.012054 -0.004439 0.000000 0.000000 0.000000
# 3 -0.000657 -0.004439 0.019381 0.000000 0.000000 0.000000
# 4 0.000000 0.000000 0.000000 0.061705 0.000000 0.000000
# 5 0.000000 0.000000 0.000000 0.000000 0.137531 0.000000
# 6 0.000000 0.000000 0.000000 0.000000 0.000000 0.019871
#
#
# Mechanical properties :
#
#
# Convention : Reuss Voigt Hill
#
# Bulk Modulus (GPa) = 41.96126 49.25076 45.60601
# Shear Modulus (GPa) = 17.15151 26.83454 21.99302
#
# Velocity S-wave (km/s) = 2.71013 3.38990 3.06889
# Velocity P-wave (km/s) = 5.26899 6.03429 5.66458
#
# Compressibility (1/GPa) = 0.02383151
#
# Stress axis : x y z
#
# Youngs Moduli (GPa) = 78.64883 82.96170 51.59585
#
# Poissons Ratio (x) = 0.42006 0.03390
# Poissons Ratio (y) = 0.39823 0.22903
# Poissons Ratio (z) = 0.05168 0.36825
#
# Static dielectric constant tensor:
#      x y z
#    x 4.585360 0.000000 0.000000 
#    y 0.000000 4.214400 0.000000 
#    z 0.000000 0.000000 3.976540 
# 
# 
# High freq. dielectric constant tensor:
#      x y z
#    x 1.934020 0.000000 0.000000 
#    y 0.000000 1.921850 0.000000 
#    z 0.000000 0.000000 1.917600 
# 
# From -- ./inp_files/9976.got.cif
#   From: 2010.03.12/outbox.cif.g09.slc.cpg/sg56_5_cif.got.tgz:9976.got - 2010.04.16 15:33:40.
