data_PCOD8229073
_publ_section_title
;
Structure prediction by ZEFSAII (Michael W. Deem and Ramdas Pophale) SiO2 
 PCOD8229073
Probable space group: P C C N
;
_chemical_formula_sum "Si O2"
_cell_formula_units_Z 48
_cell_length_a 8.189109
_cell_length_b 15.095481
_cell_length_c 17.758200
_cell_angle_alpha 90.000000
_cell_angle_beta 90.000000
_cell_angle_gamma 90.000000
_cell_volume 2195.242745
_symmetry_space_group_name_H-M "P C C N"
_symmetry_group_IT_number 56
_symmetry_cell_setting 'orthorhombic'
loop_
_space_group_symop_operation_xyz
x,y,z
1/2-x,1/2-y,z
1/2+x,-y,1/2-z
-x,1/2+y,1/2-z
-x,-y,-z
1/2+x,1/2+y,-z
1/2-x,y,1/2+z
x,1/2-y,1/2+z
loop_
_atom_site_type_symbol
_atom_site_label
_atom_site_fract_x
_atom_site_fract_y
_atom_site_fract_z
Si Si1 0.450302 0.411159 0.039806
Si Si2 0.047222 0.602870 0.757602
Si Si3 0.558235 0.261320 0.470034
Si Si4 0.857614 0.838480 0.402779
Si Si5 0.419402 0.580191 0.799134
Si Si6 0.061514 0.224676 0.311090
O O1 0.259298 0.413942 0.062159
O O2 0.556620 0.391683 0.114367
O O3 0.500000 0.500000 0.000000
O O4 0.476429 0.334544 0.978711
O O5 0.927349 0.622511 0.826448
O O6 0.981524 0.519481 0.711412
O O7 0.049567 0.689210 0.704889
O O8 0.229122 0.584708 0.783718
O O9 0.750000 0.250000 0.466128
O O10 0.507938 0.321698 0.540906
O O11 0.485906 0.306958 0.394951
O O12 0.750000 0.750000 0.387588
O O13 0.522904 0.645816 0.746507
O O14 0.250000 0.250000 0.304452
#
# Coordination Sequence:
#
# PCOD8229073 Si02
#       6
#     8   8   8   8   8   8
#     4  11  23  42  64  92 126 165 211 263 315 372
#     4  12  24  43  65  94 130 168 214 265 320 379
#     4  11  23  41  64  93 126 168 211 256 315 380
#     4  10  22  41  65  91 126 171 212 259 318 378
#     4  12  26  42  66  97 127 169 214 263 318 380
#     4  12  24  43  67  95 130 169 212 264 318 377
#
# _framework density 21.865462999999998
#
# number of rings (size 3 to 8) (size 9 to 14) (size 15 to 20)
#    0.000    0.667    0.000   10.500    0.000    2.667 
#    0.000    2.500    0.000    0.000    0.000    0.000 
#    0.000    0.000    0.000    0.000    0.000    0.000 
#
# Total GULP energy -595476.235531 kJ/mol
# GULP energy per Si atom -12405.754907 kJ/mol
# Density = 2.181570 g / cm^3
# Si number density = 21.865463 Si / 1000 Ang^3
#
#
#
# Elastic Constant Matrix: (Units=GPa)
#
#
# Indices 1 2 3 4 5 6 
#
# 1 119.3760 -1.3530 17.4032 0.0000 0.0000 0.0000
# 2 -1.3530 77.7938 15.6426 0.0000 0.0000 0.0000
# 3 17.4032 15.6426 98.9113 0.0000 0.0000 0.0000
# 4 0.0000 0.0000 0.0000 41.6665 0.0000 0.0000
# 5 0.0000 0.0000 0.0000 0.0000 30.3638 0.0000
# 6 0.0000 0.0000 0.0000 0.0000 0.0000 34.8695
#
#
#
# Elastic Compliance Matrix: (Units=1/GPa)
#
#
# Indices 1 2 3 4 5 6 
#
# 1 0.008614 0.000470 -0.001590 0.000000 0.000000 0.000000
# 2 0.000470 0.013302 -0.002186 0.000000 0.000000 0.000000
# 3 -0.001590 -0.002186 0.010736 0.000000 0.000000 0.000000
# 4 0.000000 0.000000 0.000000 0.024000 0.000000 0.000000
# 5 0.000000 0.000000 0.000000 0.000000 0.032934 0.000000
# 6 0.000000 0.000000 0.000000 0.000000 0.000000 0.028678
#
#
# Mechanical properties :
#
#
# Convention : Reuss Voigt Hill
#
# Bulk Modulus (GPa) = 38.40473 39.94074 39.17273
# Shear Modulus (GPa) = 37.43716 39.00585 38.22151
#
# Velocity S-wave (km/s) = 4.14231 4.22821 4.18548
# Velocity P-wave (km/s) = 6.36244 6.49178 6.42743
#
# Compressibility (1/GPa) = 0.02603846
#
# Stress axis : x y z
#
# Youngs Moduli (GPa) = 116.09021 75.17506 93.14831
#
# Poissons Ratio (x) = -0.03529 0.14809
# Poissons Ratio (y) = -0.05450 0.20365
# Poissons Ratio (z) = 0.18457 0.16436
#
# Static dielectric constant tensor:
#      x y z
#    x 4.130310 0.000000 0.000000 
#    y 0.000000 4.060220 0.000000 
#    z 0.000000 0.000000 4.155110 
# 
# 
# High freq. dielectric constant tensor:
#      x y z
#    x 1.875710 0.000000 0.000000 
#    y 0.000000 1.852780 0.000000 
#    z 0.000000 0.000000 1.875210 
# 
# From -- ./inp_files/14845.got.cif
#   From: 2010.03.12/outbox.cif.g09.slc.cpg/sg56_8_cif.got.tgz:14845.got - 2010.04.16 15:33:40.
