data_PCOD8229851
_publ_section_title
;
Structure prediction by ZEFSAII (Michael W. Deem and Ramdas Pophale) SiO2 
 PCOD8229851
Probable space group: P C C N
;
_chemical_formula_sum "Si O2"
_cell_formula_units_Z 36
_cell_length_a 7.795446
_cell_length_b 19.613112
_cell_length_c 9.563958
_cell_angle_alpha 90.000000
_cell_angle_beta 90.000000
_cell_angle_gamma 90.000000
_cell_volume 1462.261805
_symmetry_space_group_name_H-M "P C C N"
_symmetry_group_IT_number 56
_symmetry_cell_setting 'orthorhombic'
loop_
_space_group_symop_operation_xyz
x,y,z
1/2-x,1/2-y,z
1/2+x,-y,1/2-z
-x,1/2+y,1/2-z
-x,-y,-z
1/2+x,1/2+y,-z
1/2-x,y,1/2+z
x,1/2-y,1/2+z
loop_
_atom_site_type_symbol
_atom_site_label
_atom_site_fract_x
_atom_site_fract_y
_atom_site_fract_z
Si Si1 0.750000 0.250000 0.721335
Si Si2 0.291319 0.381578 0.868764
Si Si3 0.806583 0.022982 0.516626
Si Si4 0.390499 0.303706 0.146797
Si Si5 0.846045 0.392381 0.274470
O O1 0.577678 0.231950 0.631776
O O2 0.724203 0.317392 0.815759
O O3 0.288705 0.456968 0.929398
O O4 0.124197 0.359981 0.774674
O O5 0.450181 0.385271 0.763142
O O6 0.333821 0.331310 0.996413
O O7 0.718918 0.048117 0.375292
O O8 0.782850 0.086877 0.620528
O O9 0.000000 0.000000 0.500000
O O10 0.250000 0.250000 0.198130
#
# Coordination Sequence:
#
# PCOD8229851 Si02
#       5
#     4   8   8   8   8
#     4  12  28  48  78 110 156 196 262 306 396 464
#     4  12  26  49  78 110 154 201 260 321 386 460
#     4  12  26  46  75 108 152 198 264 316 395 455
#     4  12  26  50  76 113 153 201 253 317 385 460
#     4  12  26  47  73 112 148 208 250 326 382 470
#
# _framework density 24.619394
#
# number of rings (size 3 to 8) (size 9 to 14) (size 15 to 20)
#    0.000    0.000    2.222    8.000    0.000    3.556 
#    0.000    0.000    0.000    0.000    0.000    0.000 
#    0.000    0.000    0.000    0.000    0.000    0.000 
#
# Total GULP energy -446218.977235 kJ/mol
# GULP energy per Si atom -12394.971590 kJ/mol
# Density = 2.456336 g / cm^3
# Si number density = 24.619394 Si / 1000 Ang^3
#
#
#
# Elastic Constant Matrix: (Units=GPa)
#
#
# Indices 1 2 3 4 5 6 
#
# 1 128.7251 31.8120 21.7028 0.0000 0.0000 0.0000
# 2 31.8120 129.8820 16.6079 0.0000 0.0000 0.0000
# 3 21.7028 16.6079 101.0474 0.0000 0.0000 0.0000
# 4 0.0000 0.0000 0.0000 39.2925 0.0000 0.0000
# 5 0.0000 0.0000 0.0000 0.0000 35.9536 0.0000
# 6 0.0000 0.0000 0.0000 0.0000 0.0000 46.0268
#
#
#
# Elastic Compliance Matrix: (Units=1/GPa)
#
#
# Indices 1 2 3 4 5 6 
#
# 1 0.008490 -0.001886 -0.001513 0.000000 0.000000 0.000000
# 2 -0.001886 0.008283 -0.000956 0.000000 0.000000 0.000000
# 3 -0.001513 -0.000956 0.010379 0.000000 0.000000 0.000000
# 4 0.000000 0.000000 0.000000 0.025450 0.000000 0.000000
# 5 0.000000 0.000000 0.000000 0.000000 0.027814 0.000000
# 6 0.000000 0.000000 0.000000 0.000000 0.000000 0.021726
#
#
# Mechanical properties :
#
#
# Convention : Reuss Voigt Hill
#
# Bulk Modulus (GPa) = 54.22890 55.54444 54.88667
# Shear Modulus (GPa) = 42.73492 43.55669 43.14581
#
# Velocity S-wave (km/s) = 4.17084 4.21075 4.19084
# Velocity P-wave (km/s) = 6.72824 6.80079 6.76462
#
# Compressibility (1/GPa) = 0.01844035
#
# Stress axis : x y z
#
# Youngs Moduli (GPa) = 117.78960 120.72199 96.35217
#
# Poissons Ratio (x) = 0.22767 0.14582
# Poissons Ratio (y) = 0.22213 0.09215
# Poissons Ratio (z) = 0.17827 0.11546
#
# Static dielectric constant tensor:
#      x y z
#    x 4.622670 0.000000 0.000000 
#    y 0.000000 4.961170 0.000000 
#    z 0.000000 0.000000 4.298490 
# 
# 
# High freq. dielectric constant tensor:
#      x y z
#    x 1.988110 0.000000 0.000000 
#    y 0.000000 2.003170 0.000000 
#    z 0.000000 0.000000 1.969430 
# 
# From -- ./inp_files/1981.got.cif
#   From: 2010.03.12/outbox.cif.g09.slc.cpg/sg56_1_cif.got.tgz:1981.got - 2010.04.16 15:33:40.
